data_PCOD9415982
_publ_section_title
;
Structure prediction by ZEFSAII (Michael W. Deem and Ramdas Pophale) SiO2 
 PCOD9415982
Probable space group: P M N A
;
_chemical_formula_sum "Si O2"
_cell_formula_units_Z 64
_cell_length_a 8.940833
_cell_length_b 17.622272
_cell_length_c 20.553720
_cell_angle_alpha 90.000000
_cell_angle_beta 90.000000
_cell_angle_gamma 90.000000
_cell_volume 3238.398721
_symmetry_space_group_name_H-M "P M N A"
_symmetry_group_IT_number 53
_symmetry_cell_setting 'orthorhombic'
loop_
_space_group_symop_operation_xyz
x,y,z
1/2-x,-y,1/2+z
x,-y,-z
1/2-x,y,1/2-z
-x,-y,-z
1/2+x,y,1/2-z
-x,y,z
1/2+x,-y,1/2+z
loop_
_atom_site_type_symbol
_atom_site_label
_atom_site_fract_x
_atom_site_fract_y
_atom_site_fract_z
Si Si1 0.319907 0.623774 0.818132
Si Si2 0.680562 0.786248 0.651641
Si Si3 0.667488 0.692434 0.431413
Si Si4 0.680246 0.056888 0.187217
Si Si5 0.321245 0.221734 0.821084
Si Si6 0.334059 0.155417 0.486228
Si Si7 0.822380 0.418838 0.465660
Si Si8 0.178007 0.072907 0.593713
O O1 0.250000 0.593054 0.750000
O O2 0.500000 0.622644 0.812587
O O3 0.259311 0.709982 0.824705
O O4 0.278441 0.585996 0.888696
O O5 0.500000 0.778153 0.656529
O O6 0.739506 0.862236 0.684719
O O7 0.727960 0.804553 0.577691
O O8 0.500000 0.665204 0.415556
O O9 0.763067 0.709539 0.366927
O O10 0.655076 0.775071 0.463841
O O11 0.739621 0.640110 0.486975
O O12 0.750000 0.016075 0.250000
O O13 0.500000 0.063355 0.191311
O O14 0.722461 0.006948 0.124722
O O15 0.250000 0.225094 0.750000
O O16 0.500000 0.225209 0.816778
O O17 0.282095 0.141414 0.856286
O O18 0.500000 0.127064 0.470142
O O19 0.242846 0.092041 0.523514
O O20 0.798487 0.500000 0.500000
O O21 0.000000 0.402256 0.467011
O O22 0.000000 0.073445 0.588758
#
# Coordination Sequence:
#
# PCOD9415982 Si02
#       8
#     8   8   8   8   8   8   8   8
#     4  11  23  40  65  93 123 159 197 242 292 347
#     4  11  22  38  58  83 115 151 194 245 295 350
#     4  10  19  35  58  86 117 152 194 240 288 347
#     4  11  23  38  53  75 106 147 195 246 303 360
#     4  10  19  33  54  82 113 152 199 249 302 355
#     4   9  19  34  55  81 110 145 188 237 290 348
#     4  10  22  41  65  93 123 158 195 235 288 349
#     4   9  20  35  53  76 108 148 194 246 301 356
#
# _framework density 19.762854999999998
#
# number of rings (size 3 to 8) (size 9 to 14) (size 15 to 20)
#    0.000    1.875    1.250    2.625    0.000    4.250 
#    0.000    3.125    0.000    1.500    0.000    0.000 
#    0.000    0.000    0.000    0.000    0.000    0.000 
#
# Total GULP energy -356899.471529 kJ/mol
# GULP energy per Si atom -5576.554243 kJ/mol
# Density = 1.971787 g / cm^3
# Si number density = 19.762855 Si / 1000 Ang^3
#
#
#
# Elastic Constant Matrix: (Units=GPa)
#
#
# Indices 1 2 3 4 5 6 
#
# 1 41.6640 36.1704 46.9147 0.0000 0.0000 0.0000
# 2 36.1704 53.6802 28.8510 0.0000 0.0000 0.0000
# 3 46.9147 28.8510 140.4418 0.0000 0.0000 0.0000
# 4 0.0000 0.0000 0.0000 -11.8714 0.0000 0.0000
# 5 0.0000 0.0000 0.0000 0.0000 33.9373 0.0000
# 6 0.0000 0.0000 0.0000 0.0000 0.0000 -5.0007
#
#
#
# Elastic Compliance Matrix: (Units=1/GPa)
#
#
# Indices 1 2 3 4 5 6 
#
# 1 0.088888 -0.049388 -0.019547 0.000000 0.000000 0.000000
# 2 -0.049388 0.048382 0.006559 0.000000 0.000000 0.000000
# 3 -0.019547 0.006559 0.012303 0.000000 0.000000 0.000000
# 4 0.000000 0.000000 0.000000 -0.084236 0.000000 0.000000
# 5 0.000000 0.000000 0.000000 0.000000 0.029466 0.000000
# 6 0.000000 0.000000 0.000000 0.000000 0.000000 -0.199971
#
#
# Mechanical properties :
#
#
# Convention : Reuss Voigt Hill
#
# Bulk Modulus (GPa) = 40.28994 51.07314 45.68154
# Shear Modulus (GPa) = 179.48101 11.66971 95.57536
#
# Velocity S-wave (km/s) = 9.54015 2.43263 6.96176
# Velocity P-wave (km/s) = 11.90729 5.81286 9.36944
#
# Compressibility (1/GPa) = 0.02482009
#
# Stress axis : x y z
#
# Youngs Moduli (GPa) = 11.25008 20.66886 81.28247
#
# Poissons Ratio (x) = 1.02080 1.58886
# Poissons Ratio (y) = 0.55562 -0.53313
# Poissons Ratio (z) = 0.21991 -0.13557
#
# Static dielectric constant tensor:
#      x y z
#    x 1.690550 0.000000 0.000000 
#    y 0.000000 1.694430 0.000000 
#    z 0.000000 0.000000 1.798140 
# 
# From -- ./inp_files/31110.got.cif
#   From: 2010.05.17/outbox.cif.g08.bks.cpg/sg53_16_cif.got.tgz:31110.got - 2010.06.03 12:45:16.
