data_PCOD9415067
_publ_section_title
;
Structure prediction by ZEFSAII (Michael W. Deem and Ramdas Pophale) SiO2 
 PCOD9415067
Probable space group: P M N A
;
_chemical_formula_sum "Si O2"
_cell_formula_units_Z 40
_cell_length_a 8.027528
_cell_length_b 12.228869
_cell_length_c 21.324698
_cell_angle_alpha 90.000000
_cell_angle_beta 90.000000
_cell_angle_gamma 90.000000
_cell_volume 2093.394174
_symmetry_space_group_name_H-M "P M N A"
_symmetry_group_IT_number 53
_symmetry_cell_setting 'orthorhombic'
loop_
_space_group_symop_operation_xyz
x,y,z
1/2-x,-y,1/2+z
x,-y,-z
1/2-x,y,1/2-z
-x,-y,-z
1/2+x,y,1/2-z
-x,y,z
1/2+x,-y,1/2+z
loop_
_atom_site_type_symbol
_atom_site_label
_atom_site_fract_x
_atom_site_fract_y
_atom_site_fract_z
Si Si1 0.301620 0.589257 0.944444
Si Si2 0.750000 0.041708 0.750000
Si Si3 0.500000 0.865159 0.428739
Si Si4 0.500000 0.928433 0.658654
Si Si5 0.802008 0.465627 0.682391
Si Si6 0.812069 0.777420 0.353210
Si Si7 0.500000 0.243488 0.443616
O O1 0.500000 0.621047 0.941733
O O2 0.249833 0.532227 0.878814
O O3 0.167367 0.684983 0.953615
O O4 0.287414 0.500000 0.000000
O O5 0.676597 0.128761 0.800154
O O6 0.649753 0.961095 0.704600
O O7 0.668443 0.810425 0.401442
O O8 0.500000 0.848270 0.502429
O O9 0.500000 0.984140 0.397853
O O10 0.500000 0.811974 0.625089
O O11 0.750000 0.509305 0.750000
O O12 0.753996 0.338307 0.675516
O O13 0.000000 0.466618 0.681255
O O14 0.000000 0.763326 0.379902
#
# Coordination Sequence:
#
# PCOD9415067 Si02
#       7
#     8   4   4   4   8   8   4
#     4  10  23  44  64  88 124 165 211 255 310 379
#     4  10  18  38  62  90 122 164 200 256 314 370
#     4  10  23  37  65  88 119 158 209 259 306 365
#     4  10  23  41  63  92 126 155 216 267 301 375
#     4  10  21  33  56  91 123 151 197 261 307 367
#     4  10  19  34  60  93 125 154 192 254 326 362
#     4  12  24  44  62  90 122 175 207 246 315 375
#
# _framework density 19.107724000000001
#
# number of rings (size 3 to 8) (size 9 to 14) (size 15 to 20)
#    0.000    1.800    2.000    1.800    2.800    2.400 
#    3.600    0.000    0.000    3.600    0.000    0.000 
#    0.000    0.000    0.000    0.000    0.000    0.000 
#
# Total GULP energy -222785.803427 kJ/mol
# GULP energy per Si atom -5569.645086 kJ/mol
# Density = 1.906423 g / cm^3
# Si number density = 19.107724 Si / 1000 Ang^3
#
#
#
# Elastic Constant Matrix: (Units=GPa)
#
#
# Indices 1 2 3 4 5 6 
#
# 1 86.4093 38.5908 44.1912 0.0000 0.0000 0.0000
# 2 38.5908 57.6790 43.6275 0.0000 0.0000 0.0000
# 3 44.1912 43.6275 138.4443 0.0000 0.0000 0.0000
# 4 0.0000 0.0000 0.0000 28.8439 0.0000 0.0000
# 5 0.0000 0.0000 0.0000 0.0000 32.0112 0.0000
# 6 0.0000 0.0000 0.0000 0.0000 0.0000 6.1008
#
#
#
# Elastic Compliance Matrix: (Units=1/GPa)
#
#
# Indices 1 2 3 4 5 6 
#
# 1 0.017107 -0.009605 -0.002434 0.000000 0.000000 0.000000
# 2 -0.009605 0.028156 -0.005807 0.000000 0.000000 0.000000
# 3 -0.002434 -0.005807 0.009830 0.000000 0.000000 0.000000
# 4 0.000000 0.000000 0.000000 0.034669 0.000000 0.000000
# 5 0.000000 0.000000 0.000000 0.000000 0.031239 0.000000
# 6 0.000000 0.000000 0.000000 0.000000 0.000000 0.163914
#
#
# Mechanical properties :
#
#
# Convention : Reuss Voigt Hill
#
# Bulk Modulus (GPa) = 51.54148 59.48352 55.51250
# Shear Modulus (GPa) = 15.28710 23.79938 19.54324
#
# Velocity S-wave (km/s) = 2.83158 3.53305 3.20158
# Velocity P-wave (km/s) = 6.14192 6.91675 6.54082
#
# Compressibility (1/GPa) = 0.01940185
#
# Stress axis : x y z
#
# Youngs Moduli (GPa) = 58.45533 35.51675 101.73077
#
# Poissons Ratio (x) = 0.34113 0.24759
# Poissons Ratio (y) = 0.56145 0.59073
# Poissons Ratio (z) = 0.14227 0.20624
#
# Static dielectric constant tensor:
#      x y z
#    x 1.705160 0.000000 0.000000 
#    y 0.000000 1.663950 0.000000 
#    z 0.000000 0.000000 1.699050 
# 
# From -- ./inp_files/30431.got.cif
#   From: 2010.05.17/outbox.cif.g08.bks.cpg/sg53_16_cif.got.tgz:30431.got - 2010.06.03 12:45:16.
