data_PCOD9415454
_publ_section_title
;
Structure prediction by ZEFSAII (Michael W. Deem and Ramdas Pophale) SiO2 
 PCOD9415454
Probable space group: P M N A
;
_chemical_formula_sum "Si O2"
_cell_formula_units_Z 48
_cell_length_a 8.439410
_cell_length_b 15.404431
_cell_length_c 21.143623
_cell_angle_alpha 90.000000
_cell_angle_beta 90.000000
_cell_angle_gamma 90.000000
_cell_volume 2748.762098
_symmetry_space_group_name_H-M "P M N A"
_symmetry_group_IT_number 53
_symmetry_cell_setting 'orthorhombic'
loop_
_space_group_symop_operation_xyz
x,y,z
1/2-x,-y,1/2+z
x,-y,-z
1/2-x,y,1/2-z
-x,-y,-z
1/2+x,y,1/2-z
-x,y,z
1/2+x,-y,1/2+z
loop_
_atom_site_type_symbol
_atom_site_label
_atom_site_fract_x
_atom_site_fract_y
_atom_site_fract_z
Si Si1 0.807007 0.419813 0.957386
Si Si2 0.813620 0.012860 0.813820
Si Si3 0.190427 0.622987 0.183826
Si Si4 0.313321 0.226935 0.508162
Si Si5 0.313883 0.807323 0.143774
Si Si6 0.812561 0.063354 0.442117
O O1 0.761732 0.421650 0.882982
O O2 0.758344 0.327013 0.986988
O O3 0.000000 0.419931 0.957988
O O4 0.751910 0.500000 0.000000
O O5 0.750000 0.968811 0.750000
O O6 0.724907 0.105066 0.819805
O O7 0.000000 0.027607 0.809098
O O8 0.774024 0.961584 0.877690
O O9 0.250000 0.583550 0.250000
O O10 0.261752 0.719879 0.178784
O O11 0.000000 0.628315 0.184929
O O12 0.500000 0.225399 0.493635
O O13 0.284179 0.190969 0.578740
O O14 0.222954 0.161859 0.462204
O O15 0.500000 0.803462 0.129185
O O16 0.000000 0.049499 0.433432
O O17 0.761413 0.000000 0.500000
#
# Coordination Sequence:
#
# PCOD9415454 Si02
#       6
#     8   8   8   8   8   8
#     4   8  16  32  54  79 105 134 173 218 264 315
#     4  12  24  37  53  74 105 141 182 225 269 318
#     4  10  19  31  49  74 104 137 170 209 260 317
#     4  10  19  32  54  81 105 137 179 221 266 314
#     4  11  20  32  49  73 106 140 174 212 260 315
#     4  11  22  36  55  78 107 143 182 221 262 311
#
# _framework density 17.462406999999999
#
# number of rings (size 3 to 8) (size 9 to 14) (size 15 to 20)
#    0.000    1.667    1.667    6.000    0.000    0.667 
#    0.000    0.000    0.000   19.000    0.000    2.333 
#    0.000    0.000    0.000    0.000    0.000    0.000 
#
# Total GULP energy -267899.162357 kJ/mol
# GULP energy per Si atom -5581.232549 kJ/mol
# Density = 1.742266 g / cm^3
# Si number density = 17.462407 Si / 1000 Ang^3
#
#
#
# Elastic Constant Matrix: (Units=GPa)
#
#
# Indices 1 2 3 4 5 6 
#
# 1 37.8576 3.9736 2.9528 0.0000 0.0000 0.0000
# 2 3.9736 74.5363 52.4464 0.0000 0.0000 0.0000
# 3 2.9528 52.4464 112.1275 0.0000 0.0000 0.0000
# 4 0.0000 0.0000 0.0000 17.7771 0.0000 0.0000
# 5 0.0000 0.0000 0.0000 0.0000 24.7904 0.0000
# 6 0.0000 0.0000 0.0000 0.0000 0.0000 11.2688
#
#
#
# Elastic Compliance Matrix: (Units=1/GPa)
#
#
# Indices 1 2 3 4 5 6 
#
# 1 0.026564 -0.001377 -0.000055 0.000000 0.000000 0.000000
# 2 -0.001377 0.020069 -0.009351 0.000000 0.000000 0.000000
# 3 -0.000055 -0.009351 0.013294 0.000000 0.000000 0.000000
# 4 0.000000 0.000000 0.000000 0.056252 0.000000 0.000000
# 5 0.000000 0.000000 0.000000 0.000000 0.040338 0.000000
# 6 0.000000 0.000000 0.000000 0.000000 0.000000 0.088740
#
#
# Mechanical properties :
#
#
# Convention : Reuss Voigt Hill
#
# Bulk Modulus (GPa) = 26.06903 38.14077 32.10490
# Shear Modulus (GPa) = 17.88199 21.77717 19.82958
#
# Velocity S-wave (km/s) = 3.20351 3.53525 3.37346
# Velocity P-wave (km/s) = 5.35205 6.20911 5.79644
#
# Compressibility (1/GPa) = 0.03835969
#
# Stress axis : x y z
#
# Youngs Moduli (GPa) = 37.64542 49.82712 75.22362
#
# Poissons Ratio (x) = 0.06862 0.00416
# Poissons Ratio (y) = 0.05185 0.70341
# Poissons Ratio (z) = 0.00208 0.46593
#
# Static dielectric constant tensor:
#      x y z
#    x 1.582550 0.000000 0.000000 
#    y 0.000000 1.585010 0.000000 
#    z 0.000000 0.000000 1.626490 
# 
# From -- ./inp_files/30514.got.cif
#   From: 2010.05.17/outbox.cif.g08.bks.cpg/sg53_16_cif.got.tgz:30514.got - 2010.06.03 12:45:16.
