data_PCOD9415600
_publ_section_title
;
Structure prediction by ZEFSAII (Michael W. Deem and Ramdas Pophale) SiO2 
 PCOD9415600
Probable space group: P M N A
;
_chemical_formula_sum "Si O2"
_cell_formula_units_Z 64
_cell_length_a 8.631767
_cell_length_b 15.378149
_cell_length_c 30.652627
_cell_angle_alpha 90.000000
_cell_angle_beta 90.000000
_cell_angle_gamma 90.000000
_cell_volume 4068.848071
_symmetry_space_group_name_H-M "P M N A"
_symmetry_group_IT_number 53
_symmetry_cell_setting 'orthorhombic'
loop_
_space_group_symop_operation_xyz
x,y,z
1/2-x,-y,1/2+z
x,-y,-z
1/2-x,y,1/2-z
-x,-y,-z
1/2+x,y,1/2-z
-x,y,z
1/2+x,-y,1/2+z
loop_
_atom_site_type_symbol
_atom_site_label
_atom_site_fract_x
_atom_site_fract_y
_atom_site_fract_z
Si Si1 0.813119 0.947299 0.435115
Si Si2 0.187583 0.534918 0.607769
Si Si3 0.314028 0.366860 0.557253
Si Si4 0.815142 0.205302 0.882543
Si Si5 0.312411 0.675243 0.963117
Si Si6 0.814844 0.289622 0.703679
Si Si7 0.313682 0.492764 0.796520
Si Si8 0.811857 0.127204 0.469907
O O1 0.743806 0.888486 0.397431
O O2 0.768410 0.901897 0.481124
O O3 0.000000 0.945253 0.432540
O O4 0.762969 0.047936 0.438589
O O5 0.251488 0.448271 0.584719
O O6 0.234212 0.616634 0.578039
O O7 0.236485 0.538553 0.658504
O O8 0.000000 0.529445 0.607355
O O9 0.500000 0.370141 0.556048
O O10 0.264792 0.278142 0.581920
O O11 0.249523 0.364847 0.508221
O O12 0.749327 0.235268 0.836408
O O13 0.000000 0.206188 0.881211
O O14 0.500000 0.675158 0.965228
O O15 0.258528 0.775463 0.959935
O O16 0.750000 0.259057 0.750000
O O17 0.766911 0.391100 0.698710
O O18 0.000000 0.286956 0.703812
O O19 0.250000 0.524643 0.750000
O O20 0.500000 0.495942 0.794337
O O21 0.000000 0.128244 0.468910
#
# Coordination Sequence:
#
# PCOD9415600 Si02
#       8
#     8   8   8   8   8   8   8   8
#     4   9  16  29  49  68  89 119 156 195 238 281
#     4  10  20  33  48  68  91 123 161 194 230 278
#     4  11  22  32  43  64  97 131 162 193 226 272
#     4  11  21  31  45  69  97 127 161 193 231 280
#     4  10  19  32  50  67  91 125 162 200 235 274
#     4  10  19  32  50  69  93 123 154 193 235 281
#     4   9  18  31  47  67  90 116 151 190 230 273
#     4   8  15  28  47  70  90 115 155 200 237 277
#
# _framework density 15.729267999999999
#
# number of rings (size 3 to 8) (size 9 to 14) (size 15 to 20)
#    0.000    2.250    2.500    2.250    0.000    4.000 
#    0.000    1.875    0.000    0.000    0.000    0.875 
#    0.000    2.000    0.000    0.000    0.000    0.000 
#
# Total GULP energy -356883.710411 kJ/mol
# GULP energy per Si atom -5576.307975 kJ/mol
# Density = 1.569347 g / cm^3
# Si number density = 15.729268 Si / 1000 Ang^3
#
#
#
# Elastic Constant Matrix: (Units=GPa)
#
#
# Indices 1 2 3 4 5 6 
#
# 1 12.2520 14.1835 24.3785 0.0000 0.0000 0.0000
# 2 14.1835 77.0095 56.3602 0.0000 0.0000 0.0000
# 3 24.3785 56.3602 144.9044 0.0000 0.0000 0.0000
# 4 0.0000 0.0000 0.0000 17.2369 0.0000 0.0000
# 5 0.0000 0.0000 0.0000 0.0000 20.4942 0.0000
# 6 0.0000 0.0000 0.0000 0.0000 0.0000 33.6975
#
#
#
# Elastic Compliance Matrix: (Units=1/GPa)
#
#
# Indices 1 2 3 4 5 6 
#
# 1 0.129043 -0.011013 -0.017426 0.000000 0.000000 0.000000
# 2 -0.011013 0.019093 -0.005573 0.000000 0.000000 0.000000
# 3 -0.017426 -0.005573 0.012001 0.000000 0.000000 0.000000
# 4 0.000000 0.000000 0.000000 0.058015 0.000000 0.000000
# 5 0.000000 0.000000 0.000000 0.000000 0.048794 0.000000
# 6 0.000000 0.000000 0.000000 0.000000 0.000000 0.029676
#
#
# Mechanical properties :
#
#
# Convention : Reuss Voigt Hill
#
# Bulk Modulus (GPa) = 10.85648 47.11222 28.98435
# Shear Modulus (GPa) = 12.64699 23.56865 18.10782
#
# Velocity S-wave (km/s) = 2.83864 3.87511 3.39664
# Velocity P-wave (km/s) = 4.20249 7.07382 5.81807
#
# Compressibility (1/GPa) = 0.09211090
#
# Stress axis : x y z
#
# Youngs Moduli (GPa) = 7.74933 52.37635 83.32936
#
# Poissons Ratio (x) = 0.57683 1.45214
# Poissons Ratio (y) = 0.08535 0.46441
# Poissons Ratio (z) = 0.13504 0.29190
#
# Static dielectric constant tensor:
#      x y z
#    x 1.532700 0.000000 0.000000 
#    y 0.000000 1.525560 0.000000 
#    z 0.000000 0.000000 1.520770 
# 
# From -- ./inp_files/38396.got.cif
#   From: 2010.05.17/outbox.cif.g08.bks.cpg/sg53_20_cif.got.tgz:38396.got - 2010.06.03 12:45:16.
