data_PCOD9415316
_publ_section_title
;
Structure prediction by ZEFSAII (Michael W. Deem and Ramdas Pophale) SiO2 
 PCOD9415316
Probable space group: P M N A
;
_chemical_formula_sum "Si O2"
_cell_formula_units_Z 64
_cell_length_a 8.942605
_cell_length_b 23.748764
_cell_length_c 17.781038
_cell_angle_alpha 90.000000
_cell_angle_beta 90.000000
_cell_angle_gamma 90.000000
_cell_volume 3776.262449
_symmetry_space_group_name_H-M "P M N A"
_symmetry_group_IT_number 53
_symmetry_cell_setting 'orthorhombic'
loop_
_space_group_symop_operation_xyz
x,y,z
1/2-x,-y,1/2+z
x,-y,-z
1/2-x,y,1/2-z
-x,-y,-z
1/2+x,y,1/2-z
-x,y,z
1/2+x,-y,1/2+z
loop_
_atom_site_type_symbol
_atom_site_label
_atom_site_fract_x
_atom_site_fract_y
_atom_site_fract_z
Si Si1 0.822000 0.182878 0.325789
Si Si2 0.830084 0.459231 0.926997
Si Si3 0.679289 0.135903 0.552855
Si Si4 0.820555 0.241280 0.482249
Si Si5 0.820815 0.076555 0.104404
Si Si6 0.680713 0.564488 0.667998
Si Si7 0.180470 0.043841 0.831859
Si Si8 0.178835 0.370642 0.473736
O O1 0.750000 0.205789 0.250000
O O2 0.779272 0.218973 0.398974
O O3 0.760836 0.120133 0.340737
O O4 0.000000 0.181978 0.319354
O O5 0.781544 0.500606 0.859784
O O6 0.000000 0.439582 0.912877
O O7 0.835663 0.500000 0.000000
O O8 0.727104 0.408741 0.955236
O O9 0.500000 0.141738 0.555285
O O10 0.750218 0.196847 0.539899
O O11 0.714881 0.097635 0.479565
O O12 0.729329 0.100039 0.624536
O O13 0.775860 0.306166 0.488400
O O14 0.000000 0.238093 0.488555
O O15 0.000000 0.082036 0.114464
O O16 0.779628 0.012379 0.121380
O O17 0.750000 0.575781 0.750000
O O18 0.500000 0.568936 0.669578
O O19 0.744619 0.604924 0.602139
O O20 0.250000 0.039970 0.750000
O O21 0.000000 0.044881 0.827037
O O22 0.000000 0.373268 0.463579
#
# Coordination Sequence:
#
# PCOD9415316 Si02
#       8
#     8   8   8   8   8   8   8   8
#     4  10  19  31  45  64  94 127 159 194 234 282
#     4   8  16  31  49  71  99 129 160 195 234 276
#     4   9  18  33  52  71  92 124 163 200 240 287
#     4   9  20  35  49  69  96 126 162 203 240 277
#     4   9  17  31  50  70  93 121 155 195 239 290
#     4  10  20  33  50  75 107 136 162 196 239 284
#     4  10  20  32  48  72  98 122 152 194 245 297
#     4  10  19  32  51  74  99 129 166 203 240 284
#
# _framework density 16.947975
#
# number of rings (size 3 to 8) (size 9 to 14) (size 15 to 20)
#    0.000    2.625    0.000    2.625    0.000    8.250 
#    0.000    1.250    0.000    4.500    0.000    0.000 
#    0.000    0.000    0.000    0.000    0.000    0.000 
#
# Total GULP energy -356732.159445 kJ/mol
# GULP energy per Si atom -5573.939991 kJ/mol
# Density = 1.690940 g / cm^3
# Si number density = 16.947975 Si / 1000 Ang^3
#
#
#
# Elastic Constant Matrix: (Units=GPa)
#
#
# Indices 1 2 3 4 5 6 
#
# 1 28.6593 39.5409 16.9208 0.0000 0.0000 0.0000
# 2 39.5409 133.7222 36.3051 0.0000 0.0000 0.0000
# 3 16.9208 36.3051 35.9407 0.0000 0.0000 0.0000
# 4 0.0000 0.0000 0.0000 10.8569 0.0000 0.0000
# 5 0.0000 0.0000 0.0000 0.0000 24.8083 0.0000
# 6 0.0000 0.0000 0.0000 0.0000 0.0000 25.4216
#
#
#
# Elastic Compliance Matrix: (Units=1/GPa)
#
#
# Indices 1 2 3 4 5 6 
#
# 1 0.064514 -0.014923 -0.015299 0.000000 0.000000 0.000000
# 2 -0.014923 0.013756 -0.006870 0.000000 0.000000 0.000000
# 3 -0.015299 -0.006870 0.041966 0.000000 0.000000 0.000000
# 4 0.000000 0.000000 0.000000 0.092107 0.000000 0.000000
# 5 0.000000 0.000000 0.000000 0.000000 0.040309 0.000000
# 6 0.000000 0.000000 0.000000 0.000000 0.000000 0.039337
#
#
# Mechanical properties :
#
#
# Convention : Reuss Voigt Hill
#
# Bulk Modulus (GPa) = 21.71422 42.65063 32.18242
# Shear Modulus (GPa) = 13.10536 19.25438 16.17987
#
# Velocity S-wave (km/s) = 2.78379 3.37425 3.09314
# Velocity P-wave (km/s) = 4.81381 6.35618 5.63798
#
# Compressibility (1/GPa) = 0.04605278
#
# Stress axis : x y z
#
# Youngs Moduli (GPa) = 15.50041 72.69604 23.82896
#
# Poissons Ratio (x) = 1.08484 0.36456
# Poissons Ratio (y) = 0.23131 0.16370
# Poissons Ratio (z) = 0.23714 0.49940
#
# Static dielectric constant tensor:
#      x y z
#    x 1.572250 0.000000 0.000000 
#    y 0.000000 1.575690 0.000000 
#    z 0.000000 0.000000 1.565550 
# 
# From -- ./inp_files/26856.got.cif
#   From: 2010.05.17/outbox.cif.g08.bks.cpg/sg53_14_cif.got.tgz:26856.got - 2010.06.03 12:45:16.
