data_PCOD9415000
_publ_section_title
;
Structure prediction by ZEFSAII (Michael W. Deem and Ramdas Pophale) SiO2 
 PCOD9415000
Probable space group: P M N A
;
_chemical_formula_sum "Si O2"
_cell_formula_units_Z 26
_cell_length_a 9.787444
_cell_length_b 7.625794
_cell_length_c 13.615562
_cell_angle_alpha 90.000000
_cell_angle_beta 90.000000
_cell_angle_gamma 90.000000
_cell_volume 1016.225133
_symmetry_space_group_name_H-M "P M N A"
_symmetry_group_IT_number 53
_symmetry_cell_setting 'orthorhombic'
loop_
_space_group_symop_operation_xyz
x,y,z
1/2-x,-y,1/2+z
x,-y,-z
1/2-x,y,1/2-z
-x,-y,-z
1/2+x,y,1/2-z
-x,y,z
1/2+x,-y,1/2+z
loop_
_atom_site_type_symbol
_atom_site_label
_atom_site_fract_x
_atom_site_fract_y
_atom_site_fract_z
Si Si1 0.000000 0.017313 0.832037
Si Si2 0.000000 0.266343 0.315620
Si Si3 0.793706 0.250999 0.922253
Si Si4 0.250000 0.490074 0.250000
Si Si5 0.500000 0.500000 0.500000
Si Si6 0.500000 0.884607 0.111116
O O1 0.132981 0.071277 0.891227
O O2 0.000000 0.130270 0.730088
O O3 0.000000 0.824543 0.791414
O O4 0.137277 0.380097 0.310844
O O5 0.000000 0.099651 0.390693
O O6 0.818449 0.384489 0.830884
O O7 0.879598 0.346599 0.005131
O O8 0.635197 0.208200 0.928905
#
# Coordination Sequence:
#
# PCOD9415000 Si02
#       6
#     4   4   8   4   2   4
#     4   9  17  34  53  85 109 152 179 226 276 342
#     4  10  20  28  54  94 114 138 186 244 282 322
#     4  11  20  37  59  83 118 150 192 231 286 330
#     4  12  18  32  58  90 118 134 186 254 278 316
#     4  10  26  38  56  84 114 150 190 240 286 340
#     4  10  18  34  57  82 104 157 188 227 269 351
#
# _framework density 25.584882
#
# number of rings (size 3 to 8) (size 9 to 14) (size 15 to 20)
#    0.923    0.615    3.077    4.615    0.000    0.615 
#    0.000    0.000    0.000   35.077    0.000    0.000 
#    0.000    0.000    0.000    0.000    0.000    0.000 
#
# Total GULP energy -144801.591772 kJ/mol
# GULP energy per Si atom -5569.291991 kJ/mol
# Density = 2.552665 g / cm^3
# Si number density = 25.584882 Si / 1000 Ang^3
#
#
#
# Elastic Constant Matrix: (Units=GPa)
#
#
# Indices 1 2 3 4 5 6 
#
# 1 218.2007 36.3820 28.6282 0.0000 0.0000 0.0000
# 2 36.3820 94.3962 25.8616 0.0000 0.0000 0.0000
# 3 28.6282 25.8616 56.1957 0.0000 0.0000 0.0000
# 4 0.0000 0.0000 0.0000 43.9217 0.0000 0.0000
# 5 0.0000 0.0000 0.0000 0.0000 19.5848 0.0000
# 6 0.0000 0.0000 0.0000 0.0000 0.0000 -118.0262
#
#
#
# Elastic Compliance Matrix: (Units=1/GPa)
#
#
# Indices 1 2 3 4 5 6 
#
# 1 0.005074 -0.001427 -0.001928 0.000000 0.000000 0.000000
# 2 -0.001427 0.012524 -0.005036 0.000000 0.000000 0.000000
# 3 -0.001928 -0.005036 0.021095 0.000000 0.000000 0.000000
# 4 0.000000 0.000000 0.000000 0.022768 0.000000 0.000000
# 5 0.000000 0.000000 0.000000 0.000000 0.051060 0.000000
# 6 0.000000 0.000000 0.000000 0.000000 0.000000 -0.008473
#
#
# Mechanical properties :
#
#
# Convention : Reuss Voigt Hill
#
# Bulk Modulus (GPa) = 45.64307 61.17069 53.40688
# Shear Modulus (GPa) = 39.02183 7.62412 23.32298
#
# Velocity S-wave (km/s) = 3.90961 1.72812 3.02253
# Velocity P-wave (km/s) = 6.18535 5.28608 5.75332
#
# Compressibility (1/GPa) = 0.02190913
#
# Stress axis : x y z
#
# Youngs Moduli (GPa) = 197.08786 79.84951 47.40502
#
# Poissons Ratio (x) = 0.11398 0.09139
# Poissons Ratio (y) = 0.28132 0.23874
# Poissons Ratio (z) = 0.37997 0.40214
#
# Static dielectric constant tensor:
#      x y z
#    x 1.839790 0.000000 0.000000 
#    y 0.000000 1.983010 0.000000 
#    z 0.000000 0.000000 2.137440 
# 
# From -- ./inp_files/25586.got.cif
#   From: 2010.05.17/outbox.cif.g08.bks.cpg/sg53_13_cif.got.tgz:25586.got - 2010.06.03 12:45:16.
