data_PCOD9415169
_publ_section_title
;
Structure prediction by ZEFSAII (Michael W. Deem and Ramdas Pophale) SiO2 
 PCOD9415169
Probable space group: P M N A
;
_chemical_formula_sum "Si O2"
_cell_formula_units_Z 64
_cell_length_a 7.559612
_cell_length_b 14.672353
_cell_length_c 30.683410
_cell_angle_alpha 90.000000
_cell_angle_beta 90.000000
_cell_angle_gamma 90.000000
_cell_volume 3403.320863
_symmetry_space_group_name_H-M "P M N A"
_symmetry_group_IT_number 53
_symmetry_cell_setting 'orthorhombic'
loop_
_space_group_symop_operation_xyz
x,y,z
1/2-x,-y,1/2+z
x,-y,-z
1/2-x,y,1/2-z
-x,-y,-z
1/2+x,y,1/2-z
-x,y,z
1/2+x,-y,1/2+z
loop_
_atom_site_type_symbol
_atom_site_label
_atom_site_fract_x
_atom_site_fract_y
_atom_site_fract_z
Si Si1 0.713006 0.303002 0.574012
Si Si2 0.710781 0.131889 0.619008
Si Si3 0.714960 0.802562 0.514423
Si Si4 0.706485 0.503914 0.950760
Si Si5 0.216420 0.848305 0.641386
Si Si6 0.203356 0.677337 0.596426
Si Si7 0.794689 0.024552 0.058860
Si Si8 0.291213 0.993357 0.199997
O O1 0.500000 0.312469 0.575049
O O2 0.772636 0.235405 0.612625
O O3 0.760323 0.247238 0.530232
O O4 0.784313 0.404571 0.570395
O O5 0.500000 0.134329 0.611617
O O6 0.735364 0.083570 0.665336
O O7 0.785110 0.066100 0.580615
O O8 0.500000 0.803081 0.517872
O O9 0.789950 0.740770 0.553263
O O10 0.773929 0.907964 0.520867
O O11 0.500000 0.529739 0.956472
O O12 0.785177 0.582306 0.919678
O O13 0.783130 0.500000 0.000000
O O14 0.277969 0.744608 0.633692
O O15 0.285318 0.907101 0.600494
O O16 0.000000 0.847435 0.639126
O O17 0.274645 0.907735 0.682921
O O18 0.000000 0.659132 0.609070
O O19 0.000000 0.004545 0.048818
O O20 0.250000 0.974844 0.250000
O O21 0.500000 0.997398 0.196068
#
# Coordination Sequence:
#
# PCOD9415169 Si02
#       8
#     8   8   8   8   8   8   8   8
#     4  10  20  30  42  62  90 123 159 199 236 267
#     4   9  18  32  46  64  92 123 153 188 228 271
#     4   9  16  25  39  61  85 116 156 193 229 267
#     4  10  19  30  44  63  86 120 165 207 241 270
#     4   8  15  27  44  66  90 115 144 179 220 269
#     4   9  16  28  44  61  86 119 154 193 233 270
#     4   8  14  25  41  59  84 117 152 186 221 264
#     4  10  19  32  52  76  97 118 143 175 221 276
#
# _framework density 18.805163
#
# number of rings (size 3 to 8) (size 9 to 14) (size 15 to 20)
#    0.000    2.875    1.250    0.375    0.000    2.250 
#    0.000    2.500    0.000    0.000    0.000   10.500 
#    0.000    4.000    0.000    0.000    0.000    0.000 
#
# Total GULP energy -356432.391050 kJ/mol
# GULP energy per Si atom -5569.256110 kJ/mol
# Density = 1.876236 g / cm^3
# Si number density = 18.805163 Si / 1000 Ang^3
#
#
#
# Elastic Constant Matrix: (Units=GPa)
#
#
# Indices 1 2 3 4 5 6 
#
# 1 45.0302 -1.5969 -3.1874 0.0000 0.0000 0.0000
# 2 -1.5969 151.9712 40.7732 0.0000 0.0000 0.0000
# 3 -3.1874 40.7732 67.4634 0.0000 0.0000 0.0000
# 4 0.0000 0.0000 0.0000 19.5398 0.0000 0.0000
# 5 0.0000 0.0000 0.0000 0.0000 6.0522 0.0000
# 6 0.0000 0.0000 0.0000 0.0000 0.0000 7.3205
#
#
#
# Elastic Compliance Matrix: (Units=1/GPa)
#
#
# Indices 1 2 3 4 5 6 
#
# 1 0.022282 -0.000058 0.001088 0.000000 0.000000 0.000000
# 2 -0.000058 0.007854 -0.004749 0.000000 0.000000 0.000000
# 3 0.001088 -0.004749 0.017745 0.000000 0.000000 0.000000
# 4 0.000000 0.000000 0.000000 0.051178 0.000000 0.000000
# 5 0.000000 0.000000 0.000000 0.000000 0.165229 0.000000
# 6 0.000000 0.000000 0.000000 0.000000 0.000000 0.136602
#
#
# Mechanical properties :
#
#
# Convention : Reuss Voigt Hill
#
# Bulk Modulus (GPa) = 24.72686 37.38251 31.05468
# Shear Modulus (GPa) = 11.85370 21.81422 16.83396
#
# Velocity S-wave (km/s) = 2.51339 3.40959 2.99520
# Velocity P-wave (km/s) = 4.64762 5.95167 5.33960
#
# Compressibility (1/GPa) = 0.04044185
#
# Stress axis : x y z
#
# Youngs Moduli (GPa) = 44.87872 127.32645 56.35505
#
# Poissons Ratio (x) = 0.00734 -0.06129
# Poissons Ratio (y) = 0.00259 0.26765
# Poissons Ratio (z) = -0.04881 0.60472
#
# Static dielectric constant tensor:
#      x y z
#    x 2.255680 0.000000 0.000000 
#    y 0.000000 1.714930 0.000000 
#    z 0.000000 0.000000 1.619570 
# 
# From -- ./inp_files/38491.got.cif
#   From: 2010.05.17/outbox.cif.g08.bks.cpg/sg53_20_cif.got.tgz:38491.got - 2010.06.03 12:45:16.
