data_PCOD9415439
_publ_section_title
;
Structure prediction by ZEFSAII (Michael W. Deem and Ramdas Pophale) SiO2 
 PCOD9415439
Probable space group: P M N A
;
_chemical_formula_sum "Si O2"
_cell_formula_units_Z 64
_cell_length_a 8.595140
_cell_length_b 15.498711
_cell_length_c 25.631196
_cell_angle_alpha 90.000000
_cell_angle_beta 90.000000
_cell_angle_gamma 90.000000
_cell_volume 3414.423657
_symmetry_space_group_name_H-M "P M N A"
_symmetry_group_IT_number 53
_symmetry_cell_setting 'orthorhombic'
loop_
_space_group_symop_operation_xyz
x,y,z
1/2-x,-y,1/2+z
x,-y,-z
1/2-x,y,1/2-z
-x,-y,-z
1/2+x,y,1/2-z
-x,y,z
1/2+x,-y,1/2+z
loop_
_atom_site_type_symbol
_atom_site_label
_atom_site_fract_x
_atom_site_fract_y
_atom_site_fract_z
Si Si1 0.687412 0.729795 0.615303
Si Si2 0.687339 0.420083 0.305173
Si Si3 0.173059 0.421707 0.961429
Si Si4 0.312414 0.880365 0.692756
Si Si5 0.813574 0.077979 0.807539
Si Si6 0.313472 0.582980 0.145018
Si Si7 0.187667 0.221336 0.615088
Si Si8 0.321093 0.742686 0.000424
O O1 0.500000 0.726907 0.614294
O O2 0.736921 0.643157 0.646885
O O3 0.739249 0.811041 0.650261
O O4 0.741043 0.744880 0.555904
O O5 0.750000 0.384583 0.250000
O O6 0.500000 0.422888 0.304395
O O7 0.754525 0.517099 0.311353
O O8 0.227009 0.453839 0.905708
O O9 0.000000 0.380684 0.958646
O O10 0.163073 0.500000 0.000000
O O11 0.301712 0.356229 0.981805
O O12 0.250000 0.858552 0.750000
O O13 0.500000 0.878294 0.694398
O O14 0.264942 0.979063 0.680785
O O15 0.750000 0.099546 0.750000
O O16 0.751058 0.144968 0.849645
O O17 0.000000 0.081289 0.806418
O O18 0.500000 0.578361 0.142011
O O19 0.270399 0.685187 0.141003
O O20 0.240887 0.213448 0.554275
O O21 0.000000 0.219360 0.613830
O O22 0.500000 0.767826 0.993905
#
# Coordination Sequence:
#
# PCOD9415439 Si02
#       8
#     8   8   8   8   8   8   8   8
#     4  10  21  37  56  79 110 145 181 224 272 324
#     4  11  23  37  54  78 108 144 184 226 274 325
#     4  10  19  31  49  73 101 134 173 217 263 310
#     4   9  19  36  57  83 111 139 177 223 272 326
#     4  10  20  35  59  86 109 138 175 218 270 325
#     4  10  21  36  53  74 103 139 177 218 262 311
#     4   9  20  38  56  78 110 144 180 223 268 317
#     4  10  21  35  53  78 107 142 184 225 268 320
#
# _framework density 18.744012000000001
#
# number of rings (size 3 to 8) (size 9 to 14) (size 15 to 20)
#    0.000    2.125    0.000    3.750    0.000    9.500 
#    0.000    0.625    0.000    3.750    0.000    0.000 
#    0.000    0.000    0.000    0.000    0.000    0.000 
#
# Total GULP energy -356613.159189 kJ/mol
# GULP energy per Si atom -5572.080612 kJ/mol
# Density = 1.870135 g / cm^3
# Si number density = 18.744012 Si / 1000 Ang^3
#
#
#
# Elastic Constant Matrix: (Units=GPa)
#
#
# Indices 1 2 3 4 5 6 
#
# 1 24.4713 15.7337 16.3455 0.0000 0.0000 0.0000
# 2 15.7337 78.1974 72.8967 0.0000 0.0000 0.0000
# 3 16.3455 72.8967 133.7377 0.0000 0.0000 0.0000
# 4 0.0000 0.0000 0.0000 30.8879 0.0000 0.0000
# 5 0.0000 0.0000 0.0000 0.0000 -626.6912 0.0000
# 6 0.0000 0.0000 0.0000 0.0000 0.0000 15.7106
#
#
#
# Elastic Compliance Matrix: (Units=1/GPa)
#
#
# Indices 1 2 3 4 5 6 
#
# 1 0.047031 -0.008344 -0.001200 0.000000 0.000000 0.000000
# 2 -0.008344 0.027479 -0.013958 0.000000 0.000000 0.000000
# 3 -0.001200 -0.013958 0.015232 0.000000 0.000000 0.000000
# 4 0.000000 0.000000 0.000000 0.032375 0.000000 0.000000
# 5 0.000000 0.000000 0.000000 0.000000 -0.001596 0.000000
# 6 0.000000 0.000000 0.000000 0.000000 0.000000 0.063651
#
#
# Mechanical properties :
#
#
# Convention : Reuss Voigt Hill
#
# Bulk Modulus (GPa) = 23.39882 49.59535 36.49709
# Shear Modulus (GPa) = 20.37296 -107.25652 -43.44178
#
# Velocity S-wave (km/s) = 3.30040 -7.57271 -4.81941
# Velocity P-wave (km/s) = 5.19942 7.06715 3.38457
#
# Compressibility (1/GPa) = 0.04273720
#
# Stress axis : x y z
#
# Youngs Moduli (GPa) = 21.26274 36.39128 65.65028
#
# Poissons Ratio (x) = 0.30366 0.07877
# Poissons Ratio (y) = 0.17742 0.91636
# Poissons Ratio (z) = 0.02551 0.50796
#
# Static dielectric constant tensor:
#      x y z
#    x 1.656650 0.000000 0.000000 
#    y 0.000000 1.656400 0.000000 
#    z 0.000000 0.000000 1.664450 
# 
# From -- ./inp_files/34309.got.cif
#   From: 2010.05.17/outbox.cif.g08.bks.cpg/sg53_18_cif.got.tgz:34309.got - 2010.06.03 12:45:16.
