data_PCOD9415875
_publ_section_title
;
Structure prediction by ZEFSAII (Michael W. Deem and Ramdas Pophale) SiO2 
 PCOD9415875
Probable space group: P M N A
;
_chemical_formula_sum "Si O2"
_cell_formula_units_Z 56
_cell_length_a 17.205207
_cell_length_b 15.233805
_cell_length_c 10.748067
_cell_angle_alpha 90.000000
_cell_angle_beta 90.000000
_cell_angle_gamma 90.000000
_cell_volume 2817.076620
_symmetry_space_group_name_H-M "P M N A"
_symmetry_group_IT_number 53
_symmetry_cell_setting 'orthorhombic'
loop_
_space_group_symop_operation_xyz
x,y,z
1/2-x,-y,1/2+z
x,-y,-z
1/2-x,y,1/2-z
-x,-y,-z
1/2+x,y,1/2-z
-x,y,z
1/2+x,-y,1/2+z
loop_
_atom_site_type_symbol
_atom_site_label
_atom_site_fract_x
_atom_site_fract_y
_atom_site_fract_z
Si Si1 0.194718 0.678961 0.357736
Si Si2 0.827793 0.598866 0.022513
Si Si3 0.587573 0.166855 0.848862
Si Si4 0.182380 0.993427 0.648685
Si Si5 0.091013 0.455441 0.722389
Si Si6 0.156883 0.359779 0.245197
Si Si7 0.912025 0.817575 0.645825
O O1 0.250000 0.639194 0.250000
O O2 0.257901 0.670195 0.465159
O O3 0.157435 0.768594 0.308208
O O4 0.122675 0.615106 0.375899
O O5 0.883415 0.584442 0.141946
O O6 0.794818 0.500000 0.000000
O O7 0.870852 0.628362 0.898037
O O8 0.500000 0.181957 0.798725
O O9 0.616274 0.067606 0.832643
O O10 0.584995 0.185675 0.996163
O O11 0.250000 0.008818 0.750000
O O12 0.205205 0.000000 0.500000
O O13 0.145021 0.898394 0.674148
O O14 0.131637 0.547770 0.696856
O O15 0.000000 0.465347 0.718606
O O16 0.250000 0.354034 0.250000
O O17 0.119312 0.274144 0.303942
O O18 0.000000 0.834368 0.690534
#
# Coordination Sequence:
#
# PCOD9415875 Si02
#       7
#     8   8   8   8   8   8   8
#     4  10  19  33  51  73 101 135 179 222 261 316
#     4   9  19  33  51  73 104 144 181 221 272 332
#     4  10  20  35  56  80 108 143 181 224 277 337
#     4  10  21  39  63  87 113 146 187 232 283 344
#     4  10  20  33  50  74 105 143 183 223 272 329
#     4  11  20  33  53  76 106 141 180 226 274 328
#     4  10  21  36  56  83 110 139 180 229 280 334
#
# _framework density 19.878762999999999
#
# number of rings (size 3 to 8) (size 9 to 14) (size 15 to 20)
#    0.000    2.000    0.000    5.143    0.000    6.000 
#    0.000    0.000    0.000    9.429    0.000    0.000 
#    0.000    0.000    0.000    0.000    0.000    0.000 
#
# Total GULP energy -311997.769826 kJ/mol
# GULP energy per Si atom -5571.388747 kJ/mol
# Density = 1.983352 g / cm^3
# Si number density = 19.878763 Si / 1000 Ang^3
#
#
#
# Elastic Constant Matrix: (Units=GPa)
#
#
# Indices 1 2 3 4 5 6 
#
# 1 89.8561 12.4394 13.2788 0.0000 0.0000 0.0000
# 2 12.4394 94.8671 11.2675 0.0000 0.0000 0.0000
# 3 13.2788 11.2675 24.8194 0.0000 0.0000 0.0000
# 4 0.0000 0.0000 0.0000 24.5026 0.0000 0.0000
# 5 0.0000 0.0000 0.0000 0.0000 10.2973 0.0000
# 6 0.0000 0.0000 0.0000 0.0000 0.0000 17.8497
#
#
#
# Elastic Compliance Matrix: (Units=1/GPa)
#
#
# Indices 1 2 3 4 5 6 
#
# 1 0.012152 -0.000868 -0.006107 0.000000 0.000000 0.000000
# 2 -0.000868 0.011204 -0.004622 0.000000 0.000000 0.000000
# 3 -0.006107 -0.004622 0.045657 0.000000 0.000000 0.000000
# 4 0.000000 0.000000 0.000000 0.040812 0.000000 0.000000
# 5 0.000000 0.000000 0.000000 0.000000 0.097112 0.000000
# 6 0.000000 0.000000 0.000000 0.000000 0.000000 0.056023
#
#
# Mechanical properties :
#
#
# Convention : Reuss Voigt Hill
#
# Bulk Modulus (GPa) = 21.82555 31.50157 26.66356
# Shear Modulus (GPa) = 16.58775 22.03370 19.31073
#
# Velocity S-wave (km/s) = 2.89181 3.33288 3.12015
# Velocity P-wave (km/s) = 4.70673 5.54004 5.14030
#
# Compressibility (1/GPa) = 0.04581785
#
# Stress axis : x y z
#
# Youngs Moduli (GPa) = 82.29376 89.25516 21.90253
#
# Poissons Ratio (x) = 0.07747 0.13376
# Poissons Ratio (y) = 0.07143 0.10123
# Poissons Ratio (z) = 0.50259 0.41253
#
# Static dielectric constant tensor:
#      x y z
#    x 1.716990 0.000000 0.000000 
#    y 0.000000 1.721950 0.000000 
#    z 0.000000 0.000000 1.814950 
# 
# From -- ./inp_files/16044.got.cif
#   From: 2010.05.17/outbox.cif.g08.bks.cpg/sg53_9_cif.got.tgz:16044.got - 2010.06.03 12:45:16.
