data_PCOD9415948
_publ_section_title
;
Structure prediction by ZEFSAII (Michael W. Deem and Ramdas Pophale) SiO2 
 PCOD9415948
Probable space group: P M N A
;
_chemical_formula_sum "Si O2"
_cell_formula_units_Z 48
_cell_length_a 24.164758
_cell_length_b 5.071798
_cell_length_c 21.753648
_cell_angle_alpha 90.000000
_cell_angle_beta 90.000000
_cell_angle_gamma 90.000000
_cell_volume 2666.100370
_symmetry_space_group_name_H-M "P M N A"
_symmetry_group_IT_number 53
_symmetry_cell_setting 'orthorhombic'
loop_
_space_group_symop_operation_xyz
x,y,z
1/2-x,-y,1/2+z
x,-y,-z
1/2-x,y,1/2-z
-x,-y,-z
1/2+x,y,1/2-z
-x,y,z
1/2+x,-y,1/2+z
loop_
_atom_site_type_symbol
_atom_site_label
_atom_site_fract_x
_atom_site_fract_y
_atom_site_fract_z
Si Si1 0.934906 0.069307 0.735142
Si Si2 0.064849 0.555339 0.656056
Si Si3 0.762163 0.246487 0.043193
Si Si4 0.120690 0.369045 0.068210
Si Si5 0.066592 0.871485 0.125232
Si Si6 0.638131 0.246492 0.043674
O O1 0.912689 0.283997 0.686083
O O2 0.914330 0.071606 0.804867
O O3 0.000000 0.141008 0.739737
O O4 0.931453 0.778023 0.708218
O O5 0.097776 0.674092 0.598613
O O6 0.000000 0.520515 0.638784
O O7 0.815071 0.311174 0.084708
O O8 0.700701 0.192097 0.068517
O O9 0.756036 0.500000 0.000000
O O10 0.777841 0.000000 0.000000
O O11 0.090798 0.587432 0.108900
O O12 0.089262 0.094076 0.078806
O O13 0.119783 0.500000 0.000000
O O14 0.000000 0.870324 0.122092
O O15 0.639644 0.500000 0.000000
O O16 0.622067 0.000000 0.000000
#
# Coordination Sequence:
#
# PCOD9415948 Si02
#       6
#     8   8   8   8   8   8
#     4   9  19  35  52  71  98 139 179 202 239 305
#     4  10  19  33  54  77 104 136 169 208 251 299
#     4   9  18  34  52  71  99 137 174 199 237 306
#     4  11  21  34  53  76 103 134 167 211 263 309
#     4  11  22  35  53  76 103 134 170 213 257 306
#     4  10  20  33  53  80 106 133 166 208 255 301
#
# _framework density 18.003823000000001
#
# number of rings (size 3 to 8) (size 9 to 14) (size 15 to 20)
#    0.000    2.000    0.000    5.000    0.000    5.333 
#    0.000    0.000    0.000    6.000    0.000    0.000 
#    0.000    0.000    0.000    0.000    0.000    0.000 
#
# Total GULP energy -267424.682912 kJ/mol
# GULP energy per Si atom -5571.347561 kJ/mol
# Density = 1.796285 g / cm^3
# Si number density = 18.003823 Si / 1000 Ang^3
#
#
#
# Elastic Constant Matrix: (Units=GPa)
#
#
# Indices 1 2 3 4 5 6 
#
# 1 64.7088 0.8726 18.9692 0.0000 0.0000 0.0000
# 2 0.8726 85.7850 -6.8751 0.0000 0.0000 0.0000
# 3 18.9692 -6.8751 43.0847 0.0000 0.0000 0.0000
# 4 0.0000 0.0000 0.0000 16.0796 0.0000 0.0000
# 5 0.0000 0.0000 0.0000 0.0000 -6.6294 0.0000
# 6 0.0000 0.0000 0.0000 0.0000 0.0000 51.8952
#
#
#
# Elastic Compliance Matrix: (Units=1/GPa)
#
#
# Indices 1 2 3 4 5 6 
#
# 1 0.017801 -0.000820 -0.007968 0.000000 0.000000 0.000000
# 2 -0.000820 0.011846 0.002251 0.000000 0.000000 0.000000
# 3 -0.007968 0.002251 0.027077 0.000000 0.000000 0.000000
# 4 0.000000 0.000000 0.000000 0.062191 0.000000 0.000000
# 5 0.000000 0.000000 0.000000 0.000000 -0.150843 0.000000
# 6 0.000000 0.000000 0.000000 0.000000 0.000000 0.019270
#
#
# Mechanical properties :
#
#
# Convention : Reuss Voigt Hill
#
# Bulk Modulus (GPa) = 22.90905 24.39021 23.64963
# Shear Modulus (GPa) = 334.11976 24.30986 179.21481
#
# Velocity S-wave (km/s) = 13.63765 3.67858 9.98793
# Velocity P-wave (km/s) = 16.14723 5.62310 12.09033
#
# Compressibility (1/GPa) = 0.04365087
#
# Stress axis : x y z
#
# Youngs Moduli (GPa) = 56.17755 84.41814 36.93105
#
# Poissons Ratio (x) = 0.06919 0.29427
# Poissons Ratio (y) = 0.04605 -0.08314
# Poissons Ratio (z) = 0.44763 -0.19004
#
# Static dielectric constant tensor:
#      x y z
#    x 1.650100 0.000000 0.000000 
#    y 0.000000 1.607090 0.000000 
#    z 0.000000 0.000000 1.700890 
# 
# From -- ./inp_files/33144.got.cif
#   From: 2010.05.17/outbox.cif.g08.bks.cpg/sg53_17_cif.got.tgz:33144.got - 2010.06.03 12:45:16.
