data_PCOD9415944
_publ_section_title
;
Structure prediction by ZEFSAII (Michael W. Deem and Ramdas Pophale) SiO2 
 PCOD9415944
Probable space group: P M N A
;
_chemical_formula_sum "Si O2"
_cell_formula_units_Z 64
_cell_length_a 7.703227
_cell_length_b 19.083928
_cell_length_c 21.049053
_cell_angle_alpha 90.000000
_cell_angle_beta 90.000000
_cell_angle_gamma 90.000000
_cell_volume 3094.375593
_symmetry_space_group_name_H-M "P M N A"
_symmetry_group_IT_number 53
_symmetry_cell_setting 'orthorhombic'
loop_
_space_group_symop_operation_xyz
x,y,z
1/2-x,-y,1/2+z
x,-y,-z
1/2-x,y,1/2-z
-x,-y,-z
1/2+x,y,1/2-z
-x,y,z
1/2+x,-y,1/2+z
loop_
_atom_site_type_symbol
_atom_site_label
_atom_site_fract_x
_atom_site_fract_y
_atom_site_fract_z
Si Si1 0.200056 0.795190 0.447784
Si Si2 0.287135 0.047373 0.939944
Si Si3 0.286833 0.699968 0.937454
Si Si4 0.698566 0.721547 0.322543
Si Si5 0.791674 0.797183 0.678045
Si Si6 0.791473 0.043235 0.321793
Si Si7 0.207407 0.440329 0.678411
Si Si8 0.712332 0.539181 0.935719
O O1 0.276604 0.873079 0.446783
O O2 0.273150 0.740932 0.499400
O O3 0.202432 0.761672 0.377961
O O4 0.000000 0.804816 0.467669
O O5 0.500000 0.049171 0.937843
O O6 0.227603 0.009615 0.875483
O O7 0.238877 0.000000 0.000000
O O8 0.500000 0.697693 0.937844
O O9 0.230343 0.744119 0.875937
O O10 0.229320 0.619545 0.935377
O O11 0.750000 0.737699 0.250000
O O12 0.500000 0.740986 0.331062
O O13 0.719641 0.637859 0.330682
O O14 0.750000 0.775340 0.750000
O O15 0.725677 0.876932 0.668996
O O16 0.000000 0.799967 0.672469
O O17 0.750000 0.021422 0.250000
O O18 0.000000 0.046251 0.327456
O O19 0.250000 0.463312 0.750000
O O20 0.269039 0.494612 0.625398
O O21 0.000000 0.433568 0.672982
O O22 0.500000 0.539580 0.934911
O O23 0.765679 0.500000 0.000000
#
# Coordination Sequence:
#
# PCOD9415944 Si02
#       8
#     8   8   8   8   8   8   8   8
#     4  10  19  33  55  79 103 134 173 216 258 302
#     4   9  17  30  51  78 103 130 169 214 254 295
#     4   9  17  30  50  75 101 132 171 209 249 300
#     4  11  22  37  56  77 104 135 169 209 255 309
#     4   9  17  30  49  72  99 133 169 206 247 295
#     4   9  17  30  48  71  99 129 163 202 245 293
#     4  10  19  33  54  77 102 132 167 207 252 301
#     4   9  17  29  48  74 100 127 163 205 244 290
#
# _framework density 20.682687000000001
#
# number of rings (size 3 to 8) (size 9 to 14) (size 15 to 20)
#    0.000    2.500    0.000    3.750    0.000    6.000 
#    0.000    2.500    0.000   10.500    0.000    0.000 
#    0.000    0.000    0.000    0.000    0.000    0.000 
#
# Total GULP energy -357330.423151 kJ/mol
# GULP energy per Si atom -5583.287862 kJ/mol
# Density = 2.063561 g / cm^3
# Si number density = 20.682687 Si / 1000 Ang^3
#
#
#
# Elastic Constant Matrix: (Units=GPa)
#
#
# Indices 1 2 3 4 5 6 
#
# 1 34.4114 -9.8566 -15.7999 0.0000 0.0000 0.0000
# 2 -9.8566 126.1541 97.8765 0.0000 0.0000 0.0000
# 3 -15.7999 97.8765 145.9543 0.0000 0.0000 0.0000
# 4 0.0000 0.0000 0.0000 28.6333 0.0000 0.0000
# 5 0.0000 0.0000 0.0000 0.0000 9.4730 0.0000
# 6 0.0000 0.0000 0.0000 0.0000 0.0000 0.7645
#
#
#
# Elastic Compliance Matrix: (Units=1/GPa)
#
#
# Indices 1 2 3 4 5 6 
#
# 1 0.030588 -0.000373 0.003562 0.000000 0.000000 0.000000
# 2 -0.000373 0.016528 -0.011124 0.000000 0.000000 0.000000
# 3 0.003562 -0.011124 0.014697 0.000000 0.000000 0.000000
# 4 0.000000 0.000000 0.000000 0.034924 0.000000 0.000000
# 5 0.000000 0.000000 0.000000 0.000000 0.105564 0.000000
# 6 0.000000 0.000000 0.000000 0.000000 0.000000 1.308024
#
#
# Mechanical properties :
#
#
# Convention : Reuss Voigt Hill
#
# Bulk Modulus (GPa) = 21.76670 50.10665 35.93667
# Shear Modulus (GPa) = 3.24357 23.39413 13.31885
#
# Velocity S-wave (km/s) = 1.25366 3.36683 2.54039
# Velocity P-wave (km/s) = 3.55563 6.27638 5.10076
#
# Compressibility (1/GPa) = 0.04594175
#
# Stress axis : x y z
#
# Youngs Moduli (GPa) = 32.69205 60.50170 68.04118
#
# Poissons Ratio (x) = 0.02259 -0.24234
# Poissons Ratio (y) = 0.01221 0.75691
# Poissons Ratio (z) = -0.11644 0.67304
#
# Static dielectric constant tensor:
#      x y z
#    x 1.774180 0.000000 0.000000 
#    y 0.000000 1.711730 0.000000 
#    z 0.000000 0.000000 1.731220 
# 
# From -- ./inp_files/31120.got.cif
#   From: 2010.05.17/outbox.cif.g08.bks.cpg/sg53_16_cif.got.tgz:31120.got - 2010.06.03 12:45:16.
