data_PCOD9415324
_publ_section_title
;
Structure prediction by ZEFSAII (Michael W. Deem and Ramdas Pophale) SiO2 
 PCOD9415324
Probable space group: P M N A
;
_chemical_formula_sum "Si O2"
_cell_formula_units_Z 40
_cell_length_a 14.351868
_cell_length_b 22.639848
_cell_length_c 5.280653
_cell_angle_alpha 90.000000
_cell_angle_beta 90.000000
_cell_angle_gamma 90.000000
_cell_volume 1715.811476
_symmetry_space_group_name_H-M "P M N A"
_symmetry_group_IT_number 53
_symmetry_cell_setting 'orthorhombic'
loop_
_space_group_symop_operation_xyz
x,y,z
1/2-x,-y,1/2+z
x,-y,-z
1/2-x,y,1/2-z
-x,-y,-z
1/2+x,y,1/2-z
-x,y,z
1/2+x,-y,1/2+z
loop_
_atom_site_type_symbol
_atom_site_label
_atom_site_fract_x
_atom_site_fract_y
_atom_site_fract_z
Si Si1 0.114227 0.436422 0.886307
Si Si2 0.636658 0.965003 0.252836
Si Si3 0.861409 0.762969 0.731906
Si Si4 0.609916 0.627100 0.876709
Si Si5 0.363530 0.828874 0.260531
O O1 0.146364 0.411295 0.614406
O O2 0.000000 0.437542 0.872019
O O3 0.141991 0.500000 0.000000
O O4 0.146958 0.392062 0.103989
O O5 0.750000 0.964514 0.250000
O O6 0.608395 0.896929 0.282270
O O7 0.606917 0.000000 0.500000
O O8 0.607916 0.000000 0.000000
O O9 0.750000 0.765733 0.750000
O O10 0.882656 0.697509 0.628139
O O11 0.894690 0.805849 0.511437
O O12 0.893334 0.786196 0.007535
O O13 0.500000 0.612882 0.872482
O O14 0.250000 0.827438 0.250000
#
# Coordination Sequence:
#
# PCOD9415324 Si02
#       5
#     8   8   8   8   8
#     4   9  17  30  49  72  95 118 147 187 233 274
#     4   9  15  23  37  58  85 115 146 185 230 270
#     4  10  19  31  46  65  93 127 155 183 224 276
#     4  10  19  31  49  72  95 119 153 193 227 268
#     4   9  17  28  42  62  90 123 155 185 226 278
#
# _framework density 23.312584999999999
#
# number of rings (size 3 to 8) (size 9 to 14) (size 15 to 20)
#    0.000    2.600    0.000    3.000    0.000    7.200 
#    0.000    0.000    0.000    2.400    0.000    0.000 
#    0.000   16.000    0.000    0.000    0.000    0.000 
#
# Total GULP energy -223327.739328 kJ/mol
# GULP energy per Si atom -5583.193483 kJ/mol
# Density = 2.325952 g / cm^3
# Si number density = 23.312585 Si / 1000 Ang^3
#
#
#
# Elastic Constant Matrix: (Units=GPa)
#
#
# Indices 1 2 3 4 5 6 
#
# 1 91.9422 -12.0776 12.0613 0.0000 0.0000 0.0000
# 2 -12.0776 118.2391 46.4647 0.0000 0.0000 0.0000
# 3 12.0613 46.4647 174.8809 0.0000 0.0000 0.0000
# 4 0.0000 0.0000 0.0000 52.5746 0.0000 0.0000
# 5 0.0000 0.0000 0.0000 0.0000 -9.0687 0.0000
# 6 0.0000 0.0000 0.0000 0.0000 0.0000 18.5942
#
#
#
# Elastic Compliance Matrix: (Units=1/GPa)
#
#
# Indices 1 2 3 4 5 6 
#
# 1 0.011248 0.001623 -0.001207 0.000000 0.000000 0.000000
# 2 0.001623 0.009678 -0.002683 0.000000 0.000000 0.000000
# 3 -0.001207 -0.002683 0.006514 0.000000 0.000000 0.000000
# 4 0.000000 0.000000 0.000000 0.019021 0.000000 0.000000
# 5 0.000000 0.000000 0.000000 0.000000 -0.110269 0.000000
# 6 0.000000 0.000000 0.000000 0.000000 0.000000 0.053780
#
#
# Mechanical properties :
#
#
# Convention : Reuss Voigt Hill
#
# Bulk Modulus (GPa) = 43.65679 53.10656 48.38168
# Shear Modulus (GPa) = 2335.37022 34.99428 1185.18225
#
# Velocity S-wave (km/s) = 31.68499 3.87859 22.57191
# Velocity P-wave (km/s) = 36.84226 6.54887 26.45978
#
# Compressibility (1/GPa) = 0.02290595
#
# Stress axis : x y z
#
# Youngs Moduli (GPa) = 88.90490 103.33039 153.50731
#
# Poissons Ratio (x) = -0.16773 0.18529
# Poissons Ratio (y) = -0.14432 0.41190
# Poissons Ratio (z) = 0.10731 0.27726
#
# Static dielectric constant tensor:
#      x y z
#    x 1.929930 0.000000 0.000000 
#    y 0.000000 1.881730 0.000000 
#    z 0.000000 0.000000 1.835690 
# 
# From -- ./inp_files/2883.got.cif
#   From: 2010.05.17/outbox.cif.g08.bks.cpg/sg53_2_cif.got.tgz:2883.got - 2010.06.03 12:45:16.
