data_PCOD9415248
_publ_section_title
;
Structure prediction by ZEFSAII (Michael W. Deem and Ramdas Pophale) SiO2 
 PCOD9415248
Probable space group: P M N A
;
_chemical_formula_sum "Si O2"
_cell_formula_units_Z 64
_cell_length_a 8.973912
_cell_length_b 21.862149
_cell_length_c 19.482510
_cell_angle_alpha 90.000000
_cell_angle_beta 90.000000
_cell_angle_gamma 90.000000
_cell_volume 3822.254179
_symmetry_space_group_name_H-M "P M N A"
_symmetry_group_IT_number 53
_symmetry_cell_setting 'orthorhombic'
loop_
_space_group_symop_operation_xyz
x,y,z
1/2-x,-y,1/2+z
x,-y,-z
1/2-x,y,1/2-z
-x,-y,-z
1/2+x,y,1/2-z
-x,y,z
1/2+x,-y,1/2+z
loop_
_atom_site_type_symbol
_atom_site_label
_atom_site_fract_x
_atom_site_fract_y
_atom_site_fract_z
Si Si1 0.169079 0.773427 0.141977
Si Si2 0.179152 0.690674 0.550755
Si Si3 0.320383 0.066420 0.971118
Si Si4 0.170095 0.186965 0.018346
Si Si5 0.679062 0.462699 0.824595
Si Si6 0.320459 0.645003 0.408731
Si Si7 0.678267 0.395682 0.176665
Si Si8 0.676198 0.105759 0.819005
O O1 0.214007 0.702500 0.141955
O O2 0.276974 0.822991 0.174755
O O3 0.000000 0.780580 0.168762
O O4 0.165547 0.790681 0.061127
O O5 0.238777 0.759992 0.556300
O O6 0.250631 0.661213 0.482451
O O7 0.222940 0.650232 0.616374
O O8 0.000000 0.690786 0.544026
O O9 0.500000 0.073071 0.973872
O O10 0.275452 0.075097 0.891103
O O11 0.247217 0.121033 0.014631
O O12 0.280385 0.000000 0.000000
O O13 0.000000 0.183337 0.042866
O O14 0.750000 0.450316 0.750000
O O15 0.500000 0.455579 0.822333
O O16 0.750899 0.416213 0.878271
O O17 0.714113 0.533665 0.841250
O O18 0.500000 0.641903 0.414044
O O19 0.750000 0.381420 0.250000
O O20 0.500000 0.392181 0.183765
O O21 0.750000 0.080459 0.750000
O O22 0.500000 0.100348 0.813765
#
# Coordination Sequence:
#
# PCOD9415248 Si02
#       8
#     8   8   8   8   8   8   8   8
#     4   8  16  30  45  63  92 124 156 193 231 277
#     4  10  19  33  53  76 101 130 163 205 255 302
#     4   9  18  33  53  76 101 133 171 205 241 288
#     4   9  17  30  49  75 102 126 156 196 240 287
#     4  10  20  35  51  68  94 129 167 209 255 306
#     4  10  20  33  49  73 101 131 167 206 249 298
#     4   9  20  36  54  74  96 126 166 210 259 312
#     4  10  19  30  47  70  97 128 162 201 241 282
#
# _framework density 16.744046000000001
#
# number of rings (size 3 to 8) (size 9 to 14) (size 15 to 20)
#    0.000    2.625    0.000    2.625    0.000    6.750 
#    0.000    2.500    0.000    0.750    0.000    1.750 
#    0.000    0.000    0.000    0.000    0.000    0.000 
#
# Total GULP energy -356773.620710 kJ/mol
# GULP energy per Si atom -5574.587824 kJ/mol
# Density = 1.670594 g / cm^3
# Si number density = 16.744046 Si / 1000 Ang^3
#
#
#
# Elastic Constant Matrix: (Units=GPa)
#
#
# Indices 1 2 3 4 5 6 
#
# 1 59.2239 54.2799 41.7553 0.0000 0.0000 0.0000
# 2 54.2799 135.5249 75.8194 0.0000 0.0000 0.0000
# 3 41.7553 75.8194 83.0883 0.0000 0.0000 0.0000
# 4 0.0000 0.0000 0.0000 14.5815 0.0000 0.0000
# 5 0.0000 0.0000 0.0000 0.0000 24.7282 0.0000
# 6 0.0000 0.0000 0.0000 0.0000 0.0000 22.6471
#
#
#
# Elastic Compliance Matrix: (Units=1/GPa)
#
#
# Indices 1 2 3 4 5 6 
#
# 1 0.029159 -0.007111 -0.008165 0.000000 0.000000 0.000000
# 2 -0.007111 0.016808 -0.011764 0.000000 0.000000 0.000000
# 3 -0.008165 -0.011764 0.026874 0.000000 0.000000 0.000000
# 4 0.000000 0.000000 0.000000 0.068580 0.000000 0.000000
# 5 0.000000 0.000000 0.000000 0.000000 0.040440 0.000000
# 6 0.000000 0.000000 0.000000 0.000000 0.000000 0.044156
#
#
# Mechanical properties :
#
#
# Convention : Reuss Voigt Hill
#
# Bulk Modulus (GPa) = 53.30240 69.06070 61.18155
# Shear Modulus (GPa) = 17.46119 19.45687 18.45903
#
# Velocity S-wave (km/s) = 3.23279 3.41254 3.32388
# Velocity P-wave (km/s) = 6.77033 7.54067 7.16586
#
# Compressibility (1/GPa) = 0.01876088
#
# Stress axis : x y z
#
# Youngs Moduli (GPa) = 34.29512 59.49454 37.21112
#
# Poissons Ratio (x) = 0.42305 0.30382
# Poissons Ratio (y) = 0.24386 0.43777
# Poissons Ratio (z) = 0.28001 0.69992
#
# Static dielectric constant tensor:
#      x y z
#    x 1.565170 0.000000 0.000000 
#    y 0.000000 1.561800 0.000000 
#    z 0.000000 0.000000 1.560110 
# 
# From -- ./inp_files/26777.got.cif
#   From: 2010.05.17/outbox.cif.g08.bks.cpg/sg53_14_cif.got.tgz:26777.got - 2010.06.03 12:45:16.
