data_PCOD9415489
_publ_section_title
;
Structure prediction by ZEFSAII (Michael W. Deem and Ramdas Pophale) SiO2 
 PCOD9415489
Probable space group: P M N A
;
_chemical_formula_sum "Si O2"
_cell_formula_units_Z 64
_cell_length_a 9.569917
_cell_length_b 14.009805
_cell_length_c 28.698880
_cell_angle_alpha 90.000000
_cell_angle_beta 90.000000
_cell_angle_gamma 90.000000
_cell_volume 3847.735497
_symmetry_space_group_name_H-M "P M N A"
_symmetry_group_IT_number 53
_symmetry_cell_setting 'orthorhombic'
loop_
_space_group_symop_operation_xyz
x,y,z
1/2-x,-y,1/2+z
x,-y,-z
1/2-x,y,1/2-z
-x,-y,-z
1/2+x,y,1/2-z
-x,y,z
1/2+x,-y,1/2+z
loop_
_atom_site_type_symbol
_atom_site_label
_atom_site_fract_x
_atom_site_fract_y
_atom_site_fract_z
Si Si1 0.832827 0.723529 0.062440
Si Si2 0.832922 0.569232 0.144194
Si Si3 0.663670 0.764086 0.796128
Si Si4 0.654430 0.726977 0.289348
Si Si5 0.340796 0.885399 0.369043
Si Si6 0.833039 0.380089 0.377418
Si Si7 0.332689 0.389799 0.013511
Si Si8 0.834125 0.992077 0.701980
O O1 0.806893 0.641141 0.101154
O O2 0.795287 0.827325 0.084485
O O3 0.000000 0.725645 0.054023
O O4 0.747837 0.686398 0.018254
O O5 0.791255 0.627662 0.190209
O O6 0.748645 0.473440 0.138703
O O7 0.000000 0.553338 0.145934
O O8 0.750000 0.737080 0.750000
O O9 0.500000 0.745054 0.787229
O O10 0.704269 0.706119 0.842569
O O11 0.678450 0.877661 0.803578
O O12 0.750000 0.767706 0.250000
O O13 0.500000 0.712260 0.270523
O O14 0.647217 0.799532 0.331849
O O15 0.500000 0.923749 0.375317
O O16 0.237125 0.957967 0.342984
O O17 0.802027 0.368801 0.432296
O O18 0.000000 0.394983 0.374145
O O19 0.500000 0.382507 0.006057
O O20 0.293442 0.500000 0.000000
O O21 0.750000 0.015177 0.750000
O O22 0.000000 0.016249 0.706276
#
# Coordination Sequence:
#
# PCOD9415489 Si02
#       8
#     8   8   8   8   8   8   8   8
#     4   9  18  32  49  71 101 133 163 200 247 295
#     4   9  18  31  45  64  92 126 162 198 236 286
#     4   9  20  37  54  73 100 131 165 206 251 297
#     4   9  18  30  42  61  92 126 158 192 234 286
#     4   9  18  32  49  71  99 128 161 202 248 296
#     4  10  20  34  51  72  99 130 163 205 251 291
#     4  10  19  31  50  76 102 129 168 212 248 290
#     4  10  19  32  52  76  98 126 165 207 252 301
#
# _framework density 16.63316
#
# number of rings (size 3 to 8) (size 9 to 14) (size 15 to 20)
#    0.000    2.625    1.250    2.250    0.000    4.750 
#    0.000    5.000    0.000    0.750    0.000    5.250 
#    0.000    0.000    0.000    0.000    0.000    0.000 
#
# Total GULP energy -356339.911336 kJ/mol
# GULP energy per Si atom -5567.811115 kJ/mol
# Density = 1.659530 g / cm^3
# Si number density = 16.633160 Si / 1000 Ang^3
#
#
#
# Elastic Constant Matrix: (Units=GPa)
#
#
# Indices 1 2 3 4 5 6 
#
# 1 41.6204 40.2988 41.1749 0.0000 0.0000 0.0000
# 2 40.2988 66.6980 51.6733 0.0000 0.0000 0.0000
# 3 41.1749 51.6733 90.1774 0.0000 0.0000 0.0000
# 4 0.0000 0.0000 0.0000 27.1377 0.0000 0.0000
# 5 0.0000 0.0000 0.0000 0.0000 20.4758 0.0000
# 6 0.0000 0.0000 0.0000 0.0000 0.0000 19.6150
#
#
#
# Elastic Compliance Matrix: (Units=1/GPa)
#
#
# Indices 1 2 3 4 5 6 
#
# 1 0.065377 -0.029446 -0.012978 0.000000 0.000000 0.000000
# 2 -0.029446 0.040226 -0.009605 0.000000 0.000000 0.000000
# 3 -0.012978 -0.009605 0.022519 0.000000 0.000000 0.000000
# 4 0.000000 0.000000 0.000000 0.036849 0.000000 0.000000
# 5 0.000000 0.000000 0.000000 0.000000 0.048838 0.000000
# 6 0.000000 0.000000 0.000000 0.000000 0.000000 0.050981
#
#
# Mechanical properties :
#
#
# Convention : Reuss Voigt Hill
#
# Bulk Modulus (GPa) = 41.55711 51.64332 46.60021
# Shear Modulus (GPa) = 13.26726 17.80230 15.53478
#
# Velocity S-wave (km/s) = 2.82731 3.27508 3.05940
# Velocity P-wave (km/s) = 5.97470 6.73924 6.36845
#
# Compressibility (1/GPa) = 0.02406327
#
# Stress axis : x y z
#
# Youngs Moduli (GPa) = 15.29601 24.85981 44.40775
#
# Poissons Ratio (x) = 0.73203 0.57631
# Poissons Ratio (y) = 0.45041 0.42653
# Poissons Ratio (z) = 0.19851 0.23878
#
# Static dielectric constant tensor:
#      x y z
#    x 1.573520 0.000000 0.000000 
#    y 0.000000 1.562420 0.000000 
#    z 0.000000 0.000000 1.579270 
# 
# From -- ./inp_files/38237.got.cif
#   From: 2010.05.17/outbox.cif.g08.bks.cpg/sg53_20_cif.got.tgz:38237.got - 2010.06.03 12:45:16.
