data_PCOD9415621
_publ_section_title
;
Structure prediction by ZEFSAII (Michael W. Deem and Ramdas Pophale) SiO2 
 PCOD9415621
Probable space group: P M N A
;
_chemical_formula_sum "Si O2"
_cell_formula_units_Z 56
_cell_length_a 19.608245
_cell_length_b 14.381388
_cell_length_c 10.274454
_cell_angle_alpha 90.000000
_cell_angle_beta 90.000000
_cell_angle_gamma 90.000000
_cell_volume 2897.332114
_symmetry_space_group_name_H-M "P M N A"
_symmetry_group_IT_number 53
_symmetry_cell_setting 'orthorhombic'
loop_
_space_group_symop_operation_xyz
x,y,z
1/2-x,-y,1/2+z
x,-y,-z
1/2-x,y,1/2-z
-x,-y,-z
1/2+x,y,1/2-z
-x,y,z
1/2+x,-y,1/2+z
loop_
_atom_site_type_symbol
_atom_site_label
_atom_site_fract_x
_atom_site_fract_y
_atom_site_fract_z
Si Si1 0.921882 0.362038 0.138843
Si Si2 0.420439 0.595380 0.920846
Si Si3 0.168176 0.712994 0.382094
Si Si4 0.672027 0.296874 0.587722
Si Si5 0.425259 0.150118 0.259011
Si Si6 0.842549 0.890804 0.522939
Si Si7 0.691253 0.104038 0.446253
O O1 0.899217 0.416514 0.269343
O O2 0.924254 0.256207 0.193020
O O3 0.000000 0.388319 0.102381
O O4 0.870304 0.357088 0.017338
O O5 0.500000 0.624900 0.916366
O O6 0.416382 0.500000 0.000000
O O7 0.375986 0.666916 0.004183
O O8 0.246810 0.684094 0.406857
O O9 0.146806 0.688786 0.235275
O O10 0.162759 0.824895 0.397383
O O11 0.668178 0.187911 0.542745
O O12 0.500000 0.111046 0.285798
O O13 0.405384 0.142159 0.109370
O O14 0.364373 0.100954 0.334098
O O15 0.769224 0.872307 0.592095
O O16 0.848770 0.000000 0.500000
O O17 0.694625 0.000000 0.500000
#
# Coordination Sequence:
#
# PCOD9415621 Si02
#       7
#     8   8   8   8   8   8   8
#     4   9  18  36  58  82 112 146 186 227 276 341
#     4  10  21  39  63  86 110 146 188 228 278 344
#     4  10  20  37  56  82 117 146 187 239 287 333
#     4   9  20  35  55  83 115 149 185 236 287 334
#     4  10  19  32  50  74 108 142 183 235 280 329
#     4  10  20  32  53  78 107 147 190 234 278 333
#     4   9  19  33  52  74 104 149 196 231 273 332
#
# _framework density 19.328123999999999
#
# number of rings (size 3 to 8) (size 9 to 14) (size 15 to 20)
#    0.000    2.429    1.429    0.429    2.000    1.714 
#    0.000    3.571    0.000    2.571    0.000    0.000 
#    0.000    0.000    0.000    0.000    0.000    0.000 
#
# Total GULP energy -311912.465918 kJ/mol
# GULP energy per Si atom -5569.865463 kJ/mol
# Density = 1.928413 g / cm^3
# Si number density = 19.328124 Si / 1000 Ang^3
#
#
#
# Elastic Constant Matrix: (Units=GPa)
#
#
# Indices 1 2 3 4 5 6 
#
# 1 62.8756 17.0122 53.9032 0.0000 0.0000 0.0000
# 2 17.0122 29.7289 19.9625 0.0000 0.0000 0.0000
# 3 53.9032 19.9625 137.5175 0.0000 0.0000 0.0000
# 4 0.0000 0.0000 0.0000 17.6771 0.0000 0.0000
# 5 0.0000 0.0000 0.0000 0.0000 26.9130 0.0000
# 6 0.0000 0.0000 0.0000 0.0000 0.0000 12.9266
#
#
#
# Elastic Compliance Matrix: (Units=1/GPa)
#
#
# Indices 1 2 3 4 5 6 
#
# 1 0.025906 -0.008871 -0.008867 0.000000 0.000000 0.000000
# 2 -0.008871 0.040308 -0.002374 0.000000 0.000000 0.000000
# 3 -0.008867 -0.002374 0.011092 0.000000 0.000000 0.000000
# 4 0.000000 0.000000 0.000000 0.056570 0.000000 0.000000
# 5 0.000000 0.000000 0.000000 0.000000 0.037157 0.000000
# 6 0.000000 0.000000 0.000000 0.000000 0.000000 0.077360
#
#
# Mechanical properties :
#
#
# Convention : Reuss Voigt Hill
#
# Bulk Modulus (GPa) = 26.96690 45.76419 36.36554
# Shear Modulus (GPa) = 16.61260 20.78630 18.69945
#
# Velocity S-wave (km/s) = 2.93491 3.28295 3.11380
# Velocity P-wave (km/s) = 5.04652 6.17246 5.63767
#
# Compressibility (1/GPa) = 0.03708250
#
# Stress axis : x y z
#
# Youngs Moduli (GPa) = 38.60101 24.80917 90.15522
#
# Poissons Ratio (x) = 0.22008 0.79939
# Poissons Ratio (y) = 0.34242 0.21404
# Poissons Ratio (z) = 0.34227 0.05890
#
# Static dielectric constant tensor:
#      x y z
#    x 1.666150 0.000000 0.000000 
#    y 0.000000 1.689250 0.000000 
#    z 0.000000 0.000000 1.703470 
# 
# From -- ./inp_files/11090.got.cif
#   From: 2010.05.17/outbox.cif.g08.bks.cpg/sg53_6_cif.got.tgz:11090.got - 2010.06.03 12:45:16.
