data_PCOD9415805
_publ_section_title
;
Structure prediction by ZEFSAII (Michael W. Deem and Ramdas Pophale) SiO2 
 PCOD9415805
Probable space group: P M N A
;
_chemical_formula_sum "Si O2"
_cell_formula_units_Z 56
_cell_length_a 7.817837
_cell_length_b 18.307507
_cell_length_c 19.992554
_cell_angle_alpha 90.000000
_cell_angle_beta 90.000000
_cell_angle_gamma 90.000000
_cell_volume 2861.436403
_symmetry_space_group_name_H-M "P M N A"
_symmetry_group_IT_number 53
_symmetry_cell_setting 'orthorhombic'
loop_
_space_group_symop_operation_xyz
x,y,z
1/2-x,-y,1/2+z
x,-y,-z
1/2-x,y,1/2-z
-x,-y,-z
1/2+x,y,1/2-z
-x,y,z
1/2+x,-y,1/2+z
loop_
_atom_site_type_symbol
_atom_site_label
_atom_site_fract_x
_atom_site_fract_y
_atom_site_fract_z
Si Si1 0.208889 0.021767 0.924388
Si Si2 0.208954 0.558463 0.408366
Si Si3 0.293892 0.892249 0.672196
Si Si4 0.296630 0.307162 0.826072
Si Si5 0.205628 0.599732 0.558663
Si Si6 0.794867 0.237018 0.078156
Si Si7 0.295741 0.185118 0.567056
O O1 0.268198 0.104692 0.913214
O O2 0.000000 0.020781 0.922148
O O3 0.268223 0.962188 0.870540
O O4 0.256731 0.000000 0.000000
O O5 0.269896 0.614388 0.352158
O O6 0.260412 0.590551 0.481021
O O7 0.265704 0.474267 0.404703
O O8 0.000000 0.557312 0.407763
O O9 0.250000 0.895355 0.750000
O O10 0.500000 0.892509 0.667759
O O11 0.231710 0.818545 0.635033
O O12 0.250000 0.292559 0.750000
O O13 0.500000 0.309511 0.830998
O O14 0.237135 0.244717 0.876581
O O15 0.257692 0.677604 0.587385
O O16 0.000000 0.598163 0.558246
O O17 0.000000 0.229945 0.076399
O O18 0.728053 0.211690 0.005132
O O19 0.500000 0.178215 0.559274
#
# Coordination Sequence:
#
# PCOD9415805 Si02
#       7
#     8   8   8   8   8   8   8
#     4   9  16  32  58  82 104 139 182 220 262 315
#     4   8  16  31  52  76 102 135 175 215 261 317
#     4  10  21  37  56  79 109 144 179 217 265 320
#     4  11  22  37  54  76 109 146 180 219 270 323
#     4   9  16  31  55  79 102 134 175 218 264 314
#     4  10  19  32  53  82 111 137 175 223 267 314
#     4  10  19  33  56  83 107 137 180 224 267 318
#
# _framework density 19.570591
#
# number of rings (size 3 to 8) (size 9 to 14) (size 15 to 20)
#    0.000    2.429    2.857    1.286    0.000    1.143 
#    0.000    5.714    0.000    4.286    0.000    0.000 
#    0.000    0.000    0.000    0.000    0.000    0.000 
#
# Total GULP energy -312406.740216 kJ/mol
# GULP energy per Si atom -5578.691790 kJ/mol
# Density = 1.952605 g / cm^3
# Si number density = 19.570591 Si / 1000 Ang^3
#
#
#
# Elastic Constant Matrix: (Units=GPa)
#
#
# Indices 1 2 3 4 5 6 
#
# 1 19.4960 8.3335 -0.7102 0.0000 0.0000 0.0000
# 2 8.3335 202.0767 99.7810 0.0000 0.0000 0.0000
# 3 -0.7102 99.7810 140.0999 0.0000 0.0000 0.0000
# 4 0.0000 0.0000 0.0000 30.5079 0.0000 0.0000
# 5 0.0000 0.0000 0.0000 0.0000 20.0677 0.0000
# 6 0.0000 0.0000 0.0000 0.0000 0.0000 18.9961
#
#
#
# Elastic Compliance Matrix: (Units=1/GPa)
#
#
# Indices 1 2 3 4 5 6 
#
# 1 0.052921 -0.003571 0.002811 0.000000 0.000000 0.000000
# 2 -0.003571 0.007874 -0.005626 0.000000 0.000000 0.000000
# 3 0.002811 -0.005626 0.011159 0.000000 0.000000 0.000000
# 4 0.000000 0.000000 0.000000 0.032778 0.000000 0.000000
# 5 0.000000 0.000000 0.000000 0.000000 0.049831 0.000000
# 6 0.000000 0.000000 0.000000 0.000000 0.000000 0.052642
#
#
# Mechanical properties :
#
#
# Convention : Reuss Voigt Hill
#
# Bulk Modulus (GPa) = 16.89665 64.05348 40.47507
# Shear Modulus (GPa) = 20.85905 30.86556 25.86230
#
# Velocity S-wave (km/s) = 3.26826 3.97563 3.63917
# Velocity P-wave (km/s) = 4.78481 7.33994 6.19553
#
# Compressibility (1/GPa) = 0.05918333
#
# Stress axis : x y z
#
# Youngs Moduli (GPa) = 18.89605 127.00294 89.61467
#
# Poissons Ratio (x) = 0.45348 -0.25193
# Poissons Ratio (y) = 0.06747 0.50417
# Poissons Ratio (z) = -0.05312 0.71451
#
# Static dielectric constant tensor:
#      x y z
#    x 1.728360 0.000000 0.000000 
#    y 0.000000 1.704970 0.000000 
#    z 0.000000 0.000000 1.641390 
# 
# From -- ./inp_files/30973.got.cif
#   From: 2010.05.17/outbox.cif.g08.bks.cpg/sg53_16_cif.got.tgz:30973.got - 2010.06.03 12:45:16.
