data_PCOD9415857
_publ_section_title
;
Structure prediction by ZEFSAII (Michael W. Deem and Ramdas Pophale) SiO2 
 PCOD9415857
Probable space group: P M N A
;
_chemical_formula_sum "Si O2"
_cell_formula_units_Z 64
_cell_length_a 28.021557
_cell_length_b 8.530263
_cell_length_c 10.628684
_cell_angle_alpha 90.000000
_cell_angle_beta 90.000000
_cell_angle_gamma 90.000000
_cell_volume 2540.587632
_symmetry_space_group_name_H-M "P M N A"
_symmetry_group_IT_number 53
_symmetry_cell_setting 'orthorhombic'
loop_
_space_group_symop_operation_xyz
x,y,z
1/2-x,-y,1/2+z
x,-y,-z
1/2-x,y,1/2-z
-x,-y,-z
1/2+x,y,1/2-z
-x,y,z
1/2+x,-y,1/2+z
loop_
_atom_site_type_symbol
_atom_site_label
_atom_site_fract_x
_atom_site_fract_y
_atom_site_fract_z
Si Si1 0.911583 0.837431 0.069660
Si Si2 0.448151 0.298439 0.318060
Si Si3 0.075816 0.017965 0.670000
Si Si4 0.827461 0.161842 0.326502
Si Si5 0.946074 0.335469 0.583281
Si Si6 0.863390 0.483161 0.307532
Si Si7 0.318773 0.369779 0.600337
Si Si8 0.724039 0.846914 0.567106
O O1 0.934149 0.876676 0.204217
O O2 0.862684 0.749509 0.097899
O O3 0.942250 0.748686 0.963769
O O4 0.901796 0.000000 0.000000
O O5 0.500000 0.371326 0.299088
O O6 0.403951 0.408266 0.284261
O O7 0.445445 0.149829 0.220707
O O8 0.060600 0.144129 0.560885
O O9 0.131810 0.969150 0.660797
O O10 0.846404 0.328056 0.380374
O O11 0.812877 0.191958 0.179612
O O12 0.776712 0.119666 0.383473
O O13 0.948514 0.500000 0.500000
O O14 0.893979 0.375670 0.638040
O O15 0.000000 0.336468 0.636941
O O16 0.817935 0.552159 0.235511
O O17 0.331994 0.500000 0.500000
O O18 0.273938 0.285418 0.539465
O O19 0.705703 0.000000 0.500000
#
# Coordination Sequence:
#
# PCOD9415857 Si02
#       8
#     8   8   8   8   8   8   8   8
#     4  10  19  32  57  91 126 168 207 253 323 404
#     4  10  20  34  56  95 133 167 215 268 325 403
#     4  10  20  38  63  85 125 178 220 267 330 392
#     4  10  23  42  65  94 128 174 221 276 333 402
#     4  11  25  43  64  94 130 173 229 287 333 394
#     4  11  22  40  66  88 128 174 212 264 340 406
#     4  12  19  36  63  91 124 168 202 255 336 398
#     4  11  23  40  67  95 130 165 222 280 327 408
#
# _framework density 25.191023000000001
#
# number of rings (size 3 to 8) (size 9 to 14) (size 15 to 20)
#    0.000    1.375    3.750    3.375    0.000    3.750 
#    0.000    4.375    2.750    6.750    0.000    0.000 
#    0.000    0.000    0.000    0.000    0.000    0.000 
#
# Total GULP energy -356655.785174 kJ/mol
# GULP energy per Si atom -5572.746643 kJ/mol
# Density = 2.513369 g / cm^3
# Si number density = 25.191023 Si / 1000 Ang^3
#
#
#
# Elastic Constant Matrix: (Units=GPa)
#
#
# Indices 1 2 3 4 5 6 
#
# 1 105.4165 10.1772 18.5072 0.0000 0.0000 0.0000
# 2 10.1772 115.1409 13.3710 0.0000 0.0000 0.0000
# 3 18.5072 13.3710 57.6677 0.0000 0.0000 0.0000
# 4 0.0000 0.0000 0.0000 26.4940 0.0000 0.0000
# 5 0.0000 0.0000 0.0000 0.0000 108.7495 0.0000
# 6 0.0000 0.0000 0.0000 0.0000 0.0000 19.3911
#
#
#
# Elastic Compliance Matrix: (Units=1/GPa)
#
#
# Indices 1 2 3 4 5 6 
#
# 1 0.010084 -0.000530 -0.003113 0.000000 0.000000 0.000000
# 2 -0.000530 0.008953 -0.001906 0.000000 0.000000 0.000000
# 3 -0.003113 -0.001906 0.018782 0.000000 0.000000 0.000000
# 4 0.000000 0.000000 0.000000 0.037744 0.000000 0.000000
# 5 0.000000 0.000000 0.000000 0.000000 0.009195 0.000000
# 6 0.000000 0.000000 0.000000 0.000000 0.000000 0.051570
#
#
# Mechanical properties :
#
#
# Convention : Reuss Voigt Hill
#
# Bulk Modulus (GPa) = 37.42402 40.25955 38.84178
# Shear Modulus (GPa) = 31.98285 46.67156 39.32720
#
# Velocity S-wave (km/s) = 3.56703 4.30898 3.95544
# Velocity P-wave (km/s) = 5.64387 6.38536 6.02603
#
# Compressibility (1/GPa) = 0.02672081
#
# Stress axis : x y z
#
# Youngs Moduli (GPa) = 99.16774 111.69233 53.24303
#
# Poissons Ratio (x) = 0.05917 0.16577
# Poissons Ratio (y) = 0.05253 0.10148
# Poissons Ratio (z) = 0.30875 0.21287
#
# Static dielectric constant tensor:
#      x y z
#    x 1.906370 0.000000 0.000000 
#    y 0.000000 1.900180 0.000000 
#    z 0.000000 0.000000 -2.036340 
# 
# From -- ./inp_files/19052.got.cif
#   From: 2010.05.17/outbox.cif.g08.bks.cpg/sg53_10_cif.got.tgz:19052.got - 2010.06.03 12:45:16.
