data_PCOD9415526
_publ_section_title
;
Structure prediction by ZEFSAII (Michael W. Deem and Ramdas Pophale) SiO2 
 PCOD9415526
Probable space group: P M N A
;
_chemical_formula_sum "Si O2"
_cell_formula_units_Z 64
_cell_length_a 9.005735
_cell_length_b 12.813467
_cell_length_c 29.367191
_cell_angle_alpha 90.000000
_cell_angle_beta 90.000000
_cell_angle_gamma 90.000000
_cell_volume 3388.817850
_symmetry_space_group_name_H-M "P M N A"
_symmetry_group_IT_number 53
_symmetry_cell_setting 'orthorhombic'
loop_
_space_group_symop_operation_xyz
x,y,z
1/2-x,-y,1/2+z
x,-y,-z
1/2-x,y,1/2-z
-x,-y,-z
1/2+x,y,1/2-z
-x,y,z
1/2+x,-y,1/2+z
loop_
_atom_site_type_symbol
_atom_site_label
_atom_site_fract_x
_atom_site_fract_y
_atom_site_fract_z
Si Si1 0.823924 0.068734 0.795954
Si Si2 0.677146 0.445180 0.389160
Si Si3 0.177459 0.344590 0.945362
Si Si4 0.828765 0.139490 0.321572
Si Si5 0.178240 0.870425 0.103405
Si Si6 0.828136 0.923497 0.572762
Si Si7 0.678416 0.292627 0.038682
Si Si8 0.822575 0.620023 0.702063
O O1 0.750000 0.110701 0.750000
O O2 0.771763 0.118997 0.843829
O O3 0.000000 0.079301 0.792754
O O4 0.778350 0.947263 0.800806
O O5 0.500000 0.430247 0.385797
O O6 0.705818 0.553659 0.415137
O O7 0.748939 0.353966 0.419477
O O8 0.750329 0.441830 0.339647
O O9 0.219726 0.239651 0.918361
O O10 0.000000 0.341377 0.954900
O O11 0.265183 0.344908 0.992523
O O12 0.821582 0.125197 0.376167
O O13 0.792111 0.256865 0.307412
O O14 0.000000 0.117245 0.307987
O O15 0.000000 0.877656 0.103736
O O16 0.240451 0.968753 0.075397
O O17 0.775575 0.829628 0.540470
O O18 0.000000 0.946536 0.562357
O O19 0.500000 0.295973 0.042674
O O20 0.750000 0.591352 0.750000
O O21 0.000000 0.606832 0.702808
#
# Coordination Sequence:
#
# PCOD9415526 Si02
#       8
#     8   8   8   8   8   8   8   8
#     4  10  19  31  51  79 107 143 187 230 278 333
#     4  11  23  40  62  85 115 154 195 241 290 339
#     4  10  23  42  60  82 113 151 196 243 289 342
#     4   9  17  32  52  77 113 149 179 221 274 331
#     4   9  20  38  57  79 112 151 191 234 282 341
#     4   9  18  34  55  83 118 149 180 226 282 337
#     4  11  22  38  61  90 119 148 187 239 294 348
#     4  11  22  37  57  85 119 153 191 234 288 345
#
# _framework density 18.885642000000001
#
# number of rings (size 3 to 8) (size 9 to 14) (size 15 to 20)
#    0.000    2.000    1.250    2.250    0.000    7.000 
#    0.000    3.125    0.000    1.500    0.000    0.000 
#    0.000    0.000    0.000    0.000    0.000    0.000 
#
# Total GULP energy -357451.122909 kJ/mol
# GULP energy per Si atom -5585.173795 kJ/mol
# Density = 1.884266 g / cm^3
# Si number density = 18.885642 Si / 1000 Ang^3
#
#
#
# Elastic Constant Matrix: (Units=GPa)
#
#
# Indices 1 2 3 4 5 6 
#
# 1 40.6921 28.9114 33.5289 0.0000 0.0000 0.0000
# 2 28.9114 71.6274 21.2573 0.0000 0.0000 0.0000
# 3 33.5289 21.2573 79.7956 0.0000 0.0000 0.0000
# 4 0.0000 0.0000 0.0000 -59.7498 0.0000 0.0000
# 5 0.0000 0.0000 0.0000 0.0000 13.8804 0.0000
# 6 0.0000 0.0000 0.0000 0.0000 0.0000 -47.9760
#
#
#
# Elastic Compliance Matrix: (Units=1/GPa)
#
#
# Indices 1 2 3 4 5 6 
#
# 1 0.048656 -0.014737 -0.016519 0.000000 0.000000 0.000000
# 2 -0.014737 0.019623 0.000965 0.000000 0.000000 0.000000
# 3 -0.016519 0.000965 0.019216 0.000000 0.000000 0.000000
# 4 0.000000 0.000000 0.000000 -0.016736 0.000000 0.000000
# 5 0.000000 0.000000 0.000000 0.000000 0.072044 0.000000
# 6 0.000000 0.000000 0.000000 0.000000 0.000000 -0.020844
#
#
# Mechanical properties :
#
#
# Convention : Reuss Voigt Hill
#
# Bulk Modulus (GPa) = 37.15634 39.94559 38.55097
# Shear Modulus (GPa) = 26.10802 -11.54124 7.28339
#
# Velocity S-wave (km/s) = 3.72213 -2.47475 1.96595
# Velocity P-wave (km/s) = 6.17976 3.60990 5.06067
#
# Compressibility (1/GPa) = 0.02691331
#
# Stress axis : x y z
#
# Youngs Moduli (GPa) = 20.55241 50.96004 52.04017
#
# Poissons Ratio (x) = 0.75100 0.85963
# Poissons Ratio (y) = 0.30288 -0.05020
# Poissons Ratio (z) = 0.33950 -0.04916
#
# Static dielectric constant tensor:
#      x y z
#    x 1.639610 0.000000 0.000000 
#    y 0.000000 1.638640 0.000000 
#    z 0.000000 0.000000 1.678800 
# 
# From -- ./inp_files/38267.got.cif
#   From: 2010.05.17/outbox.cif.g08.bks.cpg/sg53_20_cif.got.tgz:38267.got - 2010.06.03 12:45:16.
