data_PCOD9415187
_publ_section_title
;
Structure prediction by ZEFSAII (Michael W. Deem and Ramdas Pophale) SiO2 
 PCOD9415187
Probable space group: P M N A
;
_chemical_formula_sum "Si O2"
_cell_formula_units_Z 64
_cell_length_a 7.869010
_cell_length_b 17.851637
_cell_length_c 26.331674
_cell_angle_alpha 90.000000
_cell_angle_beta 90.000000
_cell_angle_gamma 90.000000
_cell_volume 3698.934271
_symmetry_space_group_name_H-M "P M N A"
_symmetry_group_IT_number 53
_symmetry_cell_setting 'orthorhombic'
loop_
_space_group_symop_operation_xyz
x,y,z
1/2-x,-y,1/2+z
x,-y,-z
1/2-x,y,1/2-z
-x,-y,-z
1/2+x,y,1/2-z
-x,y,z
1/2+x,-y,1/2+z
loop_
_atom_site_type_symbol
_atom_site_label
_atom_site_fract_x
_atom_site_fract_y
_atom_site_fract_z
Si Si1 0.795407 0.583896 0.692813
Si Si2 0.702856 0.587165 0.192740
Si Si3 0.299133 0.584048 0.997356
Si Si4 0.802081 0.998710 0.061813
Si Si5 0.705107 0.319585 0.098043
Si Si6 0.208293 0.164189 0.942408
Si Si7 0.795487 0.160897 0.059740
Si Si8 0.200437 0.677368 0.094632
O O1 0.750000 0.606846 0.750000
O O2 0.732985 0.498367 0.684961
O O3 0.733261 0.639159 0.648890
O O4 0.000000 0.581429 0.689567
O O5 0.750000 0.609492 0.250000
O O6 0.500000 0.585587 0.188523
O O7 0.769402 0.641669 0.149366
O O8 0.500000 0.576126 0.986812
O O9 0.279226 0.625855 0.050730
O O10 0.226513 0.500000 0.000000
O O11 0.229934 0.635020 0.951472
O O12 0.728513 0.079365 0.077317
O O13 0.000000 0.998120 0.077753
O O14 0.729383 0.917442 0.076006
O O15 0.800437 0.000000 0.000000
O O16 0.500000 0.323131 0.097903
O O17 0.751249 0.232801 0.092647
O O18 0.262878 0.237230 0.911567
O O19 0.000000 0.160923 0.941936
O O20 0.260784 0.174396 0.001356
O O21 0.000000 0.154771 0.057798
O O22 0.000000 0.678455 0.084278
#
# Coordination Sequence:
#
# PCOD9415187 Si02
#       8
#     8   8   8   8   8   8   8   8
#     4   9  19  35  52  68  87 117 156 197 235 275
#     4  10  20  36  54  70  91 120 159 199 237 278
#     4  10  20  33  46  61  89 130 164 187 224 281
#     4   7  11  21  40  62  86 120 155 185 220 262
#     4  10  19  30  45  66  94 123 150 186 236 279
#     4   8  14  25  41  65  95 122 152 189 224 266
#     4   9  15  26  44  66  91 121 157 190 220 265
#     4  11  20  30  47  72  98 122 153 194 237 275
#
# _framework density 17.302282000000002
#
# number of rings (size 3 to 8) (size 9 to 14) (size 15 to 20)
#    0.000    2.750    1.250    3.000    0.000    3.250 
#    0.000    1.250    0.000    4.875    0.000    0.875 
#    0.000    2.000    0.000    0.000    0.000    0.000 
#
# Total GULP energy -356618.708181 kJ/mol
# GULP energy per Si atom -5572.167315 kJ/mol
# Density = 1.726290 g / cm^3
# Si number density = 17.302282 Si / 1000 Ang^3
#
#
#
# Elastic Constant Matrix: (Units=GPa)
#
#
# Indices 1 2 3 4 5 6 
#
# 1 14.7230 1.6752 -8.2979 0.0000 0.0000 0.0000
# 2 1.6752 175.9887 76.7063 0.0000 0.0000 0.0000
# 3 -8.2979 76.7063 83.4318 0.0000 0.0000 0.0000
# 4 0.0000 0.0000 0.0000 18.5860 0.0000 0.0000
# 5 0.0000 0.0000 0.0000 0.0000 226.0436 0.0000
# 6 0.0000 0.0000 0.0000 0.0000 0.0000 15.3516
#
#
#
# Elastic Compliance Matrix: (Units=1/GPa)
#
#
# Indices 1 2 3 4 5 6 
#
# 1 0.076470 -0.006746 0.013808 0.000000 0.000000 0.000000
# 2 -0.006746 0.010077 -0.009936 0.000000 0.000000 0.000000
# 3 0.013808 -0.009936 0.022494 0.000000 0.000000 0.000000
# 4 0.000000 0.000000 0.000000 0.053804 0.000000 0.000000
# 5 0.000000 0.000000 0.000000 0.000000 0.004424 0.000000
# 6 0.000000 0.000000 0.000000 0.000000 0.000000 0.065140
#
#
# Mechanical properties :
#
#
# Convention : Reuss Voigt Hill
#
# Bulk Modulus (GPa) = 9.68117 46.03454 27.85785
# Shear Modulus (GPa) = 18.34273 65.60023 41.97148
#
# Velocity S-wave (km/s) = 3.25950 6.16413 4.93056
# Velocity P-wave (km/s) = 4.44671 8.79351 6.96775
#
# Compressibility (1/GPa) = 0.10329335
#
# Stress axis : x y z
#
# Youngs Moduli (GPa) = 13.07695 99.23687 44.45680
#
# Poissons Ratio (x) = 0.66947 -0.61386
# Poissons Ratio (y) = 0.08822 0.44170
# Poissons Ratio (z) = -0.18057 0.98597
#
# Static dielectric constant tensor:
#      x y z
#    x 1.638690 0.000000 0.000000 
#    y 0.000000 1.634430 0.000000 
#    z 0.000000 0.000000 1.542860 
# 
# From -- ./inp_files/34420.got.cif
#   From: 2010.05.17/outbox.cif.g08.bks.cpg/sg53_18_cif.got.tgz:34420.got - 2010.06.03 12:45:16.
