data_PCOD9415853
_publ_section_title
;
Structure prediction by ZEFSAII (Michael W. Deem and Ramdas Pophale) SiO2 
 PCOD9415853
Probable space group: P M N A
;
_chemical_formula_sum "Si O2"
_cell_formula_units_Z 40
_cell_length_a 16.059812
_cell_length_b 13.636137
_cell_length_c 9.029534
_cell_angle_alpha 90.000000
_cell_angle_beta 90.000000
_cell_angle_gamma 90.000000
_cell_volume 1977.411932
_symmetry_space_group_name_H-M "P M N A"
_symmetry_group_IT_number 53
_symmetry_cell_setting 'orthorhombic'
loop_
_space_group_symop_operation_xyz
x,y,z
1/2-x,-y,1/2+z
x,-y,-z
1/2-x,y,1/2-z
-x,-y,-z
1/2+x,y,1/2-z
-x,y,z
1/2+x,-y,1/2+z
loop_
_atom_site_type_symbol
_atom_site_label
_atom_site_fract_x
_atom_site_fract_y
_atom_site_fract_z
Si Si1 0.158403 0.393637 0.817660
Si Si2 0.900833 0.185463 0.858777
Si Si3 0.596570 0.400981 0.352368
Si Si4 0.843805 0.804322 0.807276
Si Si5 0.401159 0.996436 0.164052
O O1 0.250000 0.392009 0.750000
O O2 0.114405 0.290513 0.781034
O O3 0.115739 0.496507 0.772314
O O4 0.151975 0.396931 0.997723
O O5 0.000000 0.175546 0.888688
O O6 0.869988 0.094499 0.761239
O O7 0.854172 0.185553 0.015851
O O8 0.500000 0.399904 0.399299
O O9 0.615740 0.300814 0.266747
O O10 0.750000 0.803611 0.750000
O O11 0.887487 0.899050 0.738913
O O12 0.500000 0.978704 0.151210
O O13 0.363846 0.000000 0.000000
#
# Coordination Sequence:
#
# PCOD9415853 Si02
#       5
#     8   8   8   8   8
#     4  10  19  32  56  88 117 144 189 247 294 336
#     4  10  21  40  63  85 116 163 206 236 287 365
#     4  10  20  38  60  83 115 158 200 233 285 361
#     4  11  22  35  58  89 117 149 197 251 299 344
#     4  10  22  39  59  84 117 156 198 244 293 353
#
# _framework density 20.228460999999999
#
# number of rings (size 3 to 8) (size 9 to 14) (size 15 to 20)
#    0.000    1.800    0.000    6.600    0.000    7.200 
#    0.000    0.000    0.000    0.000    0.000   30.800 
#    0.000    0.000    0.000    0.000    0.000    0.000 
#
# Total GULP energy -223145.109597 kJ/mol
# GULP energy per Si atom -5578.627740 kJ/mol
# Density = 2.018242 g / cm^3
# Si number density = 20.228461 Si / 1000 Ang^3
#
#
#
# Elastic Constant Matrix: (Units=GPa)
#
#
# Indices 1 2 3 4 5 6 
#
# 1 73.5941 -5.6346 40.7603 0.0000 0.0000 0.0000
# 2 -5.6346 179.9736 61.4953 0.0000 0.0000 0.0000
# 3 40.7603 61.4953 70.3603 0.0000 0.0000 0.0000
# 4 0.0000 0.0000 0.0000 1.0050 0.0000 0.0000
# 5 0.0000 0.0000 0.0000 0.0000 31.1698 0.0000
# 6 0.0000 0.0000 0.0000 0.0000 0.0000 137.1919
#
#
#
# Elastic Compliance Matrix: (Units=1/GPa)
#
#
# Indices 1 2 3 4 5 6 
#
# 1 0.027401 0.008956 -0.023702 0.000000 0.000000 0.000000
# 2 0.008956 0.010850 -0.014671 0.000000 0.000000 0.000000
# 3 -0.023702 -0.014671 0.040766 0.000000 0.000000 0.000000
# 4 0.000000 0.000000 0.000000 0.994980 0.000000 0.000000
# 5 0.000000 0.000000 0.000000 0.000000 0.032082 0.000000
# 6 0.000000 0.000000 0.000000 0.000000 0.000000 0.007289
#
#
# Mechanical properties :
#
#
# Convention : Reuss Voigt Hill
#
# Bulk Modulus (GPa) = 49.54480 57.46333 53.50407
# Shear Modulus (GPa) = 4.24114 49.02716 26.63415
#
# Velocity S-wave (km/s) = 1.44954 4.92842 3.63253
# Velocity P-wave (km/s) = 5.22947 7.80094 6.64086
#
# Compressibility (1/GPa) = 0.02018375
#
# Stress axis : x y z
#
# Youngs Moduli (GPa) = 36.49508 92.16712 24.53029
#
# Poissons Ratio (x) = -0.82549 0.58141
# Poissons Ratio (y) = -0.32687 0.35989
# Poissons Ratio (z) = 0.86499 1.35222
#
# Static dielectric constant tensor:
#      x y z
#    x 1.711110 0.000000 0.000000 
#    y 0.000000 1.774340 0.000000 
#    z 0.000000 0.000000 1.709890 
# 
# From -- ./inp_files/8341.got.cif
#   From: 2010.05.17/outbox.cif.g08.bks.cpg/sg53_5_cif.got.tgz:8341.got - 2010.06.03 12:45:16.
