data_PCOD9415016
_publ_section_title
;
Structure prediction by ZEFSAII (Michael W. Deem and Ramdas Pophale) SiO2 
 PCOD9415016
Probable space group: P M N A
;
_chemical_formula_sum "Si O2"
_cell_formula_units_Z 56
_cell_length_a 20.238299
_cell_length_b 9.825282
_cell_length_c 14.746825
_cell_angle_alpha 90.000000
_cell_angle_beta 90.000000
_cell_angle_gamma 90.000000
_cell_volume 2932.361835
_symmetry_space_group_name_H-M "P M N A"
_symmetry_group_IT_number 53
_symmetry_cell_setting 'orthorhombic'
loop_
_space_group_symop_operation_xyz
x,y,z
1/2-x,-y,1/2+z
x,-y,-z
1/2-x,y,1/2-z
-x,-y,-z
1/2+x,y,1/2-z
-x,y,z
1/2+x,-y,1/2+z
loop_
_atom_site_type_symbol
_atom_site_label
_atom_site_fract_x
_atom_site_fract_y
_atom_site_fract_z
Si Si1 0.723633 0.166081 0.854666
Si Si2 0.146609 0.058241 0.907620
Si Si3 0.573038 0.904506 0.142242
Si Si4 0.143030 0.432885 0.233625
Si Si5 0.927519 0.709149 0.181621
Si Si6 0.923972 0.141069 0.229741
Si Si7 0.763824 0.512745 0.391317
O O1 0.750000 0.141636 0.750000
O O2 0.775177 0.076390 0.910074
O O3 0.648532 0.131542 0.885154
O O4 0.734493 0.326672 0.868900
O O5 0.119232 0.208261 0.885665
O O6 0.122733 0.953104 0.831693
O O7 0.119257 0.000000 0.000000
O O8 0.500000 0.884675 0.095402
O O9 0.568560 0.807539 0.231055
O O10 0.575600 0.061512 0.174386
O O11 0.098612 0.564533 0.213528
O O12 0.103501 0.292711 0.230691
O O13 0.199892 0.443920 0.156229
O O14 0.176020 0.450076 0.332822
O O15 0.000000 0.696100 0.141062
O O16 0.000000 0.136994 0.196830
O O17 0.766118 0.500000 0.500000
#
# Coordination Sequence:
#
# PCOD9415016 Si02
#       7
#     8   8   8   8   8   8   8
#     4  12  18  40  65  88 114 160 216 253 299 380
#     4  11  23  37  58  91 124 156 202 261 309 368
#     4   9  18  35  61  85 112 151 202 251 297 359
#     4  11  21  39  61  87 124 162 207 258 307 371
#     4  10  18  34  61  84 112 164 204 236 300 373
#     4  10  22  37  57  90 125 160 201 252 312 376
#     4  11  23  38  60  90 125 158 206 266 317 361
#
# _framework density 19.097232999999999
#
# number of rings (size 3 to 8) (size 9 to 14) (size 15 to 20)
#    0.000    1.429    7.143    1.714    2.000    3.429 
#    0.000    0.000    0.000    6.857    0.000    0.000 
#    0.000    0.000    0.000    0.000    0.000    0.000 
#
# Total GULP energy -311762.023234 kJ/mol
# GULP energy per Si atom -5567.178986 kJ/mol
# Density = 1.905377 g / cm^3
# Si number density = 19.097233 Si / 1000 Ang^3
#
#
#
# Elastic Constant Matrix: (Units=GPa)
#
#
# Indices 1 2 3 4 5 6 
#
# 1 145.1077 38.2758 3.8473 0.0000 0.0000 0.0000
# 2 38.2758 120.2499 -5.5792 0.0000 0.0000 0.0000
# 3 3.8473 -5.5792 35.5331 0.0000 0.0000 0.0000
# 4 0.0000 0.0000 0.0000 11.0730 0.0000 0.0000
# 5 0.0000 0.0000 0.0000 0.0000 -6.7719 0.0000
# 6 0.0000 0.0000 0.0000 0.0000 0.0000 73.3984
#
#
#
# Elastic Compliance Matrix: (Units=1/GPa)
#
#
# Indices 1 2 3 4 5 6 
#
# 1 0.007574 -0.002467 -0.001207 0.000000 0.000000 0.000000
# 2 -0.002467 0.009181 0.001709 0.000000 0.000000 0.000000
# 3 -0.001207 0.001709 0.028542 0.000000 0.000000 0.000000
# 4 0.000000 0.000000 0.000000 0.090310 0.000000 0.000000
# 5 0.000000 0.000000 0.000000 0.000000 -0.147670 0.000000
# 6 0.000000 0.000000 0.000000 0.000000 0.000000 0.013624
#
#
# Mechanical properties :
#
#
# Convention : Reuss Voigt Hill
#
# Bulk Modulus (GPa) = 24.17505 41.55316 32.86411
# Shear Modulus (GPa) = 259.32880 33.16302 146.24591
#
# Velocity S-wave (km/s) = 11.66571 4.17170 8.76047
# Velocity P-wave (km/s) = 13.93334 6.70895 10.93499
#
# Compressibility (1/GPa) = 0.04136496
#
# Stress axis : x y z
#
# Youngs Moduli (GPa) = 132.02797 108.92648 35.03637
#
# Poissons Ratio (x) = 0.26871 0.04230
# Poissons Ratio (y) = 0.32570 -0.05986
# Poissons Ratio (z) = 0.15941 -0.18611
#
# Static dielectric constant tensor:
#      x y z
#    x 1.748810 0.000000 0.000000 
#    y 0.000000 1.647690 0.000000 
#    z 0.000000 0.000000 1.701040 
# 
# From -- ./inp_files/24332.got.cif
#   From: 2010.05.17/outbox.cif.g08.bks.cpg/sg53_13_cif.got.tgz:24332.got - 2010.06.03 12:45:16.
