data_PCOD9415239
_publ_section_title
;
Structure prediction by ZEFSAII (Michael W. Deem and Ramdas Pophale) SiO2 
 PCOD9415239
Probable space group: P M N A
;
_chemical_formula_sum "Si O2"
_cell_formula_units_Z 56
_cell_length_a 24.165250
_cell_length_b 15.815572
_cell_length_c 8.836194
_cell_angle_alpha 90.000000
_cell_angle_beta 90.000000
_cell_angle_gamma 90.000000
_cell_volume 3377.080697
_symmetry_space_group_name_H-M "P M N A"
_symmetry_group_IT_number 53
_symmetry_cell_setting 'orthorhombic'
loop_
_space_group_symop_operation_xyz
x,y,z
1/2-x,-y,1/2+z
x,-y,-z
1/2-x,y,1/2-z
-x,-y,-z
1/2+x,y,1/2-z
-x,y,z
1/2+x,-y,1/2+z
loop_
_atom_site_type_symbol
_atom_site_label
_atom_site_fract_x
_atom_site_fract_y
_atom_site_fract_z
Si Si1 0.188892 1.000000 0.316959
Si Si2 0.934400 0.678836 0.180936
Si Si3 0.500000 0.099182 0.329304
Si Si4 0.387826 0.158056 0.180774
Si Si5 0.066875 0.500000 0.672457
Si Si6 0.000000 0.099182 0.829305
Si Si7 0.934400 0.321164 0.180935
Si Si8 0.612174 0.158057 0.819226
O O1 0.250000 1.000000 0.250000
O O2 0.156726 0.086568 0.271100
O O3 0.190422 0.000000 0.500000
O O4 0.156726 0.913431 0.271101
O O5 0.918564 0.586564 0.243033
O O6 0.892222 0.748948 0.245646
O O7 0.000000 0.695266 0.225333
O O8 0.932794 0.679232 0.000000
O O9 0.446312 0.121820 0.235117
O O10 0.500000 0.137789 0.500000
O O11 0.500000 1.000000 0.348399
O O12 0.392222 0.251052 0.254355
O O13 0.384751 0.166122 0.000000
O O14 0.087350 0.500000 0.500000
O O15 0.081436 0.586564 0.756967
O O16 0.000000 0.500000 0.667722
O O17 0.053688 0.121820 0.735118
O O18 0.000000 0.304733 0.225333
#
# Coordination Sequence:
#
# PCOD9415239 Si02
#       8
#     8   8   4   8   8   4   8   8
#     4  10  24  41  56  75  99 134 176 220 265 308
#     4  10  19  30  46  73 106 139 175 211 252 302
#     4  11  21  31  47  74 103 134 169 207 257 308
#     4  11  21  34  52  75 103 136 174 214 257 308
#     4   9  17  29  45  67 100 143 178 207 250 299
#     4  11  21  31  47  74 103 134 169 207 257 308
#     4  10  19  30  46  73 106 139 175 211 252 302
#     4  11  21  34  52  75 103 136 174 214 257 308
#
# _framework density 16.582370000000001
#
# number of rings (size 3 to 8) (size 9 to 14) (size 15 to 20)
#    0.000    1.714    2.857    2.571    0.000    5.714 
#    0.000    0.000    0.000    0.000    0.000    1.000 
#    0.000    0.000    0.000    0.000    0.000    0.000 
#
# Total GULP energy -312008.921906 kJ/mol
# GULP energy per Si atom -5571.587891 kJ/mol
# Density = 1.654463 g / cm^3
# Si number density = 16.582370 Si / 1000 Ang^3
#
#
#
# Elastic Constant Matrix: (Units=GPa)
#
#
# Indices 1 2 3 4 5 6 
#
# 1 84.2546 54.8427 24.5119 0.0000 0.0000 0.0000
# 2 54.8427 179.1213 57.9052 0.0000 0.0000 0.0000
# 3 24.5119 57.9052 65.7958 0.0000 0.0000 0.0000
# 4 0.0000 0.0000 0.0000 33.3552 0.0000 0.0000
# 5 0.0000 0.0000 0.0000 0.0000 40.9432 0.0000
# 6 0.0000 0.0000 0.0000 0.0000 0.0000 7.5298
#
#
#
# Elastic Compliance Matrix: (Units=1/GPa)
#
#
# Indices 1 2 3 4 5 6 
#
# 1 0.015041 -0.003905 -0.002167 0.000000 0.000000 0.000000
# 2 -0.003905 0.008816 -0.006304 0.000000 0.000000 0.000000
# 3 -0.002167 -0.006304 0.021554 0.000000 0.000000 0.000000
# 4 0.000000 0.000000 0.000000 0.029980 0.000000 0.000000
# 5 0.000000 0.000000 0.000000 0.000000 0.024424 0.000000
# 6 0.000000 0.000000 0.000000 0.000000 0.000000 0.132805
#
#
# Mechanical properties :
#
#
# Convention : Reuss Voigt Hill
#
# Bulk Modulus (GPa) = 48.40443 67.07684 57.74063
# Shear Modulus (GPa) = 18.92081 29.15978 24.04030
#
# Velocity S-wave (km/s) = 3.38156 4.19797 3.81169
# Velocity P-wave (km/s) = 6.67085 8.00224 7.36669
#
# Compressibility (1/GPa) = 0.02065927
#
# Stress axis : x y z
#
# Youngs Moduli (GPa) = 66.48585 113.42560 46.39464
#
# Poissons Ratio (x) = 0.44288 0.10054
# Poissons Ratio (y) = 0.25960 0.29249
# Poissons Ratio (z) = 0.14408 0.71508
#
# Static dielectric constant tensor:
#      x y z
#    x 1.525320 0.000000 0.000000 
#    y 0.000000 1.618430 0.000000 
#    z 0.000000 0.000000 1.562200 
# 
# From -- ./inp_files/11137.got.cif
#   From: 2010.05.17/outbox.cif.g08.bks.cpg/sg53_6_cif.got.tgz:11137.got - 2010.06.03 12:45:16.
