data_PCOD9415623
_publ_section_title
;
Structure prediction by ZEFSAII (Michael W. Deem and Ramdas Pophale) SiO2 
 PCOD9415623
Probable space group: P M N A
;
_chemical_formula_sum "Si O2"
_cell_formula_units_Z 64
_cell_length_a 8.512746
_cell_length_b 20.365057
_cell_length_c 20.767892
_cell_angle_alpha 90.000000
_cell_angle_beta 90.000000
_cell_angle_gamma 90.000000
_cell_volume 3600.374871
_symmetry_space_group_name_H-M "P M N A"
_symmetry_group_IT_number 53
_symmetry_cell_setting 'orthorhombic'
loop_
_space_group_symop_operation_xyz
x,y,z
1/2-x,-y,1/2+z
x,-y,-z
1/2-x,y,1/2-z
-x,-y,-z
1/2+x,y,1/2-z
-x,y,z
1/2+x,-y,1/2+z
loop_
_atom_site_type_symbol
_atom_site_label
_atom_site_fract_x
_atom_site_fract_y
_atom_site_fract_z
Si Si1 0.687285 0.426004 0.431047
Si Si2 0.311242 0.330128 0.178920
Si Si3 0.689590 0.178397 0.179409
Si Si4 0.689246 0.180452 0.821188
Si Si5 0.808358 0.924535 0.572728
Si Si6 0.687556 0.326702 0.678589
Si Si7 0.812470 0.426897 0.572204
Si Si8 0.808671 0.074266 0.574094
O O1 0.500000 0.426972 0.435363
O O2 0.742828 0.377026 0.375583
O O3 0.756744 0.406769 0.500684
O O4 0.747537 0.499648 0.416973
O O5 0.250000 0.348279 0.250000
O O6 0.500000 0.333791 0.178180
O O7 0.263548 0.254082 0.167312
O O8 0.750000 0.159471 0.250000
O O9 0.500000 0.176782 0.180273
O O10 0.745900 0.128734 0.124357
O O11 0.750000 0.163126 0.750000
O O12 0.500000 0.182318 0.820248
O O13 0.751212 0.253335 0.836259
O O14 0.743027 0.127389 0.873787
O O15 0.759830 0.910091 0.499200
O O16 0.000000 0.923702 0.573172
O O17 0.760319 0.999287 0.588669
O O18 0.750000 0.343578 0.750000
O O19 0.500000 0.326405 0.679794
O O20 0.748932 0.377573 0.625872
O O21 0.000000 0.428572 0.573797
O O22 0.000000 0.074721 0.574521
#
# Coordination Sequence:
#
# PCOD9415623 Si02
#       8
#     8   8   8   8   8   8   8   8
#     4  11  22  38  58  83 112 143 177 218 263 313
#     4  10  20  35  53  77 106 141 181 225 271 320
#     4   9  18  31  50  73 101 133 170 213 261 311
#     4  10  19  32  50  75 103 136 172 213 261 314
#     4   8  14  28  47  71  99 131 170 216 259 304
#     4  11  22  38  57  80 108 141 178 221 267 317
#     4  11  22  39  60  83 110 142 177 217 261 313
#     4   8  15  27  47  72 100 131 171 215 258 306
#
# _framework density 17.775926999999999
#
# number of rings (size 3 to 8) (size 9 to 14) (size 15 to 20)
#    0.000    2.250    0.000    6.375    0.000    2.500 
#    0.000    5.000    0.000    2.250    0.000    4.375 
#    0.000    0.000    0.000    0.000    0.000    0.000 
#
# Total GULP energy -357208.094497 kJ/mol
# GULP energy per Si atom -5581.376477 kJ/mol
# Density = 1.773547 g / cm^3
# Si number density = 17.775927 Si / 1000 Ang^3
#
#
#
# Elastic Constant Matrix: (Units=GPa)
#
#
# Indices 1 2 3 4 5 6 
#
# 1 67.1184 23.5295 23.1707 0.0000 0.0000 0.0000
# 2 23.5295 109.6452 117.4327 0.0000 0.0000 0.0000
# 3 23.1707 117.4327 148.2572 0.0000 0.0000 0.0000
# 4 0.0000 0.0000 0.0000 45.9243 0.0000 0.0000
# 5 0.0000 0.0000 0.0000 0.0000 28.3288 0.0000
# 6 0.0000 0.0000 0.0000 0.0000 0.0000 25.7562
#
#
#
# Elastic Compliance Matrix: (Units=1/GPa)
#
#
# Indices 1 2 3 4 5 6 
#
# 1 0.016159 -0.005030 0.001459 0.000000 0.000000 0.000000
# 2 -0.005030 0.061705 -0.048089 0.000000 0.000000 0.000000
# 3 0.001459 -0.048089 0.044608 0.000000 0.000000 0.000000
# 4 0.000000 0.000000 0.000000 0.021775 0.000000 0.000000
# 5 0.000000 0.000000 0.000000 0.000000 0.035300 0.000000
# 6 0.000000 0.000000 0.000000 0.000000 0.000000 0.038826
#
#
# Mechanical properties :
#
#
# Convention : Reuss Voigt Hill
#
# Bulk Modulus (GPa) = 52.21860 72.58742 62.40301
# Shear Modulus (GPa) = 15.24032 30.72771 22.98402
#
# Velocity S-wave (km/s) = 2.93124 4.16217 3.59971
# Velocity P-wave (km/s) = 6.39500 8.00135 7.24284
#
# Compressibility (1/GPa) = 0.01915026
#
# Stress axis : x y z
#
# Youngs Moduli (GPa) = 61.88577 16.20619 22.41744
#
# Poissons Ratio (x) = 0.08152 -0.03271
# Poissons Ratio (y) = 0.31130 1.07804
# Poissons Ratio (z) = -0.09029 0.77935
#
# Static dielectric constant tensor:
#      x y z
#    x 1.603030 0.000000 0.000000 
#    y 0.000000 1.592280 0.000000 
#    z 0.000000 0.000000 1.587110 
# 
# From -- ./inp_files/31334.got.cif
#   From: 2010.05.17/outbox.cif.g08.bks.cpg/sg53_16_cif.got.tgz:31334.got - 2010.06.03 12:45:16.
