data_PCOD9415320
_publ_section_title
;
Structure prediction by ZEFSAII (Michael W. Deem and Ramdas Pophale) SiO2 
 PCOD9415320
Probable space group: P M N A
;
_chemical_formula_sum "Si O2"
_cell_formula_units_Z 64
_cell_length_a 17.982592
_cell_length_b 9.653044
_cell_length_c 25.760515
_cell_angle_alpha 90.000000
_cell_angle_beta 90.000000
_cell_angle_gamma 90.000000
_cell_volume 4471.684124
_symmetry_space_group_name_H-M "P M N A"
_symmetry_group_IT_number 53
_symmetry_cell_setting 'orthorhombic'
loop_
_space_group_symop_operation_xyz
x,y,z
1/2-x,-y,1/2+z
x,-y,-z
1/2-x,y,1/2-z
-x,-y,-z
1/2+x,y,1/2-z
-x,y,z
1/2+x,-y,1/2+z
loop_
_atom_site_type_symbol
_atom_site_label
_atom_site_fract_x
_atom_site_fract_y
_atom_site_fract_z
Si Si1 0.341415 0.488909 0.146015
Si Si2 0.304597 0.502898 0.699585
Si Si3 0.659381 0.180077 0.857765
Si Si4 0.588625 0.009372 0.763125
Si Si5 0.587083 0.142768 0.969129
Si Si6 0.911654 0.683634 0.740283
Si Si7 0.415727 0.618572 0.957129
Si Si8 0.695516 0.811092 0.300297
O O1 0.253360 0.464868 0.153991
O O2 0.353746 0.654831 0.151593
O O3 0.385385 0.404248 0.190209
O O4 0.369606 0.435422 0.091118
O O5 0.250000 0.502268 0.750000
O O6 0.367575 0.613775 0.711985
O O7 0.333715 0.345961 0.693824
O O8 0.631621 0.144868 0.915391
O O9 0.747307 0.155811 0.846825
O O10 0.615180 0.089506 0.815148
O O11 0.500000 0.022586 0.757975
O O12 0.607533 0.846009 0.766093
O O13 0.631881 0.081412 0.715251
O O14 0.500000 0.178131 0.957286
O O15 0.616096 0.253206 0.010893
O O16 0.588073 0.000000 0.000000
O O17 0.000000 0.672288 0.746306
O O18 0.500000 0.653731 0.939260
O O19 0.420948 0.500000 0.000000
O O20 0.750000 0.809556 0.250000
#
# Coordination Sequence:
#
# PCOD9415320 Si02
#       8
#     8   8   8   8   8   8   8   8
#     4  10  19  31  47  65  87 117 152 183 217 259
#     4   8  16  30  45  63  86 112 144 182 218 258
#     4  10  19  32  47  63  87 120 152 182 218 256
#     4  10  20  30  43  65  91 117 147 180 218 263
#     4  10  21  33  44  62  91 120 149 186 217 247
#     4  10  20  30  43  66  92 116 145 181 219 264
#     4  10  19  31  46  64  87 118 151 181 214 250
#     4   8  16  30  46  63  84 113 147 180 216 261
#
# _framework density 14.312281
#
# number of rings (size 3 to 8) (size 9 to 14) (size 15 to 20)
#    0.000    2.500    1.250    3.000    1.750    7.500 
#    0.000    0.000    0.000    0.000    0.000    0.000 
#    0.000    2.000    0.000    0.125    0.000    0.000 
#
# Total GULP energy -356358.678324 kJ/mol
# GULP energy per Si atom -5568.104349 kJ/mol
# Density = 1.427971 g / cm^3
# Si number density = 14.312281 Si / 1000 Ang^3
#
#
#
# Elastic Constant Matrix: (Units=GPa)
#
#
# Indices 1 2 3 4 5 6 
#
# 1 65.6440 54.7673 45.8290 0.0000 0.0000 0.0000
# 2 54.7673 96.1813 37.3352 0.0000 0.0000 0.0000
# 3 45.8290 37.3352 77.3182 0.0000 0.0000 0.0000
# 4 0.0000 0.0000 0.0000 18.6634 0.0000 0.0000
# 5 0.0000 0.0000 0.0000 0.0000 44.2953 0.0000
# 6 0.0000 0.0000 0.0000 0.0000 0.0000 23.9400
#
#
#
# Elastic Compliance Matrix: (Units=1/GPa)
#
#
# Indices 1 2 3 4 5 6 
#
# 1 0.040242 -0.016805 -0.015738 0.000000 0.000000 0.000000
# 2 -0.016805 0.019814 0.000394 0.000000 0.000000 0.000000
# 3 -0.015738 0.000394 0.022072 0.000000 0.000000 0.000000
# 4 0.000000 0.000000 0.000000 0.053581 0.000000 0.000000
# 5 0.000000 0.000000 0.000000 0.000000 0.022576 0.000000
# 6 0.000000 0.000000 0.000000 0.000000 0.000000 0.041771
#
#
# Mechanical properties :
#
#
# Convention : Reuss Voigt Hill
#
# Bulk Modulus (GPa) = 56.09116 57.22292 56.65704
# Shear Modulus (GPa) = 18.49826 24.12721 21.31274
#
# Velocity S-wave (km/s) = 3.59900 4.11027 3.86310
# Velocity P-wave (km/s) = 7.51973 7.91165 7.71818
#
# Compressibility (1/GPa) = 0.01782812
#
# Stress axis : x y z
#
# Youngs Moduli (GPa) = 24.84992 50.47063 45.30691
#
# Poissons Ratio (x) = 0.84818 0.71302
# Poissons Ratio (y) = 0.41761 -0.01783
# Poissons Ratio (z) = 0.39108 -0.01986
#
# Static dielectric constant tensor:
#      x y z
#    x 1.478250 0.000000 0.000000 
#    y 0.000000 1.453950 0.000000 
#    z 0.000000 0.000000 1.463550 
# 
# From -- ./inp_files/37182.got.cif
#   From: 2010.05.17/outbox.cif.g08.bks.cpg/sg53_19_cif.got.tgz:37182.got - 2010.06.03 12:45:16.
