data_PCOD9415839
_publ_section_title
;
Structure prediction by ZEFSAII (Michael W. Deem and Ramdas Pophale) SiO2 
 PCOD9415839
Probable space group: P M N A
;
_chemical_formula_sum "Si O2"
_cell_formula_units_Z 56
_cell_length_a 20.429193
_cell_length_b 9.647459
_cell_length_c 16.160238
_cell_angle_alpha 90.000000
_cell_angle_beta 90.000000
_cell_angle_gamma 90.000000
_cell_volume 3185.018106
_symmetry_space_group_name_H-M "P M N A"
_symmetry_group_IT_number 53
_symmetry_cell_setting 'orthorhombic'
loop_
_space_group_symop_operation_xyz
x,y,z
1/2-x,-y,1/2+z
x,-y,-z
1/2-x,y,1/2-z
-x,-y,-z
1/2+x,y,1/2-z
-x,y,z
1/2+x,-y,1/2+z
loop_
_atom_site_type_symbol
_atom_site_label
_atom_site_fract_x
_atom_site_fract_y
_atom_site_fract_z
Si Si1 0.783679 0.456213 0.171093
Si Si2 0.252083 0.145182 0.969046
Si Si3 0.185534 0.047698 0.801095
Si Si4 0.139307 0.791848 0.897536
Si Si5 0.376365 0.675730 0.250533
Si Si6 0.500000 0.707102 0.547724
Si Si7 0.500000 0.410600 0.637901
Si Si8 0.334374 0.411246 0.925940
O O1 0.750000 0.383421 0.250000
O O2 0.839995 0.358307 0.136497
O O3 0.815868 0.594815 0.207190
O O4 0.728079 0.498133 0.106053
O O5 0.215103 0.119862 0.882939
O O6 0.303864 0.267769 0.959282
O O7 0.194707 0.179502 0.033861
O O8 0.282411 0.000000 0.000000
O O9 0.250000 0.008376 0.750000
O O10 0.141175 0.161788 0.755208
O O11 0.146886 0.911729 0.829520
O O12 0.066765 0.787907 0.933549
O O13 0.438104 0.633341 0.306180
O O14 0.377140 0.622675 0.155587
O O15 0.500000 0.571303 0.608044
O O16 0.500000 0.665639 0.451131
O O17 0.365797 0.500000 0.000000
#
# Coordination Sequence:
#
# PCOD9415839 Si02
#       8
#     8   8   8   8   8   4   4   8
#     4  10  19  32  54  84 116 145 193 248 292 346
#     4  10  20  33  51  83 117 147 187 242 297 355
#     4  11  20  36  57  83 119 155 190 246 301 353
#     4  11  22  35  55  83 124 156 200 230 290 357
#     4  11  21  38  57  85 115 156 202 242 297 364
#     4  11  24  39  57  87 126 168 201 230 285 361
#     4  11  24  39  62  83 121 166 199 242 289 354
#     4  11  20  34  60  86 114 147 197 259 312 347
#
# _framework density 17.582317
#
# number of rings (size 3 to 8) (size 9 to 14) (size 15 to 20)
#    0.000    1.286    5.714    1.714    0.000    0.571 
#    0.000    4.286    0.000    0.000    0.000    0.500 
#    0.000    0.000    0.000    0.000    0.000    0.000 
#
# Total GULP energy -312401.509900 kJ/mol
# GULP energy per Si atom -5578.598391 kJ/mol
# Density = 1.754230 g / cm^3
# Si number density = 17.582317 Si / 1000 Ang^3
#
#
#
# Elastic Constant Matrix: (Units=GPa)
#
#
# Indices 1 2 3 4 5 6 
#
# 1 75.9244 23.2097 36.1099 0.0000 0.0000 0.0000
# 2 23.2097 90.1373 42.5945 0.0000 0.0000 0.0000
# 3 36.1099 42.5945 98.9968 0.0000 0.0000 0.0000
# 4 0.0000 0.0000 0.0000 -0.0099 0.0000 0.0000
# 5 0.0000 0.0000 0.0000 0.0000 32.4899 0.0000
# 6 0.0000 0.0000 0.0000 0.0000 0.0000 2.1705
#
#
#
# Elastic Compliance Matrix: (Units=1/GPa)
#
#
# Indices 1 2 3 4 5 6 
#
# 1 0.016146 -0.001725 -0.005147 0.000000 0.000000 0.000000
# 2 -0.001725 0.014110 -0.005442 0.000000 0.000000 0.000000
# 3 -0.005147 -0.005442 0.014320 0.000000 0.000000 0.000000
# 4 0.000000 0.000000 0.000000********** 0.000000 0.000000
# 5 0.000000 0.000000 0.000000 0.000000 0.030779 0.000000
# 6 0.000000 0.000000 0.000000 0.000000 0.000000 0.460717
#
#
# Mechanical properties :
#
#
# Convention : Reuss Voigt Hill
#
# Bulk Modulus (GPa) = 50.12975 52.09850 51.11413
# Shear Modulus (GPa) = -0.04967 17.80641 8.87837
#
# Velocity S-wave (km/s) = -0.16825 3.18582 2.24957
# Velocity P-wave (km/s) = 5.34187 6.57481 5.99015
#
# Compressibility (1/GPa) = 0.01994823
#
# Stress axis : x y z
#
# Youngs Moduli (GPa) = 61.93312 70.87234 69.83162
#
# Poissons Ratio (x) = 0.12227 0.35944
# Poissons Ratio (y) = 0.10685 0.38000
# Poissons Ratio (z) = 0.31878 0.38566
#
# Static dielectric constant tensor:
#      x y z
#    x 1.611070 0.000000 0.000000 
#    y 0.000000 1.626010 0.000000 
#    z 0.000000 0.000000 1.648950 
# 
# From -- ./inp_files/24389.got.cif
#   From: 2010.05.17/outbox.cif.g08.bks.cpg/sg53_13_cif.got.tgz:24389.got - 2010.06.03 12:45:16.
