data_PCOD9415472
_publ_section_title
;
Structure prediction by ZEFSAII (Michael W. Deem and Ramdas Pophale) SiO2 
 PCOD9415472
Probable space group: P M N A
;
_chemical_formula_sum "Si O2"
_cell_formula_units_Z 48
_cell_length_a 23.091559
_cell_length_b 11.786149
_cell_length_c 8.243897
_cell_angle_alpha 90.000000
_cell_angle_beta 90.000000
_cell_angle_gamma 90.000000
_cell_volume 2243.663583
_symmetry_space_group_name_H-M "P M N A"
_symmetry_group_IT_number 53
_symmetry_cell_setting 'orthorhombic'
loop_
_space_group_symop_operation_xyz
x,y,z
1/2-x,-y,1/2+z
x,-y,-z
1/2-x,y,1/2-z
-x,-y,-z
1/2+x,y,1/2-z
-x,y,z
1/2+x,-y,1/2+z
loop_
_atom_site_type_symbol
_atom_site_label
_atom_site_fract_x
_atom_site_fract_y
_atom_site_fract_z
Si Si1 0.065208 0.368344 0.512367
Si Si2 0.340376 0.219027 0.796835
Si Si3 0.207911 0.827855 0.619837
Si Si4 0.105251 0.273248 0.188945
Si Si5 0.290718 0.368099 0.501074
Si Si6 0.937358 0.119286 0.911014
O O1 0.080061 0.500000 0.500000
O O2 0.114395 0.301160 0.609518
O O3 0.066828 0.325524 0.328224
O O4 0.000000 0.355739 0.579991
O O5 0.306266 0.301034 0.669586
O O6 0.381271 0.134629 0.698110
O O7 0.306034 0.144962 0.932065
O O8 0.250000 0.888713 0.750000
O O9 0.148302 0.813165 0.717027
O O10 0.240791 0.707355 0.582548
O O11 0.150389 0.358878 0.104015
O O12 0.069189 0.214035 0.049286
O O13 0.273626 0.500000 0.500000
O O14 0.000000 0.130101 0.826758
O O15 0.935874 0.000000 0.000000
#
# Coordination Sequence:
#
# PCOD9415472 Si02
#       6
#     8   8   8   8   8   8
#     4  10  19  31  49  76 112 152 187 222 280 357
#     4  10  20  34  54  80 114 148 188 239 289 341
#     4   9  19  33  51  76 110 146 182 224 274 333
#     4   9  19  34  52  76 111 143 181 235 287 335
#     4  10  19  31  52  82 113 150 193 232 277 337
#     4  10  21  39  62  84 107 142 192 249 303 346
#
# _framework density 21.39358
#
# number of rings (size 3 to 8) (size 9 to 14) (size 15 to 20)
#    0.000    2.333    0.000    2.500    0.000    6.667 
#    0.000    3.333    0.000   47.000    0.000    0.000 
#    0.000    0.000    0.000    0.000    0.000    0.000 
#
# Total GULP energy -267493.943021 kJ/mol
# GULP energy per Si atom -5572.790480 kJ/mol
# Density = 2.134489 g / cm^3
# Si number density = 21.393580 Si / 1000 Ang^3
#
#
#
# Elastic Constant Matrix: (Units=GPa)
#
#
# Indices 1 2 3 4 5 6 
#
# 1 72.5751 8.5679 19.2113 0.0000 0.0000 0.0000
# 2 8.5679 24.5612 -2.5348 0.0000 0.0000 0.0000
# 3 19.2113 -2.5348 110.3910 0.0000 0.0000 0.0000
# 4 0.0000 0.0000 0.0000 11.0626 0.0000 0.0000
# 5 0.0000 0.0000 0.0000 0.0000 4.7728 0.0000
# 6 0.0000 0.0000 0.0000 0.0000 0.0000 -7.4778
#
#
#
# Elastic Compliance Matrix: (Units=1/GPa)
#
#
# Indices 1 2 3 4 5 6 
#
# 1 0.015170 -0.005578 -0.002768 0.000000 0.000000 0.000000
# 2 -0.005578 0.042862 0.001955 0.000000 0.000000 0.000000
# 3 -0.002768 0.001955 0.009585 0.000000 0.000000 0.000000
# 4 0.000000 0.000000 0.000000 0.090395 0.000000 0.000000
# 5 0.000000 0.000000 0.000000 0.000000 0.209522 0.000000
# 6 0.000000 0.000000 0.000000 0.000000 0.000000 -0.133730
#
#
# Mechanical properties :
#
#
# Convention : Reuss Voigt Hill
#
# Bulk Modulus (GPa) = 18.23625 28.66845 23.45235
# Shear Modulus (GPa) = 18.87759 13.82371 16.35065
#
# Velocity S-wave (km/s) = 2.97374 2.54473 2.76756
# Velocity P-wave (km/s) = 4.50927 4.69721 4.60420
#
# Compressibility (1/GPa) = 0.05483584
#
# Stress axis : x y z
#
# Youngs Moduli (GPa) = 65.91945 23.33065 104.32610
#
# Poissons Ratio (x) = 0.13013 0.28879
# Poissons Ratio (y) = 0.36767 -0.20394
# Poissons Ratio (z) = 0.18247 -0.04561
#
# Static dielectric constant tensor:
#      x y z
#    x 1.794220 0.000000 0.000000 
#    y 0.000000 1.790750 0.000000 
#    z 0.000000 0.000000 1.968960 
# 
# From -- ./inp_files/11755.got.cif
#   From: 2010.05.17/outbox.cif.g08.bks.cpg/sg53_6_cif.got.tgz:11755.got - 2010.06.03 12:45:16.
