data_PCOD9415413
_publ_section_title
;
Structure prediction by ZEFSAII (Michael W. Deem and Ramdas Pophale) SiO2 
 PCOD9415413
Probable space group: P M N A
;
_chemical_formula_sum "Si O2"
_cell_formula_units_Z 64
_cell_length_a 8.850731
_cell_length_b 23.364641
_cell_length_c 17.897229
_cell_angle_alpha 90.000000
_cell_angle_beta 90.000000
_cell_angle_gamma 90.000000
_cell_volume 3701.042301
_symmetry_space_group_name_H-M "P M N A"
_symmetry_group_IT_number 53
_symmetry_cell_setting 'orthorhombic'
loop_
_space_group_symop_operation_xyz
x,y,z
1/2-x,-y,1/2+z
x,-y,-z
1/2-x,y,1/2-z
-x,-y,-z
1/2+x,y,1/2-z
-x,y,z
1/2+x,-y,1/2+z
loop_
_atom_site_type_symbol
_atom_site_label
_atom_site_fract_x
_atom_site_fract_y
_atom_site_fract_z
Si Si1 0.818073 0.259094 0.990870
Si Si2 0.320194 0.055449 0.168026
Si Si3 0.819933 0.294070 0.826333
Si Si4 0.320353 0.623223 0.961901
Si Si5 0.817349 0.458570 0.328207
Si Si6 0.173085 0.039895 0.925806
Si Si7 0.183431 0.133594 0.037587
Si Si8 0.820136 0.413278 0.630060
O O1 0.756976 0.315175 0.032154
O O2 0.771992 0.199527 0.028457
O O3 0.000000 0.260888 0.991144
O O4 0.769964 0.263957 0.903695
O O5 0.250000 0.063429 0.250000
O O6 0.500000 0.059800 0.171289
O O7 0.255194 0.101581 0.108500
O O8 0.271366 0.993561 0.134573
O O9 0.750000 0.270533 0.750000
O O10 0.767660 0.360073 0.834778
O O11 0.000000 0.291451 0.821838
O O12 0.500000 0.631975 0.953789
O O13 0.267528 0.582915 0.894923
O O14 0.297196 0.591577 0.040988
O O15 0.750000 0.439223 0.250000
O O16 0.771126 0.524398 0.342644
O O17 0.000000 0.458102 0.326456
O O18 0.000000 0.044574 0.898680
O O19 0.224860 0.099914 0.960963
O O20 0.170817 0.000000 0.000000
O O21 0.000000 0.129228 0.043847
O O22 0.000000 0.406327 0.644761
#
# Coordination Sequence:
#
# PCOD9415413 Si02
#       8
#     8   8   8   8   8   8   8   8
#     4   9  19  35  54  74  98 131 169 206 244 289
#     4  11  21  33  52  79 109 137 169 209 250 292
#     4  10  19  31  48  72 100 128 159 198 246 296
#     4   9  18  33  51  70  94 126 164 204 246 294
#     4  10  20  32  47  69  96 125 158 199 250 303
#     4   8  15  30  52  75 101 132 161 194 242 293
#     4   9  18  35  56  76 102 136 171 207 249 294
#     4   9  17  31  51  71  92 121 158 201 248 300
#
# _framework density 17.292425000000001
#
# number of rings (size 3 to 8) (size 9 to 14) (size 15 to 20)
#    0.000    2.625    0.000    3.000    0.000    6.750 
#    0.000    1.250    0.000    6.750    0.000    0.000 
#    0.000    0.000    0.000    0.000    0.000    0.000 
#
# Total GULP energy -356809.844382 kJ/mol
# GULP energy per Si atom -5575.153818 kJ/mol
# Density = 1.725307 g / cm^3
# Si number density = 17.292425 Si / 1000 Ang^3
#
#
#
# Elastic Constant Matrix: (Units=GPa)
#
#
# Indices 1 2 3 4 5 6 
#
# 1 41.4497 24.6003 41.1497 0.0000 0.0000 0.0000
# 2 24.6003 72.2986 44.1276 0.0000 0.0000 0.0000
# 3 41.1497 44.1276 100.9652 0.0000 0.0000 0.0000
# 4 0.0000 0.0000 0.0000 13.8263 0.0000 0.0000
# 5 0.0000 0.0000 0.0000 0.0000 27.0804 0.0000
# 6 0.0000 0.0000 0.0000 0.0000 0.0000 18.7415
#
#
#
# Elastic Compliance Matrix: (Units=1/GPa)
#
#
# Indices 1 2 3 4 5 6 
#
# 1 0.041923 -0.005232 -0.014800 0.000000 0.000000 0.000000
# 2 -0.005232 0.019516 -0.006398 0.000000 0.000000 0.000000
# 3 -0.014800 -0.006398 0.018732 0.000000 0.000000 0.000000
# 4 0.000000 0.000000 0.000000 0.072326 0.000000 0.000000
# 5 0.000000 0.000000 0.000000 0.000000 0.036927 0.000000
# 6 0.000000 0.000000 0.000000 0.000000 0.000000 0.053357
#
#
# Mechanical properties :
#
#
# Convention : Reuss Voigt Hill
#
# Bulk Modulus (GPa) = 36.61135 48.27428 42.44282
# Shear Modulus (GPa) = 16.40713 18.91870 17.66292
#
# Velocity S-wave (km/s) = 3.08361 3.31122 3.19944
# Velocity P-wave (km/s) = 5.82203 6.52656 6.18434
#
# Compressibility (1/GPa) = 0.02731393
#
# Stress axis : x y z
#
# Youngs Moduli (GPa) = 23.85310 51.23889 53.38350
#
# Poissons Ratio (x) = 0.26806 0.79007
# Poissons Ratio (y) = 0.12479 0.34152
# Poissons Ratio (z) = 0.35302 0.32780
#
# Static dielectric constant tensor:
#      x y z
#    x 1.585060 0.000000 0.000000 
#    y 0.000000 1.585550 0.000000 
#    z 0.000000 0.000000 1.587050 
# 
# From -- ./inp_files/20823.got.cif
#   From: 2010.05.17/outbox.cif.g08.bks.cpg/sg53_11_cif.got.tgz:20823.got - 2010.06.03 12:45:16.
