data_PCOD9415229
_publ_section_title
;
Structure prediction by ZEFSAII (Michael W. Deem and Ramdas Pophale) SiO2 
 PCOD9415229
Probable space group: P M N A
;
_chemical_formula_sum "Si O2"
_cell_formula_units_Z 40
_cell_length_a 15.512830
_cell_length_b 9.647064
_cell_length_c 16.979223
_cell_angle_alpha 90.000000
_cell_angle_beta 90.000000
_cell_angle_gamma 90.000000
_cell_volume 2540.996139
_symmetry_space_group_name_H-M "P M N A"
_symmetry_group_IT_number 53
_symmetry_cell_setting 'orthorhombic'
loop_
_space_group_symop_operation_xyz
x,y,z
1/2-x,-y,1/2+z
x,-y,-z
1/2-x,y,1/2-z
-x,-y,-z
1/2+x,y,1/2-z
-x,y,z
1/2+x,-y,1/2+z
loop_
_atom_site_type_symbol
_atom_site_label
_atom_site_fract_x
_atom_site_fract_y
_atom_site_fract_z
Si Si1 0.397561 0.996078 0.910003
Si Si2 0.679290 0.749566 0.184570
Si Si3 0.401429 0.679301 0.869537
Si Si4 0.403206 0.501278 0.282290
Si Si5 0.742860 0.509472 0.412628
O O1 0.500000 0.019679 0.914143
O O2 0.383808 0.841813 0.877026
O O3 0.361056 0.115577 0.854293
O O4 0.363847 0.000000 0.000000
O O5 0.750000 0.787971 0.250000
O O6 0.617735 0.640021 0.230926
O O7 0.721523 0.658896 0.114508
O O8 0.500000 0.653474 0.899788
O O9 0.400049 0.623641 0.780291
O O10 0.325385 0.592989 0.910595
O O11 0.500000 0.511611 0.314834
O O12 0.329473 0.478681 0.346961
O O13 0.706116 0.500000 0.500000
#
# Coordination Sequence:
#
# PCOD9415229 Si02
#       5
#     8   8   8   8   8
#     4  10  19  30  46  70  96 119 147 185 228 272
#     4   9  18  31  47  67  91 122 155 185 224 272
#     4   9  18  31  47  68  94 123 152 183 226 277
#     4   9  18  33  50  67  90 122 158 191 225 269
#     4  10  19  31  48  70  94 120 153 192 231 269
#
# _framework density 15.741859
#
# number of rings (size 3 to 8) (size 9 to 14) (size 15 to 20)
#    0.000    2.600    0.000    3.600    0.000    3.200 
#    0.000    0.000    0.000    0.000    0.000    0.000 
#    0.000   20.800    0.000    0.000    0.000    0.000 
#
# Total GULP energy -222730.292589 kJ/mol
# GULP energy per Si atom -5568.257315 kJ/mol
# Density = 1.570603 g / cm^3
# Si number density = 15.741859 Si / 1000 Ang^3
#
#
#
# Elastic Constant Matrix: (Units=GPa)
#
#
# Indices 1 2 3 4 5 6 
#
# 1 63.8713 51.6336 33.5625 0.0000 0.0000 0.0000
# 2 51.6336 115.6684 59.7769 0.0000 0.0000 0.0000
# 3 33.5625 59.7769 85.6745 0.0000 0.0000 0.0000
# 4 0.0000 0.0000 0.0000 11.5937 0.0000 0.0000
# 5 0.0000 0.0000 0.0000 0.0000 14.9116 0.0000
# 6 0.0000 0.0000 0.0000 0.0000 0.0000 24.5665
#
#
#
# Elastic Compliance Matrix: (Units=1/GPa)
#
#
# Indices 1 2 3 4 5 6 
#
# 1 0.025026 -0.009547 -0.003142 0.000000 0.000000 0.000000
# 2 -0.009547 0.017163 -0.008235 0.000000 0.000000 0.000000
# 3 -0.003142 -0.008235 0.018649 0.000000 0.000000 0.000000
# 4 0.000000 0.000000 0.000000 0.086254 0.000000 0.000000
# 5 0.000000 0.000000 0.000000 0.000000 0.067062 0.000000
# 6 0.000000 0.000000 0.000000 0.000000 0.000000 0.040706
#
#
# Mechanical properties :
#
#
# Convention : Reuss Voigt Hill
#
# Bulk Modulus (GPa) = 52.66371 61.68447 57.17409
# Shear Modulus (GPa) = 16.49960 18.23044 17.36502
#
# Velocity S-wave (km/s) = 3.24100 3.40676 3.32492
# Velocity P-wave (km/s) = 6.89439 7.39897 7.15113
#
# Compressibility (1/GPa) = 0.01898841
#
# Stress axis : x y z
#
# Youngs Moduli (GPa) = 39.95869 58.26456 53.62308
#
# Poissons Ratio (x) = 0.55628 0.16850
# Poissons Ratio (y) = 0.38150 0.44158
# Poissons Ratio (z) = 0.12556 0.47980
#
# Static dielectric constant tensor:
#      x y z
#    x 1.547720 0.000000 0.000000 
#    y 0.000000 1.504370 0.000000 
#    z 0.000000 0.000000 1.518680 
# 
# From -- ./inp_files/22402.got.cif
#   From: 2010.05.17/outbox.cif.g08.bks.cpg/sg53_12_cif.got.tgz:22402.got - 2010.06.03 12:45:16.
