data_PCOD9415127
_publ_section_title
;
Structure prediction by ZEFSAII (Michael W. Deem and Ramdas Pophale) SiO2 
 PCOD9415127
Probable space group: P M N A
;
_chemical_formula_sum "Si O2"
_cell_formula_units_Z 48
_cell_length_a 8.495613
_cell_length_b 15.589776
_cell_length_c 21.246112
_cell_angle_alpha 90.000000
_cell_angle_beta 90.000000
_cell_angle_gamma 90.000000
_cell_volume 2813.935008
_symmetry_space_group_name_H-M "P M N A"
_symmetry_group_IT_number 53
_symmetry_cell_setting 'orthorhombic'
loop_
_space_group_symop_operation_xyz
x,y,z
1/2-x,-y,1/2+z
x,-y,-z
1/2-x,y,1/2-z
-x,-y,-z
1/2+x,y,1/2-z
-x,y,z
1/2+x,-y,1/2+z
loop_
_atom_site_type_symbol
_atom_site_label
_atom_site_fract_x
_atom_site_fract_y
_atom_site_fract_z
Si Si1 0.183303 0.240599 0.989479
Si Si2 0.689143 0.423200 0.955830
Si Si3 0.809965 0.010182 0.815741
Si Si4 0.185580 0.614292 0.316515
Si Si5 0.692594 0.069697 0.447484
Si Si6 0.183480 0.201277 0.843006
O O1 0.269720 0.331252 0.985952
O O2 0.188123 0.202207 0.918825
O O3 0.000000 0.256992 0.004574
O O4 0.245556 0.165288 0.034213
O O5 0.500000 0.430103 0.952380
O O6 0.749310 0.422876 0.883182
O O7 0.748605 0.500000 0.000000
O O8 0.750000 0.973560 0.750000
O O9 0.755995 0.109326 0.820894
O O10 0.000000 0.011862 0.816161
O O11 0.758566 0.960487 0.878325
O O12 0.250000 0.580979 0.250000
O O13 0.223051 0.715897 0.320253
O O14 0.000000 0.601747 0.316117
O O15 0.500000 0.070940 0.449288
O O16 0.741628 0.000000 0.500000
O O17 0.000000 0.211556 0.824233
#
# Coordination Sequence:
#
# PCOD9415127 Si02
#       6
#     8   8   8   8   8   8
#     4   9  16  28  50  75  93 116 158 203 234 268
#     4   9  19  35  52  70  96 127 155 188 241 295
#     4  10  19  29  43  64  93 128 162 195 232 276
#     4  10  19  30  46  68  95 124 152 185 229 284
#     4   9  15  28  49  69  91 124 163 195 229 274
#     4   9  16  27  44  67  94 123 153 187 229 276
#
# _framework density 17.057963000000001
#
# number of rings (size 3 to 8) (size 9 to 14) (size 15 to 20)
#    0.000    2.667    1.667    1.000    0.000    3.000 
#    0.000    0.833    0.000    2.000    0.000    7.000 
#    0.000    0.000    0.000    0.000    0.000    0.000 
#
# Total GULP energy -267463.568931 kJ/mol
# GULP energy per Si atom -5572.157686 kJ/mol
# Density = 1.701914 g / cm^3
# Si number density = 17.057963 Si / 1000 Ang^3
#
#
#
# Elastic Constant Matrix: (Units=GPa)
#
#
# Indices 1 2 3 4 5 6 
#
# 1 4.8949 8.0455 17.5839 0.0000 0.0000 0.0000
# 2 8.0455 85.5540 73.1876 0.0000 0.0000 0.0000
# 3 17.5839 73.1876 146.7953 0.0000 0.0000 0.0000
# 4 0.0000 0.0000 0.0000 18.5787 0.0000 0.0000
# 5 0.0000 0.0000 0.0000 0.0000 34.0563 0.0000
# 6 0.0000 0.0000 0.0000 0.0000 0.0000 5.2156
#
#
#
# Elastic Compliance Matrix: (Units=1/GPa)
#
#
# Indices 1 2 3 4 5 6 
#
# 1 0.359970 0.005292 -0.045757 0.000000 0.000000 0.000000
# 2 0.005292 0.020459 -0.010834 0.000000 0.000000 0.000000
# 3 -0.045757 -0.010834 0.017695 0.000000 0.000000 0.000000
# 4 0.000000 0.000000 0.000000 0.053825 0.000000 0.000000
# 5 0.000000 0.000000 0.000000 0.000000 0.029363 0.000000
# 6 0.000000 0.000000 0.000000 0.000000 0.000000 0.191734
#
#
# Mechanical properties :
#
#
# Convention : Reuss Voigt Hill
#
# Bulk Modulus (GPa) = 3.38382 48.31978 25.85180
# Shear Modulus (GPa) = 5.71982 20.79860 13.25921
#
# Velocity S-wave (km/s) = 1.83315 3.49562 2.79104
# Velocity P-wave (km/s) = 2.54335 6.68437 5.05714
#
# Compressibility (1/GPa) = 0.29552435
#
# Stress axis : x y z
#
# Youngs Moduli (GPa) = 2.77801 48.87831 56.51382
#
# Poissons Ratio (x) = -0.25866 2.58592
# Poissons Ratio (y) = -0.01470 0.61228
# Poissons Ratio (z) = 0.12711 0.52955
#
# Static dielectric constant tensor:
#      x y z
#    x 1.598600 0.000000 0.000000 
#    y 0.000000 1.560230 0.000000 
#    z 0.000000 0.000000 1.617550 
# 
# From -- ./inp_files/30471.got.cif
#   From: 2010.05.17/outbox.cif.g08.bks.cpg/sg53_16_cif.got.tgz:30471.got - 2010.06.03 12:45:16.
