data_PCOD9415662
_publ_section_title
;
Structure prediction by ZEFSAII (Michael W. Deem and Ramdas Pophale) SiO2 
 PCOD9415662
Probable space group: P M N A
;
_chemical_formula_sum "Si O2"
_cell_formula_units_Z 48
_cell_length_a 8.678219
_cell_length_b 16.938081
_cell_length_c 18.656602
_cell_angle_alpha 90.000000
_cell_angle_beta 90.000000
_cell_angle_gamma 90.000000
_cell_volume 2742.378263
_symmetry_space_group_name_H-M "P M N A"
_symmetry_group_IT_number 53
_symmetry_cell_setting 'orthorhombic'
loop_
_space_group_symop_operation_xyz
x,y,z
1/2-x,-y,1/2+z
x,-y,-z
1/2-x,y,1/2-z
-x,-y,-z
1/2+x,y,1/2-z
-x,y,z
1/2+x,-y,1/2+z
loop_
_atom_site_type_symbol
_atom_site_label
_atom_site_fract_x
_atom_site_fract_y
_atom_site_fract_z
Si Si1 0.314815 0.166365 0.173454
Si Si2 0.184015 0.520667 0.669815
Si Si3 0.684372 0.238315 0.543981
Si Si4 0.184178 0.322726 0.105023
Si Si5 0.185526 0.914506 0.525670
Si Si6 0.185499 0.351800 0.829640
O O1 0.250000 0.140051 0.250000
O O2 0.500000 0.168937 0.175755
O O3 0.250943 0.253724 0.155676
O O4 0.266021 0.111556 0.106072
O O5 0.250000 0.532760 0.750000
O O6 0.240703 0.593854 0.622969
O O7 0.250325 0.436456 0.644841
O O8 0.000000 0.517425 0.672677
O O9 0.500000 0.672676 0.614453
O O10 0.718053 0.294208 0.475721
O O11 0.760589 0.154633 0.527350
O O12 0.732699 0.282885 0.615943
O O13 0.000000 0.227483 0.953844
O O14 0.000000 0.916040 0.526027
O O15 0.241836 0.000000 0.500000
O O16 0.250000 0.338771 0.750000
O O17 0.000000 0.355939 0.827332
#
# Coordination Sequence:
#
# PCOD9415662 Si02
#       6
#     8   8   8   8   8   8
#     4  10  19  32  51  76 105 135 168 206 250 301
#     4  11  21  33  49  72 101 136 175 212 252 295
#     4   9  20  36  55  77 101 131 167 207 253 304
#     4  10  19  33  51  73 102 135 169 207 252 300
#     4   9  19  36  57  79 104 134 167 206 253 303
#     4  10  20  36  54  74 100 133 173 213 254 296
#
# _framework density 17.503055
#
# number of rings (size 3 to 8) (size 9 to 14) (size 15 to 20)
#    0.000    2.167    0.000    4.500    0.000    3.667 
#    0.000    4.167    0.000    4.000    0.000    0.000 
#    0.000    0.000    0.000    0.000    0.000    0.000 
#
# Total GULP energy -267921.503646 kJ/mol
# GULP energy per Si atom -5581.697993 kJ/mol
# Density = 1.746322 g / cm^3
# Si number density = 17.503055 Si / 1000 Ang^3
#
#
#
# Elastic Constant Matrix: (Units=GPa)
#
#
# Indices 1 2 3 4 5 6 
#
# 1 64.7897 44.5496 35.4903 0.0000 0.0000 0.0000
# 2 44.5496 156.1819 88.7072 0.0000 0.0000 0.0000
# 3 35.4903 88.7072 90.1032 0.0000 0.0000 0.0000
# 4 0.0000 0.0000 0.0000 18.4437 0.0000 0.0000
# 5 0.0000 0.0000 0.0000 0.0000 -19.1810 0.0000
# 6 0.0000 0.0000 0.0000 0.0000 0.0000 24.8446
#
#
#
# Elastic Compliance Matrix: (Units=1/GPa)
#
#
# Indices 1 2 3 4 5 6 
#
# 1 0.020214 -0.002821 -0.005185 0.000000 0.000000 0.000000
# 2 -0.002821 0.014918 -0.013576 0.000000 0.000000 0.000000
# 3 -0.005185 -0.013576 0.026506 0.000000 0.000000 0.000000
# 4 0.000000 0.000000 0.000000 0.054219 0.000000 0.000000
# 5 0.000000 0.000000 0.000000 0.000000 -0.052135 0.000000
# 6 0.000000 0.000000 0.000000 0.000000 0.000000 0.040250
#
#
# Mechanical properties :
#
#
# Convention : Reuss Voigt Hill
#
# Bulk Modulus (GPa) = 54.12639 72.06324 63.09482
# Shear Modulus (GPa) = 32.61675 14.30996 23.46335
#
# Velocity S-wave (km/s) = 4.32150 2.86242 3.66530
# Velocity P-wave (km/s) = 7.47607 7.22397 7.35110
#
# Compressibility (1/GPa) = 0.01847528
#
# Stress axis : x y z
#
# Youngs Moduli (GPa) = 49.46946 67.03181 37.72718
#
# Poissons Ratio (x) = 0.18912 0.19560
# Poissons Ratio (y) = 0.13957 0.51218
# Poissons Ratio (z) = 0.25648 0.91002
#
# Static dielectric constant tensor:
#      x y z
#    x 1.588610 0.000000 0.000000 
#    y 0.000000 1.574820 0.000000 
#    z 0.000000 0.000000 1.597740 
# 
# From -- ./inp_files/26203.got.cif
#   From: 2010.05.17/outbox.cif.g08.bks.cpg/sg53_14_cif.got.tgz:26203.got - 2010.06.03 12:45:16.
