data_PCOD9415988
_publ_section_title
;
Structure prediction by ZEFSAII (Michael W. Deem and Ramdas Pophale) SiO2 
 PCOD9415988
Probable space group: P M N A
;
_chemical_formula_sum "Si O2"
_cell_formula_units_Z 64
_cell_length_a 8.927623
_cell_length_b 15.471752
_cell_length_c 20.953380
_cell_angle_alpha 90.000000
_cell_angle_beta 90.000000
_cell_angle_gamma 90.000000
_cell_volume 2894.205916
_symmetry_space_group_name_H-M "P M N A"
_symmetry_group_IT_number 53
_symmetry_cell_setting 'orthorhombic'
loop_
_space_group_symop_operation_xyz
x,y,z
1/2-x,-y,1/2+z
x,-y,-z
1/2-x,y,1/2-z
-x,-y,-z
1/2+x,y,1/2-z
-x,y,z
1/2+x,-y,1/2+z
loop_
_atom_site_type_symbol
_atom_site_label
_atom_site_fract_x
_atom_site_fract_y
_atom_site_fract_z
Si Si1 0.324991 0.097298 0.644611
Si Si2 0.669942 0.724201 0.159686
Si Si3 0.171644 0.126298 0.007766
Si Si4 0.177210 0.414371 0.083160
Si Si5 0.822382 0.256595 0.182518
Si Si6 0.331056 0.699259 0.007553
Si Si7 0.822591 0.451929 0.813576
Si Si8 0.677039 0.079187 0.132310
O O1 0.500000 0.100114 0.661568
O O2 0.238327 0.181143 0.670345
O O3 0.314992 0.104330 0.566862
O O4 0.250509 0.006454 0.662237
O O5 0.500000 0.717729 0.184580
O O6 0.774213 0.647413 0.183475
O O7 0.663926 0.707504 0.083493
O O8 0.214435 0.226880 0.013391
O O9 0.280652 0.079197 0.056917
O O10 0.000000 0.109968 0.027655
O O11 0.199179 0.334133 0.132198
O O12 0.270685 0.389814 0.020861
O O13 0.226435 0.498193 0.122683
O O14 0.000000 0.421112 0.068131
O O15 0.750000 0.280361 0.250000
O O16 0.747809 0.167135 0.159515
O O17 0.000000 0.243151 0.189388
O O18 0.500000 0.717090 0.983478
O O19 0.750000 0.490787 0.750000
O O20 0.000000 0.460738 0.809415
O O21 0.500000 0.078548 0.141080
#
# Coordination Sequence:
#
# PCOD9415988 Si02
#       8
#     8   8   8   8   8   8   8   8
#     4  10  21  37  59  86 118 158 200 246 299 355
#     4  10  22  41  62  90 125 160 200 253 305 359
#     4  10  19  33  54  83 120 159 199 242 293 352
#     4  10  22  39  62  90 123 159 199 245 301 364
#     4  11  23  40  60  84 118 160 203 251 303 360
#     4  10  20  34  58  90 125 162 200 242 301 363
#     4  11  24  43  66  92 118 156 204 252 304 361
#     4  12  23  35  55  85 119 158 202 246 295 354
#
# _framework density 22.113146
#
# number of rings (size 3 to 8) (size 9 to 14) (size 15 to 20)
#    0.000    1.500    1.250    4.125    0.000    6.500 
#    0.000    3.125    0.000    0.000    0.000    0.000 
#    0.000    0.000    0.000    0.000    0.000    0.000 
#
# Total GULP energy -358027.854341 kJ/mol
# GULP energy per Si atom -5594.185224 kJ/mol
# Density = 2.206282 g / cm^3
# Si number density = 22.113146 Si / 1000 Ang^3
#
#
#
# Elastic Constant Matrix: (Units=GPa)
#
#
# Indices 1 2 3 4 5 6 
#
# 1 87.6554 15.8865 12.5614 0.0000 0.0000 0.0000
# 2 15.8865 91.0342 1.1514 0.0000 0.0000 0.0000
# 3 12.5614 1.1514 40.4130 0.0000 0.0000 0.0000
# 4 0.0000 0.0000 0.0000 8.5375 0.0000 0.0000
# 5 0.0000 0.0000 0.0000 0.0000 19.0644 0.0000
# 6 0.0000 0.0000 0.0000 0.0000 0.0000 16.3314
#
#
#
# Elastic Compliance Matrix: (Units=1/GPa)
#
#
# Indices 1 2 3 4 5 6 
#
# 1 0.012330 -0.002104 -0.003773 0.000000 0.000000 0.000000
# 2 -0.002104 0.011348 0.000331 0.000000 0.000000 0.000000
# 3 -0.003773 0.000331 0.025908 0.000000 0.000000 0.000000
# 4 0.000000 0.000000 0.000000 0.117130 0.000000 0.000000
# 5 0.000000 0.000000 0.000000 0.000000 0.052454 0.000000
# 6 0.000000 0.000000 0.000000 0.000000 0.000000 0.061232
#
#
# Mechanical properties :
#
#
# Convention : Reuss Voigt Hill
#
# Bulk Modulus (GPa) = 25.97812 30.92234 28.45023
# Shear Modulus (GPa) = 16.42980 21.42022 18.92501
#
# Velocity S-wave (km/s) = 2.72874 3.11571 2.92862
# Velocity P-wave (km/s) = 4.65847 5.19207 4.93249
#
# Compressibility (1/GPa) = 0.03849394
#
# Stress axis : x y z
#
# Youngs Moduli (GPa) = 81.10123 88.12220 38.59851
#
# Poissons Ratio (x) = 0.18541 0.14562
# Poissons Ratio (y) = 0.17064 -0.01276
# Poissons Ratio (z) = 0.30596 -0.02914
#
# Static dielectric constant tensor:
#      x y z
#    x 1.744520 0.000000 0.000000 
#    y 0.000000 1.808110 0.000000 
#    z 0.000000 0.000000 1.857560 
# 
# From -- ./inp_files/34314.got.cif
#   From: 2010.05.17/outbox.cif.g08.bks.cpg/sg53_18_cif.got.tgz:34314.got - 2010.06.03 12:45:16.
