data_PCOD9415338
_publ_section_title
;
Structure prediction by ZEFSAII (Michael W. Deem and Ramdas Pophale) SiO2 
 PCOD9415338
Probable space group: P M N A
;
_chemical_formula_sum "Si O2"
_cell_formula_units_Z 56
_cell_length_a 9.258968
_cell_length_b 19.368682
_cell_length_c 19.141423
_cell_angle_alpha 90.000000
_cell_angle_beta 90.000000
_cell_angle_gamma 90.000000
_cell_volume 3432.708083
_symmetry_space_group_name_H-M "P M N A"
_symmetry_group_IT_number 53
_symmetry_cell_setting 'orthorhombic'
loop_
_space_group_symop_operation_xyz
x,y,z
1/2-x,-y,1/2+z
x,-y,-z
1/2-x,y,1/2-z
-x,-y,-z
1/2+x,y,1/2-z
-x,y,z
1/2+x,-y,1/2+z
loop_
_atom_site_type_symbol
_atom_site_label
_atom_site_fract_x
_atom_site_fract_y
_atom_site_fract_z
Si Si1 0.664481 0.711847 0.984897
Si Si2 0.166764 0.978862 0.582438
Si Si3 0.827722 0.575998 0.026297
Si Si4 0.835421 0.754895 0.351714
Si Si5 0.166753 0.155247 0.047384
Si Si6 0.670991 0.383134 0.684057
Si Si7 0.833188 0.887287 0.117851
O O1 0.500000 0.706901 0.959205
O O2 0.742240 0.637837 0.988813
O O3 0.657209 0.738522 0.065269
O O4 0.756304 0.770766 0.946255
O O5 0.245182 0.905191 0.585583
O O6 0.000000 0.975925 0.604773
O O7 0.166441 0.000000 0.500000
O O8 0.255426 0.038867 0.621001
O O9 0.800485 0.581648 0.109407
O O10 0.000000 0.586545 0.015871
O O11 0.788775 0.500000 0.000000
O O12 0.737511 0.693407 0.322995
O O13 0.758114 0.828282 0.343501
O O14 0.000000 0.753888 0.324828
O O15 0.000000 0.157536 0.069301
O O16 0.166745 0.134647 0.964618
O O17 0.750000 0.416947 0.750000
O O18 0.500000 0.380262 0.695187
O O19 0.000000 0.889615 0.140235
#
# Coordination Sequence:
#
# PCOD9415338 Si02
#       7
#     8   8   8   8   8   8   8
#     4   9  16  25  38  56  77 102 134 172 212 255
#     4   9  15  21  29  43  65  94 129 168 207 245
#     4   9  18  32  48  65  86 114 147 181 220 270
#     4   9  16  26  39  55  76 103 136 172 209 249
#     4   9  15  22  32  46  67  97 132 168 205 247
#     4  10  19  31  47  66  88 114 145 181 220 263
#     4   9  15  22  32  47  68  96 131 168 205 244
#
# _framework density 16.313649999999999
#
# number of rings (size 3 to 8) (size 9 to 14) (size 15 to 20)
#    0.000    2.857    0.000    2.571    0.000    9.429 
#    0.000    0.000    0.000    0.000    0.000    0.000 
#    0.000    0.000    0.000    1.286    0.000   20.571 
#
# Total GULP energy -312023.106096 kJ/mol
# GULP energy per Si atom -5571.841180 kJ/mol
# Density = 1.627652 g / cm^3
# Si number density = 16.313650 Si / 1000 Ang^3
#
#
#
# Elastic Constant Matrix: (Units=GPa)
#
#
# Indices 1 2 3 4 5 6 
#
# 1 136.2524 88.7540 25.6735 0.0000 0.0000 0.0000
# 2 88.7540 150.5162 29.4558 0.0000 0.0000 0.0000
# 3 25.6735 29.4558 23.9908 0.0000 0.0000 0.0000
# 4 0.0000 0.0000 0.0000 4.5238 0.0000 0.0000
# 5 0.0000 0.0000 0.0000 0.0000 11.5118 0.0000
# 6 0.0000 0.0000 0.0000 0.0000 0.0000 25.0492
#
#
#
# Elastic Compliance Matrix: (Units=1/GPa)
#
#
# Indices 1 2 3 4 5 6 
#
# 1 0.012479 -0.006246 -0.005686 0.000000 0.000000 0.000000
# 2 -0.006246 0.011871 -0.007891 0.000000 0.000000 0.000000
# 3 -0.005686 -0.007891 0.057456 0.000000 0.000000 0.000000
# 4 0.000000 0.000000 0.000000 0.221053 0.000000 0.000000
# 5 0.000000 0.000000 0.000000 0.000000 0.086867 0.000000
# 6 0.000000 0.000000 0.000000 0.000000 0.000000 0.039921
#
#
# Mechanical properties :
#
#
# Convention : Reuss Voigt Hill
#
# Bulk Modulus (GPa) = 23.71894 66.50290 45.11092
# Shear Modulus (GPa) = 10.34454 19.34205 14.84329
#
# Velocity S-wave (km/s) = 2.52087 3.44704 3.01968
# Velocity P-wave (km/s) = 4.80041 7.52971 6.31429
#
# Compressibility (1/GPa) = 0.04216040
#
# Stress axis : x y z
#
# Youngs Moduli (GPa) = 80.13353 84.23853 17.40455
#
# Poissons Ratio (x) = 0.52614 0.09896
# Poissons Ratio (y) = 0.50050 0.13735
# Poissons Ratio (z) = 0.45563 0.66476
#
# Static dielectric constant tensor:
#      x y z
#    x 1.552800 0.000000 0.000000 
#    y 0.000000 1.529110 0.000000 
#    z 0.000000 0.000000 1.565110 
# 
# From -- ./inp_files/30989.got.cif
#   From: 2010.05.17/outbox.cif.g08.bks.cpg/sg53_16_cif.got.tgz:30989.got - 2010.06.03 12:45:16.
