data_PCOD9415858
_publ_section_title
;
Structure prediction by ZEFSAII (Michael W. Deem and Ramdas Pophale) SiO2 
 PCOD9415858
Probable space group: P M N A
;
_chemical_formula_sum "Si O2"
_cell_formula_units_Z 32
_cell_length_a 21.044926
_cell_length_b 14.015404
_cell_length_c 5.296830
_cell_angle_alpha 90.000000
_cell_angle_beta 90.000000
_cell_angle_gamma 90.000000
_cell_volume 1562.316641
_symmetry_space_group_name_H-M "P M N A"
_symmetry_group_IT_number 53
_symmetry_cell_setting 'orthorhombic'
loop_
_space_group_symop_operation_xyz
x,y,z
1/2-x,-y,1/2+z
x,-y,-z
1/2-x,y,1/2-z
-x,-y,-z
1/2+x,y,1/2-z
-x,y,z
1/2+x,-y,1/2+z
loop_
_atom_site_type_symbol
_atom_site_label
_atom_site_fract_x
_atom_site_fract_y
_atom_site_fract_z
Si Si1 0.931957 0.868952 0.788105
Si Si2 0.108937 0.772398 0.298784
Si Si3 0.301934 0.100899 0.076804
Si Si4 0.575726 0.561383 0.251550
O O1 0.928654 0.791493 0.561001
O O2 0.867280 0.925354 0.728446
O O3 0.000000 0.919945 0.771442
O O4 0.924449 0.820123 0.058604
O O5 0.173710 0.830597 0.354828
O O6 0.113344 0.660490 0.254472
O O7 0.250000 0.151462 0.250000
O O8 0.273716 0.000000 0.000000
O O9 0.590107 0.500000 0.500000
O O10 0.500000 0.585054 0.259247
O O11 0.587101 0.500000 0.000000
#
# Coordination Sequence:
#
# PCOD9415858 Si02
#       4
#     8   8   8   8
#     4  10  21  38  63  93 128 167 206 265 329 382
#     4  10  22  38  62  94 131 169 210 268 326 381
#     4  10  26  42  67  92 126 172 225 271 319 395
#     4  10  19  32  57  92 130 167 205 253 313 381
#
# _framework density 20.482403999999999
#
# number of rings (size 3 to 8) (size 9 to 14) (size 15 to 20)
#    1.500    0.500    0.000    3.750    3.500    2.500 
#    0.000    1.250    0.000    0.000    6.500    0.000 
#    0.000    0.000    0.000    0.000    0.000    0.000 
#
# Total GULP energy -178330.028008 kJ/mol
# GULP energy per Si atom -5572.813375 kJ/mol
# Density = 2.043579 g / cm^3
# Si number density = 20.482404 Si / 1000 Ang^3
#
#
#
# Elastic Constant Matrix: (Units=GPa)
#
#
# Indices 1 2 3 4 5 6 
#
# 1 60.8893 -2.5048 25.7055 0.0000 0.0000 0.0000
# 2 -2.5048 84.7474 35.6309 0.0000 0.0000 0.0000
# 3 25.7055 35.6309 152.7267 0.0000 0.0000 0.0000
# 4 0.0000 0.0000 0.0000 26.6744 0.0000 0.0000
# 5 0.0000 0.0000 0.0000 0.0000 -81.2055 0.0000
# 6 0.0000 0.0000 0.0000 0.0000 0.0000 6.6465
#
#
#
# Elastic Compliance Matrix: (Units=1/GPa)
#
#
# Indices 1 2 3 4 5 6 
#
# 1 0.017980 0.002000 -0.003493 0.000000 0.000000 0.000000
# 2 0.002000 0.013305 -0.003441 0.000000 0.000000 0.000000
# 3 -0.003493 -0.003441 0.007938 0.000000 0.000000 0.000000
# 4 0.000000 0.000000 0.000000 0.037489 0.000000 0.000000
# 5 0.000000 0.000000 0.000000 0.000000 -0.012314 0.000000
# 6 0.000000 0.000000 0.000000 0.000000 0.000000 0.150454
#
#
# Mechanical properties :
#
#
# Convention : Reuss Voigt Hill
#
# Bulk Modulus (GPa) = 34.06400 46.22518 40.14459
# Shear Modulus (GPa) = 21.32145 6.39186 13.85666
#
# Velocity S-wave (km/s) = 3.22990 1.76846 2.60381
# Velocity P-wave (km/s) = 5.52961 5.17563 5.35555
#
# Compressibility (1/GPa) = 0.02935651
#
# Stress axis : x y z
#
# Youngs Moduli (GPa) = 55.61711 75.15691 125.97242
#
# Poissons Ratio (x) = -0.15031 0.44000
# Poissons Ratio (y) = -0.11123 0.43344
# Poissons Ratio (z) = 0.19426 0.25860
#
# Static dielectric constant tensor:
#      x y z
#    x 1.839530 0.000000 0.000000 
#    y 0.000000 1.688850 0.000000 
#    z 0.000000 0.000000 1.789710 
# 
# From -- ./inp_files/2729.got.cif
#   From: 2010.05.17/outbox.cif.g08.bks.cpg/sg53_2_cif.got.tgz:2729.got - 2010.06.03 12:45:16.
