data_PCOD9415213
_publ_section_title
;
Structure prediction by ZEFSAII (Michael W. Deem and Ramdas Pophale) SiO2 
 PCOD9415213
Probable space group: P M N A
;
_chemical_formula_sum "Si O2"
_cell_formula_units_Z 40
_cell_length_a 25.885678
_cell_length_b 5.024146
_cell_length_c 16.085410
_cell_angle_alpha 90.000000
_cell_angle_beta 90.000000
_cell_angle_gamma 90.000000
_cell_volume 2091.962672
_symmetry_space_group_name_H-M "P M N A"
_symmetry_group_IT_number 53
_symmetry_cell_setting 'orthorhombic'
loop_
_space_group_symop_operation_xyz
x,y,z
1/2-x,-y,1/2+z
x,-y,-z
1/2-x,y,1/2-z
-x,-y,-z
1/2+x,y,1/2-z
-x,y,z
1/2+x,-y,1/2+z
loop_
_atom_site_type_symbol
_atom_site_label
_atom_site_fract_x
_atom_site_fract_y
_atom_site_fract_z
Si Si1 0.331446 0.890718 0.092437
Si Si2 0.299694 0.594025 0.808193
Si Si3 0.909811 0.435119 0.233128
Si Si4 0.940768 0.236664 0.055471
Si Si5 0.057722 0.079235 0.669413
O O1 0.303003 0.616780 0.116105
O O2 0.393224 0.858444 0.110336
O O3 0.309233 0.112859 0.155244
O O4 0.324173 0.000000 0.000000
O O5 0.250000 0.575671 0.750000
O O6 0.349867 0.527045 0.753295
O O7 0.915561 0.316646 0.141918
O O8 0.937076 0.714630 0.253364
O O9 0.933322 0.217528 0.296356
O O10 0.000000 0.156901 0.075294
O O11 0.941660 0.500000 0.000000
O O12 0.917334 0.000000 0.000000
O O13 0.000000 0.104998 0.633680
#
# Coordination Sequence:
#
# PCOD9415213 Si02
#       5
#     8   8   8   8   8
#     4  10  21  37  58  85 113 140 177 224 272 322
#     4  10  21  39  60  79 105 144 185 224 270 320
#     4  10  20  34  52  75 104 139 184 224 261 323
#     4  10  19  30  46  69 100 135 168 211 264 309
#     4  10  19  32  54  80 108 144 177 212 263 326
#
# _framework density 19.120801
#
# number of rings (size 3 to 8) (size 9 to 14) (size 15 to 20)
#    0.000    2.000    0.000    4.200    0.000    2.000 
#    0.000    3.000    0.000    7.200    0.000    0.000 
#    0.000    0.000    0.000    0.000    0.000    0.000 
#
# Total GULP energy -223189.523613 kJ/mol
# GULP energy per Si atom -5579.738090 kJ/mol
# Density = 1.907728 g / cm^3
# Si number density = 19.120801 Si / 1000 Ang^3
#
#
#
# Elastic Constant Matrix: (Units=GPa)
#
#
# Indices 1 2 3 4 5 6 
#
# 1 101.5031 16.1096 18.8963 0.0000 0.0000 0.0000
# 2 16.1096 78.2481 -11.7212 0.0000 0.0000 0.0000
# 3 18.8963 -11.7212 61.0392 0.0000 0.0000 0.0000
# 4 0.0000 0.0000 0.0000 33.7691 0.0000 0.0000
# 5 0.0000 0.0000 0.0000 0.0000 217.5026 0.0000
# 6 0.0000 0.0000 0.0000 0.0000 0.0000 23.8425
#
#
#
# Elastic Compliance Matrix: (Units=1/GPa)
#
#
# Indices 1 2 3 4 5 6 
#
# 1 0.011046 -0.002869 -0.003971 0.000000 0.000000 0.000000
# 2 -0.002869 0.013903 0.003558 0.000000 0.000000 0.000000
# 3 -0.003971 0.003558 0.018295 0.000000 0.000000 0.000000
# 4 0.000000 0.000000 0.000000 0.029613 0.000000 0.000000
# 5 0.000000 0.000000 0.000000 0.000000 0.004598 0.000000
# 6 0.000000 0.000000 0.000000 0.000000 0.000000 0.041942
#
#
# Mechanical properties :
#
#
# Convention : Reuss Voigt Hill
#
# Bulk Modulus (GPa) = 27.26127 31.92886 29.59507
# Shear Modulus (GPa) = 36.18250 69.52322 52.85286
#
# Velocity S-wave (km/s) = 4.35479 6.03647 5.26323
# Velocity P-wave (km/s) = 6.29078 8.08208 7.24203
#
# Compressibility (1/GPa) = 0.03668207
#
# Stress axis : x y z
#
# Youngs Moduli (GPa) = 90.52684 71.92436 54.65861
#
# Poissons Ratio (x) = 0.20635 0.21703
# Poissons Ratio (y) = 0.25972 -0.19448
# Poissons Ratio (z) = 0.35945 -0.25591
#
# Static dielectric constant tensor:
#      x y z
#    x 1.659970 0.000000 0.000000 
#    y 0.000000 1.678990 0.000000 
#    z 0.000000 0.000000 1.653420 
# 
# From -- ./inp_files/24540.got.cif
#   From: 2010.05.17/outbox.cif.g08.bks.cpg/sg53_13_cif.got.tgz:24540.got - 2010.06.03 12:45:16.
