data_PCOD9415448
_publ_section_title
;
Structure prediction by ZEFSAII (Michael W. Deem and Ramdas Pophale) SiO2 
 PCOD9415448
Probable space group: P M N A
;
_chemical_formula_sum "Si O2"
_cell_formula_units_Z 40
_cell_length_a 8.205404
_cell_length_b 27.758780
_cell_length_c 9.242114
_cell_angle_alpha 90.000000
_cell_angle_beta 90.000000
_cell_angle_gamma 90.000000
_cell_volume 2105.094831
_symmetry_space_group_name_H-M "P M N A"
_symmetry_group_IT_number 53
_symmetry_cell_setting 'orthorhombic'
loop_
_space_group_symop_operation_xyz
x,y,z
1/2-x,-y,1/2+z
x,-y,-z
1/2-x,y,1/2-z
-x,-y,-z
1/2+x,y,1/2-z
-x,y,z
1/2+x,-y,1/2+z
loop_
_atom_site_type_symbol
_atom_site_label
_atom_site_fract_x
_atom_site_fract_y
_atom_site_fract_z
Si Si1 0.694146 0.858020 0.583237
Si Si2 0.305051 0.755184 0.918190
Si Si3 0.697104 0.047659 0.584585
Si Si4 0.803186 0.348491 0.418313
Si Si5 0.802780 0.547051 0.583374
O O1 0.750000 0.861476 0.750000
O O2 0.500000 0.859612 0.584022
O O3 0.744275 0.805882 0.520725
O O4 0.756980 0.903610 0.493239
O O5 0.250000 0.755361 0.750000
O O6 0.500000 0.756041 0.921902
O O7 0.247403 0.703340 0.979968
O O8 0.750000 0.045994 0.750000
O O9 0.500000 0.048036 0.579240
O O10 0.753824 0.000000 0.500000
O O11 0.750000 0.348612 0.250000
O O12 0.747529 0.400527 0.477016
O O13 0.000000 0.348255 0.423469
O O14 0.741709 0.500000 0.500000
O O15 0.750000 0.544211 0.750000
O O16 0.000000 0.546656 0.578036
#
# Coordination Sequence:
#
# PCOD9415448 Si02
#       5
#     8   8   8   8   8
#     4  10  19  31  49  74 101 126 155 190 230 277
#     4   9  15  24  41  65  92 121 153 189 230 273
#     4  10  22  38  55  76 100 127 160 196 233 275
#     4   8  14  24  39  61  87 116 150 188 229 272
#     4   9  17  29  45  65  90 119 152 192 235 278
#
# _framework density 19.001518999999998
#
# number of rings (size 3 to 8) (size 9 to 14) (size 15 to 20)
#    0.000    2.800    0.000    3.000    0.000    3.200 
#    0.000    0.000    0.000    1.200    0.000    5.600 
#    0.000    0.000    0.000    0.000    0.000    0.000 
#
# Total GULP energy -222705.456164 kJ/mol
# GULP energy per Si atom -5567.636404 kJ/mol
# Density = 1.895827 g / cm^3
# Si number density = 19.001519 Si / 1000 Ang^3
#
#
#
# Elastic Constant Matrix: (Units=GPa)
#
#
# Indices 1 2 3 4 5 6 
#
# 1 18.4335 23.1108 2.3922 0.0000 0.0000 0.0000
# 2 23.1108 265.5521 69.2549 0.0000 0.0000 0.0000
# 3 2.3922 69.2549 49.5675 0.0000 0.0000 0.0000
# 4 0.0000 0.0000 0.0000 25.1736 0.0000 0.0000
# 5 0.0000 0.0000 0.0000 0.0000 13.8744 0.0000
# 6 0.0000 0.0000 0.0000 0.0000 0.0000 23.6294
#
#
#
# Elastic Compliance Matrix: (Units=1/GPa)
#
#
# Indices 1 2 3 4 5 6 
#
# 1 0.062489 -0.007319 0.007210 0.000000 0.000000 0.000000
# 2 -0.007319 0.006782 -0.009122 0.000000 0.000000 0.000000
# 3 0.007210 -0.009122 0.032572 0.000000 0.000000 0.000000
# 4 0.000000 0.000000 0.000000 0.039724 0.000000 0.000000
# 5 0.000000 0.000000 0.000000 0.000000 0.072075 0.000000
# 6 0.000000 0.000000 0.000000 0.000000 0.000000 0.042320
#
#
# Mechanical properties :
#
#
# Convention : Reuss Voigt Hill
#
# Bulk Modulus (GPa) = 11.99319 58.11877 35.05598
# Shear Modulus (GPa) = 16.54437 28.45516 22.49977
#
# Velocity S-wave (km/s) = 2.95394 3.87398 3.44481
# Velocity P-wave (km/s) = 4.23790 7.11780 5.85759
#
# Compressibility (1/GPa) = 0.08338064
#
# Stress axis : x y z
#
# Youngs Moduli (GPa) = 16.00275 147.45643 30.70146
#
# Poissons Ratio (x) = 1.07918 -0.22135
# Poissons Ratio (y) = 0.11712 0.28006
# Poissons Ratio (z) = -0.11537 1.34510
#
# Static dielectric constant tensor:
#      x y z
#    x 1.658730 0.000000 0.000000 
#    y 0.000000 1.766130 0.000000 
#    z 0.000000 0.000000 1.626690 
# 
# From -- ./inp_files/6450.got.cif
#   From: 2010.05.17/outbox.cif.g08.bks.cpg/sg53_4_cif.got.tgz:6450.got - 2010.06.03 12:45:16.
