data_PCOD9415351
_publ_section_title
;
Structure prediction by ZEFSAII (Michael W. Deem and Ramdas Pophale) SiO2 
 PCOD9415351
Probable space group: P M N A
;
_chemical_formula_sum "Si O2"
_cell_formula_units_Z 64
_cell_length_a 14.460360
_cell_length_b 11.631026
_cell_length_c 23.379106
_cell_angle_alpha 90.000000
_cell_angle_beta 90.000000
_cell_angle_gamma 90.000000
_cell_volume 3932.104324
_symmetry_space_group_name_H-M "P M N A"
_symmetry_group_IT_number 53
_symmetry_cell_setting 'orthorhombic'
loop_
_space_group_symop_operation_xyz
x,y,z
1/2-x,-y,1/2+z
x,-y,-z
1/2-x,y,1/2-z
-x,-y,-z
1/2+x,y,1/2-z
-x,y,z
1/2+x,-y,1/2+z
loop_
_atom_site_type_symbol
_atom_site_label
_atom_site_fract_x
_atom_site_fract_y
_atom_site_fract_z
Si Si1 0.605578 0.274916 0.167162
Si Si2 0.107846 0.136908 0.997832
Si Si3 0.743880 0.483624 0.937845
Si Si4 0.893815 0.554359 0.341711
Si Si5 0.390473 0.312503 0.597105
Si Si6 0.388795 0.311635 0.294455
Si Si7 0.220720 0.744472 0.902208
Si Si8 0.612480 0.577671 0.284612
O O1 0.500000 0.235782 0.159306
O O2 0.604575 0.414725 0.162907
O O3 0.636117 0.258197 0.232957
O O4 0.677256 0.225028 0.121505
O O5 0.177585 0.190572 0.044063
O O6 0.000000 0.166609 0.011903
O O7 0.125964 0.191652 0.934912
O O8 0.115935 0.000000 0.000000
O O9 0.673420 0.423423 0.894248
O O10 0.834732 0.405548 0.939789
O O11 0.772142 0.609636 0.917121
O O12 0.700603 0.500000 0.000000
O O13 0.858399 0.602044 0.280679
O O14 0.000000 0.591386 0.350958
O O15 0.500000 0.334707 0.594841
O O16 0.362697 0.337753 0.663278
O O17 0.500000 0.313076 0.297202
O O18 0.346231 0.245986 0.347640
O O19 0.357258 0.445960 0.297344
O O20 0.500000 0.574686 0.281850
#
# Coordination Sequence:
#
# PCOD9415351 Si02
#       8
#     8   8   8   8   8   8   8   8
#     4   8  16  28  42  67 101 130 155 189 233 283
#     4  10  22  37  50  67  92 126 163 202 250 298
#     4  11  20  28  42  73 101 126 161 192 237 288
#     4   8  16  29  43  64 101 135 160 187 223 284
#     4  10  19  31  47  68  98 124 152 197 241 289
#     4   9  15  24  41  71 104 126 150 183 233 292
#     4  11  18  28  48  69  96 128 160 195 236 288
#     4   8  14  26  44  68  96 128 156 185 230 281
#
# _framework density 16.276271999999999
#
# number of rings (size 3 to 8) (size 9 to 14) (size 15 to 20)
#    0.000    2.625    2.500    2.250    0.000    1.500 
#    0.000    0.000    0.000    0.375    6.500    0.000 
#    0.000    0.000    0.000    0.000    0.000    0.000 
#
# Total GULP energy -356291.735471 kJ/mol
# GULP energy per Si atom -5567.058367 kJ/mol
# Density = 1.623923 g / cm^3
# Si number density = 16.276272 Si / 1000 Ang^3
#
#
#
# Elastic Constant Matrix: (Units=GPa)
#
#
# Indices 1 2 3 4 5 6 
#
# 1 62.1997 24.6145 49.0248 0.0000 0.0000 0.0000
# 2 24.6145 36.2721 28.5184 0.0000 0.0000 0.0000
# 3 49.0248 28.5184 121.3821 0.0000 0.0000 0.0000
# 4 0.0000 0.0000 0.0000 10.0659 0.0000 0.0000
# 5 0.0000 0.0000 0.0000 0.0000 28.8852 0.0000
# 6 0.0000 0.0000 0.0000 0.0000 0.0000 8.4959
#
#
#
# Elastic Compliance Matrix: (Units=1/GPa)
#
#
# Indices 1 2 3 4 5 6 
#
# 1 0.027323 -0.012100 -0.008192 0.000000 0.000000 0.000000
# 2 -0.012100 0.039175 -0.004317 0.000000 0.000000 0.000000
# 3 -0.008192 -0.004317 0.012562 0.000000 0.000000 0.000000
# 4 0.000000 0.000000 0.000000 0.099345 0.000000 0.000000
# 5 0.000000 0.000000 0.000000 0.000000 0.034620 0.000000
# 6 0.000000 0.000000 0.000000 0.000000 0.000000 0.117704
#
#
# Mechanical properties :
#
#
# Convention : Reuss Voigt Hill
#
# Bulk Modulus (GPa) = 33.51208 47.12993 40.32100
# Shear Modulus (GPa) = 12.82400 17.33581 15.07990
#
# Velocity S-wave (km/s) = 2.80999 3.26712 3.04714
# Velocity P-wave (km/s) = 5.58232 6.57656 6.09973
#
# Compressibility (1/GPa) = 0.02983999
#
# Stress axis : x y z
#
# Youngs Moduli (GPa) = 36.59932 25.52660 79.60817
#
# Poissons Ratio (x) = 0.30888 0.65219
# Poissons Ratio (y) = 0.44286 0.34366
# Poissons Ratio (z) = 0.29984 0.11019
#
# Static dielectric constant tensor:
#      x y z
#    x 1.585130 0.000000 0.000000 
#    y 0.000000 1.504200 0.000000 
#    z 0.000000 0.000000 1.599430 
# 
# From -- ./inp_files/35333.got.cif
#   From: 2010.05.17/outbox.cif.g08.bks.cpg/sg53_18_cif.got.tgz:35333.got - 2010.06.03 12:45:16.
