data_PCOD9415008
_publ_section_title
;
Structure prediction by ZEFSAII (Michael W. Deem and Ramdas Pophale) SiO2 
 PCOD9415008
Probable space group: P M N A
;
_chemical_formula_sum "Si O2"
_cell_formula_units_Z 64
_cell_length_a 7.860181
_cell_length_b 12.252878
_cell_length_c 32.047396
_cell_angle_alpha 90.000000
_cell_angle_beta 90.000000
_cell_angle_gamma 90.000000
_cell_volume 3086.479544
_symmetry_space_group_name_H-M "P M N A"
_symmetry_group_IT_number 53
_symmetry_cell_setting 'orthorhombic'
loop_
_space_group_symop_operation_xyz
x,y,z
1/2-x,-y,1/2+z
x,-y,-z
1/2-x,y,1/2-z
-x,-y,-z
1/2+x,y,1/2-z
-x,y,z
1/2+x,-y,1/2+z
loop_
_atom_site_type_symbol
_atom_site_label
_atom_site_fract_x
_atom_site_fract_y
_atom_site_fract_z
Si Si1 0.705630 0.368612 0.624245
Si Si2 0.208109 0.516901 0.952588
Si Si3 0.295283 0.493775 0.295482
Si Si4 0.203171 0.029592 0.045569
Si Si5 0.708068 0.747168 0.585764
Si Si6 0.700681 0.012622 0.204549
Si Si7 0.205029 0.745296 0.818106
Si Si8 0.702802 0.115168 0.876507
O O1 0.500000 0.374251 0.624321
O O2 0.763571 0.427614 0.581564
O O3 0.765951 0.435590 0.665048
O O4 0.755564 0.242661 0.626007
O O5 0.260204 0.635678 0.936215
O O6 0.000000 0.514292 0.952996
O O7 0.265422 0.500000 0.000000
O O8 0.250000 0.538774 0.250000
O O9 0.500000 0.490537 0.298469
O O10 0.231419 0.368488 0.298856
O O11 0.270107 0.144766 0.062642
O O12 0.000000 0.043040 0.041121
O O13 0.231524 0.938991 0.080906
O O14 0.272326 0.000000 0.000000
O O15 0.500000 0.748321 0.585959
O O16 0.761799 0.748434 0.633792
O O17 0.750000 0.968668 0.250000
O O18 0.500000 0.002974 0.201671
O O19 0.744371 0.140731 0.202192
O O20 0.773349 0.949516 0.164152
O O21 0.000000 0.741508 0.817296
O O22 0.500000 0.102571 0.877107
#
# Coordination Sequence:
#
# PCOD9415008 Si02
#       8
#     8   8   8   8   8   8   8   8
#     4  10  21  38  59  83 112 147 191 237 280 333
#     4   9  17  30  55  89 118 144 181 233 284 327
#     4  10  21  36  56  84 115 148 186 231 285 342
#     4  10  21  36  61  93 118 149 197 241 280 334
#     4   9  16  30  54  86 120 148 179 230 287 332
#     4  11  24  40  59  84 113 148 193 238 289 346
#     4  10  18  34  59  86 119 151 183 230 290 344
#     4  11  25  42  58  81 117 156 192 235 292 348
#
# _framework density 20.735596999999999
#
# number of rings (size 3 to 8) (size 9 to 14) (size 15 to 20)
#    0.000    2.000    2.500    1.125    1.750    4.250 
#    0.000    2.500    0.000    1.125    0.000    0.000 
#    0.000    0.000    0.000    0.000    0.000    0.000 
#
# Total GULP energy -357453.343189 kJ/mol
# GULP energy per Si atom -5585.208487 kJ/mol
# Density = 2.068840 g / cm^3
# Si number density = 20.735597 Si / 1000 Ang^3
#
#
#
# Elastic Constant Matrix: (Units=GPa)
#
#
# Indices 1 2 3 4 5 6 
#
# 1 16.5416 -13.5680 -2.6146 0.0000 0.0000 0.0000
# 2 -13.5680 113.1456 64.9449 0.0000 0.0000 0.0000
# 3 -2.6146 64.9449 192.1202 0.0000 0.0000 0.0000
# 4 0.0000 0.0000 0.0000 71.4589 0.0000 0.0000
# 5 0.0000 0.0000 0.0000 0.0000 -16.1131 0.0000
# 6 0.0000 0.0000 0.0000 0.0000 0.0000 -12.5041
#
#
#
# Elastic Compliance Matrix: (Units=1/GPa)
#
#
# Indices 1 2 3 4 5 6 
#
# 1 0.067835 0.009435 -0.002266 0.000000 0.000000 0.000000
# 2 0.009435 0.012278 -0.004022 0.000000 0.000000 0.000000
# 3 -0.002266 -0.004022 0.006534 0.000000 0.000000 0.000000
# 4 0.000000 0.000000 0.000000 0.013994 0.000000 0.000000
# 5 0.000000 0.000000 0.000000 0.000000 -0.062061 0.000000
# 6 0.000000 0.000000 0.000000 0.000000 0.000000 -0.079974
#
#
# Mechanical properties :
#
#
# Convention : Reuss Voigt Hill
#
# Bulk Modulus (GPa) = 10.75959 46.59243 28.67601
# Shear Modulus (GPa) = -299.26005 26.77136 -136.24434
#
# Velocity S-wave (km/s) = -12.02644 3.59706 -8.11469
# Velocity P-wave (km/s) = 13.69842 6.30637 8.59873
#
# Compressibility (1/GPa) = 0.09294032
#
# Stress axis : x y z
#
# Youngs Moduli (GPa) = 14.74176 81.44429 153.04787
#
# Poissons Ratio (x) = -0.76845 0.34686
# Poissons Ratio (y) = -0.13909 0.61559
# Poissons Ratio (z) = 0.03341 0.32758
#
# Static dielectric constant tensor:
#      x y z
#    x 1.766360 0.000000 0.000000 
#    y 0.000000 1.712860 0.000000 
#    z 0.000000 0.000000 1.744840 
# 
# From -- ./inp_files/38132.got.cif
#   From: 2010.05.17/outbox.cif.g08.bks.cpg/sg53_20_cif.got.tgz:38132.got - 2010.06.03 12:45:16.
