data_PCOD9415003
_publ_section_title
;
Structure prediction by ZEFSAII (Michael W. Deem and Ramdas Pophale) SiO2 
 PCOD9415003
Probable space group: P M N A
;
_chemical_formula_sum "Si O2"
_cell_formula_units_Z 48
_cell_length_a 9.095985
_cell_length_b 17.435479
_cell_length_c 15.469059
_cell_angle_alpha 90.000000
_cell_angle_beta 90.000000
_cell_angle_gamma 90.000000
_cell_volume 2453.282238
_symmetry_space_group_name_H-M "P M N A"
_symmetry_group_IT_number 53
_symmetry_cell_setting 'orthorhombic'
loop_
_space_group_symop_operation_xyz
x,y,z
1/2-x,-y,1/2+z
x,-y,-z
1/2-x,y,1/2-z
-x,-y,-z
1/2+x,y,1/2-z
-x,y,z
1/2+x,-y,1/2+z
loop_
_atom_site_type_symbol
_atom_site_label
_atom_site_fract_x
_atom_site_fract_y
_atom_site_fract_z
Si Si1 0.671793 0.849712 0.891881
Si Si2 0.176243 0.681594 0.663622
Si Si3 0.171205 0.840631 0.398815
Si Si4 0.668393 0.995879 0.394448
Si Si5 0.324683 0.314851 0.660080
Si Si6 0.325674 0.409355 0.989814
O O1 0.500000 0.861779 0.870995
O O2 0.723484 0.769662 0.851976
O O3 0.763823 0.923697 0.864781
O O4 0.680139 0.840287 0.996271
O O5 0.250000 0.651161 0.750000
O O6 0.212866 0.632589 0.579282
O O7 0.000000 0.681370 0.672338
O O8 0.264669 0.769920 0.363483
O O9 0.000000 0.832148 0.374963
O O10 0.235675 0.922257 0.369312
O O11 0.500000 0.986734 0.367101
O O12 0.670615 0.000000 0.500000
O O13 0.250000 0.337673 0.750000
O O14 0.500000 0.314356 0.666368
O O15 0.268546 0.371957 0.585884
O O16 0.500000 0.394718 0.972921
O O17 0.304892 0.500000 0.000000
#
# Coordination Sequence:
#
# PCOD9415003 Si02
#       6
#     8   8   8   8   8   8
#     4   9  17  32  54  79 114 158 205 251 303 359
#     4  10  21  38  60  90 123 159 201 247 300 360
#     4  10  18  34  58  83 117 159 207 254 306 361
#     4   9  17  28  47  81 118 153 202 253 304 356
#     4  12  25  41  64  93 127 163 206 254 307 368
#     4  10  22  44  70  94 124 161 200 248 307 368
#
# _framework density 19.565626000000002
#
# number of rings (size 3 to 8) (size 9 to 14) (size 15 to 20)
#    0.000    2.000    1.667    2.500    0.000    5.000 
#    0.000    2.500    0.000    2.000    0.000    0.000 
#    0.000    0.000    0.000    0.000    0.000    0.000 
#
# Total GULP energy -268291.584439 kJ/mol
# GULP energy per Si atom -5589.408009 kJ/mol
# Density = 1.952109 g / cm^3
# Si number density = 19.565626 Si / 1000 Ang^3
#
#
#
# Elastic Constant Matrix: (Units=GPa)
#
#
# Indices 1 2 3 4 5 6 
#
# 1 128.7508 69.9833 68.5416 0.0000 0.0000 0.0000
# 2 69.9833 111.7964 56.7316 0.0000 0.0000 0.0000
# 3 68.5416 56.7316 97.5780 0.0000 0.0000 0.0000
# 4 0.0000 0.0000 0.0000 -13.5127 0.0000 0.0000
# 5 0.0000 0.0000 0.0000 0.0000 23.9368 0.0000
# 6 0.0000 0.0000 0.0000 0.0000 0.0000 20.9806
#
#
#
# Elastic Compliance Matrix: (Units=1/GPa)
#
#
# Indices 1 2 3 4 5 6 
#
# 1 0.014475 -0.005534 -0.006950 0.000000 0.000000 0.000000
# 2 -0.005534 0.014804 -0.004720 0.000000 0.000000 0.000000
# 3 -0.006950 -0.004720 0.017874 0.000000 0.000000 0.000000
# 4 0.000000 0.000000 0.000000 -0.074005 0.000000 0.000000
# 5 0.000000 0.000000 0.000000 0.000000 0.041777 0.000000
# 6 0.000000 0.000000 0.000000 0.000000 0.000000 0.047663
#
#
# Mechanical properties :
#
#
# Convention : Reuss Voigt Hill
#
# Bulk Modulus (GPa) = 78.46020 80.95979 79.70999
# Shear Modulus (GPa) = 49.38494 15.80553 32.59524
#
# Velocity S-wave (km/s) = 5.02946 2.84530 4.08603
# Velocity P-wave (km/s) = 8.59741 7.22930 7.94286
#
# Compressibility (1/GPa) = 0.01274532
#
# Stress axis : x y z
#
# Youngs Moduli (GPa) = 69.08400 67.54780 55.94685
#
# Poissons Ratio (x) = 0.37384 0.38883
# Poissons Ratio (y) = 0.38234 0.26405
# Poissons Ratio (z) = 0.48014 0.31880
#
# Static dielectric constant tensor:
#      x y z
#    x 1.654790 0.000000 0.000000 
#    y 0.000000 1.658870 0.000000 
#    z 0.000000 0.000000 1.701680 
# 
# From -- ./inp_files/20163.got.cif
#   From: 2010.05.17/outbox.cif.g08.bks.cpg/sg53_11_cif.got.tgz:20163.got - 2010.06.03 12:45:16.
