data_PCOD9415053
_publ_section_title
;
Structure prediction by ZEFSAII (Michael W. Deem and Ramdas Pophale) SiO2 
 PCOD9415053
Probable space group: P M N A
;
_chemical_formula_sum "Si O2"
_cell_formula_units_Z 48
_cell_length_a 14.315288
_cell_length_b 9.856922
_cell_length_c 18.006468
_cell_angle_alpha 90.000000
_cell_angle_beta 90.000000
_cell_angle_gamma 90.000000
_cell_volume 2540.796855
_symmetry_space_group_name_H-M "P M N A"
_symmetry_group_IT_number 53
_symmetry_cell_setting 'orthorhombic'
loop_
_space_group_symop_operation_xyz
x,y,z
1/2-x,-y,1/2+z
x,-y,-z
1/2-x,y,1/2-z
-x,-y,-z
1/2+x,y,1/2-z
-x,y,z
1/2+x,-y,1/2+z
loop_
_atom_site_type_symbol
_atom_site_label
_atom_site_fract_x
_atom_site_fract_y
_atom_site_fract_z
Si Si1 0.894979 0.176211 0.346419
Si Si2 0.858781 0.600849 0.769916
Si Si3 0.691985 0.800817 0.599401
Si Si4 0.105748 0.004557 0.793309
Si Si5 0.611748 0.649750 0.464194
Si Si6 0.156849 0.310855 0.799439
O O1 0.901306 0.308890 0.294525
O O2 0.805346 0.201348 0.398793
O O3 0.000000 0.148282 0.376532
O O4 0.866792 0.059710 0.286319
O O5 0.750000 0.588513 0.750000
O O6 0.855030 0.687375 0.845749
O O7 0.895110 0.448790 0.775401
O O8 0.648883 0.764307 0.520453
O O9 0.663825 0.941086 0.639180
O O10 0.109404 0.165693 0.790868
O O11 0.000000 0.957831 0.805373
O O12 0.625706 0.500000 0.500000
O O13 0.500000 0.665567 0.450587
O O14 0.667870 0.663684 0.387431
O O15 0.250000 0.301009 0.750000
#
# Coordination Sequence:
#
# PCOD9415053 Si02
#       6
#     8   8   8   8   8   8
#     4   9  18  32  56  83 109 149 197 238 277 335
#     4   8  16  30  51  78 109 149 189 226 276 332
#     4  10  18  36  55  79 115 152 188 236 289 341
#     4  10  20  34  55  85 119 153 194 239 285 339
#     4  11  23  37  58  87 117 150 191 239 290 345
#     4  11  21  36  56  82 116 154 187 231 286 343
#
# _framework density 18.891711000000001
#
# number of rings (size 3 to 8) (size 9 to 14) (size 15 to 20)
#    0.000    2.167    1.667    3.500    0.000    2.667 
#    0.000    1.667    0.000    2.500    0.000    3.500 
#    0.000    0.000    0.000    0.000    0.000    0.000 
#
# Total GULP energy -267378.042536 kJ/mol
# GULP energy per Si atom -5570.375886 kJ/mol
# Density = 1.884871 g / cm^3
# Si number density = 18.891711 Si / 1000 Ang^3
#
#
#
# Elastic Constant Matrix: (Units=GPa)
#
#
# Indices 1 2 3 4 5 6 
#
# 1 101.3804 3.9560 39.3463 0.0000 0.0000 0.0000
# 2 3.9560 113.8866 8.4661 0.0000 0.0000 0.0000
# 3 39.3463 8.4661 76.4905 0.0000 0.0000 0.0000
# 4 0.0000 0.0000 0.0000 12.7274 0.0000 0.0000
# 5 0.0000 0.0000 0.0000 0.0000 15.2793 0.0000
# 6 0.0000 0.0000 0.0000 0.0000 0.0000 230.8924
#
#
#
# Elastic Compliance Matrix: (Units=1/GPa)
#
#
# Indices 1 2 3 4 5 6 
#
# 1 0.012324 0.000044 -0.006344 0.000000 0.000000 0.000000
# 2 0.000044 0.008854 -0.001002 0.000000 0.000000 0.000000
# 3 -0.006344 -0.001002 0.016448 0.000000 0.000000 0.000000
# 4 0.000000 0.000000 0.000000 0.078571 0.000000 0.000000
# 5 0.000000 0.000000 0.000000 0.000000 0.065448 0.000000
# 6 0.000000 0.000000 0.000000 0.000000 0.000000 0.004331
#
#
# Mechanical properties :
#
#
# Convention : Reuss Voigt Hill
#
# Bulk Modulus (GPa) = 43.44121 43.92160 43.68141
# Shear Modulus (GPa) = 24.00898 67.77909 45.89403
#
# Velocity S-wave (km/s) = 3.56880 5.99630 4.93416
# Velocity P-wave (km/s) = 6.32665 8.44040 7.45878
#
# Compressibility (1/GPa) = 0.02301962
#
# Stress axis : x y z
#
# Youngs Moduli (GPa) = 81.13938 112.94758 60.79760
#
# Poissons Ratio (x) = -0.00492 0.38573
# Poissons Ratio (y) = -0.00353 0.06094
# Poissons Ratio (z) = 0.51479 0.11321
#
# Static dielectric constant tensor:
#      x y z
#    x 1.814450 0.000000 0.000000 
#    y 0.000000 1.697330 0.000000 
#    z 0.000000 0.000000 1.660030 
# 
# From -- ./inp_files/28292.got.cif
#   From: 2010.05.17/outbox.cif.g08.bks.cpg/sg53_15_cif.got.tgz:28292.got - 2010.06.03 12:45:16.
