data_PCOD9415245
_publ_section_title
;
Structure prediction by ZEFSAII (Michael W. Deem and Ramdas Pophale) SiO2 
 PCOD9415245
Probable space group: P M N A
;
_chemical_formula_sum "Si O2"
_cell_formula_units_Z 64
_cell_length_a 8.799499
_cell_length_b 31.434603
_cell_length_c 14.032781
_cell_angle_alpha 90.000000
_cell_angle_beta 90.000000
_cell_angle_gamma 90.000000
_cell_volume 3881.590119
_symmetry_space_group_name_H-M "P M N A"
_symmetry_group_IT_number 53
_symmetry_cell_setting 'orthorhombic'
loop_
_space_group_symop_operation_xyz
x,y,z
1/2-x,-y,1/2+z
x,-y,-z
1/2-x,y,1/2-z
-x,-y,-z
1/2+x,y,1/2-z
-x,y,z
1/2+x,-y,1/2+z
loop_
_atom_site_type_symbol
_atom_site_label
_atom_site_fract_x
_atom_site_fract_y
_atom_site_fract_z
Si Si1 0.682338 0.981906 0.852558
Si Si2 0.176532 0.453423 0.026381
Si Si3 0.683659 0.068085 0.960009
Si Si4 0.681709 0.146381 0.646585
Si Si5 0.826149 0.607720 0.154337
Si Si6 0.182115 0.679534 0.469266
Si Si7 0.183777 0.239357 0.645732
Si Si8 0.317511 0.621558 0.854838
O O1 0.750000 0.972942 0.750000
O O2 0.500000 0.981586 0.847418
O O3 0.725817 0.028964 0.889953
O O4 0.725421 0.948327 0.934582
O O5 0.177716 0.427061 0.928461
O O6 0.000000 0.458186 0.057755
O O7 0.238117 0.500000 0.000000
O O8 0.263304 0.423798 0.101909
O O9 0.500000 0.073153 0.955884
O O10 0.764385 0.110812 0.927305
O O11 0.750000 0.134401 0.750000
O O12 0.500000 0.148725 0.652480
O O13 0.750384 0.192748 0.624036
O O14 0.750000 0.591541 0.250000
O O15 0.000000 0.619705 0.172784
O O16 0.736995 0.648046 0.113615
O O17 0.228627 0.726495 0.435251
O O18 0.234381 0.658029 0.568942
O O19 0.000000 0.679244 0.472825
O O20 0.250000 0.251649 0.750000
O O21 0.000000 0.237670 0.652127
O O22 0.250000 0.628021 0.750000
O O23 0.500000 0.622146 0.850466
#
# Coordination Sequence:
#
# PCOD9415245 Si02
#       8
#     8   8   8   8   8   8   8   8
#     4   9  18  31  49  71  97 128 165 206 248 291
#     4   9  19  35  51  70  97 128 163 200 237 280
#     4   9  18  33  49  69  98 132 165 202 247 292
#     4  11  21  32  48  72 100 131 164 199 240 290
#     4  10  19  30  47  69  95 125 154 188 231 277
#     4   9  19  34  52  73  97 124 157 196 237 283
#     4  10  19  32  50  73 100 129 158 192 239 293
#     4  10  20  35  54  76 100 128 164 204 246 290
#
# _framework density 16.488088999999999
#
# number of rings (size 3 to 8) (size 9 to 14) (size 15 to 20)
#    0.000    2.375    0.000    4.500    0.000    5.750 
#    0.000    2.500    0.000    0.750    0.000    1.750 
#    0.000    0.000    0.000    0.000    0.000    0.000 
#
# Total GULP energy -356831.327784 kJ/mol
# GULP energy per Si atom -5575.489497 kJ/mol
# Density = 1.645056 g / cm^3
# Si number density = 16.488089 Si / 1000 Ang^3
#
#
#
# Elastic Constant Matrix: (Units=GPa)
#
#
# Indices 1 2 3 4 5 6 
#
# 1 38.0832 35.3939 40.2613 0.0000 0.0000 0.0000
# 2 35.3939 108.4824 60.1919 0.0000 0.0000 0.0000
# 3 40.2613 60.1919 98.9438 0.0000 0.0000 0.0000
# 4 0.0000 0.0000 0.0000 14.5457 0.0000 0.0000
# 5 0.0000 0.0000 0.0000 0.0000 28.8685 0.0000
# 6 0.0000 0.0000 0.0000 0.0000 0.0000 52.5327
#
#
#
# Elastic Compliance Matrix: (Units=1/GPa)
#
#
# Indices 1 2 3 4 5 6 
#
# 1 0.049883 -0.007567 -0.015695 0.000000 0.000000 0.000000
# 2 -0.007567 0.015063 -0.006084 0.000000 0.000000 0.000000
# 3 -0.015695 -0.006084 0.020194 0.000000 0.000000 0.000000
# 4 0.000000 0.000000 0.000000 0.068749 0.000000 0.000000
# 5 0.000000 0.000000 0.000000 0.000000 0.034640 0.000000
# 6 0.000000 0.000000 0.000000 0.000000 0.000000 0.019036
#
#
# Mechanical properties :
#
#
# Convention : Reuss Voigt Hill
#
# Bulk Modulus (GPa) = 37.80914 57.46706 47.63810
# Shear Modulus (GPa) = 18.17699 26.50019 22.33859
#
# Velocity S-wave (km/s) = 3.32389 4.01338 3.68480
# Velocity P-wave (km/s) = 6.14101 7.51037 6.85994
#
# Compressibility (1/GPa) = 0.02644863
#
# Stress axis : x y z
#
# Youngs Moduli (GPa) = 20.04684 66.38885 49.51847
#
# Poissons Ratio (x) = 0.50235 0.77718
# Poissons Ratio (y) = 0.15169 0.30129
# Poissons Ratio (z) = 0.31463 0.40393
#
# Static dielectric constant tensor:
#      x y z
#    x 1.561640 0.000000 0.000000 
#    y 0.000000 1.552540 0.000000 
#    z 0.000000 0.000000 1.544890 
# 
# From -- ./inp_files/14245.got.cif
#   From: 2010.05.17/outbox.cif.g08.bks.cpg/sg53_8_cif.got.tgz:14245.got - 2010.06.03 12:45:16.
