data_PCOD9415910
_publ_section_title
;
Structure prediction by ZEFSAII (Michael W. Deem and Ramdas Pophale) SiO2 
 PCOD9415910
Probable space group: P M N A
;
_chemical_formula_sum "Si O2"
_cell_formula_units_Z 64
_cell_length_a 7.295551
_cell_length_b 18.332166
_cell_length_c 21.370904
_cell_angle_alpha 90.000000
_cell_angle_beta 90.000000
_cell_angle_gamma 90.000000
_cell_volume 2858.214199
_symmetry_space_group_name_H-M "P M N A"
_symmetry_group_IT_number 53
_symmetry_cell_setting 'orthorhombic'
loop_
_space_group_symop_operation_xyz
x,y,z
1/2-x,-y,1/2+z
x,-y,-z
1/2-x,y,1/2-z
-x,-y,-z
1/2+x,y,1/2-z
-x,y,z
1/2+x,-y,1/2+z
loop_
_atom_site_type_symbol
_atom_site_label
_atom_site_fract_x
_atom_site_fract_y
_atom_site_fract_z
Si Si1 0.204437 0.838095 0.398471
Si Si2 0.281469 0.568120 0.824561
Si Si3 0.775940 0.719687 0.611830
Si Si4 0.775885 0.702267 0.465270
Si Si5 0.223148 0.538330 0.435021
Si Si6 0.717463 0.029938 0.818118
Si Si7 0.280018 0.082272 0.480034
Si Si8 0.704067 0.126931 0.157136
O O1 0.288502 0.759492 0.412146
O O2 0.291724 0.908191 0.364510
O O3 0.195710 0.865704 0.469155
O O4 0.000000 0.828979 0.370976
O O5 0.250000 0.558982 0.750000
O O6 0.500000 0.569468 0.831581
O O7 0.218045 0.646278 0.852203
O O8 0.215731 0.505044 0.872705
O O9 0.720128 0.717272 0.538062
O O10 0.714656 0.792073 0.650048
O O11 0.000000 0.722866 0.611284
O O12 0.721667 0.622009 0.443113
O O13 0.000000 0.705842 0.465643
O O14 0.278342 0.500000 0.500000
O O15 0.000000 0.537309 0.433971
O O16 0.750000 0.061115 0.750000
O O17 0.500000 0.021717 0.831661
O O18 0.794691 0.947325 0.816960
O O19 0.500000 0.091452 0.476981
O O20 0.195338 0.102137 0.414623
O O21 0.241483 0.000000 0.500000
O O22 0.500000 0.134776 0.185462
#
# Coordination Sequence:
#
# PCOD9415910 Si02
#       8
#     8   8   8   8   8   8   8   8
#     4  10  19  33  54  76  98 130 173 218 259 305
#     4  10  20  34  53  79 112 144 176 213 263 320
#     4   9  16  28  51  80 104 131 169 217 259 301
#     4   9  15  26  51  83 104 122 165 227 267 293
#     4   9  15  27  51  82 107 131 173 224 263 300
#     4  10  22  36  51  69  94 134 177 214 257 304
#     4  11  21  30  46  76 107 132 159 204 263 309
#     4  10  19  33  53  75  99 131 174 216 251 301
#
# _framework density 22.391604999999998
#
# number of rings (size 3 to 8) (size 9 to 14) (size 15 to 20)
#    0.000    2.250    3.750    0.375    0.000    2.000 
#    0.000    1.250    0.000    1.125    0.000    0.000 
#    0.000    0.000    0.000    0.000    0.000    0.000 
#
# Total GULP energy -356766.402118 kJ/mol
# GULP energy per Si atom -5574.475033 kJ/mol
# Density = 2.234064 g / cm^3
# Si number density = 22.391605 Si / 1000 Ang^3
#
#
#
# Elastic Constant Matrix: (Units=GPa)
#
#
# Indices 1 2 3 4 5 6 
#
# 1 96.8797 14.9806 -6.8450 0.0000 0.0000 0.0000
# 2 14.9806 204.4480 61.4715 0.0000 0.0000 0.0000
# 3 -6.8450 61.4715 121.1666 0.0000 0.0000 0.0000
# 4 0.0000 0.0000 0.0000 2.0679 0.0000 0.0000
# 5 0.0000 0.0000 0.0000 0.0000 13.8719 0.0000
# 6 0.0000 0.0000 0.0000 0.0000 0.0000 46.8867
#
#
#
# Elastic Compliance Matrix: (Units=1/GPa)
#
#
# Indices 1 2 3 4 5 6 
#
# 1 0.010579 -0.001127 0.001169 0.000000 0.000000 0.000000
# 2 -0.001127 0.005892 -0.003053 0.000000 0.000000 0.000000
# 3 0.001169 -0.003053 0.009868 0.000000 0.000000 0.000000
# 4 0.000000 0.000000 0.000000 0.483586 0.000000 0.000000
# 5 0.000000 0.000000 0.000000 0.000000 0.072088 0.000000
# 6 0.000000 0.000000 0.000000 0.000000 0.000000 0.021328
#
#
# Mechanical properties :
#
#
# Convention : Reuss Voigt Hill
#
# Bulk Modulus (GPa) = 49.21707 62.41206 55.81456
# Shear Modulus (GPa) = 8.11513 36.09112 22.10312
#
# Velocity S-wave (km/s) = 1.90579 4.01910 3.14525
# Velocity P-wave (km/s) = 5.18369 7.03356 6.17825
#
# Compressibility (1/GPa) = 0.02031815
#
# Stress axis : x y z
#
# Youngs Moduli (GPa) = 94.52769 169.73260 101.33916
#
# Poissons Ratio (x) = 0.19124 -0.11849
# Poissons Ratio (y) = 0.10651 0.30935
# Poissons Ratio (z) = -0.11053 0.51813
#
# Static dielectric constant tensor:
#      x y z
#    x 1.918670 0.000000 0.000000 
#    y 0.000000 1.895210 0.000000 
#    z 0.000000 0.000000 1.781730 
# 
# From -- ./inp_files/31211.got.cif
#   From: 2010.05.17/outbox.cif.g08.bks.cpg/sg53_16_cif.got.tgz:31211.got - 2010.06.03 12:45:16.
