data_PCOD9415295
_publ_section_title
;
Structure prediction by ZEFSAII (Michael W. Deem and Ramdas Pophale) SiO2 
 PCOD9415295
Probable space group: P M N A
;
_chemical_formula_sum "Si O2"
_cell_formula_units_Z 64
_cell_length_a 9.479527
_cell_length_b 13.132515
_cell_length_c 23.735142
_cell_angle_alpha 90.000000
_cell_angle_beta 90.000000
_cell_angle_gamma 90.000000
_cell_volume 2954.788552
_symmetry_space_group_name_H-M "P M N A"
_symmetry_group_IT_number 53
_symmetry_cell_setting 'orthorhombic'
loop_
_space_group_symop_operation_xyz
x,y,z
1/2-x,-y,1/2+z
x,-y,-z
1/2-x,y,1/2-z
-x,-y,-z
1/2+x,y,1/2-z
-x,y,z
1/2+x,-y,1/2+z
loop_
_atom_site_type_symbol
_atom_site_label
_atom_site_fract_x
_atom_site_fract_y
_atom_site_fract_z
Si Si1 0.653425 0.501545 0.803827
Si Si2 0.172453 0.147733 0.690798
Si Si3 0.341575 0.449468 0.593569
Si Si4 0.669171 0.845923 0.983147
Si Si5 0.845306 0.323183 0.069905
Si Si6 0.339111 0.054882 0.127740
Si Si7 0.776921 0.731459 0.684175
Si Si8 0.334583 0.776502 0.414077
O O1 0.750000 0.485577 0.750000
O O2 0.500000 0.457698 0.794159
O O3 0.726108 0.456142 0.858303
O O4 0.643503 0.623509 0.813674
O O5 0.250000 0.165398 0.750000
O O6 0.244588 0.217829 0.643264
O O7 0.000000 0.156529 0.694383
O O8 0.215000 0.034301 0.667784
O O9 0.500000 0.450683 0.618940
O O10 0.331651 0.556067 0.560892
O O11 0.328947 0.340618 0.564241
O O12 0.500000 0.853530 0.991085
O O13 0.714618 0.738106 0.955382
O O14 0.720270 0.924393 0.934789
O O15 0.754658 0.846859 0.040939
O O16 0.841284 0.298711 0.137442
O O17 0.000000 0.288810 0.048851
O O18 0.500000 0.025286 0.116663
O O19 0.337284 0.163651 0.159350
O O20 0.750000 0.752477 0.750000
O O21 0.500000 0.802530 0.405945
#
# Coordination Sequence:
#
# PCOD9415295 Si02
#       8
#     8   8   8   8   8   8   8   8
#     4  10  19  30  49  77 112 150 192 238 286 344
#     4  11  24  44  67  92 120 153 194 243 295 350
#     4   9  20  37  56  78 110 152 197 241 291 343
#     4  10  21  39  62  91 124 158 194 237 290 351
#     4   9  18  34  55  83 118 157 199 245 293 348
#     4   9  19  36  59  85 118 156 191 231 290 356
#     4   9  17  29  50  81 117 155 192 236 291 354
#     4  11  24  43  64  87 116 155 201 249 295 344
#
# _framework density 21.659756999999999
#
# number of rings (size 3 to 8) (size 9 to 14) (size 15 to 20)
#    0.000    2.250    0.000    2.250    0.000    9.000 
#    0.000   12.500    0.000    0.000    0.000    0.000 
#    0.000    0.000    0.000    0.000    0.000    0.000 
#
# Total GULP energy -356649.979858 kJ/mol
# GULP energy per Si atom -5572.655935 kJ/mol
# Density = 2.161046 g / cm^3
# Si number density = 21.659757 Si / 1000 Ang^3
#
#
#
# Elastic Constant Matrix: (Units=GPa)
#
#
# Indices 1 2 3 4 5 6 
#
# 1 120.8845 18.3210 48.3100 0.0000 0.0000 0.0000
# 2 18.3210 80.3060 24.9151 0.0000 0.0000 0.0000
# 3 48.3100 24.9151 110.5688 0.0000 0.0000 0.0000
# 4 0.0000 0.0000 0.0000 26.3976 0.0000 0.0000
# 5 0.0000 0.0000 0.0000 0.0000 34.3463 0.0000
# 6 0.0000 0.0000 0.0000 0.0000 0.0000 -6.7567
#
#
#
# Elastic Compliance Matrix: (Units=1/GPa)
#
#
# Indices 1 2 3 4 5 6 
#
# 1 0.010097 -0.001005 -0.004185 0.000000 0.000000 0.000000
# 2 -0.001005 0.013488 -0.002600 0.000000 0.000000 0.000000
# 3 -0.004185 -0.002600 0.011459 0.000000 0.000000 0.000000
# 4 0.000000 0.000000 0.000000 0.037882 0.000000 0.000000
# 5 0.000000 0.000000 0.000000 0.000000 0.029115 0.000000
# 6 0.000000 0.000000 0.000000 0.000000 0.000000 -0.148001
#
#
# Mechanical properties :
#
#
# Convention : Reuss Voigt Hill
#
# Bulk Modulus (GPa) = 51.37914 54.98350 53.18132
# Shear Modulus (GPa) = -209.28859 25.47831 -91.90514
#
# Velocity S-wave (km/s) = -9.84049 3.43344 -6.52100
# Velocity P-wave (km/s) = 10.26359 6.41547 5.66494
#
# Compressibility (1/GPa) = 0.01946315
#
# Stress axis : x y z
#
# Youngs Moduli (GPa) = 99.03659 74.13774 87.26993
#
# Poissons Ratio (x) = 0.07452 0.36525
# Poissons Ratio (y) = 0.09954 0.22692
# Poissons Ratio (z) = 0.41449 0.19278
#
# Static dielectric constant tensor:
#      x y z
#    x 1.769230 0.000000 0.000000 
#    y 0.000000 1.830140 0.000000 
#    z 0.000000 0.000000 1.824260 
# 
# From -- ./inp_files/34339.got.cif
#   From: 2010.05.17/outbox.cif.g08.bks.cpg/sg53_18_cif.got.tgz:34339.got - 2010.06.03 12:45:16.
