data_PCOD9415954
_publ_section_title
;
Structure prediction by ZEFSAII (Michael W. Deem and Ramdas Pophale) SiO2 
 PCOD9415954
Probable space group: P M N A
;
_chemical_formula_sum "Si O2"
_cell_formula_units_Z 64
_cell_length_a 8.716265
_cell_length_b 11.307533
_cell_length_c 34.724852
_cell_angle_alpha 90.000000
_cell_angle_beta 90.000000
_cell_angle_gamma 90.000000
_cell_volume 3422.462458
_symmetry_space_group_name_H-M "P M N A"
_symmetry_group_IT_number 53
_symmetry_cell_setting 'orthorhombic'
loop_
_space_group_symop_operation_xyz
x,y,z
1/2-x,-y,1/2+z
x,-y,-z
1/2-x,y,1/2-z
-x,-y,-z
1/2+x,y,1/2-z
-x,y,z
1/2+x,-y,1/2+z
loop_
_atom_site_type_symbol
_atom_site_label
_atom_site_fract_x
_atom_site_fract_y
_atom_site_fract_z
Si Si1 0.181127 0.942956 0.556859
Si Si2 0.314886 0.594467 0.904567
Si Si3 0.315094 0.789090 0.053993
Si Si4 0.813214 0.655781 0.370220
Si Si5 0.181386 0.035128 0.209651
Si Si6 0.819107 0.706463 0.978420
Si Si7 0.680026 0.835011 0.861129
Si Si8 0.315450 0.227218 0.791268
O O1 0.273188 0.836698 0.537609
O O2 0.192829 0.924649 0.602825
O O3 0.000000 0.928061 0.546687
O O4 0.231356 0.074970 0.546601
O O5 0.500000 0.594356 0.907981
O O6 0.264809 0.473829 0.884308
O O7 0.248370 0.616212 0.947033
O O8 0.273946 0.707823 0.878356
O O9 0.500000 0.786960 0.052795
O O10 0.266137 0.746908 0.096298
O O11 0.252581 0.703796 0.020868
O O12 0.763563 0.695380 0.327822
O O13 0.000000 0.655775 0.369504
O O14 0.250000 0.079968 0.250000
O O15 0.258477 0.907121 0.202616
O O16 0.000000 0.019482 0.213342
O O17 0.223429 0.120421 0.174642
O O18 0.000000 0.693312 0.980482
O O19 0.500000 0.829903 0.850309
O O20 0.250000 0.266964 0.750000
O O21 0.500000 0.227294 0.789593
#
# Coordination Sequence:
#
# PCOD9415954 Si02
#       8
#     8   8   8   8   8   8   8   8
#     4   9  18  33  54  77 102 136 174 213 260 317
#     4   9  19  38  59  75  97 137 183 219 254 304
#     4  10  19  33  54  78 103 135 177 219 258 307
#     4   9  19  36  59  81 101 134 181 222 252 299
#     4  11  21  33  52  79 110 140 170 206 254 312
#     4  11  22  34  49  74 108 141 173 217 269 312
#     4   9  17  32  54  77 102 132 169 215 262 306
#     4  10  19  35  58  84 112 138 168 208 258 311
#
# _framework density 18.699985999999999
#
# number of rings (size 3 to 8) (size 9 to 14) (size 15 to 20)
#    0.000    2.250    0.000    5.250    0.000    6.500 
#    0.000    7.500    0.000    1.500    0.000    0.000 
#    0.000    0.000    0.000    0.000    0.000    0.000 
#
# Total GULP energy -357303.038689 kJ/mol
# GULP energy per Si atom -5582.859980 kJ/mol
# Density = 1.865742 g / cm^3
# Si number density = 18.699986 Si / 1000 Ang^3
#
#
#
# Elastic Constant Matrix: (Units=GPa)
#
#
# Indices 1 2 3 4 5 6 
#
# 1 40.5614 6.4361 21.3722 0.0000 0.0000 0.0000
# 2 6.4361 35.3843 20.2969 0.0000 0.0000 0.0000
# 3 21.3722 20.2969 109.2282 0.0000 0.0000 0.0000
# 4 0.0000 0.0000 0.0000 20.1171 0.0000 0.0000
# 5 0.0000 0.0000 0.0000 0.0000 27.8738 0.0000
# 6 0.0000 0.0000 0.0000 0.0000 0.0000 11.0675
#
#
#
# Elastic Compliance Matrix: (Units=1/GPa)
#
#
# Indices 1 2 3 4 5 6 
#
# 1 0.027634 -0.002155 -0.005007 0.000000 0.000000 0.000000
# 2 -0.002155 0.031801 -0.005488 0.000000 0.000000 0.000000
# 3 -0.005007 -0.005488 0.011155 0.000000 0.000000 0.000000
# 4 0.000000 0.000000 0.000000 0.049709 0.000000 0.000000
# 5 0.000000 0.000000 0.000000 0.000000 0.035876 0.000000
# 6 0.000000 0.000000 0.000000 0.000000 0.000000 0.090354
#
#
# Mechanical properties :
#
#
# Convention : Reuss Voigt Hill
#
# Bulk Modulus (GPa) = 22.07916 31.26491 26.67203
# Shear Modulus (GPa) = 17.42626 20.94961 19.18794
#
# Velocity S-wave (km/s) = 3.05599 3.35072 3.20674
# Velocity P-wave (km/s) = 4.92796 5.63252 5.29198
#
# Compressibility (1/GPa) = 0.04529158
#
# Stress axis : x y z
#
# Youngs Moduli (GPa) = 36.18738 31.44569 89.64983
#
# Poissons Ratio (x) = 0.06775 0.44885
# Poissons Ratio (y) = 0.07797 0.49197
# Poissons Ratio (z) = 0.18118 0.17256
#
# Static dielectric constant tensor:
#      x y z
#    x 1.631010 0.000000 0.000000 
#    y 0.000000 1.643780 0.000000 
#    z 0.000000 0.000000 1.650510 
# 
# From -- ./inp_files/38155.got.cif
#   From: 2010.05.17/outbox.cif.g08.bks.cpg/sg53_20_cif.got.tgz:38155.got - 2010.06.03 12:45:16.
