data_PCOD9415467
_publ_section_title
;
Structure prediction by ZEFSAII (Michael W. Deem and Ramdas Pophale) SiO2 
 PCOD9415467
Probable space group: P M N A
;
_chemical_formula_sum "Si O2"
_cell_formula_units_Z 64
_cell_length_a 9.068138
_cell_length_b 23.646647
_cell_length_c 17.265427
_cell_angle_alpha 90.000000
_cell_angle_beta 90.000000
_cell_angle_gamma 90.000000
_cell_volume 3702.243782
_symmetry_space_group_name_H-M "P M N A"
_symmetry_group_IT_number 53
_symmetry_cell_setting 'orthorhombic'
loop_
_space_group_symop_operation_xyz
x,y,z
1/2-x,-y,1/2+z
x,-y,-z
1/2-x,y,1/2-z
-x,-y,-z
1/2+x,y,1/2-z
-x,y,z
1/2+x,-y,1/2+z
loop_
_atom_site_type_symbol
_atom_site_label
_atom_site_fract_x
_atom_site_fract_y
_atom_site_fract_z
Si Si1 0.825750 0.182128 0.329072
Si Si2 0.169067 0.534657 0.081018
Si Si3 0.674683 0.133278 0.555935
Si Si4 0.177644 0.237874 0.490747
Si Si5 0.675406 0.068137 0.085996
Si Si6 0.823065 0.564709 0.667997
Si Si7 0.174597 0.035017 0.832510
Si Si8 0.176627 0.369531 0.490321
O O1 0.750000 0.199172 0.250000
O O2 0.776756 0.216536 0.404971
O O3 0.800523 0.115934 0.348021
O O4 0.000000 0.190590 0.321633
O O5 0.260391 0.496265 0.140734
O O6 0.000000 0.541504 0.106802
O O7 0.167785 0.500000 0.000000
O O8 0.244120 0.593045 0.055533
O O9 0.500000 0.136066 0.540336
O O10 0.744982 0.195286 0.550277
O O11 0.753805 0.095929 0.489838
O O12 0.697018 0.098008 0.634215
O O13 0.213117 0.303647 0.498639
O O14 0.000000 0.230825 0.496167
O O15 0.500000 0.060757 0.075817
O O16 0.752648 0.010422 0.109967
O O17 0.750000 0.580575 0.750000
O O18 0.786075 0.606837 0.596040
O O19 0.000000 0.563063 0.675592
O O20 0.250000 0.028308 0.750000
O O21 0.000000 0.024246 0.827853
O O22 0.000000 0.376559 0.498050
#
# Coordination Sequence:
#
# PCOD9415467 Si02
#       8
#     8   8   8   8   8   8   8   8
#     4   9  18  30  44  66  96 129 163 199 240 289
#     4   9  17  30  49  73 100 130 166 205 243 287
#     4  10  21  36  53  75 102 131 167 212 256 300
#     4   9  19  35  52  71  97 132 173 210 248 297
#     4  10  20  34  53  75 100 132 168 205 251 308
#     4  10  19  31  49  75 108 140 167 200 246 295
#     4  11  23  36  52  76 103 129 161 205 257 310
#     4   9  18  33  52  73  99 133 171 210 251 297
#
# _framework density 17.286814
#
# number of rings (size 3 to 8) (size 9 to 14) (size 15 to 20)
#    0.000    2.375    0.000    3.375    0.000   10.000 
#    0.000    0.000    0.000    0.750    0.000    1.750 
#    0.000    0.000    0.000    0.000    0.000    0.000 
#
# Total GULP energy -356969.513607 kJ/mol
# GULP energy per Si atom -5577.648650 kJ/mol
# Density = 1.724747 g / cm^3
# Si number density = 17.286814 Si / 1000 Ang^3
#
#
#
# Elastic Constant Matrix: (Units=GPa)
#
#
# Indices 1 2 3 4 5 6 
#
# 1 56.0173 49.9921 18.1584 0.0000 0.0000 0.0000
# 2 49.9921 121.7091 17.9360 0.0000 0.0000 0.0000
# 3 18.1584 17.9360 22.7940 0.0000 0.0000 0.0000
# 4 0.0000 0.0000 0.0000 8.2928 0.0000 0.0000
# 5 0.0000 0.0000 0.0000 0.0000 23.1773 0.0000
# 6 0.0000 0.0000 0.0000 0.0000 0.0000 25.4417
#
#
#
# Elastic Compliance Matrix: (Units=1/GPa)
#
#
# Indices 1 2 3 4 5 6 
#
# 1 0.033665 -0.011171 -0.018028 0.000000 0.000000 0.000000
# 2 -0.011171 0.013001 -0.001331 0.000000 0.000000 0.000000
# 3 -0.018028 -0.001331 0.059280 0.000000 0.000000 0.000000
# 4 0.000000 0.000000 0.000000 0.120587 0.000000 0.000000
# 5 0.000000 0.000000 0.000000 0.000000 0.043146 0.000000
# 6 0.000000 0.000000 0.000000 0.000000 0.000000 0.039306
#
#
# Mechanical properties :
#
#
# Convention : Reuss Voigt Hill
#
# Bulk Modulus (GPa) = 22.27884 41.41041 31.84462
# Shear Modulus (GPa) = 12.98676 19.01129 15.99902
#
# Velocity S-wave (km/s) = 2.74387 3.31986 3.04551
# Velocity P-wave (km/s) = 4.79105 6.22111 5.55231
#
# Compressibility (1/GPa) = 0.04488565
#
# Stress axis : x y z
#
# Youngs Moduli (GPa) = 29.70415 76.91696 16.86900
#
# Poissons Ratio (x) = 0.85926 0.30412
# Poissons Ratio (y) = 0.33183 0.02245
# Poissons Ratio (z) = 0.53552 0.10236
#
# Static dielectric constant tensor:
#      x y z
#    x 1.579690 0.000000 0.000000 
#    y 0.000000 1.590320 0.000000 
#    z 0.000000 0.000000 1.573660 
# 
# From -- ./inp_files/26854.got.cif
#   From: 2010.05.17/outbox.cif.g08.bks.cpg/sg53_14_cif.got.tgz:26854.got - 2010.06.03 12:45:16.
