data_PCOD9415833
_publ_section_title
;
Structure prediction by ZEFSAII (Michael W. Deem and Ramdas Pophale) SiO2 
 PCOD9415833
Probable space group: P M N A
;
_chemical_formula_sum "Si O2"
_cell_formula_units_Z 56
_cell_length_a 8.469324
_cell_length_b 20.653690
_cell_length_c 16.075955
_cell_angle_alpha 90.000000
_cell_angle_beta 90.000000
_cell_angle_gamma 90.000000
_cell_volume 2812.050939
_symmetry_space_group_name_H-M "P M N A"
_symmetry_group_IT_number 53
_symmetry_cell_setting 'orthorhombic'
loop_
_space_group_symop_operation_xyz
x,y,z
1/2-x,-y,1/2+z
x,-y,-z
1/2-x,y,1/2-z
-x,-y,-z
1/2+x,y,1/2-z
-x,y,z
1/2+x,-y,1/2+z
loop_
_atom_site_type_symbol
_atom_site_label
_atom_site_fract_x
_atom_site_fract_y
_atom_site_fract_z
Si Si1 0.188430 0.333450 0.656927
Si Si2 0.179944 0.106311 0.165491
Si Si3 0.678243 0.746907 0.626346
Si Si4 0.307733 0.789597 0.052048
Si Si5 0.679862 0.620547 0.836419
Si Si6 0.316952 0.928341 0.005111
Si Si7 0.812445 0.573693 0.009810
O O1 0.250000 0.346280 0.750000
O O2 0.233778 0.260885 0.624984
O O3 0.243373 0.384680 0.586320
O O4 0.000000 0.335899 0.659043
O O5 0.250000 0.078624 0.250000
O O6 0.173110 0.183859 0.169759
O O7 0.000000 0.084017 0.148907
O O8 0.297207 0.093361 0.089897
O O9 0.500000 0.719227 0.630015
O O10 0.728220 0.761053 0.531139
O O11 0.803431 0.698213 0.665131
O O12 0.500000 0.789217 0.042327
O O13 0.257102 0.865561 0.057000
O O14 0.750000 0.594629 0.750000
O O15 0.500000 0.600159 0.844656
O O16 0.772005 0.603678 0.920302
O O17 0.500000 0.936334 0.029734
O O18 0.241771 0.000000 0.000000
O O19 0.000000 0.572164 0.022182
O O20 0.752991 0.500000 0.000000
#
# Coordination Sequence:
#
# PCOD9415833 Si02
#       7
#     8   8   8   8   8   8   8
#     4  11  23  40  65  94 124 164 212 264 315 371
#     4  10  20  32  49  76 108 144 185 231 282 342
#     4  10  19  32  54  83 115 149 186 231 287 346
#     4   9  18  34  57  85 116 155 201 247 300 359
#     4  12  24  38  59  88 122 158 195 238 292 356
#     4   9  18  34  56  80 112 154 196 241 298 360
#     4  11  25  45  67  91 122 159 201 253 311 373
#
# _framework density 19.914290999999999
#
# number of rings (size 3 to 8) (size 9 to 14) (size 15 to 20)
#    0.000    1.714    1.429    3.429    0.000    5.429 
#    0.000    0.714    0.000    1.714    0.000    0.000 
#    0.000    0.000    0.000    0.000    0.000    0.000 
#
# Total GULP energy -312116.047790 kJ/mol
# GULP energy per Si atom -5573.500853 kJ/mol
# Density = 1.986897 g / cm^3
# Si number density = 19.914291 Si / 1000 Ang^3
#
#
#
# Elastic Constant Matrix: (Units=GPa)
#
#
# Indices 1 2 3 4 5 6 
#
# 1 38.0771 11.1953 13.9423 0.0000 0.0000 0.0000
# 2 11.1953 116.1953 44.8522 0.0000 0.0000 0.0000
# 3 13.9423 44.8522 114.7748 0.0000 0.0000 0.0000
# 4 0.0000 0.0000 0.0000 3.2626 0.0000 0.0000
# 5 0.0000 0.0000 0.0000 0.0000 16.7497 0.0000
# 6 0.0000 0.0000 0.0000 0.0000 0.0000 11.4889
#
#
#
# Elastic Compliance Matrix: (Units=1/GPa)
#
#
# Indices 1 2 3 4 5 6 
#
# 1 0.027740 -0.001616 -0.002738 0.000000 0.000000 0.000000
# 2 -0.001616 0.010229 -0.003801 0.000000 0.000000 0.000000
# 3 -0.002738 -0.003801 0.010531 0.000000 0.000000 0.000000
# 4 0.000000 0.000000 0.000000 0.306508 0.000000 0.000000
# 5 0.000000 0.000000 0.000000 0.000000 0.059703 0.000000
# 6 0.000000 0.000000 0.000000 0.000000 0.000000 0.087040
#
#
# Mechanical properties :
#
#
# Convention : Reuss Voigt Hill
#
# Bulk Modulus (GPa) = 31.06579 45.44742 38.25660
# Shear Modulus (GPa) = 9.45554 19.57073 14.51313
#
# Velocity S-wave (km/s) = 2.18138 3.13828 2.70252
# Velocity P-wave (km/s) = 4.68809 6.00023 5.38428
#
# Compressibility (1/GPa) = 0.03218975
#
# Stress axis : x y z
#
# Youngs Moduli (GPa) = 36.04875 97.75998 94.95977
#
# Poissons Ratio (x) = 0.15795 0.26003
# Poissons Ratio (y) = 0.05824 0.36095
# Poissons Ratio (z) = 0.09871 0.37160
#
# Static dielectric constant tensor:
#      x y z
#    x 1.702820 0.000000 0.000000 
#    y 0.000000 1.795690 0.000000 
#    z 0.000000 0.000000 1.719430 
# 
# From -- ./inp_files/20516.got.cif
#   From: 2010.05.17/outbox.cif.g08.bks.cpg/sg53_11_cif.got.tgz:20516.got - 2010.06.03 12:45:16.
