data_PCOD9415079
_publ_section_title
;
Structure prediction by ZEFSAII (Michael W. Deem and Ramdas Pophale) SiO2 
 PCOD9415079
Probable space group: P M N A
;
_chemical_formula_sum "Si O2"
_cell_formula_units_Z 48
_cell_length_a 27.581707
_cell_length_b 12.071018
_cell_length_c 7.286801
_cell_angle_alpha 90.000000
_cell_angle_beta 90.000000
_cell_angle_gamma 90.000000
_cell_volume 2426.062291
_symmetry_space_group_name_H-M "P M N A"
_symmetry_group_IT_number 53
_symmetry_cell_setting 'orthorhombic'
loop_
_space_group_symop_operation_xyz
x,y,z
1/2-x,-y,1/2+z
x,-y,-z
1/2-x,y,1/2-z
-x,-y,-z
1/2+x,y,1/2-z
-x,y,z
1/2+x,-y,1/2+z
loop_
_atom_site_type_symbol
_atom_site_label
_atom_site_fract_x
_atom_site_fract_y
_atom_site_fract_z
Si Si1 0.806740 0.998041 0.219318
Si Si2 0.376901 0.194629 0.715312
Si Si3 0.445772 0.634734 0.714773
Si Si4 0.628850 0.187736 0.302096
Si Si5 0.445041 0.002638 0.778658
Si Si6 0.054466 0.623283 0.232034
O O1 0.750000 0.985256 0.250000
O O2 0.826673 0.118349 0.284293
O O3 0.837556 0.892996 0.294424
O O4 0.815854 0.000000 0.000000
O O5 0.358311 0.220661 0.510431
O O6 0.425115 0.119205 0.710216
O O7 0.399311 0.306220 0.799486
O O8 0.500000 0.674782 0.768952
O O9 0.400927 0.709617 0.779828
O O10 0.441071 0.507031 0.772363
O O11 0.445181 0.635420 0.491092
O O12 0.588446 0.091642 0.304082
O O13 0.500000 0.984648 0.727952
O O14 0.440603 0.000000 0.000000
O O15 0.000000 0.658590 0.293083
#
# Coordination Sequence:
#
# PCOD9415079 Si02
#       6
#     8   8   8   8   8   8
#     4   9  18  30  44  62  81 106 142 182 225 264
#     4   9  17  29  45  64  84 109 144 179 211 253
#     4   8  13  22  40  67  93 113 135 167 206 245
#     4   9  17  29  45  64  84 109 144 179 211 253
#     4  10  19  27  37  59  90 118 142 170 208 253
#     4   8  13  22  40  67  93 113 135 167 206 245
#
# _framework density 19.785148
#
# number of rings (size 3 to 8) (size 9 to 14) (size 15 to 20)
#    0.000    3.167    0.000    3.500    0.000    5.333 
#    0.000    0.000    0.000    2.000    0.000    4.667 
#    0.000    0.000    0.000    0.000    0.000    0.667 
#
# Total GULP energy -267243.901239 kJ/mol
# GULP energy per Si atom -5567.581276 kJ/mol
# Density = 1.974012 g / cm^3
# Si number density = 19.785148 Si / 1000 Ang^3
#
#
#
# Elastic Constant Matrix: (Units=GPa)
#
#
# Indices 1 2 3 4 5 6 
#
# 1 109.2269 50.4639 -11.1729 0.0000 0.0000 0.0000
# 2 50.4639 98.1458 -5.9452 0.0000 0.0000 0.0000
# 3 -11.1729 -5.9452 79.9148 0.0000 0.0000 0.0000
# 4 0.0000 0.0000 0.0000 -24.5360 0.0000 0.0000
# 5 0.0000 0.0000 0.0000 0.0000 12.1990 0.0000
# 6 0.0000 0.0000 0.0000 0.0000 0.0000 29.2234
#
#
#
# Elastic Compliance Matrix: (Units=1/GPa)
#
#
# Indices 1 2 3 4 5 6 
#
# 1 0.012128 -0.006161 0.001237 0.000000 0.000000 0.000000
# 2 -0.006161 0.013365 0.000133 0.000000 0.000000 0.000000
# 3 0.001237 0.000133 0.012696 0.000000 0.000000 0.000000
# 4 0.000000 0.000000 0.000000 -0.040757 0.000000 0.000000
# 5 0.000000 0.000000 0.000000 0.000000 0.081974 0.000000
# 6 0.000000 0.000000 0.000000 0.000000 0.000000 0.034219
#
#
# Mechanical properties :
#
#
# Convention : Reuss Voigt Hill
#
# Bulk Modulus (GPa) = 34.95580 39.33100 37.14340
# Shear Modulus (GPa) = 37.66657 20.30673 28.98665
#
# Velocity S-wave (km/s) = 4.36797 3.20716 3.83178
# Velocity P-wave (km/s) = 6.56848 5.79972 6.19603
#
# Compressibility (1/GPa) = 0.02860755
#
# Stress axis : x y z
#
# Youngs Moduli (GPa) = 82.45179 74.82319 78.76368
#
# Poissons Ratio (x) = 0.46099 -0.09746
# Poissons Ratio (y) = 0.50799 -0.01047
# Poissons Ratio (z) = -0.10202 -0.00994
#
# Static dielectric constant tensor:
#      x y z
#    x 1.688440 0.000000 0.000000 
#    y 0.000000 1.726730 0.000000 
#    z 0.000000 0.000000 1.800270 
# 
# From -- ./inp_files/12446.got.cif
#   From: 2010.05.17/outbox.cif.g08.bks.cpg/sg53_7_cif.got.tgz:12446.got - 2010.06.03 12:45:16.
