data_PCOD9415625
_publ_section_title
;
Structure prediction by ZEFSAII (Michael W. Deem and Ramdas Pophale) SiO2 
 PCOD9415625
Probable space group: P M N A
;
_chemical_formula_sum "Si O2"
_cell_formula_units_Z 52
_cell_length_a 7.434914
_cell_length_b 17.733227
_cell_length_c 17.469828
_cell_angle_alpha 90.000000
_cell_angle_beta 90.000000
_cell_angle_gamma 90.000000
_cell_volume 2303.309782
_symmetry_space_group_name_H-M "P M N A"
_symmetry_group_IT_number 53
_symmetry_cell_setting 'orthorhombic'
loop_
_space_group_symop_operation_xyz
x,y,z
1/2-x,-y,1/2+z
x,-y,-z
1/2-x,y,1/2-z
-x,-y,-z
1/2+x,y,1/2-z
-x,y,z
1/2+x,-y,1/2+z
loop_
_atom_site_type_symbol
_atom_site_label
_atom_site_fract_x
_atom_site_fract_y
_atom_site_fract_z
Si Si1 0.714257 0.534204 0.835488
Si Si2 0.281148 0.656689 0.955976
Si Si3 0.220434 0.175461 0.452873
Si Si4 0.250000 0.237694 0.750000
Si Si5 0.794957 0.882205 0.384501
Si Si6 0.220782 0.363967 0.634150
Si Si7 0.284671 0.954459 0.838450
O O1 0.750000 0.562717 0.750000
O O2 0.500000 0.529314 0.846397
O O3 0.784314 0.590437 0.900503
O O4 0.777433 0.447991 0.842244
O O5 0.500000 0.654799 0.953011
O O6 0.222280 0.740153 0.931708
O O7 0.235886 0.645676 0.044947
O O8 0.281829 0.155247 0.539011
O O9 0.281040 0.110639 0.395000
O O10 0.000000 0.177329 0.452194
O O11 0.193990 0.175952 0.685713
O O12 0.309445 0.300994 0.687521
O O13 0.000000 0.899848 0.406435
O O14 0.713108 0.962056 0.359420
O O15 0.000000 0.354520 0.642809
O O16 0.250000 0.938051 0.750000
O O17 0.500000 0.956330 0.846979
#
# Coordination Sequence:
#
# PCOD9415625 Si02
#       7
#     8   8   8   4   8   8   8
#     4  10  20  34  53  77 104 136 171 211 256 301
#     4   9  17  31  52  76  99 129 173 218 250 291
#     4   9  17  31  52  76  99 129 173 218 250 291
#     4  12  18  28  52  78 100 128 152 216 268 300
#     4  10  19  32  50  76 105 131 168 212 256 306
#     4  10  19  32  50  76 105 131 168 212 256 306
#     4  10  20  34  53  77 104 136 171 211 256 301
#
# _framework density 22.576208999999999
#
# number of rings (size 3 to 8) (size 9 to 14) (size 15 to 20)
#    0.000    2.154    3.077    1.385    0.000    4.308 
#    0.000    0.000    0.000    7.385    0.000    0.000 
#    0.000    0.000    0.000    0.000    0.000    0.000 
#
# Total GULP energy -289877.993914 kJ/mol
# GULP energy per Si atom -5574.576806 kJ/mol
# Density = 2.252482 g / cm^3
# Si number density = 22.576209 Si / 1000 Ang^3
#
#
#
# Elastic Constant Matrix: (Units=GPa)
#
#
# Indices 1 2 3 4 5 6 
#
# 1 68.8479 13.7322 -0.3224 0.0000 0.0000 0.0000
# 2 13.7322 165.8485 89.3195 0.0000 0.0000 0.0000
# 3 -0.3224 89.3195 106.8925 0.0000 0.0000 0.0000
# 4 0.0000 0.0000 0.0000 -61.4827 0.0000 0.0000
# 5 0.0000 0.0000 0.0000 0.0000 -3.7029 0.0000
# 6 0.0000 0.0000 0.0000 0.0000 0.0000 68.7193
#
#
#
# Elastic Compliance Matrix: (Units=1/GPa)
#
#
# Indices 1 2 3 4 5 6 
#
# 1 0.014993 -0.002301 0.001968 0.000000 0.000000 0.000000
# 2 -0.002301 0.011317 -0.009463 0.000000 0.000000 0.000000
# 3 0.001968 -0.009463 0.017269 0.000000 0.000000 0.000000
# 4 0.000000 0.000000 0.000000 -0.016265 0.000000 0.000000
# 5 0.000000 0.000000 0.000000 0.000000 -0.270061 0.000000
# 6 0.000000 0.000000 0.000000 0.000000 0.000000 0.014552
#
#
# Mechanical properties :
#
#
# Convention : Reuss Voigt Hill
#
# Bulk Modulus (GPa) = 41.69158 60.78306 51.23732
# Shear Modulus (GPa) = -24.92431 16.63071 -4.14680
#
# Velocity S-wave (km/s) = -3.32627 2.71707 -1.35676
# Velocity P-wave (km/s) = 1.93780 6.06838 4.50446
#
# Compressibility (1/GPa) = 0.02398566
#
# Stress axis : x y z
#
# Youngs Moduli (GPa) = 66.69760 88.36539 57.90873
#
# Poissons Ratio (x) = 0.20337 -0.11398
# Poissons Ratio (y) = 0.15350 0.54800
# Poissons Ratio (z) = -0.13128 0.83622
#
# Static dielectric constant tensor:
#      x y z
#    x 1.942320 0.000000 0.000000 
#    y 0.000000 1.810730 0.000000 
#    z 0.000000 0.000000 1.782260 
# 
# From -- ./inp_files/26493.got.cif
#   From: 2010.05.17/outbox.cif.g08.bks.cpg/sg53_14_cif.got.tgz:26493.got - 2010.06.03 12:45:16.
