data_PCOD9415317
_publ_section_title
;
Structure prediction by ZEFSAII (Michael W. Deem and Ramdas Pophale) SiO2 
 PCOD9415317
Probable space group: P M N A
;
_chemical_formula_sum "Si O2"
_cell_formula_units_Z 64
_cell_length_a 8.523912
_cell_length_b 15.290117
_cell_length_c 30.662012
_cell_angle_alpha 90.000000
_cell_angle_beta 90.000000
_cell_angle_gamma 90.000000
_cell_volume 3996.229444
_symmetry_space_group_name_H-M "P M N A"
_symmetry_group_IT_number 53
_symmetry_cell_setting 'orthorhombic'
loop_
_space_group_symop_operation_xyz
x,y,z
1/2-x,-y,1/2+z
x,-y,-z
1/2-x,y,1/2-z
-x,-y,-z
1/2+x,y,1/2-z
-x,y,z
1/2+x,-y,1/2+z
loop_
_atom_site_type_symbol
_atom_site_label
_atom_site_fract_x
_atom_site_fract_y
_atom_site_fract_z
Si Si1 0.810175 0.329063 0.035762
Si Si2 0.811875 0.536810 0.889763
Si Si3 0.188368 0.368533 0.558447
Si Si4 0.311035 0.295605 0.796338
Si Si5 0.311125 0.049045 0.564836
Si Si6 0.688904 0.204166 0.884106
Si Si7 0.687903 0.500856 0.202991
Si Si8 0.309137 0.129899 0.471413
O O1 0.762463 0.385080 0.077797
O O2 0.755104 0.228160 0.037565
O O3 0.000000 0.329234 0.033903
O O4 0.749208 0.371567 0.990945
O O5 0.750181 0.447561 0.911902
O O6 0.749418 0.545309 0.840578
O O7 0.000000 0.533880 0.888594
O O8 0.239997 0.276627 0.580230
O O9 0.000000 0.371502 0.558645
O O10 0.250000 0.263322 0.750000
O O11 0.500000 0.295540 0.796144
O O12 0.256595 0.239144 0.837290
O O13 0.260895 0.397004 0.801252
O O14 0.500000 0.049665 0.566045
O O15 0.247733 0.108792 0.603251
O O16 0.263107 0.097089 0.519663
O O17 0.259399 0.948111 0.561032
O O18 0.500000 0.203992 0.884249
O O19 0.750000 0.469221 0.250000
O O20 0.500000 0.498306 0.203396
O O21 0.500000 0.131451 0.470775
#
# Coordination Sequence:
#
# PCOD9415317 Si02
#       8
#     8   8   8   8   8   8   8   8
#     4  10  20  34  49  67  95 129 166 205 240 279
#     4  11  22  33  48  70  95 129 167 200 240 285
#     4  11  21  33  46  65  97 134 166 198 237 280
#     4   9  18  32  47  66  92 121 153 189 232 278
#     4   9  16  28  49  70  88 119 159 191 230 280
#     4  10  19  31  45  67  98 126 153 191 237 280
#     4  10  19  34  52  71  96 124 158 199 241 286
#     4   8  15  29  47  68  92 118 154 200 236 270
#
# _framework density 16.015096
#
# number of rings (size 3 to 8) (size 9 to 14) (size 15 to 20)
#    0.000    2.250    2.500    2.250    0.000    4.000 
#    0.000    1.875    0.000    0.000    0.000    0.875 
#    0.000    2.000    0.000    0.000    0.000    0.000 
#
# Total GULP energy -356877.554985 kJ/mol
# GULP energy per Si atom -5576.211797 kJ/mol
# Density = 1.597865 g / cm^3
# Si number density = 16.015096 Si / 1000 Ang^3
#
#
#
# Elastic Constant Matrix: (Units=GPa)
#
#
# Indices 1 2 3 4 5 6 
#
# 1 14.7693 12.0512 23.6681 0.0000 0.0000 0.0000
# 2 12.0512 63.2740 41.0724 0.0000 0.0000 0.0000
# 3 23.6681 41.0724 134.9296 0.0000 0.0000 0.0000
# 4 0.0000 0.0000 0.0000 23.5661 0.0000 0.0000
# 5 0.0000 0.0000 0.0000 0.0000 25.2377 0.0000
# 6 0.0000 0.0000 0.0000 0.0000 0.0000 28.4717
#
#
#
# Elastic Compliance Matrix: (Units=1/GPa)
#
#
# Indices 1 2 3 4 5 6 
#
# 1 0.098473 -0.009400 -0.014412 0.000000 0.000000 0.000000
# 2 -0.009400 0.020593 -0.004620 0.000000 0.000000 0.000000
# 3 -0.014412 -0.004620 0.011346 0.000000 0.000000 0.000000
# 4 0.000000 0.000000 0.000000 0.042434 0.000000 0.000000
# 5 0.000000 0.000000 0.000000 0.000000 0.039623 0.000000
# 6 0.000000 0.000000 0.000000 0.000000 0.000000 0.035123
#
#
# Mechanical properties :
#
#
# Convention : Reuss Voigt Hill
#
# Bulk Modulus (GPa) = 13.59645 40.72849 27.16247
# Shear Modulus (GPa) = 15.19888 24.53384 19.86636
#
# Velocity S-wave (km/s) = 3.08398 3.91822 3.52586
# Velocity P-wave (km/s) = 4.60320 6.77912 5.79422
#
# Compressibility (1/GPa) = 0.07354863
#
# Stress axis : x y z
#
# Youngs Moduli (GPa) = 10.15504 48.55928 88.14064
#
# Poissons Ratio (x) = 0.45647 1.27027
# Poissons Ratio (y) = 0.09546 0.40718
# Poissons Ratio (z) = 0.14635 0.22433
#
# Static dielectric constant tensor:
#      x y z
#    x 1.547970 0.000000 0.000000 
#    y 0.000000 1.538690 0.000000 
#    z 0.000000 0.000000 1.531260 
# 
# From -- ./inp_files/38437.got.cif
#   From: 2010.05.17/outbox.cif.g08.bks.cpg/sg53_20_cif.got.tgz:38437.got - 2010.06.03 12:45:16.
