data_PCOD9415960
_publ_section_title
;
Structure prediction by ZEFSAII (Michael W. Deem and Ramdas Pophale) SiO2 
 PCOD9415960
Probable space group: P M N A
;
_chemical_formula_sum "Si O2"
_cell_formula_units_Z 40
_cell_length_a 28.151494
_cell_length_b 8.712276
_cell_length_c 7.272745
_cell_angle_alpha 90.000000
_cell_angle_beta 90.000000
_cell_angle_gamma 90.000000
_cell_volume 1783.739515
_symmetry_space_group_name_H-M "P M N A"
_symmetry_group_IT_number 53
_symmetry_cell_setting 'orthorhombic'
loop_
_space_group_symop_operation_xyz
x,y,z
1/2-x,-y,1/2+z
x,-y,-z
1/2-x,y,1/2-z
-x,-y,-z
1/2+x,y,1/2-z
-x,y,z
1/2+x,-y,1/2+z
loop_
_atom_site_type_symbol
_atom_site_label
_atom_site_fract_x
_atom_site_fract_y
_atom_site_fract_z
Si Si1 0.696710 0.317433 0.532168
Si Si2 0.598481 0.179784 0.535791
Si Si3 0.000000 0.680841 0.044692
Si Si4 0.000000 0.812069 0.468907
Si Si5 0.397437 0.817954 0.026421
Si Si6 0.799689 0.681837 0.469991
O O1 0.693830 0.500000 0.500000
O O2 0.648428 0.242443 0.460694
O O3 0.698913 0.290180 0.751232
O O4 0.748184 0.262020 0.460252
O O5 0.549619 0.254197 0.467426
O O6 0.600648 0.210328 0.754620
O O7 0.595678 0.000000 0.500000
O O8 0.000000 0.747454 0.257321
O O9 0.000000 0.500000 0.000000
O O10 0.051275 0.761111 0.546025
O O11 0.000000 0.000000 0.500000
O O12 0.348668 0.747888 0.953011
O O13 0.395106 0.000000 0.000000
O O14 0.800182 0.500000 0.500000
#
# Coordination Sequence:
#
# PCOD9415960 Si02
#       6
#     8   8   4   4   8   8
#     4   9  18  33  50  70  99 131 164 209 257 303
#     4  10  20  33  51  76 103 133 168 210 259 309
#     4  10  19  33  54  79 104 135 175 218 261 312
#     4   8  16  33  53  71 100 139 170 208 264 314
#     4   9  18  33  51  70  97 132 168 207 252 307
#     4   9  18  32  50  71  96 129 168 207 253 304
#
# _framework density 22.424799
#
# number of rings (size 3 to 8) (size 9 to 14) (size 15 to 20)
#    0.000    2.800    0.000    0.900    0.000    2.400 
#    0.000    0.500    0.000    0.000    0.000    0.000 
#    0.000    0.000    0.000    0.000    0.000    0.000 
#
# Total GULP energy -222929.104221 kJ/mol
# GULP energy per Si atom -5573.227606 kJ/mol
# Density = 2.237376 g / cm^3
# Si number density = 22.424799 Si / 1000 Ang^3
#
#
#
# Elastic Constant Matrix: (Units=GPa)
#
#
# Indices 1 2 3 4 5 6 
#
# 1 344.9551 97.9999 22.5043 0.0000 0.0000 0.0000
# 2 97.9999 74.6128 0.1724 0.0000 0.0000 0.0000
# 3 22.5043 0.1724 111.4611 0.0000 0.0000 0.0000
# 4 0.0000 0.0000 0.0000 21.0816 0.0000 0.0000
# 5 0.0000 0.0000 0.0000 0.0000 -96.6015 0.0000
# 6 0.0000 0.0000 0.0000 0.0000 0.0000 42.4805
#
#
#
# Elastic Compliance Matrix: (Units=1/GPa)
#
#
# Indices 1 2 3 4 5 6 
#
# 1 0.004722 -0.006200 -0.000944 0.000000 0.000000 0.000000
# 2 -0.006200 0.021543 0.001218 0.000000 0.000000 0.000000
# 3 -0.000944 0.001218 0.009160 0.000000 0.000000 0.000000
# 4 0.000000 0.000000 0.000000 0.047435 0.000000 0.000000
# 5 0.000000 0.000000 0.000000 0.000000 -0.010352 0.000000
# 6 0.000000 0.000000 0.000000 0.000000 0.000000 0.023540
#
#
# Mechanical properties :
#
#
# Convention : Reuss Voigt Hill
#
# Bulk Modulus (GPa) = 42.41816 85.82025 64.11920
# Shear Modulus (GPa) = 43.19425 20.74894 31.97160
#
# Velocity S-wave (km/s) = 4.39359 3.04512 3.77997
# Velocity P-wave (km/s) = 6.68543 7.12159 6.90695
#
# Compressibility (1/GPa) = 0.02357481
#
# Stress axis : x y z
#
# Youngs Moduli (GPa) = 211.78478 46.41968 109.16558
#
# Poissons Ratio (x) = 0.28778 0.10302
# Poissons Ratio (y) = 1.31298 -0.13301
# Poissons Ratio (z) = 0.19987 -0.05656
#
# Static dielectric constant tensor:
#      x y z
#    x 1.896180 0.000000 0.000000 
#    y 0.000000 1.751760 0.000000 
#    z 0.000000 0.000000 1.821310 
# 
# From -- ./inp_files/12314.got.cif
#   From: 2010.05.17/outbox.cif.g08.bks.cpg/sg53_7_cif.got.tgz:12314.got - 2010.06.03 12:45:16.
