data_PCOD9415181
_publ_section_title
;
Structure prediction by ZEFSAII (Michael W. Deem and Ramdas Pophale) SiO2 
 PCOD9415181
Probable space group: P M N A
;
_chemical_formula_sum "Si O2"
_cell_formula_units_Z 56
_cell_length_a 7.737643
_cell_length_b 21.125810
_cell_length_c 13.790672
_cell_angle_alpha 90.000000
_cell_angle_beta 90.000000
_cell_angle_gamma 90.000000
_cell_volume 2254.278075
_symmetry_space_group_name_H-M "P M N A"
_symmetry_group_IT_number 53
_symmetry_cell_setting 'orthorhombic'
loop_
_space_group_symop_operation_xyz
x,y,z
1/2-x,-y,1/2+z
x,-y,-z
1/2-x,y,1/2-z
-x,-y,-z
1/2+x,y,1/2-z
-x,y,z
1/2+x,-y,1/2+z
loop_
_atom_site_type_symbol
_atom_site_label
_atom_site_fract_x
_atom_site_fract_y
_atom_site_fract_z
Si Si1 0.211228 0.716965 0.429058
Si Si2 0.207420 0.310628 0.351931
Si Si3 0.797930 0.446102 0.379748
Si Si4 0.691742 0.990576 0.384264
Si Si5 0.709331 0.145368 0.927648
Si Si6 0.810812 0.876210 0.644402
Si Si7 0.799667 0.419227 0.610917
O O1 0.262201 0.715945 0.543500
O O2 0.263421 0.785640 0.389450
O O3 0.274284 0.651668 0.379059
O O4 0.000000 0.713911 0.426497
O O5 0.250000 0.278407 0.250000
O O6 0.286075 0.381452 0.344575
O O7 0.000000 0.315441 0.358358
O O8 0.802858 0.432658 0.495333
O O9 0.718431 0.514369 0.354357
O O10 0.000000 0.449245 0.350460
O O11 0.500000 0.003952 0.347310
O O12 0.734806 0.917157 0.370016
O O13 0.691900 0.000000 0.500000
O O14 0.812446 0.047204 0.350715
O O15 0.500000 0.142983 0.930010
O O16 0.775187 0.138988 0.040192
O O17 0.750000 0.856419 0.750000
O O18 0.000000 0.847968 0.633944
O O19 0.000000 0.416565 0.644024
#
# Coordination Sequence:
#
# PCOD9415181 Si02
#       7
#     8   8   8   8   8   8   8
#     4   8  14  24  38  57  81 107 136 169 202 240
#     4   9  16  25  36  53  79 109 138 167 201 242
#     4   7  10  17  31  51  72  93 123 166 206 231
#     4   9  17  30  47  65  85 110 142 179 216 254
#     4   9  17  29  44  63  88 116 143 174 215 258
#     4  10  19  30  45  65  89 115 143 175 211 252
#     4   7   9  16  32  53  73  92 121 165 206 231
#
# _framework density 24.841653000000001
#
# number of rings (size 3 to 8) (size 9 to 14) (size 15 to 20)
#    0.000    3.571    0.000    3.429    0.000    2.857 
#    0.000    0.714    0.000    0.000    0.000   10.000 
#    0.000    2.286    0.000    0.000    0.000    0.000 
#
# Total GULP energy -311857.196219 kJ/mol
# GULP energy per Si atom -5568.878504 kJ/mol
# Density = 2.478511 g / cm^3
# Si number density = 24.841653 Si / 1000 Ang^3
#
#
#
# Elastic Constant Matrix: (Units=GPa)
#
#
# Indices 1 2 3 4 5 6 
#
# 1 46.3887 6.3534 1.1989 0.0000 0.0000 0.0000
# 2 6.3534 234.7720 -2.0985 0.0000 0.0000 0.0000
# 3 1.1989 -2.0985 51.8207 0.0000 0.0000 0.0000
# 4 0.0000 0.0000 0.0000 -12.8940 0.0000 0.0000
# 5 0.0000 0.0000 0.0000 0.0000 6.8809 0.0000
# 6 0.0000 0.0000 0.0000 0.0000 0.0000 47.7448
#
#
#
# Elastic Compliance Matrix: (Units=1/GPa)
#
#
# Indices 1 2 3 4 5 6 
#
# 1 0.021651 -0.000591 -0.000525 0.000000 0.000000 0.000000
# 2 -0.000591 0.004277 0.000187 0.000000 0.000000 0.000000
# 3 -0.000525 0.000187 0.019317 0.000000 0.000000 0.000000
# 4 0.000000 0.000000 0.000000 -0.077555 0.000000 0.000000
# 5 0.000000 0.000000 0.000000 0.000000 0.145329 0.000000
# 6 0.000000 0.000000 0.000000 0.000000 0.000000 0.020945
#
#
# Mechanical properties :
#
#
# Convention : Reuss Voigt Hill
#
# Bulk Modulus (GPa) = 23.04763 38.20988 30.62875
# Shear Modulus (GPa) = 33.27026 30.18151 31.72589
#
# Velocity S-wave (km/s) = 3.66361 3.48940 3.57757
# Velocity P-wave (km/s) = 5.21478 5.62578 5.42417
#
# Compressibility (1/GPa) = 0.04338841
#
# Stress axis : x y z
#
# Youngs Moduli (GPa) = 46.18630 233.80302 51.76786
#
# Poissons Ratio (x) = 0.13809 0.02717
# Poissons Ratio (y) = 0.02728 -0.00967
# Poissons Ratio (z) = 0.02424 -0.04369
#
# Static dielectric constant tensor:
#      x y z
#    x 1.908740 0.000000 0.000000 
#    y 0.000000 2.037090 0.000000 
#    z 0.000000 0.000000 2.021780 
# 
# From -- ./inp_files/31297.got.cif
#   From: 2010.05.17/outbox.cif.g08.bks.cpg/sg53_16_cif.got.tgz:31297.got - 2010.06.03 12:45:16.
