data_PCOD9415775
_publ_section_title
;
Structure prediction by ZEFSAII (Michael W. Deem and Ramdas Pophale) SiO2 
 PCOD9415775
Probable space group: P M N A
;
_chemical_formula_sum "Si O2"
_cell_formula_units_Z 64
_cell_length_a 9.300591
_cell_length_b 22.114935
_cell_length_c 18.099794
_cell_angle_alpha 90.000000
_cell_angle_beta 90.000000
_cell_angle_gamma 90.000000
_cell_volume 3722.801204
_symmetry_space_group_name_H-M "P M N A"
_symmetry_group_IT_number 53
_symmetry_cell_setting 'orthorhombic'
loop_
_space_group_symop_operation_xyz
x,y,z
1/2-x,-y,1/2+z
x,-y,-z
1/2-x,y,1/2-z
-x,-y,-z
1/2+x,y,1/2-z
-x,y,z
1/2+x,-y,1/2+z
loop_
_atom_site_type_symbol
_atom_site_label
_atom_site_fract_x
_atom_site_fract_y
_atom_site_fract_z
Si Si1 0.834348 0.002181 0.590055
Si Si2 0.669913 0.620019 0.326041
Si Si3 0.669804 0.563884 0.035896
Si Si4 0.169153 0.882612 0.909761
Si Si5 0.830244 0.688490 0.545627
Si Si6 0.670467 0.744536 0.406671
Si Si7 0.172433 0.756393 0.828353
Si Si8 0.830432 0.121855 0.913845
O O1 0.757139 0.064044 0.613340
O O2 0.000000 0.002584 0.611613
O O3 0.826310 0.000000 0.500000
O O4 0.757187 0.941052 0.615645
O O5 0.750000 0.607178 0.250000
O O6 0.500000 0.609075 0.320135
O O7 0.737941 0.581530 0.392694
O O8 0.690475 0.690744 0.348271
O O9 0.500000 0.561994 0.055845
O O10 0.709359 0.500000 0.000000
O O11 0.687410 0.618634 0.977743
O O12 0.202679 0.821706 0.865724
O O13 0.000000 0.895499 0.901691
O O14 0.194842 0.872509 0.997427
O O15 0.765111 0.726592 0.477347
O O16 0.741034 0.706971 0.617258
O O17 0.000000 0.700987 0.554825
O O18 0.500000 0.745201 0.427828
O O19 0.706477 0.812379 0.381224
O O20 0.250000 0.753364 0.750000
O O21 0.000000 0.749655 0.822613
O O22 0.000000 0.110575 0.903415
#
# Coordination Sequence:
#
# PCOD9415775 Si02
#       8
#     8   8   8   8   8   8   8   8
#     4   9  17  26  39  65  96 122 156 207 259 304
#     4  10  20  34  55  82 114 145 179 218 261 311
#     4   9  19  37  60  85 113 144 179 217 258 307
#     4   9  17  30  47  64  90 128 166 209 260 316
#     4  10  19  32  53  79 105 134 168 212 261 307
#     4   9  17  31  51  75 102 137 173 212 258 310
#     4  11  22  36  52  73 101 136 178 222 268 318
#     4   9  15  27  46  68  94 126 166 207 258 314
#
# _framework density 17.191355000000001
#
# number of rings (size 3 to 8) (size 9 to 14) (size 15 to 20)
#    0.000    2.500    1.250    1.500    0.000    4.250 
#    0.000    0.625    0.000    0.750    0.000    1.750 
#    0.000    0.000    0.000    0.000    0.000    0.000 
#
# Total GULP energy -356903.074192 kJ/mol
# GULP energy per Si atom -5576.610534 kJ/mol
# Density = 1.715223 g / cm^3
# Si number density = 17.191355 Si / 1000 Ang^3
#
#
#
# Elastic Constant Matrix: (Units=GPa)
#
#
# Indices 1 2 3 4 5 6 
#
# 1 85.3824 71.9059 58.9576 0.0000 0.0000 0.0000
# 2 71.9059 128.8435 40.5434 0.0000 0.0000 0.0000
# 3 58.9576 40.5434 76.3058 0.0000 0.0000 0.0000
# 4 0.0000 0.0000 0.0000 11.3588 0.0000 0.0000
# 5 0.0000 0.0000 0.0000 0.0000 22.8064 0.0000
# 6 0.0000 0.0000 0.0000 0.0000 0.0000 24.3429
#
#
#
# Elastic Compliance Matrix: (Units=1/GPa)
#
#
# Indices 1 2 3 4 5 6 
#
# 1 0.040846 -0.015448 -0.023352 0.000000 0.000000 0.000000
# 2 -0.015448 0.015162 0.003880 0.000000 0.000000 0.000000
# 3 -0.023352 0.003880 0.029087 0.000000 0.000000 0.000000
# 4 0.000000 0.000000 0.000000 0.088038 0.000000 0.000000
# 5 0.000000 0.000000 0.000000 0.000000 0.043847 0.000000
# 6 0.000000 0.000000 0.000000 0.000000 0.000000 0.041080
#
#
# Mechanical properties :
#
#
# Convention : Reuss Voigt Hill
#
# Bulk Modulus (GPa) = 65.55324 70.37173 67.96248
# Shear Modulus (GPa) = 15.01573 19.64328 17.32950
#
# Velocity S-wave (km/s) = 2.95862 3.38394 3.17840
# Velocity P-wave (km/s) = 7.06297 7.50275 7.28618
#
# Compressibility (1/GPa) = 0.01525478
#
# Stress axis : x y z
#
# Youngs Moduli (GPa) = 24.48200 65.95617 34.37986
#
# Poissons Ratio (x) = 1.01886 0.80284
# Poissons Ratio (y) = 0.37819 -0.13339
# Poissons Ratio (z) = 0.57171 -0.25589
#
# Static dielectric constant tensor:
#      x y z
#    x 1.571790 0.000000 0.000000 
#    y 0.000000 1.582930 0.000000 
#    z 0.000000 0.000000 1.560570 
# 
# From -- ./inp_files/26954.got.cif
#   From: 2010.05.17/outbox.cif.g08.bks.cpg/sg53_14_cif.got.tgz:26954.got - 2010.06.03 12:45:16.
