data_PCOD9415109
_publ_section_title
;
Structure prediction by ZEFSAII (Michael W. Deem and Ramdas Pophale) SiO2 
 PCOD9415109
Probable space group: P M N A
;
_chemical_formula_sum "Si O2"
_cell_formula_units_Z 64
_cell_length_a 8.972737
_cell_length_b 26.468331
_cell_length_c 18.709539
_cell_angle_alpha 90.000000
_cell_angle_beta 90.000000
_cell_angle_gamma 90.000000
_cell_volume 4443.391522
_symmetry_space_group_name_H-M "P M N A"
_symmetry_group_IT_number 53
_symmetry_cell_setting 'orthorhombic'
loop_
_space_group_symop_operation_xyz
x,y,z
1/2-x,-y,1/2+z
x,-y,-z
1/2-x,y,1/2-z
-x,-y,-z
1/2+x,y,1/2-z
-x,y,z
1/2+x,-y,1/2+z
loop_
_atom_site_type_symbol
_atom_site_label
_atom_site_fract_x
_atom_site_fract_y
_atom_site_fract_z
Si Si1 0.822253 0.506506 0.327970
Si Si2 0.328060 0.551338 0.547510
Si Si3 0.177254 0.896851 0.413778
Si Si4 0.323394 0.690696 0.326550
Si Si5 0.677557 0.393009 0.921414
Si Si6 0.177052 0.810184 0.173217
Si Si7 0.329320 0.054099 0.459051
Si Si8 0.820267 0.990395 0.172391
O O1 0.750000 0.505910 0.250000
O O2 0.754586 0.463509 0.379562
O O3 0.791152 0.560039 0.367434
O O4 0.000000 0.501011 0.323068
O O5 0.325888 0.500000 0.500000
O O6 0.500000 0.564824 0.560312
O O7 0.246342 0.592122 0.497879
O O8 0.245391 0.844625 0.385925
O O9 0.225204 0.909781 0.494825
O O10 0.250489 0.940807 0.364827
O O11 0.000000 0.897762 0.406018
O O12 0.250000 0.678282 0.250000
O O13 0.500000 0.681267 0.322817
O O14 0.250128 0.656282 0.386900
O O15 0.299943 0.750446 0.339317
O O16 0.500000 0.387972 0.926994
O O17 0.250000 0.822608 0.250000
O O18 0.000000 0.820019 0.175732
O O19 0.500000 0.072722 0.460624
O O20 0.328873 0.000000 0.500000
O O21 0.286331 0.038228 0.378999
O O22 0.750000 0.996174 0.250000
O O23 0.000000 0.984959 0.174899
#
# Coordination Sequence:
#
# PCOD9415109 Si02
#       8
#     8   8   8   8   8   8   8   8
#     4  10  19  29  42  62  87 115 146 177 213 254
#     4   9  17  29  44  61  83 111 143 178 213 251
#     4  11  20  29  44  63  84 112 145 178 212 252
#     4  10  20  32  46  63  84 112 145 181 217 252
#     4  10  19  30  45  63  86 115 145 178 214 255
#     4  10  20  33  46  61  84 112 144 181 217 252
#     4   8  16  30  44  59  82 111 140 172 210 249
#     4  10  19  30  44  62  86 114 143 175 210 250
#
# _framework density 14.403413
#
# number of rings (size 3 to 8) (size 9 to 14) (size 15 to 20)
#    0.000    2.250    0.000    4.875    0.000    8.250 
#    0.000    0.000    0.000    0.000    0.000    0.000 
#    0.000    1.000    0.000    5.250    0.000    5.000 
#
# Total GULP energy -356934.847326 kJ/mol
# GULP energy per Si atom -5577.106989 kJ/mol
# Density = 1.437063 g / cm^3
# Si number density = 14.403413 Si / 1000 Ang^3
#
#
#
# Elastic Constant Matrix: (Units=GPa)
#
#
# Indices 1 2 3 4 5 6 
#
# 1 94.7317 43.5810 53.6135 0.0000 0.0000 0.0000
# 2 43.5810 45.0767 28.3657 0.0000 0.0000 0.0000
# 3 53.6135 28.3657 89.3084 0.0000 0.0000 0.0000
# 4 0.0000 0.0000 0.0000 26.5265 0.0000 0.0000
# 5 0.0000 0.0000 0.0000 0.0000 26.5966 0.0000
# 6 0.0000 0.0000 0.0000 0.0000 0.0000 19.6442
#
#
#
# Elastic Compliance Matrix: (Units=1/GPa)
#
#
# Indices 1 2 3 4 5 6 
#
# 1 0.023257 -0.017121 -0.008523 0.000000 0.000000 0.000000
# 2 -0.017121 0.040331 -0.002531 0.000000 0.000000 0.000000
# 3 -0.008523 -0.002531 0.017118 0.000000 0.000000 0.000000
# 4 0.000000 0.000000 0.000000 0.037698 0.000000 0.000000
# 5 0.000000 0.000000 0.000000 0.000000 0.037599 0.000000
# 6 0.000000 0.000000 0.000000 0.000000 0.000000 0.050906
#
#
# Mechanical properties :
#
#
# Convention : Reuss Voigt Hill
#
# Bulk Modulus (GPa) = 41.06281 53.35967 47.21124
# Shear Modulus (GPa) = 18.42456 21.45724 19.94090
#
# Velocity S-wave (km/s) = 3.58044 3.86389 3.72487
# Velocity P-wave (km/s) = 6.75749 7.55203 7.16578
#
# Compressibility (1/GPa) = 0.02435293
#
# Stress axis : x y z
#
# Youngs Moduli (GPa) = 42.99872 24.79512 58.41852
#
# Poissons Ratio (x) = 0.42452 0.49792
# Poissons Ratio (y) = 0.73619 0.14788
# Poissons Ratio (z) = 0.36649 0.06277
#
# Static dielectric constant tensor:
#      x y z
#    x 1.478270 0.000000 0.000000 
#    y 0.000000 1.459730 0.000000 
#    z 0.000000 0.000000 1.471690 
# 
# From -- ./inp_files/27030.got.cif
#   From: 2010.05.17/outbox.cif.g08.bks.cpg/sg53_14_cif.got.tgz:27030.got - 2010.06.03 12:45:16.
