data_PCOD9415189
_publ_section_title
;
Structure prediction by ZEFSAII (Michael W. Deem and Ramdas Pophale) SiO2 
 PCOD9415189
Probable space group: P M N A
;
_chemical_formula_sum "Si O2"
_cell_formula_units_Z 64
_cell_length_a 8.445183
_cell_length_b 17.417242
_cell_length_c 24.783458
_cell_angle_alpha 90.000000
_cell_angle_beta 90.000000
_cell_angle_gamma 90.000000
_cell_volume 3645.443349
_symmetry_space_group_name_H-M "P M N A"
_symmetry_group_IT_number 53
_symmetry_cell_setting 'orthorhombic'
loop_
_space_group_symop_operation_xyz
x,y,z
1/2-x,-y,1/2+z
x,-y,-z
1/2-x,y,1/2-z
-x,-y,-z
1/2+x,y,1/2-z
-x,y,z
1/2+x,-y,1/2+z
loop_
_atom_site_type_symbol
_atom_site_label
_atom_site_fract_x
_atom_site_fract_y
_atom_site_fract_z
Si Si1 0.193732 0.359114 0.089515
Si Si2 0.808827 0.684742 0.025760
Si Si3 0.810897 0.631247 0.190518
Si Si4 0.310967 0.223548 0.874757
Si Si5 0.689788 0.904797 0.811588
Si Si6 0.308449 0.074175 0.811743
Si Si7 0.310916 0.258124 0.311364
Si Si8 0.691837 0.466598 0.589100
O O1 0.245705 0.321547 0.145739
O O2 0.248268 0.446874 0.081551
O O3 0.000000 0.360424 0.090590
O O4 0.240349 0.311048 0.036491
O O5 0.750639 0.749630 0.066880
O O6 0.755398 0.601331 0.049035
O O7 0.000000 0.685038 0.028071
O O8 0.750000 0.616510 0.250000
O O9 0.500000 0.638736 0.309465
O O10 0.759677 0.709564 0.333497
O O11 0.731249 0.563963 0.351285
O O12 0.500000 0.220824 0.877074
O O13 0.252890 0.142796 0.850368
O O14 0.750000 0.906210 0.750000
O O15 0.500000 0.899015 0.812597
O O16 0.760561 0.825805 0.833512
O O17 0.737190 0.989046 0.832711
O O18 0.250000 0.084326 0.750000
O O19 0.500000 0.076166 0.809652
O O20 0.250000 0.267941 0.250000
O O21 0.500000 0.260609 0.308687
O O22 0.500000 0.468962 0.584009
#
# Coordination Sequence:
#
# PCOD9415189 Si02
#       8
#     8   8   8   8   8   8   8   8
#     4   9  17  30  50  72  92 118 155 195 231 274
#     4   9  17  31  51  71  90 118 158 197 232 271
#     4  10  19  30  45  66  94 128 161 190 228 276
#     4  10  19  31  46  67  96 125 154 190 232 275
#     4   9  16  29  47  67  92 120 151 185 224 269
#     4   9  18  29  45  69  94 122 154 187 223 270
#     4  10  19  31  48  71  97 122 149 184 230 278
#     4   8  15  28  47  69  90 117 155 195 231 268
#
# _framework density 17.556163000000002
#
# number of rings (size 3 to 8) (size 9 to 14) (size 15 to 20)
#    0.000    2.750    0.000    3.750    0.000    4.500 
#    0.000    1.250    0.000   14.250    0.000    5.250 
#    0.000    0.000    0.000    0.000    0.000    0.000 
#
# Total GULP energy -356511.914107 kJ/mol
# GULP energy per Si atom -5570.498658 kJ/mol
# Density = 1.751620 g / cm^3
# Si number density = 17.556163 Si / 1000 Ang^3
#
#
#
# Elastic Constant Matrix: (Units=GPa)
#
#
# Indices 1 2 3 4 5 6 
#
# 1 20.5829 11.0463 16.5463 0.0000 0.0000 0.0000
# 2 11.0463 70.0733 31.9087 0.0000 0.0000 0.0000
# 3 16.5463 31.9087 96.3807 0.0000 0.0000 0.0000
# 4 0.0000 0.0000 0.0000 17.3705 0.0000 0.0000
# 5 0.0000 0.0000 0.0000 0.0000 19.4919 0.0000
# 6 0.0000 0.0000 0.0000 0.0000 0.0000 26.4623
#
#
#
# Elastic Compliance Matrix: (Units=1/GPa)
#
#
# Indices 1 2 3 4 5 6 
#
# 1 0.058068 -0.005433 -0.008170 0.000000 0.000000 0.000000
# 2 -0.005433 0.017313 -0.004799 0.000000 0.000000 0.000000
# 3 -0.008170 -0.004799 0.013367 0.000000 0.000000 0.000000
# 4 0.000000 0.000000 0.000000 0.057569 0.000000 0.000000
# 5 0.000000 0.000000 0.000000 0.000000 0.051303 0.000000
# 6 0.000000 0.000000 0.000000 0.000000 0.000000 0.037790
#
#
# Mechanical properties :
#
#
# Convention : Reuss Voigt Hill
#
# Bulk Modulus (GPa) = 19.25202 34.00438 26.62820
# Shear Modulus (GPa) = 17.26949 21.16731 19.21840
#
# Velocity S-wave (km/s) = 3.13976 3.47607 3.31219
# Velocity P-wave (km/s) = 4.91262 5.96001 5.46148
#
# Compressibility (1/GPa) = 0.05194259
#
# Stress axis : x y z
#
# Youngs Moduli (GPa) = 17.22123 57.76172 74.81186
#
# Poissons Ratio (x) = 0.31385 0.61121
# Poissons Ratio (y) = 0.09357 0.35901
# Poissons Ratio (z) = 0.14070 0.27719
#
# Static dielectric constant tensor:
#      x y z
#    x 1.610130 0.000000 0.000000 
#    y 0.000000 1.626000 0.000000 
#    z 0.000000 0.000000 1.584020 
# 
# From -- ./inp_files/34446.got.cif
#   From: 2010.05.17/outbox.cif.g08.bks.cpg/sg53_18_cif.got.tgz:34446.got - 2010.06.03 12:45:16.
