data_PCOD9415925
_publ_section_title
;
Structure prediction by ZEFSAII (Michael W. Deem and Ramdas Pophale) SiO2 
 PCOD9415925
Probable space group: P M N A
;
_chemical_formula_sum "Si O2"
_cell_formula_units_Z 64
_cell_length_a 9.108958
_cell_length_b 18.377021
_cell_length_c 20.395027
_cell_angle_alpha 90.000000
_cell_angle_beta 90.000000
_cell_angle_gamma 90.000000
_cell_volume 3414.035996
_symmetry_space_group_name_H-M "P M N A"
_symmetry_group_IT_number 53
_symmetry_cell_setting 'orthorhombic'
loop_
_space_group_symop_operation_xyz
x,y,z
1/2-x,-y,1/2+z
x,-y,-z
1/2-x,y,1/2-z
-x,-y,-z
1/2+x,y,1/2-z
-x,y,z
1/2+x,-y,1/2+z
loop_
_atom_site_type_symbol
_atom_site_label
_atom_site_fract_x
_atom_site_fract_y
_atom_site_fract_z
Si Si1 0.675509 0.750824 0.181727
Si Si2 0.823547 0.703057 0.459519
Si Si3 0.171226 0.973745 0.925034
Si Si4 0.672956 0.574126 0.540341
Si Si5 0.824320 0.923550 0.319212
Si Si6 0.833868 0.571623 0.814072
Si Si7 0.832750 0.253267 0.185662
Si Si8 0.324839 0.818525 0.933995
O O1 0.750000 0.728756 0.250000
O O2 0.500000 0.742436 0.187696
O O3 0.724824 0.708888 0.116113
O O4 0.704262 0.837180 0.171263
O O5 0.751442 0.638427 0.500991
O O6 0.791423 0.778879 0.497135
O O7 0.000000 0.694064 0.460591
O O8 0.247792 0.895423 0.924150
O O9 0.000000 0.968686 0.906058
O O10 0.254211 0.029217 0.877051
O O11 0.179115 0.000000 0.000000
O O12 0.682917 0.500000 0.500000
O O13 0.500000 0.593956 0.547990
O O14 0.732381 0.559585 0.613761
O O15 0.750000 0.944128 0.250000
O O16 0.000000 0.933936 0.316731
O O17 0.750000 0.544093 0.750000
O O18 0.840051 0.659431 0.808749
O O19 0.000000 0.542842 0.813355
O O20 0.750000 0.224574 0.250000
O O21 0.739027 0.233128 0.122471
O O22 0.000000 0.226066 0.180870
O O23 0.500000 0.825699 0.928386
#
# Coordination Sequence:
#
# PCOD9415925 Si02
#       8
#     8   8   8   8   8   8   8   8
#     4   9  19  36  58  85 112 144 185 230 279 334
#     4  10  21  37  58  84 114 144 183 231 281 335
#     4  11  24  39  55  79 111 147 189 235 284 340
#     4  10  21  38  59  85 117 152 190 230 281 339
#     4  10  20  37  60  83 113 149 190 236 285 340
#     4   9  18  33  55  81 110 146 185 225 268 322
#     4  10  19  33  53  79 110 142 181 226 273 325
#     4  11  22  36  56  81 109 145 186 232 285 337
#
# _framework density 18.746141000000001
#
# number of rings (size 3 to 8) (size 9 to 14) (size 15 to 20)
#    0.000    2.000    1.250    2.250    0.000    5.250 
#    0.000    3.125    0.000    3.000    0.000    0.000 
#    0.000    0.000    0.000    0.000    0.000    0.000 
#
# Total GULP energy -357171.306515 kJ/mol
# GULP energy per Si atom -5580.801664 kJ/mol
# Density = 1.870347 g / cm^3
# Si number density = 18.746141 Si / 1000 Ang^3
#
#
#
# Elastic Constant Matrix: (Units=GPa)
#
#
# Indices 1 2 3 4 5 6 
#
# 1 63.4754 17.7351 51.2990 0.0000 0.0000 0.0000
# 2 17.7351 22.6897 26.7648 0.0000 0.0000 0.0000
# 3 51.2990 26.7648 168.4174 0.0000 0.0000 0.0000
# 4 0.0000 0.0000 0.0000 12.4536 0.0000 0.0000
# 5 0.0000 0.0000 0.0000 0.0000 33.9564 0.0000
# 6 0.0000 0.0000 0.0000 0.0000 0.0000 14.6748
#
#
#
# Elastic Compliance Matrix: (Units=1/GPa)
#
#
# Indices 1 2 3 4 5 6 
#
# 1 0.023327 -0.012125 -0.005178 0.000000 0.000000 0.000000
# 2 -0.012125 0.060543 -0.005928 0.000000 0.000000 0.000000
# 3 -0.005178 -0.005928 0.008457 0.000000 0.000000 0.000000
# 4 0.000000 0.000000 0.000000 0.080298 0.000000 0.000000
# 5 0.000000 0.000000 0.000000 0.000000 0.029450 0.000000
# 6 0.000000 0.000000 0.000000 0.000000 0.000000 0.068144
#
#
# Mechanical properties :
#
#
# Convention : Reuss Voigt Hill
#
# Bulk Modulus (GPa) = 21.80358 49.57559 35.68958
# Shear Modulus (GPa) = 15.06164 22.80254 18.93209
#
# Velocity S-wave (km/s) = 2.83760 3.49146 3.18137
# Velocity P-wave (km/s) = 4.73204 6.53887 5.70741
#
# Compressibility (1/GPa) = 0.04586402
#
# Stress axis : x y z
#
# Youngs Moduli (GPa) = 42.86920 16.51723 118.24448
#
# Poissons Ratio (x) = 0.20027 0.61231
# Poissons Ratio (y) = 0.51977 0.70099
# Poissons Ratio (z) = 0.22199 0.09792
#
# Static dielectric constant tensor:
#      x y z
#    x 1.639390 0.000000 0.000000 
#    y 0.000000 1.630310 0.000000 
#    z 0.000000 0.000000 1.650220 
# 
# From -- ./inp_files/26866.got.cif
#   From: 2010.05.17/outbox.cif.g08.bks.cpg/sg53_14_cif.got.tgz:26866.got - 2010.06.03 12:45:16.
