data_PCOD9415022
_publ_section_title
;
Structure prediction by ZEFSAII (Michael W. Deem and Ramdas Pophale) SiO2 
 PCOD9415022
Probable space group: P M N A
;
_chemical_formula_sum "Si O2"
_cell_formula_units_Z 40
_cell_length_a 10.248448
_cell_length_b 9.307687
_cell_length_c 17.540275
_cell_angle_alpha 90.000000
_cell_angle_beta 90.000000
_cell_angle_gamma 90.000000
_cell_volume 1673.155365
_symmetry_space_group_name_H-M "P M N A"
_symmetry_group_IT_number 53
_symmetry_cell_setting 'orthorhombic'
loop_
_space_group_symop_operation_xyz
x,y,z
1/2-x,-y,1/2+z
x,-y,-z
1/2-x,y,1/2-z
-x,-y,-z
1/2+x,y,1/2-z
-x,y,z
1/2+x,-y,1/2+z
loop_
_atom_site_type_symbol
_atom_site_label
_atom_site_fract_x
_atom_site_fract_y
_atom_site_fract_z
Si Si1 0.721865 0.296121 0.849958
Si Si2 0.250000 0.963094 0.250000
Si Si3 0.000000 0.729068 0.121148
Si Si4 0.000000 0.943489 0.839531
Si Si5 0.651867 0.837679 0.996586
Si Si6 0.208106 0.570754 0.581086
Si Si7 0.500000 0.338649 0.442139
O O1 0.678844 0.151933 0.806949
O O2 0.726297 0.244851 0.937388
O O3 0.662874 0.455967 0.855188
O O4 0.873518 0.315908 0.830697
O O5 0.365270 0.052322 0.290297
O O6 0.000000 0.902151 0.119404
O O7 0.000000 0.679008 0.033528
O O8 0.000000 0.814022 0.899091
O O9 0.500000 0.842045 0.017808
O O10 0.663165 0.736896 0.922158
O O11 0.701055 0.000000 0.000000
O O12 0.164047 0.500000 0.500000
O O13 0.365345 0.583700 0.580908
#
# Coordination Sequence:
#
# PCOD9415022 Si02
#       7
#     8   4   4   4   8   8   4
#     4  10  21  37  62  83 121 160 201 245 303 366
#     4  10  24  44  58  86 120 172 214 246 294 368
#     4  10  18  34  62  95 122 144 188 260 317 369
#     4  10  25  39  64  90 125 168 215 252 306 368
#     4  10  22  36  56  87 122 157 195 251 310 368
#     4  10  20  34  60  94 122 153 187 253 317 378
#     4  12  19  34  65  98 128 141 193 267 329 361
#
# _framework density 23.906925999999999
#
# number of rings (size 3 to 8) (size 9 to 14) (size 15 to 20)
#    0.000    1.800    4.000    1.200    7.000    3.600 
#    0.000    1.000    0.000    0.000    0.000    0.000 
#    0.000    0.000    0.000    0.000    0.000    0.000 
#
# Total GULP energy -222863.193467 kJ/mol
# GULP energy per Si atom -5571.579837 kJ/mol
# Density = 2.385251 g / cm^3
# Si number density = 23.906926 Si / 1000 Ang^3
#
#
#
# Elastic Constant Matrix: (Units=GPa)
#
#
# Indices 1 2 3 4 5 6 
#
# 1 74.4468 -4.8528 -7.8404 0.0000 0.0000 0.0000
# 2 -4.8528 131.9995 3.5291 0.0000 0.0000 0.0000
# 3 -7.8404 3.5291 23.6005 0.0000 0.0000 0.0000
# 4 0.0000 0.0000 0.0000 27.1842 0.0000 0.0000
# 5 0.0000 0.0000 0.0000 0.0000 7.8691 0.0000
# 6 0.0000 0.0000 0.0000 0.0000 0.0000-1349.6673
#
#
#
# Elastic Compliance Matrix: (Units=1/GPa)
#
#
# Indices 1 2 3 4 5 6 
#
# 1 0.013939 0.000390 0.004573 0.000000 0.000000 0.000000
# 2 0.000390 0.007617 -0.001009 0.000000 0.000000 0.000000
# 3 0.004573 -0.001009 0.044042 0.000000 0.000000 0.000000
# 4 0.000000 0.000000 0.000000 0.036786 0.000000 0.000000
# 5 0.000000 0.000000 0.000000 0.000000 0.127079 0.000000
# 6 0.000000 0.000000 0.000000 0.000000 0.000000 -0.000741
#
#
# Mechanical properties :
#
#
# Convention : Reuss Voigt Hill
#
# Bulk Modulus (GPa) = 13.60446 23.52426 18.56436
# Shear Modulus (GPa) = 20.38174 -246.97540 -113.29683
#
# Velocity S-wave (km/s) = 2.92301 -10.17503 -6.89157
# Velocity P-wave (km/s) = 4.13460 11.32168 7.45270
#
# Compressibility (1/GPa) = 0.07350531
#
# Stress axis : x y z
#
# Youngs Moduli (GPa) = 71.73905 131.28323 22.70558
#
# Poissons Ratio (x) = -0.05123 -0.10382
# Poissons Ratio (y) = -0.02799 0.02292
# Poissons Ratio (z) = -0.32803 0.13251
#
# Static dielectric constant tensor:
#      x y z
#    x 1.970240 0.000000 0.000000 
#    y 0.000000 1.985840 0.000000 
#    z 0.000000 0.000000 1.975560 
# 
# From -- ./inp_files/31826.got.cif
#   From: 2010.05.17/outbox.cif.g08.bks.cpg/sg53_16_cif.got.tgz:31826.got - 2010.06.03 12:45:16.
