data_PCOD9415075
_publ_section_title
;
Structure prediction by ZEFSAII (Michael W. Deem and Ramdas Pophale) SiO2 
 PCOD9415075
Probable space group: P M N A
;
_chemical_formula_sum "Si O2"
_cell_formula_units_Z 38
_cell_length_a 10.821079
_cell_length_b 9.095491
_cell_length_c 14.166817
_cell_angle_alpha 90.000000
_cell_angle_beta 90.000000
_cell_angle_gamma 90.000000
_cell_volume 1394.341007
_symmetry_space_group_name_H-M "P M N A"
_symmetry_group_IT_number 53
_symmetry_cell_setting 'orthorhombic'
loop_
_space_group_symop_operation_xyz
x,y,z
1/2-x,-y,1/2+z
x,-y,-z
1/2-x,y,1/2-z
-x,-y,-z
1/2+x,y,1/2-z
-x,y,z
1/2+x,-y,1/2+z
loop_
_atom_site_type_symbol
_atom_site_label
_atom_site_fract_x
_atom_site_fract_y
_atom_site_fract_z
Si Si1 0.000000 0.000000 0.500000
Si Si2 0.222386 0.816377 0.422460
Si Si3 0.763103 0.519264 0.635966
Si Si4 0.250000 0.031147 0.250000
Si Si5 0.000000 0.462274 0.150687
Si Si6 0.000000 0.916837 0.766928
Si Si7 0.000000 0.311396 0.361395
Si Si8 0.000000 0.196488 0.893765
O O1 0.888572 0.125391 0.515131
O O2 0.208813 0.647313 0.392548
O O3 0.369924 0.830647 0.447567
O O4 0.206715 0.922559 0.331406
O O5 0.750000 0.520191 0.750000
O O6 0.628930 0.571196 0.600056
O O7 0.873558 0.621477 0.601961
O O8 0.360570 0.128537 0.291782
O O9 0.000000 0.381555 0.252256
O O10 0.000000 0.641022 0.152571
O O11 0.000000 0.864561 0.657605
O O12 0.000000 0.081115 0.807109
#
# Coordination Sequence:
#
# PCOD9415075 Si02
#       8
#     2   8   8   4   4   4   4   4
#     4  12  24  30  56  94 130 136 204 256 294 342
#     4  10  19  35  54  85 110 161 188 246 290 353
#     4   9  16  29  50  72 107 145 182 229 292 341
#     4  10  20  36  56  72 120 160 198 218 306 362
#     4   8  16  27  48  67  96 142 183 230 279 340
#     4  10  21  29  47  78 110 154 188 234 280 347
#     4  10  19  25  42  76 118 134 183 239 294 319
#     4   8  18  36  53  68 108 151 194 221 297 361
#
# _framework density 27.253019999999999
#
# number of rings (size 3 to 8) (size 9 to 14) (size 15 to 20)
#    0.000    2.526    1.053    1.263    7.368    0.421 
#    0.000    0.000    0.000    0.000    0.000   11.789 
#    0.000   20.632    0.000    0.000    0.000    0.000 
#
# Total GULP energy -211848.205483 kJ/mol
# GULP energy per Si atom -5574.952776 kJ/mol
# Density = 2.719099 g / cm^3
# Si number density = 27.253020 Si / 1000 Ang^3
#
#
#
# Elastic Constant Matrix: (Units=GPa)
#
#
# Indices 1 2 3 4 5 6 
#
# 1 296.5597 103.0633 19.3817 0.0000 0.0000 0.0000
# 2 103.0633 179.0257 30.9270 0.0000 0.0000 0.0000
# 3 19.3817 30.9270 96.5110 0.0000 0.0000 0.0000
# 4 0.0000 0.0000 0.0000 37.9931 0.0000 0.0000
# 5 0.0000 0.0000 0.0000 0.0000 147.9051 0.0000
# 6 0.0000 0.0000 0.0000 0.0000 0.0000 18.2378
#
#
#
# Elastic Compliance Matrix: (Units=1/GPa)
#
#
# Indices 1 2 3 4 5 6 
#
# 1 0.004216 -0.002414 -0.000073 0.000000 0.000000 0.000000
# 2 -0.002414 0.007296 -0.001853 0.000000 0.000000 0.000000
# 3 -0.000073 -0.001853 0.010970 0.000000 0.000000 0.000000
# 4 0.000000 0.000000 0.000000 0.026321 0.000000 0.000000
# 5 0.000000 0.000000 0.000000 0.000000 0.006761 0.000000
# 6 0.000000 0.000000 0.000000 0.000000 0.000000 0.054831
#
#
# Mechanical properties :
#
#
# Convention : Reuss Voigt Hill
#
# Bulk Modulus (GPa) = 72.45959 97.64895 85.05427
# Shear Modulus (GPa) = 40.42826 68.74215 54.58520
#
# Velocity S-wave (km/s) = 3.85573 5.02777 4.48024
# Velocity P-wave (km/s) = 6.81672 8.34343 7.61841
#
# Compressibility (1/GPa) = 0.01380080
#
# Stress axis : x y z
#
# Youngs Moduli (GPa) = 237.19989 137.06373 91.15784
#
# Poissons Ratio (x) = 0.33093 0.00665
# Poissons Ratio (y) = 0.57270 0.16892
# Poissons Ratio (z) = 0.01730 0.25399
#
# Static dielectric constant tensor:
#      x y z
#    x 2.120860 0.000000 0.000000 
#    y 0.000000 2.109220 0.000000 
#    z 0.000000 0.000000 1.826650 
# 
# From -- ./inp_files/27425.got.cif
#   From: 2010.05.17/outbox.cif.g08.bks.cpg/sg53_14_cif.got.tgz:27425.got - 2010.06.03 12:45:16.
