data_PCOD9415595
_publ_section_title
;
Structure prediction by ZEFSAII (Michael W. Deem and Ramdas Pophale) SiO2 
 PCOD9415595
Probable space group: P M N A
;
_chemical_formula_sum "Si O2"
_cell_formula_units_Z 56
_cell_length_a 21.010743
_cell_length_b 17.414009
_cell_length_c 8.023909
_cell_angle_alpha 90.000000
_cell_angle_beta 90.000000
_cell_angle_gamma 90.000000
_cell_volume 2935.797997
_symmetry_space_group_name_H-M "P M N A"
_symmetry_group_IT_number 53
_symmetry_cell_setting 'orthorhombic'
loop_
_space_group_symop_operation_xyz
x,y,z
1/2-x,-y,1/2+z
x,-y,-z
1/2-x,y,1/2-z
-x,-y,-z
1/2+x,y,1/2-z
-x,y,z
1/2+x,-y,1/2+z
loop_
_atom_site_type_symbol
_atom_site_label
_atom_site_fract_x
_atom_site_fract_y
_atom_site_fract_z
Si Si1 0.889746 0.257524 0.426804
Si Si2 0.691506 0.943417 0.146975
Si Si3 0.245635 0.196623 0.439016
Si Si4 0.112701 0.748848 0.948179
Si Si5 0.076124 0.418451 0.563602
Si Si6 0.071739 0.848127 0.259459
Si Si7 0.422993 0.584835 0.441172
O O1 0.813269 0.254931 0.441920
O O2 0.905401 0.227479 0.240901
O O3 0.910944 0.344748 0.451532
O O4 0.917393 0.204694 0.575263
O O5 0.750000 0.980196 0.250000
O O6 0.629132 0.910513 0.240799
O O7 0.726039 0.870474 0.062751
O O8 0.670255 0.000000 0.000000
O O9 0.250000 0.166598 0.250000
O O10 0.313118 0.233264 0.478504
O O11 0.077370 0.794014 0.096102
O O12 0.101190 0.657965 0.958521
O O13 0.101586 0.500000 0.500000
O O14 0.098535 0.403382 0.751048
O O15 0.000000 0.426243 0.574208
O O16 0.000000 0.880290 0.265857
O O17 0.403361 0.500000 0.500000
O O18 0.500000 0.586860 0.449284
#
# Coordination Sequence:
#
# PCOD9415595 Si02
#       7
#     8   8   8   8   8   8   8
#     4  10  21  35  58  85 118 157 201 255 306 362
#     4  11  22  40  67  92 122 162 206 252 308 373
#     4   9  20  38  60  89 112 151 206 251 295 369
#     4  11  20  37  61  85 122 159 205 256 306 362
#     4  10  19  32  49  74 111 152 200 254 305 363
#     4  11  23  39  62  94 126 160 203 251 310 372
#     4  10  20  33  51  80 116 159 207 252 306 365
#
# _framework density 19.074881000000001
#
# number of rings (size 3 to 8) (size 9 to 14) (size 15 to 20)
#    0.000    1.714    2.857    2.143    0.000    3.714 
#    0.000    0.714    0.000    0.429    0.000    0.000 
#    0.000    0.000    0.000    0.000    0.000    0.000 
#
# Total GULP energy -312368.664144 kJ/mol
# GULP energy per Si atom -5578.011860 kJ/mol
# Density = 1.903147 g / cm^3
# Si number density = 19.074881 Si / 1000 Ang^3
#
#
#
# Elastic Constant Matrix: (Units=GPa)
#
#
# Indices 1 2 3 4 5 6 
#
# 1 84.2530 17.6493 25.7619 0.0000 0.0000 0.0000
# 2 17.6493 57.7992 9.4746 0.0000 0.0000 0.0000
# 3 25.7619 9.4746 94.0595 0.0000 0.0000 0.0000
# 4 0.0000 0.0000 0.0000 28.9498 0.0000 0.0000
# 5 0.0000 0.0000 0.0000 0.0000 11.0392 0.0000
# 6 0.0000 0.0000 0.0000 0.0000 0.0000 12.9955
#
#
#
# Elastic Compliance Matrix: (Units=1/GPa)
#
#
# Indices 1 2 3 4 5 6 
#
# 1 0.013659 -0.003617 -0.003377 0.000000 0.000000 0.000000
# 2 -0.003617 0.018550 -0.000878 0.000000 0.000000 0.000000
# 3 -0.003377 -0.000878 0.011645 0.000000 0.000000 0.000000
# 4 0.000000 0.000000 0.000000 0.034543 0.000000 0.000000
# 5 0.000000 0.000000 0.000000 0.000000 0.090586 0.000000
# 6 0.000000 0.000000 0.000000 0.000000 0.000000 0.076950
#
#
# Mechanical properties :
#
#
# Convention : Reuss Voigt Hill
#
# Bulk Modulus (GPa) = 35.57446 37.98705 36.78075
# Shear Modulus (GPa) = 18.44703 22.81196 20.62949
#
# Velocity S-wave (km/s) = 3.11317 3.46195 3.29219
# Velocity P-wave (km/s) = 5.62253 5.99484 5.81167
#
# Compressibility (1/GPa) = 0.02811006
#
# Stress axis : x y z
#
# Youngs Moduli (GPa) = 73.21022 53.90909 85.87495
#
# Poissons Ratio (x) = 0.19501 0.28998
# Poissons Ratio (y) = 0.26483 0.07538
# Poissons Ratio (z) = 0.24721 0.04732
#
# Static dielectric constant tensor:
#      x y z
#    x 1.663200 0.000000 0.000000 
#    y 0.000000 1.649250 0.000000 
#    z 0.000000 0.000000 1.595730 
# 
# From -- ./inp_files/11163.got.cif
#   From: 2010.05.17/outbox.cif.g08.bks.cpg/sg53_6_cif.got.tgz:11163.got - 2010.06.03 12:45:16.
