data_PCOD9415406
_publ_section_title
;
Structure prediction by ZEFSAII (Michael W. Deem and Ramdas Pophale) SiO2 
 PCOD9415406
Probable space group: P M N A
;
_chemical_formula_sum "Si O2"
_cell_formula_units_Z 64
_cell_length_a 9.138995
_cell_length_b 21.917921
_cell_length_c 19.144024
_cell_angle_alpha 90.000000
_cell_angle_beta 90.000000
_cell_angle_gamma 90.000000
_cell_volume 3834.696764
_symmetry_space_group_name_H-M "P M N A"
_symmetry_group_IT_number 53
_symmetry_cell_setting 'orthorhombic'
loop_
_space_group_symop_operation_xyz
x,y,z
1/2-x,-y,1/2+z
x,-y,-z
1/2-x,y,1/2-z
-x,-y,-z
1/2+x,y,1/2-z
-x,y,z
1/2+x,-y,1/2+z
loop_
_atom_site_type_symbol
_atom_site_label
_atom_site_fract_x
_atom_site_fract_y
_atom_site_fract_z
Si Si1 0.170417 0.598340 0.320064
Si Si2 0.672565 0.306985 0.483203
Si Si3 0.669540 0.727951 0.122517
Si Si4 0.829531 0.140773 0.595090
Si Si5 0.675752 0.435648 0.534850
Si Si6 0.326538 0.809651 0.937447
Si Si7 0.673215 0.962842 0.324205
Si Si8 0.825018 0.104218 0.175092
O O1 0.250000 0.577178 0.250000
O O2 0.178689 0.672554 0.323855
O O3 0.244513 0.574440 0.391233
O O4 0.000000 0.581768 0.319262
O O5 0.500000 0.299762 0.470759
O O6 0.715721 0.288046 0.562142
O O7 0.711284 0.378721 0.483476
O O8 0.763037 0.259095 0.437359
O O9 0.500000 0.726421 0.094415
O O10 0.694675 0.798204 0.141985
O O11 0.802851 0.162454 0.515396
O O12 0.732104 0.085148 0.619899
O O13 0.000000 0.123557 0.601061
O O14 0.713183 0.500000 0.500000
O O15 0.500000 0.433443 0.546409
O O16 0.500000 0.809304 0.924721
O O17 0.243622 0.851262 0.881930
O O18 0.750000 0.950855 0.250000
O O19 0.500000 0.956638 0.315831
O O20 0.704749 0.033238 0.343771
O O21 0.750000 0.115124 0.250000
O O22 0.000000 0.112070 0.179982
#
# Coordination Sequence:
#
# PCOD9415406 Si02
#       8
#     8   8   8   8   8   8   8   8
#     4  10  19  31  48  71 101 135 173 213 250 292
#     4   9  16  28  49  75 100 126 157 195 238 284
#     4   8  16  30  45  65  95 129 162 197 238 286
#     4   9  18  32  49  71 100 132 166 202 244 293
#     4   9  18  33  53  77 105 137 171 206 247 296
#     4  10  20  34  53  76 102 131 162 203 251 296
#     4  10  21  35  50  68  94 128 165 207 252 301
#     4  10  21  37  55  74  96 125 164 208 256 309
#
# _framework density 16.689716000000001
#
# number of rings (size 3 to 8) (size 9 to 14) (size 15 to 20)
#    0.000    2.625    0.000    2.625    0.000    6.250 
#    0.000    3.750    0.000    0.750    0.000    3.500 
#    0.000    0.000    0.000    0.000    0.000    0.000 
#
# Total GULP energy -356548.099453 kJ/mol
# GULP energy per Si atom -5571.064054 kJ/mol
# Density = 1.665173 g / cm^3
# Si number density = 16.689716 Si / 1000 Ang^3
#
#
#
# Elastic Constant Matrix: (Units=GPa)
#
#
# Indices 1 2 3 4 5 6 
#
# 1 76.5249 69.2792 47.7061 0.0000 0.0000 0.0000
# 2 69.2792 124.9922 59.7867 0.0000 0.0000 0.0000
# 3 47.7061 59.7867 61.0033 0.0000 0.0000 0.0000
# 4 0.0000 0.0000 0.0000 13.7205 0.0000 0.0000
# 5 0.0000 0.0000 0.0000 0.0000 27.3343 0.0000
# 6 0.0000 0.0000 0.0000 0.0000 0.0000 24.1518
#
#
#
# Elastic Compliance Matrix: (Units=1/GPa)
#
#
# Indices 1 2 3 4 5 6 
#
# 1 0.031669 -0.010743 -0.014237 0.000000 0.000000 0.000000
# 2 -0.010743 0.018705 -0.009931 0.000000 0.000000 0.000000
# 3 -0.014237 -0.009931 0.037259 0.000000 0.000000 0.000000
# 4 0.000000 0.000000 0.000000 0.072884 0.000000 0.000000
# 5 0.000000 0.000000 0.000000 0.000000 0.036584 0.000000
# 6 0.000000 0.000000 0.000000 0.000000 0.000000 0.041405
#
#
# Mechanical properties :
#
#
# Convention : Reuss Voigt Hill
#
# Bulk Modulus (GPa) = 56.14418 68.45158 62.29788
# Shear Modulus (GPa) = 15.91016 18.75789 17.33403
#
# Velocity S-wave (km/s) = 3.09089 3.35613 3.22624
# Velocity P-wave (km/s) = 6.81551 7.49142 7.16144
#
# Compressibility (1/GPa) = 0.01781129
#
# Stress axis : x y z
#
# Youngs Moduli (GPa) = 31.57648 53.46105 26.83926
#
# Poissons Ratio (x) = 0.57435 0.38211
# Poissons Ratio (y) = 0.33923 0.26653
# Poissons Ratio (z) = 0.44956 0.53090
#
# Static dielectric constant tensor:
#      x y z
#    x 1.558540 0.000000 0.000000 
#    y 0.000000 1.581230 0.000000 
#    z 0.000000 0.000000 1.544710 
# 
# From -- ./inp_files/26952.got.cif
#   From: 2010.05.17/outbox.cif.g08.bks.cpg/sg53_14_cif.got.tgz:26952.got - 2010.06.03 12:45:16.
