data_PCOD9415932
_publ_section_title
;
Structure prediction by ZEFSAII (Michael W. Deem and Ramdas Pophale) SiO2 
 PCOD9415932
Probable space group: P M N A
;
_chemical_formula_sum "Si O2"
_cell_formula_units_Z 56
_cell_length_a 8.047178
_cell_length_b 13.710864
_cell_length_c 21.453697
_cell_angle_alpha 90.000000
_cell_angle_beta 90.000000
_cell_angle_gamma 90.000000
_cell_volume 2367.067123
_symmetry_space_group_name_H-M "P M N A"
_symmetry_group_IT_number 53
_symmetry_cell_setting 'orthorhombic'
loop_
_space_group_symop_operation_xyz
x,y,z
1/2-x,-y,1/2+z
x,-y,-z
1/2-x,y,1/2-z
-x,-y,-z
1/2+x,y,1/2-z
-x,y,z
1/2+x,-y,1/2+z
loop_
_atom_site_type_symbol
_atom_site_label
_atom_site_fract_x
_atom_site_fract_y
_atom_site_fract_z
Si Si1 0.294952 0.295021 0.449418
Si Si2 0.690860 0.570645 0.053255
Si Si3 0.808383 0.301496 0.182097
Si Si4 0.198205 0.668181 0.180331
Si Si5 0.694231 0.079496 0.182649
Si Si6 0.810350 0.876908 0.136048
Si Si7 0.190469 0.897885 0.993295
O O1 0.500000 0.299102 0.455228
O O2 0.208675 0.333825 0.510887
O O3 0.239347 0.341655 0.383774
O O4 0.240582 0.182106 0.447730
O O5 0.500000 0.539919 0.060492
O O6 0.755177 0.597464 0.122182
O O7 0.775041 0.500000 0.000000
O O8 0.750000 0.333909 0.250000
O O9 0.788100 0.183645 0.178816
O O10 0.000000 0.326036 0.179532
O O11 0.250000 0.636386 0.250000
O O12 0.264262 0.779523 0.167819
O O13 0.000000 0.675252 0.178659
O O14 0.750000 0.040456 0.250000
O O15 0.500000 0.103263 0.181252
O O16 0.729620 0.983952 0.141390
O O17 0.818807 0.855123 0.062485
O O18 0.000000 0.888908 0.159123
O O19 0.000000 0.916252 0.970658
O O20 0.279164 0.000000 0.000000
#
# Coordination Sequence:
#
# PCOD9415932 Si02
#       7
#     8   8   8   8   8   8   8
#     4  10  20  38  63  90 118 160 209 255 311 373
#     4  11  25  45  69  97 129 166 206 257 320 383
#     4  10  20  35  57  83 117 159 208 259 313 370
#     4  11  23  41  67  97 130 166 208 260 319 385
#     4  11  21  32  48  73 112 160 210 255 303 360
#     4  10  19  33  53  81 118 160 207 257 310 365
#     4   9  16  29  52  82 118 158 204 251 298 358
#
# _framework density 23.657966999999999
#
# number of rings (size 3 to 8) (size 9 to 14) (size 15 to 20)
#    0.000    1.714    1.429    4.714    0.000    6.857 
#    0.000    0.714    0.000    3.429    0.000    0.000 
#    0.000    0.000    0.000    0.000    0.000    0.000 
#
# Total GULP energy -311973.716248 kJ/mol
# GULP energy per Si atom -5570.959219 kJ/mol
# Density = 2.360412 g / cm^3
# Si number density = 23.657967 Si / 1000 Ang^3
#
#
#
# Elastic Constant Matrix: (Units=GPa)
#
#
# Indices 1 2 3 4 5 6 
#
# 1 28.6946 -11.6537 9.8876 0.0000 0.0000 0.0000
# 2 -11.6537 34.2546 -5.5650 0.0000 0.0000 0.0000
# 3 9.8876 -5.5650 163.2975 0.0000 0.0000 0.0000
# 4 0.0000 0.0000 0.0000 18.0602 0.0000 0.0000
# 5 0.0000 0.0000 0.0000 0.0000 26.1612 0.0000
# 6 0.0000 0.0000 0.0000 0.0000 0.0000 10.6326
#
#
#
# Elastic Compliance Matrix: (Units=1/GPa)
#
#
# Indices 1 2 3 4 5 6 
#
# 1 0.041091 0.013651 -0.002023 0.000000 0.000000 0.000000
# 2 0.013651 0.033891 0.000328 0.000000 0.000000 0.000000
# 3 -0.002023 0.000328 0.006257 0.000000 0.000000 0.000000
# 4 0.000000 0.000000 0.000000 0.055371 0.000000 0.000000
# 5 0.000000 0.000000 0.000000 0.000000 0.038225 0.000000
# 6 0.000000 0.000000 0.000000 0.000000 0.000000 0.094050
#
#
# Mechanical properties :
#
#
# Convention : Reuss Voigt Hill
#
# Bulk Modulus (GPa) = 9.51010 23.50939 16.50974
# Shear Modulus (GPa) = 17.85575 26.54264 22.19919
#
# Velocity S-wave (km/s) = 2.75024 3.35316 3.06656
# Velocity P-wave (km/s) = 3.75682 4.99503 4.41950
#
# Compressibility (1/GPa) = 0.10515140
#
# Stress axis : x y z
#
# Youngs Moduli (GPa) = 24.33637 29.50675 159.80908
#
# Poissons Ratio (x) = -0.40279 0.32327
# Poissons Ratio (y) = -0.33221 -0.05248
# Poissons Ratio (z) = 0.04923 -0.00969
#
# Static dielectric constant tensor:
#      x y z
#    x 1.878220 0.000000 0.000000 
#    y 0.000000 2.077560 0.000000 
#    z 0.000000 0.000000 2.004830 
# 
# From -- ./inp_files/30845.got.cif
#   From: 2010.05.17/outbox.cif.g08.bks.cpg/sg53_16_cif.got.tgz:30845.got - 2010.06.03 12:45:16.
