data_PCOD9415729
_publ_section_title
;
Structure prediction by ZEFSAII (Michael W. Deem and Ramdas Pophale) SiO2 
 PCOD9415729
Probable space group: P M N A
;
_chemical_formula_sum "Si O2"
_cell_formula_units_Z 48
_cell_length_a 8.247107
_cell_length_b 16.902021
_cell_length_c 19.127434
_cell_angle_alpha 90.000000
_cell_angle_beta 90.000000
_cell_angle_gamma 90.000000
_cell_volume 2666.226117
_symmetry_space_group_name_H-M "P M N A"
_symmetry_group_IT_number 53
_symmetry_cell_setting 'orthorhombic'
loop_
_space_group_symop_operation_xyz
x,y,z
1/2-x,-y,1/2+z
x,-y,-z
1/2-x,y,1/2-z
-x,-y,-z
1/2+x,y,1/2-z
-x,y,z
1/2+x,-y,1/2+z
loop_
_atom_site_type_symbol
_atom_site_label
_atom_site_fract_x
_atom_site_fract_y
_atom_site_fract_z
Si Si1 0.193292 0.163598 0.172295
Si Si2 0.304007 0.516873 0.670510
Si Si3 0.696244 0.239688 0.541028
Si Si4 0.197611 0.324085 0.099883
Si Si5 0.193340 0.917780 0.532263
Si Si6 0.195875 0.338759 0.828978
O O1 0.250000 0.142724 0.250000
O O2 0.252391 0.251897 0.149980
O O3 0.244565 0.105276 0.109584
O O4 0.000000 0.166182 0.172490
O O5 0.250000 0.530958 0.750000
O O6 0.500000 0.516724 0.667932
O O7 0.244834 0.590052 0.624074
O O8 0.249583 0.428068 0.651361
O O9 0.500000 0.235533 0.541467
O O10 0.743350 0.299280 0.478380
O O11 0.759983 0.154314 0.518740
O O12 0.752660 0.274975 0.614532
O O13 0.000000 0.325160 0.102339
O O14 0.000000 0.922605 0.536853
O O15 0.256107 0.000000 0.500000
O O16 0.250000 0.322797 0.750000
O O17 0.000000 0.338877 0.830323
#
# Coordination Sequence:
#
# PCOD9415729 Si02
#       6
#     8   8   8   8   8   8
#     4  10  19  32  52  78 107 136 166 200 241 291
#     4   9  16  27  43  65  95 130 165 201 238 277
#     4   9  18  33  51  72  96 125 162 201 247 298
#     4   8  15  27  45  70  98 128 162 199 239 285
#     4  10  21  37  56  77 100 127 161 202 250 302
#     4   9  18  31  48  69  95 129 167 205 243 285
#
# _framework density 18.002974999999999
#
# number of rings (size 3 to 8) (size 9 to 14) (size 15 to 20)
#    0.000    2.833    0.000    2.500    0.000    2.667 
#    0.000    7.500    0.000    2.000    0.000    9.333 
#    0.000    0.000    0.000    0.000    0.000    0.000 
#
# Total GULP energy -267540.483202 kJ/mol
# GULP energy per Si atom -5573.760067 kJ/mol
# Density = 1.796200 g / cm^3
# Si number density = 18.002975 Si / 1000 Ang^3
#
#
#
# Elastic Constant Matrix: (Units=GPa)
#
#
# Indices 1 2 3 4 5 6 
#
# 1 18.2720 15.6110 19.0697 0.0000 0.0000 0.0000
# 2 15.6110 123.6741 105.2270 0.0000 0.0000 0.0000
# 3 19.0697 105.2270 137.6750 0.0000 0.0000 0.0000
# 4 0.0000 0.0000 0.0000 21.2296 0.0000 0.0000
# 5 0.0000 0.0000 0.0000 0.0000 25.0894 0.0000
# 6 0.0000 0.0000 0.0000 0.0000 0.0000 13.5567
#
#
#
# Elastic Compliance Matrix: (Units=1/GPa)
#
#
# Indices 1 2 3 4 5 6 
#
# 1 0.064079 -0.001535 -0.007703 0.000000 0.000000 0.000000
# 2 -0.001535 0.023159 -0.017489 0.000000 0.000000 0.000000
# 3 -0.007703 -0.017489 0.021697 0.000000 0.000000 0.000000
# 4 0.000000 0.000000 0.000000 0.047104 0.000000 0.000000
# 5 0.000000 0.000000 0.000000 0.000000 0.039857 0.000000
# 6 0.000000 0.000000 0.000000 0.000000 0.000000 0.073764
#
#
# Mechanical properties :
#
#
# Convention : Reuss Voigt Hill
#
# Bulk Modulus (GPa) = 18.02343 62.15963 40.09153
# Shear Modulus (GPa) = 14.63669 21.28937 17.96303
#
# Velocity S-wave (km/s) = 2.85444 3.44255 3.16219
# Velocity P-wave (km/s) = 4.57131 7.09957 5.97079
#
# Compressibility (1/GPa) = 0.05548333
#
# Stress axis : x y z
#
# Youngs Moduli (GPa) = 15.60584 43.17892 46.08901
#
# Poissons Ratio (x) = 0.06626 0.35501
# Poissons Ratio (y) = 0.02395 0.80603
# Poissons Ratio (z) = 0.12021 0.75514
#
# Static dielectric constant tensor:
#      x y z
#    x 1.636140 0.000000 0.000000 
#    y 0.000000 1.622690 0.000000 
#    z 0.000000 0.000000 1.604680 
# 
# From -- ./inp_files/26202.got.cif
#   From: 2010.05.17/outbox.cif.g08.bks.cpg/sg53_14_cif.got.tgz:26202.got - 2010.06.03 12:45:16.
