data_PCOD9415557
_publ_section_title
;
Structure prediction by ZEFSAII (Michael W. Deem and Ramdas Pophale) SiO2 
 PCOD9415557
Probable space group: P M N A
;
_chemical_formula_sum "Si O2"
_cell_formula_units_Z 64
_cell_length_a 17.630414
_cell_length_b 14.073849
_cell_length_c 13.982664
_cell_angle_alpha 90.000000
_cell_angle_beta 90.000000
_cell_angle_gamma 90.000000
_cell_volume 3469.487439
_symmetry_space_group_name_H-M "P M N A"
_symmetry_group_IT_number 53
_symmetry_cell_setting 'orthorhombic'
loop_
_space_group_symop_operation_xyz
x,y,z
1/2-x,-y,1/2+z
x,-y,-z
1/2-x,y,1/2-z
-x,-y,-z
1/2+x,y,1/2-z
-x,y,z
1/2+x,-y,1/2+z
loop_
_atom_site_type_symbol
_atom_site_label
_atom_site_fract_x
_atom_site_fract_y
_atom_site_fract_z
Si Si1 0.751176 0.694360 0.034644
Si Si2 0.311812 0.628651 0.833618
Si Si3 0.669046 0.415964 0.804266
Si Si4 0.413749 0.891252 0.418447
Si Si5 0.357320 0.087617 0.366905
Si Si6 0.208505 0.107025 0.459528
Si Si7 0.088439 0.813450 0.675584
Si Si8 0.412281 0.321702 0.631051
O O1 0.689492 0.650945 0.107032
O O2 0.837191 0.663418 0.063915
O O3 0.731738 0.652589 0.931354
O O4 0.736964 0.808599 0.030176
O O5 0.250000 0.632660 0.750000
O O6 0.347493 0.523547 0.835337
O O7 0.373260 0.710305 0.817591
O O8 0.750000 0.420146 0.750000
O O9 0.608482 0.372983 0.730321
O O10 0.500000 0.926222 0.414713
O O11 0.392676 0.878684 0.530759
O O12 0.410296 0.792609 0.363020
O O13 0.364252 0.973975 0.372650
O O14 0.269372 0.113747 0.373454
O O15 0.395822 0.131430 0.274748
O O16 0.128839 0.133361 0.412792
O O17 0.210839 0.000000 0.500000
O O18 0.000000 0.805902 0.659680
O O19 0.500000 0.345860 0.600593
#
# Coordination Sequence:
#
# PCOD9415557 Si02
#       8
#     8   8   8   8   8   8   8   8
#     4  10  19  38  60  85 115 156 201 239 290 345
#     4  10  21  39  61  84 109 151 204 246 287 355
#     4   9  20  37  60  82 112 153 193 240 290 351
#     4  10  19  31  55  87 122 151 184 234 290 347
#     4  11  18  36  56  83 113 155 195 228 278 342
#     4  11  21  37  58  83 115 154 200 236 277 348
#     4  11  24  37  55  82 116 149 187 241 296 345
#     4  10  20  35  58  92 123 147 186 246 305 350
#
# _framework density 18.446529000000002
#
# number of rings (size 3 to 8) (size 9 to 14) (size 15 to 20)
#    0.000    1.750    2.500    3.750    0.000    1.750 
#    0.000    5.000    0.000   13.500    0.000    0.000 
#    0.000    0.000    0.000    0.000    0.000    0.000 
#
# Total GULP energy -356736.833811 kJ/mol
# GULP energy per Si atom -5574.013028 kJ/mol
# Density = 1.840454 g / cm^3
# Si number density = 18.446529 Si / 1000 Ang^3
#
#
#
# Elastic Constant Matrix: (Units=GPa)
#
#
# Indices 1 2 3 4 5 6 
#
# 1 121.2810 31.1112 38.5294 0.0000 0.0000 0.0000
# 2 31.1112 109.8129 48.8312 0.0000 0.0000 0.0000
# 3 38.5294 48.8312 81.1022 0.0000 0.0000 0.0000
# 4 0.0000 0.0000 0.0000 22.6224 0.0000 0.0000
# 5 0.0000 0.0000 0.0000 0.0000 23.1111 0.0000
# 6 0.0000 0.0000 0.0000 0.0000 0.0000 3.1591
#
#
#
# Elastic Compliance Matrix: (Units=1/GPa)
#
#
# Indices 1 2 3 4 5 6 
#
# 1 0.009785 -0.000963 -0.004069 0.000000 0.000000 0.000000
# 2 -0.000963 0.012531 -0.007087 0.000000 0.000000 0.000000
# 3 -0.004069 -0.007087 0.018530 0.000000 0.000000 0.000000
# 4 0.000000 0.000000 0.000000 0.044204 0.000000 0.000000
# 5 0.000000 0.000000 0.000000 0.000000 0.043269 0.000000
# 6 0.000000 0.000000 0.000000 0.000000 0.000000 0.316546
#
#
# Mechanical properties :
#
#
# Convention : Reuss Voigt Hill
#
# Bulk Modulus (GPa) = 60.21163 61.01552 60.61357
# Shear Modulus (GPa) = 10.53432 22.69348 16.61390
#
# Velocity S-wave (km/s) = 2.39231 3.51127 3.00434
# Velocity P-wave (km/s) = 6.35160 7.04184 6.70561
#
# Compressibility (1/GPa) = 0.01660809
#
# Stress axis : x y z
#
# Youngs Moduli (GPa) = 102.19809 79.80388 53.96574
#
# Poissons Ratio (x) = 0.07684 0.21958
# Poissons Ratio (y) = 0.09840 0.38247
# Poissons Ratio (z) = 0.41582 0.56559
#
# Static dielectric constant tensor:
#      x y z
#    x 1.651970 0.000000 0.000000 
#    y 0.000000 1.654480 0.000000 
#    z 0.000000 0.000000 1.628530 
# 
# From -- ./inp_files/17100.got.cif
#   From: 2010.05.17/outbox.cif.g08.bks.cpg/sg53_9_cif.got.tgz:17100.got - 2010.06.03 12:45:16.
