data_PCOD9415108
_publ_section_title
;
Structure prediction by ZEFSAII (Michael W. Deem and Ramdas Pophale) SiO2 
 PCOD9415108
Probable space group: P M N A
;
_chemical_formula_sum "Si O2"
_cell_formula_units_Z 64
_cell_length_a 8.959624
_cell_length_b 26.735780
_cell_length_c 18.565225
_cell_angle_alpha 90.000000
_cell_angle_beta 90.000000
_cell_angle_gamma 90.000000
_cell_volume 4447.161081
_symmetry_space_group_name_H-M "P M N A"
_symmetry_group_IT_number 53
_symmetry_cell_setting 'orthorhombic'
loop_
_space_group_symop_operation_xyz
x,y,z
1/2-x,-y,1/2+z
x,-y,-z
1/2-x,y,1/2-z
-x,-y,-z
1/2+x,y,1/2-z
-x,y,z
1/2+x,-y,1/2+z
loop_
_atom_site_type_symbol
_atom_site_label
_atom_site_fract_x
_atom_site_fract_y
_atom_site_fract_z
Si Si1 0.822266 0.507948 0.328307
Si Si2 0.327940 0.550724 0.548152
Si Si3 0.179817 0.895062 0.414804
Si Si4 0.323035 0.690425 0.327279
Si Si5 0.677788 0.392795 0.922560
Si Si6 0.177584 0.808596 0.172429
Si Si7 0.171305 0.048428 0.447214
Si Si8 0.822042 0.988067 0.171618
O O1 0.750000 0.507805 0.250000
O O2 0.755156 0.464593 0.378880
O O3 0.790443 0.560732 0.368326
O O4 0.000000 0.502769 0.323471
O O5 0.325424 0.500000 0.500000
O O6 0.500000 0.563866 0.561285
O O7 0.246616 0.591821 0.499295
O O8 0.243885 0.843026 0.386625
O O9 0.215966 0.907396 0.498304
O O10 0.253101 0.938404 0.365607
O O11 0.000000 0.897641 0.407592
O O12 0.250000 0.678172 0.250000
O O13 0.500000 0.681382 0.323474
O O14 0.250290 0.656083 0.387969
O O15 0.298655 0.749508 0.340417
O O16 0.500000 0.387765 0.928120
O O17 0.250000 0.820761 0.250000
O O18 0.000000 0.818061 0.174717
O O19 0.000000 0.055545 0.422860
O O20 0.171274 0.000000 0.500000
O O21 0.274685 0.033778 0.380693
O O22 0.750000 0.993809 0.250000
O O23 0.000000 0.983599 0.176168
#
# Coordination Sequence:
#
# PCOD9415108 Si02
#       8
#     8   8   8   8   8   8   8   8
#     4  10  19  29  42  62  87 114 145 178 213 253
#     4   9  17  29  44  61  83 111 142 176 213 253
#     4  10  19  31  46  62  84 113 143 176 214 254
#     4  10  20  32  45  62  85 113 145 182 218 251
#     4  10  19  30  45  63  85 114 146 179 214 255
#     4  10  20  32  45  62  85 112 145 182 216 251
#     4   8  16  30  44  60  83 109 138 173 211 250
#     4  11  20  29  43  62  86 114 144 176 209 249
#
# _framework density 14.391203000000001
#
# number of rings (size 3 to 8) (size 9 to 14) (size 15 to 20)
#    0.000    2.250    0.000    4.875    0.000    8.250 
#    0.000    0.000    0.000    0.000    0.000    0.000 
#    0.000    1.000    0.000    6.750    0.000    5.000 
#
# Total GULP energy -356934.755913 kJ/mol
# GULP energy per Si atom -5577.105561 kJ/mol
# Density = 1.435845 g / cm^3
# Si number density = 14.391203 Si / 1000 Ang^3
#
#
#
# Elastic Constant Matrix: (Units=GPa)
#
#
# Indices 1 2 3 4 5 6 
#
# 1 90.4172 37.8971 55.7626 0.0000 0.0000 0.0000
# 2 37.8971 46.6870 27.2559 0.0000 0.0000 0.0000
# 3 55.7626 27.2559 79.7195 0.0000 0.0000 0.0000
# 4 0.0000 0.0000 0.0000 28.7056 0.0000 0.0000
# 5 0.0000 0.0000 0.0000 0.0000 27.3928 0.0000
# 6 0.0000 0.0000 0.0000 0.0000 0.0000 -138.4265
#
#
#
# Elastic Compliance Matrix: (Units=1/GPa)
#
#
# Indices 1 2 3 4 5 6 
#
# 1 0.023854 -0.012021 -0.012575 0.000000 0.000000 0.000000
# 2 -0.012021 0.032819 -0.002812 0.000000 0.000000 0.000000
# 3 -0.012575 -0.002812 0.022302 0.000000 0.000000 0.000000
# 4 0.000000 0.000000 0.000000 0.034836 0.000000 0.000000
# 5 0.000000 0.000000 0.000000 0.000000 0.036506 0.000000
# 6 0.000000 0.000000 0.000000 0.000000 0.000000 -0.007224
#
#
# Mechanical properties :
#
#
# Convention : Reuss Voigt Hill
#
# Bulk Modulus (GPa) = 41.39565 50.96166 46.17866
# Shear Modulus (GPa) = 24.27621 -10.07174 7.10224
#
# Velocity S-wave (km/s) = 4.11162 -2.64835 2.22392
# Velocity P-wave (km/s) = 7.16712 5.11243 6.22513
#
# Compressibility (1/GPa) = 0.02415713
#
# Stress axis : x y z
#
# Youngs Moduli (GPa) = 41.92158 30.47023 44.83966
#
# Poissons Ratio (x) = 0.36630 0.56388
# Poissons Ratio (y) = 0.50396 0.12608
# Poissons Ratio (z) = 0.52718 0.08568
#
# Static dielectric constant tensor:
#      x y z
#    x 1.478100 0.000000 0.000000 
#    y 0.000000 1.468890 0.000000 
#    z 0.000000 0.000000 1.461920 
# 
# From -- ./inp_files/27031.got.cif
#   From: 2010.05.17/outbox.cif.g08.bks.cpg/sg53_14_cif.got.tgz:27031.got - 2010.06.03 12:45:16.
