data_PCOD9415234
_publ_section_title
;
Structure prediction by ZEFSAII (Michael W. Deem and Ramdas Pophale) SiO2 
 PCOD9415234
Probable space group: P M N A
;
_chemical_formula_sum "Si O2"
_cell_formula_units_Z 64
_cell_length_a 9.092491
_cell_length_b 16.929910
_cell_length_c 21.644597
_cell_angle_alpha 90.000000
_cell_angle_beta 90.000000
_cell_angle_gamma 90.000000
_cell_volume 3331.862215
_symmetry_space_group_name_H-M "P M N A"
_symmetry_group_IT_number 53
_symmetry_cell_setting 'orthorhombic'
loop_
_space_group_symop_operation_xyz
x,y,z
1/2-x,-y,1/2+z
x,-y,-z
1/2-x,y,1/2-z
-x,-y,-z
1/2+x,y,1/2-z
-x,y,z
1/2+x,-y,1/2+z
loop_
_atom_site_type_symbol
_atom_site_label
_atom_site_fract_x
_atom_site_fract_y
_atom_site_fract_z
Si Si1 0.323227 0.883799 0.315958
Si Si2 0.327614 0.730423 0.387576
Si Si3 0.323452 0.064358 0.316360
Si Si4 0.664826 0.339121 0.194527
Si Si5 0.829329 0.424313 0.815065
Si Si6 0.824293 0.782060 0.885410
Si Si7 0.833911 0.531024 0.587353
Si Si8 0.323580 0.325698 0.010559
O O1 0.250000 0.867464 0.250000
O O2 0.500000 0.879404 0.309362
O O3 0.280832 0.816894 0.364866
O O4 0.284894 0.974026 0.333287
O O5 0.500000 0.732915 0.406741
O O6 0.318242 0.668504 0.331323
O O7 0.231336 0.697653 0.443329
O O8 0.250000 0.082063 0.250000
O O9 0.500000 0.068860 0.308265
O O10 0.284711 0.127701 0.369208
O O11 0.750000 0.379794 0.250000
O O12 0.500000 0.314580 0.211279
O O13 0.765158 0.266780 0.173302
O O14 0.654753 0.398955 0.138082
O O15 0.750000 0.439735 0.750000
O O16 0.762539 0.468193 0.875386
O O17 0.000000 0.446821 0.809270
O O18 0.747155 0.738687 0.942898
O O19 0.000000 0.775080 0.891810
O O20 0.779198 0.583774 0.529239
O O21 0.000000 0.500249 0.575855
O O22 0.500000 0.323097 0.016015
#
# Coordination Sequence:
#
# PCOD9415234 Si02
#       8
#     8   8   8   8   8   8   8   8
#     4   9  18  35  57  81 110 141 176 219 268 320
#     4  10  22  39  58  80 107 141 180 222 268 317
#     4   9  18  31  51  80 110 142 178 218 267 320
#     4  10  19  30  46  71 103 140 180 218 262 315
#     4  11  23  37  57  85 112 139 174 218 268 320
#     4  10  19  32  51  75 105 140 178 220 266 316
#     4   9  20  37  54  75 105 140 176 216 262 312
#     4  10  22  39  58  79 105 142 185 223 262 314
#
# _framework density 19.208476000000001
#
# number of rings (size 3 to 8) (size 9 to 14) (size 15 to 20)
#    0.000    2.250    0.000    3.375    0.000    8.000 
#    0.000    3.125    0.000    3.750    0.000    0.000 
#    0.000    0.000    0.000    0.000    0.000    0.000 
#
# Total GULP energy -356997.341475 kJ/mol
# GULP energy per Si atom -5578.083461 kJ/mol
# Density = 1.916476 g / cm^3
# Si number density = 19.208476 Si / 1000 Ang^3
#
#
#
# Elastic Constant Matrix: (Units=GPa)
#
#
# Indices 1 2 3 4 5 6 
#
# 1 65.1621 42.0270 38.5627 0.0000 0.0000 0.0000
# 2 42.0270 110.5998 40.3665 0.0000 0.0000 0.0000
# 3 38.5627 40.3665 75.5530 0.0000 0.0000 0.0000
# 4 0.0000 0.0000 0.0000 28.6568 0.0000 0.0000
# 5 0.0000 0.0000 0.0000 0.0000 33.1720 0.0000
# 6 0.0000 0.0000 0.0000 0.0000 0.0000 8.5227
#
#
#
# Elastic Compliance Matrix: (Units=1/GPa)
#
#
# Indices 1 2 3 4 5 6 
#
# 1 0.024799 -0.005967 -0.009469 0.000000 0.000000 0.000000
# 2 -0.005967 0.012668 -0.003722 0.000000 0.000000 0.000000
# 3 -0.009469 -0.003722 0.020058 0.000000 0.000000 0.000000
# 4 0.000000 0.000000 0.000000 0.034896 0.000000 0.000000
# 5 0.000000 0.000000 0.000000 0.000000 0.030146 0.000000
# 6 0.000000 0.000000 0.000000 0.000000 0.000000 0.117334
#
#
# Mechanical properties :
#
#
# Convention : Reuss Voigt Hill
#
# Bulk Modulus (GPa) = 52.06595 54.80304 53.43449
# Shear Modulus (GPa) = 17.56726 22.76087 20.16406
#
# Velocity S-wave (km/s) = 3.02745 3.44603 3.24350
# Velocity P-wave (km/s) = 6.27576 6.66529 6.47345
#
# Compressibility (1/GPa) = 0.01920641
#
# Stress axis : x y z
#
# Youngs Moduli (GPa) = 40.32429 78.94079 49.85616
#
# Poissons Ratio (x) = 0.47106 0.47210
# Poissons Ratio (y) = 0.24063 0.18558
# Poissons Ratio (z) = 0.38184 0.29385
#
# Static dielectric constant tensor:
#      x y z
#    x 1.654830 0.000000 0.000000 
#    y 0.000000 1.699250 0.000000 
#    z 0.000000 0.000000 1.725290 
# 
# From -- ./inp_files/34222.got.cif
#   From: 2010.05.17/outbox.cif.g08.bks.cpg/sg53_18_cif.got.tgz:34222.got - 2010.06.03 12:45:16.
