data_PCOD9415953
_publ_section_title
;
Structure prediction by ZEFSAII (Michael W. Deem and Ramdas Pophale) SiO2 
 PCOD9415953
Probable space group: P M N A
;
_chemical_formula_sum "Si O2"
_cell_formula_units_Z 48
_cell_length_a 8.178802
_cell_length_b 32.666831
_cell_length_c 9.256254
_cell_angle_alpha 90.000000
_cell_angle_beta 90.000000
_cell_angle_gamma 90.000000
_cell_volume 2473.044686
_symmetry_space_group_name_H-M "P M N A"
_symmetry_group_IT_number 53
_symmetry_cell_setting 'orthorhombic'
loop_
_space_group_symop_operation_xyz
x,y,z
1/2-x,-y,1/2+z
x,-y,-z
1/2-x,y,1/2-z
-x,-y,-z
1/2+x,y,1/2-z
-x,y,z
1/2+x,-y,1/2+z
loop_
_atom_site_type_symbol
_atom_site_label
_atom_site_fract_x
_atom_site_fract_y
_atom_site_fract_z
Si Si1 0.302124 0.039951 0.916639
Si Si2 0.697547 0.459437 0.416070
Si Si3 0.197791 0.621746 0.084055
Si Si4 0.302776 0.128621 0.917787
Si Si5 0.304239 0.217781 0.916920
Si Si6 0.305214 0.298039 0.415067
O O1 0.250000 0.037493 0.750000
O O2 0.500000 0.039635 0.922346
O O3 0.246217 0.084479 0.976872
O O4 0.240731 0.000000 0.000000
O O5 0.755326 0.500000 0.500000
O O6 0.750000 0.459802 0.250000
O O7 0.500000 0.459479 0.420182
O O8 0.754756 0.418439 0.497549
O O9 0.250000 0.620368 0.250000
O O10 0.000000 0.621924 0.079881
O O11 0.258369 0.663065 0.006170
O O12 0.250000 0.128394 0.750000
O O13 0.500000 0.128652 0.925305
O O14 0.245379 0.172988 0.973219
O O15 0.250000 0.222404 0.750000
O O16 0.500000 0.217568 0.918564
O O17 0.245474 0.255666 0.010850
O O18 0.250000 0.300204 0.250000
O O19 0.500000 0.300148 0.417653
#
# Coordination Sequence:
#
# PCOD9415953 Si02
#       6
#     8   8   8   8   8   8
#     4   9  17  30  48  70  97 128 163 203 247 297
#     4  10  21  37  57  83 113 144 180 219 261 310
#     4  10  22  38  57  82 109 139 177 219 261 309
#     4   8  15  28  47  70  96 127 163 204 248 295
#     4  10  19  33  54  78 103 132 170 214 258 306
#     4  11  23  38  55  77 106 139 175 214 261 313
#
# _framework density 19.409272000000001
#
# number of rings (size 3 to 8) (size 9 to 14) (size 15 to 20)
#    0.000    2.333    0.000    2.500    0.000    4.667 
#    0.000    0.833    0.000    2.000    0.000    0.000 
#    0.000    0.000    0.000    0.000    0.000    0.000 
#
# Total GULP energy -267733.449493 kJ/mol
# GULP energy per Si atom -5577.780198 kJ/mol
# Density = 1.936510 g / cm^3
# Si number density = 19.409272 Si / 1000 Ang^3
#
#
#
# Elastic Constant Matrix: (Units=GPa)
#
#
# Indices 1 2 3 4 5 6 
#
# 1 16.5744 22.9189 8.1699 0.0000 0.0000 0.0000
# 2 22.9189 252.4512 110.2615 0.0000 0.0000 0.0000
# 3 8.1699 110.2615 127.3203 0.0000 0.0000 0.0000
# 4 0.0000 0.0000 0.0000 34.0349 0.0000 0.0000
# 5 0.0000 0.0000 0.0000 0.0000 30.6216 0.0000
# 6 0.0000 0.0000 0.0000 0.0000 0.0000 17.1510
#
#
#
# Elastic Compliance Matrix: (Units=1/GPa)
#
#
# Indices 1 2 3 4 5 6 
#
# 1 0.069200 -0.006985 0.001609 0.000000 0.000000 0.000000
# 2 -0.006985 0.007076 -0.005680 0.000000 0.000000 0.000000
# 3 0.001609 -0.005680 0.012670 0.000000 0.000000 0.000000
# 4 0.000000 0.000000 0.000000 0.029382 0.000000 0.000000
# 5 0.000000 0.000000 0.000000 0.000000 0.032657 0.000000
# 6 0.000000 0.000000 0.000000 0.000000 0.000000 0.058306
#
#
# Mechanical properties :
#
#
# Convention : Reuss Voigt Hill
#
# Bulk Modulus (GPa) = 14.96253 75.44964 45.20608
# Shear Modulus (GPa) = 19.70992 33.36121 26.53556
#
# Velocity S-wave (km/s) = 3.19013 4.15037 3.70152
# Velocity P-wave (km/s) = 4.61465 7.86923 6.45057
#
# Compressibility (1/GPa) = 0.06683361
#
# Stress axis : x y z
#
# Youngs Moduli (GPa) = 14.45088 141.32310 78.92846
#
# Poissons Ratio (x) = 0.98714 -0.12697
# Poissons Ratio (y) = 0.10094 0.44829
# Poissons Ratio (z) = -0.02325 0.80267
#
# Static dielectric constant tensor:
#      x y z
#    x 1.707710 0.000000 0.000000 
#    y 0.000000 1.739370 0.000000 
#    z 0.000000 0.000000 1.611390 
# 
# From -- ./inp_files/6614.got.cif
#   From: 2010.05.17/outbox.cif.g08.bks.cpg/sg53_4_cif.got.tgz:6614.got - 2010.06.03 12:45:16.
