data_PCOD9415220
_publ_section_title
;
Structure prediction by ZEFSAII (Michael W. Deem and Ramdas Pophale) SiO2 
 PCOD9415220
Probable space group: P M N A
;
_chemical_formula_sum "Si O2"
_cell_formula_units_Z 64
_cell_length_a 8.760660
_cell_length_b 12.686765
_cell_length_c 32.422118
_cell_angle_alpha 90.000000
_cell_angle_beta 90.000000
_cell_angle_gamma 90.000000
_cell_volume 3603.537976
_symmetry_space_group_name_H-M "P M N A"
_symmetry_group_IT_number 53
_symmetry_cell_setting 'orthorhombic'
loop_
_space_group_symop_operation_xyz
x,y,z
1/2-x,-y,1/2+z
x,-y,-z
1/2-x,y,1/2-z
-x,-y,-z
1/2+x,y,1/2-z
-x,y,z
1/2+x,-y,1/2+z
loop_
_atom_site_type_symbol
_atom_site_label
_atom_site_fract_x
_atom_site_fract_y
_atom_site_fract_z
Si Si1 0.176448 0.082548 0.880833
Si Si2 0.683470 0.681682 0.391680
Si Si3 0.817614 0.137874 0.364670
Si Si4 0.182519 0.290398 0.204707
Si Si5 0.315840 0.686095 0.928088
Si Si6 0.173561 0.677702 0.480242
Si Si7 0.331816 0.922938 0.037712
Si Si8 0.183730 0.535889 0.858099
O O1 0.238898 0.202669 0.876833
O O2 0.198538 0.064941 0.929695
O O3 0.000000 0.080023 0.868404
O O4 0.262450 0.982452 0.862200
O O5 0.500000 0.689653 0.393452
O O6 0.740094 0.652257 0.437804
O O7 0.727482 0.586099 0.361842
O O8 0.746907 0.204110 0.327123
O O9 0.772113 0.200833 0.407148
O O10 0.000000 0.142556 0.362453
O O11 0.250000 0.279260 0.250000
O O12 0.223146 0.402971 0.183801
O O13 0.000000 0.281616 0.206258
O O14 0.500000 0.686685 0.930994
O O15 0.260228 0.600109 0.895373
O O16 0.259691 0.657016 0.974197
O O17 0.165446 0.804599 0.478710
O O18 0.000000 0.635064 0.477646
O O19 0.500000 0.943378 0.057568
O O20 0.315765 0.000000 0.000000
O O21 0.000000 0.542665 0.863111
#
# Coordination Sequence:
#
# PCOD9415220 Si02
#       8
#     8   8   8   8   8   8   8   8
#     4  10  19  30  46  69  97 130 168 207 247 291
#     4   9  19  34  48  66  96 136 177 212 248 290
#     4  10  19  33  53  76 103 133 164 200 246 300
#     4  10  20  36  59  85 107 126 152 191 242 298
#     4   9  18  31  47  69  97 129 167 213 261 301
#     4   9  17  28  42  63  92 128 171 216 257 294
#     4   9  16  27  42  59  85 125 170 213 255 296
#     4   9  19  35  53  72  97 130 166 203 246 297
#
# _framework density 17.760323
#
# number of rings (size 3 to 8) (size 9 to 14) (size 15 to 20)
#    0.000    2.625    0.000    1.875    0.000    5.250 
#    0.000    5.000    0.000    0.750    0.000    1.750 
#    0.000    0.000    0.000    0.000    0.000    0.000 
#
# Total GULP energy -356476.183473 kJ/mol
# GULP energy per Si atom -5569.940367 kJ/mol
# Density = 1.771990 g / cm^3
# Si number density = 17.760323 Si / 1000 Ang^3
#
#
#
# Elastic Constant Matrix: (Units=GPa)
#
#
# Indices 1 2 3 4 5 6 
#
# 1 21.6313 22.9264 10.4445 0.0000 0.0000 0.0000
# 2 22.9264 99.3361 32.8700 0.0000 0.0000 0.0000
# 3 10.4445 32.8700 49.2744 0.0000 0.0000 0.0000
# 4 0.0000 0.0000 0.0000 12.6510 0.0000 0.0000
# 5 0.0000 0.0000 0.0000 0.0000 23.0021 0.0000
# 6 0.0000 0.0000 0.0000 0.0000 0.0000 19.0343
#
#
#
# Elastic Compliance Matrix: (Units=1/GPa)
#
#
# Indices 1 2 3 4 5 6 
#
# 1 0.062007 -0.012784 -0.004616 0.000000 0.000000 0.000000
# 2 -0.012784 0.015554 -0.007666 0.000000 0.000000 0.000000
# 3 -0.004616 -0.007666 0.026387 0.000000 0.000000 0.000000
# 4 0.000000 0.000000 0.000000 0.079045 0.000000 0.000000
# 5 0.000000 0.000000 0.000000 0.000000 0.043474 0.000000
# 6 0.000000 0.000000 0.000000 0.000000 0.000000 0.052537
#
#
# Mechanical properties :
#
#
# Convention : Reuss Voigt Hill
#
# Bulk Modulus (GPa) = 18.58149 33.63596 26.10872
# Shear Modulus (GPa) = 14.40619 17.87090 16.13854
#
# Velocity S-wave (km/s) = 2.85115 3.17555 3.01771
# Velocity P-wave (km/s) = 4.61777 5.69433 5.18407
#
# Compressibility (1/GPa) = 0.05381699
#
# Stress axis : x y z
#
# Youngs Moduli (GPa) = 16.12721 64.29248 37.89790
#
# Poissons Ratio (x) = 0.82190 0.17492
# Poissons Ratio (y) = 0.20617 0.29052
# Poissons Ratio (z) = 0.07444 0.49287
#
# Static dielectric constant tensor:
#      x y z
#    x 1.620120 0.000000 0.000000 
#    y 0.000000 1.649640 0.000000 
#    z 0.000000 0.000000 1.597760 
# 
# From -- ./inp_files/38121.got.cif
#   From: 2010.05.17/outbox.cif.g08.bks.cpg/sg53_20_cif.got.tgz:38121.got - 2010.06.03 12:45:16.
