data_PCOD9415172
_publ_section_title
;
Structure prediction by ZEFSAII (Michael W. Deem and Ramdas Pophale) SiO2 
 PCOD9415172
Probable space group: P M N A
;
_chemical_formula_sum "Si O2"
_cell_formula_units_Z 64
_cell_length_a 7.327974
_cell_length_b 16.760374
_cell_length_c 24.166336
_cell_angle_alpha 90.000000
_cell_angle_beta 90.000000
_cell_angle_gamma 90.000000
_cell_volume 2968.099356
_symmetry_space_group_name_H-M "P M N A"
_symmetry_group_IT_number 53
_symmetry_cell_setting 'orthorhombic'
loop_
_space_group_symop_operation_xyz
x,y,z
1/2-x,-y,1/2+z
x,-y,-z
1/2-x,y,1/2-z
-x,-y,-z
1/2+x,y,1/2-z
-x,y,z
1/2+x,-y,1/2+z
loop_
_atom_site_type_symbol
_atom_site_label
_atom_site_fract_x
_atom_site_fract_y
_atom_site_fract_z
Si Si1 0.718196 0.833609 0.816834
Si Si2 0.278011 0.275904 0.920664
Si Si3 0.216815 0.522467 0.685888
Si Si4 0.282558 0.344585 0.813139
Si Si5 0.278213 0.045994 0.089905
Si Si6 0.722976 0.326052 0.117457
Si Si7 0.221712 0.407940 0.496245
Si Si8 0.777579 0.112417 0.528762
O O1 0.750000 0.833740 0.750000
O O2 0.500000 0.832867 0.821541
O O3 0.782399 0.910000 0.853661
O O4 0.782861 0.754183 0.850378
O O5 0.500000 0.271898 0.922876
O O6 0.217236 0.281528 0.857569
O O7 0.213391 0.198203 0.952016
O O8 0.227009 0.358316 0.949801
O O9 0.250000 0.538812 0.750000
O O10 0.290098 0.433795 0.675418
O O11 0.285418 0.596683 0.651602
O O12 0.000000 0.519632 0.675256
O O13 0.250000 0.323806 0.750000
O O14 0.500000 0.350268 0.819784
O O15 0.500000 0.044947 0.091994
O O16 0.221529 0.956494 0.072251
O O17 0.224506 0.094741 0.034520
O O18 0.500000 0.321807 0.117085
O O19 0.776966 0.351128 0.055222
O O20 0.284252 0.500000 0.500000
O O21 0.000000 0.412248 0.493205
O O22 0.000000 0.110868 0.528250
#
# Coordination Sequence:
#
# PCOD9415172 Si02
#       8
#     8   8   8   8   8   8   8   8
#     4  10  19  30  44  64  91 120 148 178 215 261
#     4   9  15  23  37  58  82 105 133 169 207 248
#     4   9  16  26  39  55  77 106 139 170 198 233
#     4   9  17  28  41  58  80 106 135 166 199 236
#     4   8  14  25  41  62  86 108 134 172 215 255
#     4   9  16  25  38  58  85 113 139 171 213 257
#     4   9  15  22  35  58  87 114 138 173 222 262
#     4   8  13  23  41  63  84 106 134 173 219 257
#
# _framework density 21.562622000000001
#
# number of rings (size 3 to 8) (size 9 to 14) (size 15 to 20)
#    0.000    3.125    0.000    2.625    0.000    6.000 
#    0.000    0.625    0.000    0.000    0.000    6.125 
#    0.000    6.500    0.000    0.000    0.000    0.000 
#
# Total GULP energy -356743.884705 kJ/mol
# GULP energy per Si atom -5574.123199 kJ/mol
# Density = 2.151354 g / cm^3
# Si number density = 21.562622 Si / 1000 Ang^3
#
#
#
# Elastic Constant Matrix: (Units=GPa)
#
#
# Indices 1 2 3 4 5 6 
#
# 1 82.6582 2.2274 -3.6935 0.0000 0.0000 0.0000
# 2 2.2274 106.6408 81.7680 0.0000 0.0000 0.0000
# 3 -3.6935 81.7680 135.6036 0.0000 0.0000 0.0000
# 4 0.0000 0.0000 0.0000 35.1606 0.0000 0.0000
# 5 0.0000 0.0000 0.0000 0.0000 9.3675 0.0000
# 6 0.0000 0.0000 0.0000 0.0000 0.0000 -10.1770
#
#
#
# Elastic Compliance Matrix: (Units=1/GPa)
#
#
# Indices 1 2 3 4 5 6 
#
# 1 0.012164 -0.000945 0.000901 0.000000 0.000000 0.000000
# 2 -0.000945 0.017515 -0.010587 0.000000 0.000000 0.000000
# 3 0.000901 -0.010587 0.013783 0.000000 0.000000 0.000000
# 4 0.000000 0.000000 0.000000 0.028441 0.000000 0.000000
# 5 0.000000 0.000000 0.000000 0.000000 0.106752 0.000000
# 6 0.000000 0.000000 0.000000 0.000000 0.000000 -0.098260
#
#
# Mechanical properties :
#
#
# Convention : Reuss Voigt Hill
#
# Bulk Modulus (GPa) = 45.04585 53.94512 49.49548
# Shear Modulus (GPa) = 45.84822 23.17693 34.51258
#
# Velocity S-wave (km/s) = 4.61617 3.28207 4.00506
# Velocity P-wave (km/s) = 7.02482 6.27972 6.66269
#
# Compressibility (1/GPa) = 0.02219960
#
# Stress axis : x y z
#
# Youngs Moduli (GPa) = 82.21148 57.09492 72.55391
#
# Poissons Ratio (x) = 0.05396 -0.06538
# Poissons Ratio (y) = 0.07769 0.76813
# Poissons Ratio (z) = -0.07409 0.60446
#
# Static dielectric constant tensor:
#      x y z
#    x 3.033670 0.000000 0.000000 
#    y 0.000000 1.763880 0.000000 
#    z 0.000000 0.000000 1.796710 
# 
# From -- ./inp_files/32074.got.cif
#   From: 2010.05.17/outbox.cif.g08.bks.cpg/sg53_17_cif.got.tgz:32074.got - 2010.06.03 12:45:16.
