data_PCOD9415698
_publ_section_title
;
Structure prediction by ZEFSAII (Michael W. Deem and Ramdas Pophale) SiO2 
 PCOD9415698
Probable space group: P M N A
;
_chemical_formula_sum "Si O2"
_cell_formula_units_Z 48
_cell_length_a 8.925495
_cell_length_b 18.435065
_cell_length_c 14.696307
_cell_angle_alpha 90.000000
_cell_angle_beta 90.000000
_cell_angle_gamma 90.000000
_cell_volume 2418.160929
_symmetry_space_group_name_H-M "P M N A"
_symmetry_group_IT_number 53
_symmetry_cell_setting 'orthorhombic'
loop_
_space_group_symop_operation_xyz
x,y,z
1/2-x,-y,1/2+z
x,-y,-z
1/2-x,y,1/2-z
-x,-y,-z
1/2+x,y,1/2-z
-x,y,z
1/2+x,-y,1/2+z
loop_
_atom_site_type_symbol
_atom_site_label
_atom_site_fract_x
_atom_site_fract_y
_atom_site_fract_z
Si Si1 0.178852 0.164879 0.545655
Si Si2 0.177104 0.879535 0.659075
Si Si3 0.821610 0.386648 0.152368
Si Si4 0.178166 0.324462 0.518899
Si Si5 0.179553 0.457906 0.652444
Si Si6 0.169516 0.024102 0.893907
O O1 0.220172 0.154431 0.438578
O O2 0.211515 0.248320 0.567807
O O3 0.263373 0.104629 0.604450
O O4 0.000000 0.151803 0.552607
O O5 0.250000 0.847297 0.750000
O O6 0.000000 0.874215 0.667370
O O7 0.228176 0.963401 0.651916
O O8 0.750000 0.368443 0.250000
O O9 0.754436 0.465712 0.126087
O O10 0.000000 0.390569 0.159923
O O11 0.769417 0.332677 0.073833
O O12 0.209060 0.393545 0.582099
O O13 0.000000 0.324130 0.497436
O O14 0.250000 0.438949 0.750000
O O15 0.000000 0.467987 0.659650
O O16 0.000000 0.021792 0.858050
O O17 0.164914 0.000000 0.000000
#
# Coordination Sequence:
#
# PCOD9415698 Si02
#       6
#     8   8   8   8   8   8
#     4   9  19  35  53  74 104 140 173 210 261 317
#     4  10  19  32  52  76 102 133 171 214 260 311
#     4  11  22  36  56  81 110 143 182 227 272 324
#     4  10  21  37  56  80 111 147 183 222 274 329
#     4  10  20  36  58  80 106 140 181 229 275 323
#     4   9  17  31  51  73  97 127 166 207 246 295
#
# _framework density 19.849793999999999
#
# number of rings (size 3 to 8) (size 9 to 14) (size 15 to 20)
#    0.000    2.167    0.000    4.500    0.000    7.333 
#    0.000    2.500    0.000    2.000    0.000    0.000 
#    0.000    0.000    0.000    0.000    0.000    0.000 
#
# Total GULP energy -268037.087847 kJ/mol
# GULP energy per Si atom -5584.105997 kJ/mol
# Density = 1.980462 g / cm^3
# Si number density = 19.849794 Si / 1000 Ang^3
#
#
#
# Elastic Constant Matrix: (Units=GPa)
#
#
# Indices 1 2 3 4 5 6 
#
# 1 50.6390 19.7229 6.4691 0.0000 0.0000 0.0000
# 2 19.7229 54.8113 3.3083 0.0000 0.0000 0.0000
# 3 6.4691 3.3083 18.1811 0.0000 0.0000 0.0000
# 4 0.0000 0.0000 0.0000 9.6778 0.0000 0.0000
# 5 0.0000 0.0000 0.0000 0.0000 25.2147 0.0000
# 6 0.0000 0.0000 0.0000 0.0000 0.0000 22.8341
#
#
#
# Elastic Compliance Matrix: (Units=1/GPa)
#
#
# Indices 1 2 3 4 5 6 
#
# 1 0.023814 -0.008147 -0.006991 0.000000 0.000000 0.000000
# 2 -0.008147 0.021234 -0.000965 0.000000 0.000000 0.000000
# 3 -0.006991 -0.000965 0.057665 0.000000 0.000000 0.000000
# 4 0.000000 0.000000 0.000000 0.103330 0.000000 0.000000
# 5 0.000000 0.000000 0.000000 0.000000 0.039659 0.000000
# 6 0.000000 0.000000 0.000000 0.000000 0.000000 0.043794
#
#
# Mechanical properties :
#
#
# Convention : Reuss Voigt Hill
#
# Bulk Modulus (GPa) = 14.18290 20.29246 17.23768
# Shear Modulus (GPa) = 14.48416 17.82073 16.15244
#
# Velocity S-wave (km/s) = 2.70420 2.99955 2.85570
# Velocity P-wave (km/s) = 4.11229 4.71610 4.42451
#
# Compressibility (1/GPa) = 0.07050746
#
# Stress axis : x y z
#
# Youngs Moduli (GPa) = 41.99246 47.09380 17.34146
#
# Poissons Ratio (x) = 0.38367 0.12123
# Poissons Ratio (y) = 0.34211 0.01673
# Poissons Ratio (z) = 0.29356 0.04545
#
# Static dielectric constant tensor:
#      x y z
#    x 1.671380 0.000000 0.000000 
#    y 0.000000 1.700490 0.000000 
#    z 0.000000 0.000000 1.715150 
# 
# From -- ./inp_files/20187.got.cif
#   From: 2010.05.17/outbox.cif.g08.bks.cpg/sg53_11_cif.got.tgz:20187.got - 2010.06.03 12:45:16.
