data_PCOD9415420
_publ_section_title
;
Structure prediction by ZEFSAII (Michael W. Deem and Ramdas Pophale) SiO2 
 PCOD9415420
Probable space group: P M N A
;
_chemical_formula_sum "Si O2"
_cell_formula_units_Z 56
_cell_length_a 8.115347
_cell_length_b 18.250231
_cell_length_c 17.131444
_cell_angle_alpha 90.000000
_cell_angle_beta 90.000000
_cell_angle_gamma 90.000000
_cell_volume 2537.286047
_symmetry_space_group_name_H-M "P M N A"
_symmetry_group_IT_number 53
_symmetry_cell_setting 'orthorhombic'
loop_
_space_group_symop_operation_xyz
x,y,z
1/2-x,-y,1/2+z
x,-y,-z
1/2-x,y,1/2-z
-x,-y,-z
1/2+x,y,1/2-z
-x,y,z
1/2+x,-y,1/2+z
loop_
_atom_site_type_symbol
_atom_site_label
_atom_site_fract_x
_atom_site_fract_y
_atom_site_fract_z
Si Si1 0.694702 0.332239 0.838547
Si Si2 0.814391 0.798409 0.666572
Si Si3 0.812520 0.896491 0.957831
Si Si4 0.697620 0.989700 0.333173
Si Si5 0.694232 0.587531 0.003410
Si Si6 0.813979 0.623075 0.664848
Si Si7 0.700101 0.168312 0.618654
O O1 0.750000 0.351839 0.750000
O O2 0.500000 0.343498 0.838345
O O3 0.760422 0.377430 0.915161
O O4 0.732267 0.246064 0.853480
O O5 0.750000 0.821088 0.750000
O O6 0.691907 0.831780 0.604639
O O7 0.818683 0.710964 0.666953
O O8 0.000000 0.824997 0.650756
O O9 0.740845 0.965523 0.909428
O O10 0.000000 0.916213 0.980105
O O11 0.738037 0.857807 0.033444
O O12 0.750000 0.020912 0.250000
O O13 0.500000 0.993716 0.337655
O O14 0.746633 0.904587 0.334145
O O15 0.500000 0.610932 0.001070
O O16 0.700018 0.500000 0.000000
O O17 0.770459 0.608384 0.918913
O O18 0.750000 0.598408 0.750000
O O19 0.000000 0.592893 0.659762
O O20 0.500000 0.175532 0.618581
#
# Coordination Sequence:
#
# PCOD9415420 Si02
#       7
#     8   8   8   8   8   8   8
#     4  11  23  40  63  90 120 155 198 245 291 344
#     4  10  19  31  48  73 105 139 177 220 270 331
#     4  10  20  34  53  77 106 141 183 233 288 341
#     4  10  21  36  53  75 105 143 186 234 288 344
#     4   9  19  37  60  85 115 151 187 225 277 341
#     4   9  18  33  54  80 109 143 182 223 270 328
#     4  10  21  38  59  81 109 147 191 238 288 343
#
# _framework density 22.070826
#
# number of rings (size 3 to 8) (size 9 to 14) (size 15 to 20)
#    0.000    2.143    0.000    3.000    0.000    8.000 
#    0.000    1.429    0.000    5.571    0.000    0.000 
#    0.000    0.000    0.000    0.000    0.000    0.000 
#
# Total GULP energy -311990.912194 kJ/mol
# GULP energy per Si atom -5571.266289 kJ/mol
# Density = 2.202059 g / cm^3
# Si number density = 22.070826 Si / 1000 Ang^3
#
#
#
# Elastic Constant Matrix: (Units=GPa)
#
#
# Indices 1 2 3 4 5 6 
#
# 1 28.1509 5.1185 19.5158 0.0000 0.0000 0.0000
# 2 5.1185 36.2934 45.5431 0.0000 0.0000 0.0000
# 3 19.5158 45.5431 218.8545 0.0000 0.0000 0.0000
# 4 0.0000 0.0000 0.0000 697.8145 0.0000 0.0000
# 5 0.0000 0.0000 0.0000 0.0000 21.0446 0.0000
# 6 0.0000 0.0000 0.0000 0.0000 0.0000 31.2401
#
#
#
# Elastic Compliance Matrix: (Units=1/GPa)
#
#
# Indices 1 2 3 4 5 6 
#
# 1 0.037923 -0.001495 -0.003071 0.000000 0.000000 0.000000
# 2 -0.001495 0.037350 -0.007639 0.000000 0.000000 0.000000
# 3 -0.003071 -0.007639 0.006433 0.000000 0.000000 0.000000
# 4 0.000000 0.000000 0.000000 0.001433 0.000000 0.000000
# 5 0.000000 0.000000 0.000000 0.000000 0.047518 0.000000
# 6 0.000000 0.000000 0.000000 0.000000 0.000000 0.032010
#
#
# Mechanical properties :
#
#
# Convention : Reuss Voigt Hill
#
# Bulk Modulus (GPa) = 17.45312 47.07262 32.26287
# Shear Modulus (GPa) = 24.25105 164.22792 94.23949
#
# Velocity S-wave (km/s) = 3.31839 8.63545 6.54151
# Velocity P-wave (km/s) = 4.75470 10.99101 8.46787
#
# Compressibility (1/GPa) = 0.05729636
#
# Stress axis : x y z
#
# Youngs Moduli (GPa) = 26.36891 26.77361 155.45465
#
# Poissons Ratio (x) = 0.04004 0.47733
# Poissons Ratio (y) = 0.03943 1.18754
# Poissons Ratio (z) = 0.08097 0.20453
#
# Static dielectric constant tensor:
#      x y z
#    x 1.848100 0.000000 0.000000 
#    y 0.000000 1.799500 0.000000 
#    z 0.000000 0.000000 1.989040 
# 
# From -- ./inp_files/20456.got.cif
#   From: 2010.05.17/outbox.cif.g08.bks.cpg/sg53_11_cif.got.tgz:20456.got - 2010.06.03 12:45:16.
