data_PCOD9415581
_publ_section_title
;
Structure prediction by ZEFSAII (Michael W. Deem and Ramdas Pophale) SiO2 
 PCOD9415581
Probable space group: P M N A
;
_chemical_formula_sum "Si O2"
_cell_formula_units_Z 64
_cell_length_a 24.488761
_cell_length_b 9.644543
_cell_length_c 14.945433
_cell_angle_alpha 90.000000
_cell_angle_beta 90.000000
_cell_angle_gamma 90.000000
_cell_volume 3529.855834
_symmetry_space_group_name_H-M "P M N A"
_symmetry_group_IT_number 53
_symmetry_cell_setting 'orthorhombic'
loop_
_space_group_symop_operation_xyz
x,y,z
1/2-x,-y,1/2+z
x,-y,-z
1/2-x,y,1/2-z
-x,-y,-z
1/2+x,y,1/2-z
-x,y,z
1/2+x,-y,1/2+z
loop_
_atom_site_type_symbol
_atom_site_label
_atom_site_fract_x
_atom_site_fract_y
_atom_site_fract_z
Si Si1 0.846465 0.550906 0.215662
Si Si2 0.306288 0.796570 0.193714
Si Si3 0.064855 0.914155 0.912844
Si Si4 0.738031 0.630782 0.438984
Si Si5 0.265950 0.134799 0.442439
Si Si6 0.564893 0.584995 0.591046
Si Si7 0.653204 0.939491 0.720610
Si Si8 0.803531 0.695879 0.687164
O O1 0.851113 0.703783 0.255674
O O2 0.799494 0.565457 0.139351
O O3 0.897966 0.482087 0.168184
O O4 0.824585 0.458650 0.298763
O O5 0.250000 0.791551 0.250000
O O6 0.287237 0.722367 0.102938
O O7 0.326097 0.952833 0.205117
O O8 0.076509 0.749227 0.920383
O O9 0.000000 0.930491 0.903936
O O10 0.097136 0.972668 0.827972
O O11 0.082931 0.000000 0.000000
O O12 0.753970 0.500000 0.500000
O O13 0.705075 0.748054 0.495694
O O14 0.216892 0.227842 0.401647
O O15 0.250758 0.000000 0.500000
O O16 0.302978 0.078080 0.360745
O O17 0.576651 0.500000 0.500000
O O18 0.500000 0.571325 0.609448
O O19 0.651023 0.791807 0.767949
O O20 0.750000 0.702767 0.750000
#
# Coordination Sequence:
#
# PCOD9415581 Si02
#       8
#     8   8   8   8   8   8   8   8
#     4  11  20  34  52  71 103 143 173 210 257 309
#     4  10  21  34  49  73 106 137 174 215 255 306
#     4  10  22  37  53  76 105 137 177 223 261 301
#     4  11  21  33  51  75 105 140 180 216 254 314
#     4  11  21  32  51  75 103 137 178 219 255 313
#     4  10  22  36  53  77 105 136 178 225 258 301
#     4  11  20  34  51  72 104 143 172 210 260 310
#     4  10  19  32  49  70  99 135 173 210 257 307
#
# _framework density 18.131052
#
# number of rings (size 3 to 8) (size 9 to 14) (size 15 to 20)
#    0.000    1.500    1.250    7.500    3.500    0.000 
#    0.000    0.000    0.000    0.000    0.000    0.000 
#    0.000   20.000    0.000    0.000    0.000    0.250 
#
# Total GULP energy -356759.326072 kJ/mol
# GULP energy per Si atom -5574.364470 kJ/mol
# Density = 1.808979 g / cm^3
# Si number density = 18.131052 Si / 1000 Ang^3
#
#
#
# Elastic Constant Matrix: (Units=GPa)
#
#
# Indices 1 2 3 4 5 6 
#
# 1 43.5898 16.1303 12.8645 0.0000 0.0000 0.0000
# 2 16.1303 104.5512 24.1443 0.0000 0.0000 0.0000
# 3 12.8645 24.1443 49.2672 0.0000 0.0000 0.0000
# 4 0.0000 0.0000 0.0000 42.8681 0.0000 0.0000
# 5 0.0000 0.0000 0.0000 0.0000 23.9889 0.0000
# 6 0.0000 0.0000 0.0000 0.0000 0.0000 21.7035
#
#
#
# Elastic Compliance Matrix: (Units=1/GPa)
#
#
# Indices 1 2 3 4 5 6 
#
# 1 0.025517 -0.002704 -0.005338 0.000000 0.000000 0.000000
# 2 -0.002704 0.011072 -0.004720 0.000000 0.000000 0.000000
# 3 -0.005338 -0.004720 0.024004 0.000000 0.000000 0.000000
# 4 0.000000 0.000000 0.000000 0.023327 0.000000 0.000000
# 5 0.000000 0.000000 0.000000 0.000000 0.041686 0.000000
# 6 0.000000 0.000000 0.000000 0.000000 0.000000 0.046076
#
#
# Mechanical properties :
#
#
# Convention : Reuss Voigt Hill
#
# Bulk Modulus (GPa) = 28.51458 33.74293 31.12876
# Shear Modulus (GPa) = 23.93541 27.33005 25.63273
#
# Velocity S-wave (km/s) = 3.63731 3.88669 3.76406
# Velocity P-wave (km/s) = 5.77937 6.22838 6.00807
#
# Compressibility (1/GPa) = 0.03506978
#
# Stress axis : x y z
#
# Youngs Moduli (GPa) = 39.18933 90.31908 41.65923
#
# Poissons Ratio (x) = 0.24424 0.22237
# Poissons Ratio (y) = 0.10597 0.19663
# Poissons Ratio (z) = 0.20918 0.42629
#
# Static dielectric constant tensor:
#      x y z
#    x 1.611370 0.000000 0.000000 
#    y 0.000000 1.653610 0.000000 
#    z 0.000000 0.000000 1.700500 
# 
# From -- ./inp_files/29607.got.cif
#   From: 2010.05.17/outbox.cif.g08.bks.cpg/sg53_15_cif.got.tgz:29607.got - 2010.06.03 12:45:16.
