data_PCOD9415173
_publ_section_title
;
Structure prediction by ZEFSAII (Michael W. Deem and Ramdas Pophale) SiO2 
 PCOD9415173
Probable space group: P M N A
;
_chemical_formula_sum "Si O2"
_cell_formula_units_Z 64
_cell_length_a 8.634512
_cell_length_b 21.697669
_cell_length_c 20.590430
_cell_angle_alpha 90.000000
_cell_angle_beta 90.000000
_cell_angle_gamma 90.000000
_cell_volume 3857.592009
_symmetry_space_group_name_H-M "P M N A"
_symmetry_group_IT_number 53
_symmetry_cell_setting 'orthorhombic'
loop_
_space_group_symop_operation_xyz
x,y,z
1/2-x,-y,1/2+z
x,-y,-z
1/2-x,y,1/2-z
-x,-y,-z
1/2+x,y,1/2-z
-x,y,z
1/2+x,-y,1/2+z
loop_
_atom_site_type_symbol
_atom_site_label
_atom_site_fract_x
_atom_site_fract_y
_atom_site_fract_z
Si Si1 0.313620 0.485043 0.819065
Si Si2 0.685997 0.375961 0.319733
Si Si3 0.686713 0.561036 0.040238
Si Si4 0.186129 0.054123 0.046116
Si Si5 0.325583 0.192991 0.184322
Si Si6 0.173295 0.044763 0.315651
Si Si7 0.683014 0.191958 0.453363
Si Si8 0.312393 0.324842 0.459401
O O1 0.250000 0.461047 0.750000
O O2 0.500000 0.489166 0.815749
O O3 0.245524 0.553838 0.827246
O O4 0.270851 0.447517 0.884012
O O5 0.750000 0.354452 0.250000
O O6 0.500000 0.375317 0.316942
O O7 0.736256 0.339923 0.384840
O O8 0.500000 0.564032 0.036573
O O9 0.735638 0.500000 0.000000
O O10 0.754784 0.621032 0.005834
O O11 0.228243 0.036586 0.119589
O O12 0.247027 0.123588 0.030978
O O13 0.000000 0.056774 0.040491
O O14 0.245474 0.000000 0.000000
O O15 0.250000 0.217094 0.250000
O O16 0.500000 0.216639 0.173201
O O17 0.338449 0.118901 0.191877
O O18 0.214104 0.200863 0.123283
O O19 0.250000 0.020345 0.250000
O O20 0.000000 0.020484 0.324166
O O21 0.500000 0.189488 0.466053
O O22 0.743086 0.256708 0.481473
O O23 0.500000 0.324509 0.459392
#
# Coordination Sequence:
#
# PCOD9415173 Si02
#       8
#     8   8   8   8   8   8   8   8
#     4  10  19  32  50  71  94 121 154 193 236 275
#     4  10  19  30  44  64  91 125 161 192 226 266
#     4  10  20  34  51  71  96 125 156 194 238 279
#     4   9  17  30  49  70  93 125 160 196 240 287
#     4   9  16  26  41  61  85 119 158 191 226 267
#     4   9  16  26  42  65  93 122 153 191 231 273
#     4   9  18  32  45  63  93 122 156 197 235 282
#     4  10  21  33  47  68  94 126 161 198 238 279
#
# _framework density 16.590661000000001
#
# number of rings (size 3 to 8) (size 9 to 14) (size 15 to 20)
#    0.000    2.500    1.250    2.250    0.000    6.000 
#    0.000    1.250    0.000    0.000    0.000    0.875 
#    0.000    2.000    0.000    0.000    0.000    0.000 
#
# Total GULP energy -356501.066185 kJ/mol
# GULP energy per Si atom -5570.329159 kJ/mol
# Density = 1.655290 g / cm^3
# Si number density = 16.590661 Si / 1000 Ang^3
#
#
#
# Elastic Constant Matrix: (Units=GPa)
#
#
# Indices 1 2 3 4 5 6 
#
# 1 15.2746 12.4613 14.7747 0.0000 0.0000 0.0000
# 2 12.4613 111.7320 66.2691 0.0000 0.0000 0.0000
# 3 14.7747 66.2691 100.7397 0.0000 0.0000 0.0000
# 4 0.0000 0.0000 0.0000 1.5793 0.0000 0.0000
# 5 0.0000 0.0000 0.0000 0.0000 23.1633 0.0000
# 6 0.0000 0.0000 0.0000 0.0000 0.0000 7.9633
#
#
#
# Elastic Compliance Matrix: (Units=1/GPa)
#
#
# Indices 1 2 3 4 5 6 
#
# 1 0.076939 -0.003096 -0.009247 0.000000 0.000000 0.000000
# 2 -0.003096 0.014801 -0.009282 0.000000 0.000000 0.000000
# 3 -0.009247 -0.009282 0.017389 0.000000 0.000000 0.000000
# 4 0.000000 0.000000 0.000000 0.633177 0.000000 0.000000
# 5 0.000000 0.000000 0.000000 0.000000 0.043172 0.000000
# 6 0.000000 0.000000 0.000000 0.000000 0.000000 0.125577
#
#
# Mechanical properties :
#
#
# Convention : Reuss Voigt Hill
#
# Bulk Modulus (GPa) = 15.17978 46.08405 30.63192
# Shear Modulus (GPa) = 5.12156 15.49059 10.30608
#
# Velocity S-wave (km/s) = 1.75890 3.05895 2.49509
# Velocity P-wave (km/s) = 3.64615 6.34931 5.17726
#
# Compressibility (1/GPa) = 0.06587712
#
# Stress axis : x y z
#
# Youngs Moduli (GPa) = 12.99732 67.56489 57.50831
#
# Poissons Ratio (x) = 0.20920 0.53180
# Poissons Ratio (y) = 0.04024 0.53380
# Poissons Ratio (z) = 0.12019 0.62714
#
# Static dielectric constant tensor:
#      x y z
#    x 1.577530 0.000000 0.000000 
#    y 0.000000 1.585620 0.000000 
#    z 0.000000 0.000000 1.507370 
# 
# From -- ./inp_files/31169.got.cif
#   From: 2010.05.17/outbox.cif.g08.bks.cpg/sg53_16_cif.got.tgz:31169.got - 2010.06.03 12:45:16.
