data_PCOD9415055
_publ_section_title
;
Structure prediction by ZEFSAII (Michael W. Deem and Ramdas Pophale) SiO2 
 PCOD9415055
Probable space group: P M N A
;
_chemical_formula_sum "Si O2"
_cell_formula_units_Z 56
_cell_length_a 14.991653
_cell_length_b 9.376184
_cell_length_c 19.913391
_cell_angle_alpha 90.000000
_cell_angle_beta 90.000000
_cell_angle_gamma 90.000000
_cell_volume 2799.115789
_symmetry_space_group_name_H-M "P M N A"
_symmetry_group_IT_number 53
_symmetry_cell_setting 'orthorhombic'
loop_
_space_group_symop_operation_xyz
x,y,z
1/2-x,-y,1/2+z
x,-y,-z
1/2-x,y,1/2-z
-x,-y,-z
1/2+x,y,1/2-z
-x,y,z
1/2+x,-y,1/2+z
loop_
_atom_site_type_symbol
_atom_site_label
_atom_site_fract_x
_atom_site_fract_y
_atom_site_fract_z
Si Si1 0.093568 0.586961 0.637467
Si Si2 0.392926 0.048809 0.268915
Si Si3 0.184947 0.334282 0.575991
Si Si4 0.278700 0.787889 0.937870
Si Si5 0.270617 0.052995 0.852323
Si Si6 0.851734 0.614424 0.778530
Si Si7 0.647542 0.549462 0.568944
O O1 0.107930 0.442197 0.596671
O O2 0.170962 0.698788 0.620183
O O3 0.095585 0.550957 0.715791
O O4 0.000000 0.656731 0.620019
O O5 0.500000 0.023272 0.271370
O O6 0.328468 0.966834 0.321573
O O7 0.345931 0.004821 0.198873
O O8 0.374046 0.216889 0.280646
O O9 0.171502 0.253210 0.506094
O O10 0.268765 0.440596 0.568464
O O11 0.207824 0.214957 0.630209
O O12 0.274300 0.950584 0.917143
O O13 0.182445 0.711388 0.942216
O O14 0.750000 0.595669 0.750000
O O15 0.877587 0.550961 0.851631
O O16 0.597929 0.500000 0.500000
#
# Coordination Sequence:
#
# PCOD9415055 Si02
#       7
#     8   8   8   8   8   8   8
#     4  11  22  36  58  89 121 154 197 250 302 361
#     4  11  22  37  60  87 116 154 203 257 305 352
#     4  10  22  34  56  86 121 156 192 240 302 360
#     4  10  18  36  58  84 114 158 201 235 289 367
#     4  11  21  38  59  89 117 156 204 250 295 360
#     4  12  17  35  62  88 113 152 207 247 290 358
#     4   9  18  34  58  87 111 147 197 244 290 355
#
# _framework density 20.006318
#
# number of rings (size 3 to 8) (size 9 to 14) (size 15 to 20)
#    0.000    1.429    7.143    2.143    0.000    4.000 
#    0.000    0.000    0.000    6.857    0.000    0.000 
#    0.000    0.000    0.000    0.000    0.000    0.000 
#
# Total GULP energy -311760.037531 kJ/mol
# GULP energy per Si atom -5567.143527 kJ/mol
# Density = 1.996078 g / cm^3
# Si number density = 20.006318 Si / 1000 Ang^3
#
#
#
# Elastic Constant Matrix: (Units=GPa)
#
#
# Indices 1 2 3 4 5 6 
#
# 1 94.4346 -0.2332 12.7362 0.0000 0.0000 0.0000
# 2 -0.2332 53.4504 -1.0915 0.0000 0.0000 0.0000
# 3 12.7362 -1.0915 110.2898 0.0000 0.0000 0.0000
# 4 0.0000 0.0000 0.0000 30.3617 0.0000 0.0000
# 5 0.0000 0.0000 0.0000 0.0000 -17.9245 0.0000
# 6 0.0000 0.0000 0.0000 0.0000 0.0000 1.5660
#
#
#
# Elastic Compliance Matrix: (Units=1/GPa)
#
#
# Indices 1 2 3 4 5 6 
#
# 1 0.010757 0.000022 -0.001242 0.000000 0.000000 0.000000
# 2 0.000022 0.018713 0.000183 0.000000 0.000000 0.000000
# 3 -0.001242 0.000183 0.009212 0.000000 0.000000 0.000000
# 4 0.000000 0.000000 0.000000 0.032936 0.000000 0.000000
# 5 0.000000 0.000000 0.000000 0.000000 -0.055790 0.000000
# 6 0.000000 0.000000 0.000000 0.000000 0.000000 0.638580
#
#
# Mechanical properties :
#
#
# Convention : Reuss Voigt Hill
#
# Bulk Modulus (GPa) = 27.31756 31.22197 29.26977
# Shear Modulus (GPa) = 7.47735 19.25152 13.36444
#
# Velocity S-wave (km/s) = 1.93536 3.10542 2.58739
# Velocity P-wave (km/s) = 4.32183 5.33836 4.85677
#
# Compressibility (1/GPa) = 0.03660649
#
# Stress axis : x y z
#
# Youngs Moduli (GPa) = 92.96361 53.43948 108.55107
#
# Poissons Ratio (x) = -0.00115 0.13482
# Poissons Ratio (y) = -0.00201 -0.01983
# Poissons Ratio (z) = 0.11546 -0.00976
#
# Static dielectric constant tensor:
#      x y z
#    x 1.737040 0.000000 0.000000 
#    y 0.000000 1.669180 0.000000 
#    z 0.000000 0.000000 1.812870 
# 
# From -- ./inp_files/32484.got.cif
#   From: 2010.05.17/outbox.cif.g08.bks.cpg/sg53_17_cif.got.tgz:32484.got - 2010.06.03 12:45:16.
