data_PCOD9415461
_publ_section_title
;
Structure prediction by ZEFSAII (Michael W. Deem and Ramdas Pophale) SiO2 
 PCOD9415461
Probable space group: P M N A
;
_chemical_formula_sum "Si O2"
_cell_formula_units_Z 64
_cell_length_a 7.705568
_cell_length_b 13.154108
_cell_length_c 30.118221
_cell_angle_alpha 90.000000
_cell_angle_beta 90.000000
_cell_angle_gamma 90.000000
_cell_volume 3052.779076
_symmetry_space_group_name_H-M "P M N A"
_symmetry_group_IT_number 53
_symmetry_cell_setting 'orthorhombic'
loop_
_space_group_symop_operation_xyz
x,y,z
1/2-x,-y,1/2+z
x,-y,-z
1/2-x,y,1/2-z
-x,-y,-z
1/2+x,y,1/2-z
-x,y,z
1/2+x,-y,1/2+z
loop_
_atom_site_type_symbol
_atom_site_label
_atom_site_fract_x
_atom_site_fract_y
_atom_site_fract_z
Si Si1 0.712437 0.045999 0.891061
Si Si2 0.706008 0.867912 0.201049
Si Si3 0.705718 0.570546 0.701587
Si Si4 0.204839 0.645822 0.170664
Si Si5 0.205663 0.370587 0.396001
Si Si6 0.712529 0.160774 0.062343
Si Si7 0.212476 0.790069 0.463807
Si Si8 0.300240 0.587170 0.074206
O O1 0.500000 0.045320 0.891207
O O2 0.772049 0.067971 0.840981
O O3 0.767157 0.137918 0.923338
O O4 0.770118 0.939138 0.911503
O O5 0.750000 0.906149 0.250000
O O6 0.500000 0.865143 0.197509
O O7 0.767373 0.751938 0.194769
O O8 0.750000 0.612515 0.750000
O O9 0.500000 0.571221 0.697944
O O10 0.766829 0.452867 0.697873
O O11 0.773886 0.623645 0.657155
O O12 0.296780 0.639267 0.122985
O O13 0.000000 0.634449 0.162098
O O14 0.273972 0.265694 0.415554
O O15 0.277964 0.475134 0.417705
O O16 0.000000 0.372192 0.405080
O O17 0.500000 0.160069 0.063494
O O18 0.763068 0.162599 0.010784
O O19 0.275445 0.673965 0.457591
O O20 0.000000 0.786570 0.462797
O O21 0.500000 0.572155 0.060221
#
# Coordination Sequence:
#
# PCOD9415461 Si02
#       8
#     8   8   8   8   8   8   8   8
#     4   9  17  30  48  72 104 136 167 211 256 298
#     4  11  21  33  50  74 103 134 167 205 255 306
#     4  10  20  33  51  74  99 132 171 210 252 303
#     4  10  19  31  49  75 105 135 165 202 249 305
#     4   9  18  31  48  73 106 138 167 208 252 300
#     4   9  17  29  48  75 103 134 175 214 253 298
#     4   9  15  26  48  77 104 133 168 211 259 304
#     4   9  16  28  47  74 108 138 163 201 255 301
#
# _framework density 20.964504999999999
#
# number of rings (size 3 to 8) (size 9 to 14) (size 15 to 20)
#    0.000    2.500    1.250    1.875    0.000    4.500 
#    0.000    3.125    0.000    3.750    0.000    4.375 
#    0.000    0.000    0.000    0.000    0.000    0.000 
#
# Total GULP energy -357134.888667 kJ/mol
# GULP energy per Si atom -5580.232635 kJ/mol
# Density = 2.091679 g / cm^3
# Si number density = 20.964505 Si / 1000 Ang^3
#
#
#
# Elastic Constant Matrix: (Units=GPa)
#
#
# Indices 1 2 3 4 5 6 
#
# 1 40.3672 3.7381 -4.6788 0.0000 0.0000 0.0000
# 2 3.7381 118.4032 60.0759 0.0000 0.0000 0.0000
# 3 -4.6788 60.0759 105.8055 0.0000 0.0000 0.0000
# 4 0.0000 0.0000 0.0000-1846.2508 0.0000 0.0000
# 5 0.0000 0.0000 0.0000 0.0000 12.6606 0.0000
# 6 0.0000 0.0000 0.0000 0.0000 0.0000 1.5426
#
#
#
# Elastic Compliance Matrix: (Units=1/GPa)
#
#
# Indices 1 2 3 4 5 6 
#
# 1 0.025205 -0.001912 0.002200 0.000000 0.000000 0.000000
# 2 -0.001912 0.012009 -0.006903 0.000000 0.000000 0.000000
# 3 0.002200 -0.006903 0.013468 0.000000 0.000000 0.000000
# 4 0.000000 0.000000 0.000000 -0.000542 0.000000 0.000000
# 5 0.000000 0.000000 0.000000 0.000000 0.078985 0.000000
# 6 0.000000 0.000000 0.000000 0.000000 0.000000 0.648245
#
#
# Mechanical properties :
#
#
# Convention : Reuss Voigt Hill
#
# Bulk Modulus (GPa) = 26.70107 42.53847 34.61977
# Shear Modulus (GPa) = 6.22601 -352.71345 -173.24372
#
# Velocity S-wave (km/s) = 1.72518 -12.98493 -9.10033
# Velocity P-wave (km/s) = 4.09051 14.29953 9.68876
#
# Compressibility (1/GPa) = 0.03745169
#
# Stress axis : x y z
#
# Youngs Moduli (GPa) = 39.67519 83.27411 74.24971
#
# Poissons Ratio (x) = 0.15923 -0.16337
# Poissons Ratio (y) = 0.07586 0.51254
# Poissons Ratio (z) = -0.08730 0.57484
#
# Static dielectric constant tensor:
#      x y z
#    x 1.790200 0.000000 0.000000 
#    y 0.000000 1.749040 0.000000 
#    z 0.000000 0.000000 1.815890 
# 
# From -- ./inp_files/38310.got.cif
#   From: 2010.05.17/outbox.cif.g08.bks.cpg/sg53_20_cif.got.tgz:38310.got - 2010.06.03 12:45:16.
