data_PCOD9415677
_publ_section_title
;
Structure prediction by ZEFSAII (Michael W. Deem and Ramdas Pophale) SiO2 
 PCOD9415677
Probable space group: P M N A
;
_chemical_formula_sum "Si O2"
_cell_formula_units_Z 56
_cell_length_a 15.098330
_cell_length_b 20.326154
_cell_length_c 8.893084
_cell_angle_alpha 90.000000
_cell_angle_beta 90.000000
_cell_angle_gamma 90.000000
_cell_volume 2729.207270
_symmetry_space_group_name_H-M "P M N A"
_symmetry_group_IT_number 53
_symmetry_cell_setting 'orthorhombic'
loop_
_space_group_symop_operation_xyz
x,y,z
1/2-x,-y,1/2+z
x,-y,-z
1/2-x,y,1/2-z
-x,-y,-z
1/2+x,y,1/2-z
-x,y,z
1/2+x,-y,1/2+z
loop_
_atom_site_type_symbol
_atom_site_label
_atom_site_fract_x
_atom_site_fract_y
_atom_site_fract_z
Si Si1 0.897541 0.402594 0.893834
Si Si2 0.674656 0.057193 0.123318
Si Si3 0.599879 0.525317 0.828106
Si Si4 0.106447 0.142175 0.633658
Si Si5 0.234443 0.639184 0.598410
Si Si6 0.598258 0.031849 0.650241
Si Si7 0.898105 0.704985 0.365089
O O1 0.879337 0.466974 0.790095
O O2 0.894122 0.340286 0.782236
O O3 0.000000 0.408678 0.948181
O O4 0.821928 0.389652 0.016832
O O5 0.750000 0.067218 0.250000
O O6 0.597732 0.025051 0.224744
O O7 0.649721 0.119751 0.023359
O O8 0.690349 0.000000 0.000000
O O9 0.500000 0.548926 0.793969
O O10 0.672610 0.581068 0.837325
O O11 0.597361 0.500000 0.000000
O O12 0.140908 0.094687 0.767848
O O13 0.119031 0.218600 0.667017
O O14 0.000000 0.130071 0.620585
O O15 0.250000 0.681085 0.750000
O O16 0.174712 0.677538 0.478770
O O17 0.500000 0.053683 0.607408
O O18 0.636070 0.000000 0.500000
O O19 0.000000 0.698634 0.423810
#
# Coordination Sequence:
#
# PCOD9415677 Si02
#       7
#     8   8   8   8   8   8   8
#     4  10  23  43  65  90 123 163 207 254 304 367
#     4  10  19  32  51  77 111 146 183 230 282 339
#     4  10  21  38  64  94 121 156 202 255 315 368
#     4   9  19  36  59  83 109 149 194 240 295 358
#     4  12  26  38  63  92 126 163 206 257 313 369
#     4   9  17  32  55  83 111 141 182 231 288 349
#     4  10  21  41  63  84 116 160 210 256 306 367
#
# _framework density 20.518778000000001
#
# number of rings (size 3 to 8) (size 9 to 14) (size 15 to 20)
#    0.000    2.000    1.429    1.714    2.000    3.429 
#    0.000   11.429    0.000    3.429    0.000    0.000 
#    0.000    0.000    0.000    0.000    0.000    0.000 
#
# Total GULP energy -312301.857641 kJ/mol
# GULP energy per Si atom -5576.818886 kJ/mol
# Density = 2.047208 g / cm^3
# Si number density = 20.518778 Si / 1000 Ang^3
#
#
#
# Elastic Constant Matrix: (Units=GPa)
#
#
# Indices 1 2 3 4 5 6 
#
# 1 101.5159 35.5958 57.5709 0.0000 0.0000 0.0000
# 2 35.5958 96.4657 42.8931 0.0000 0.0000 0.0000
# 3 57.5709 42.8931 143.5070 0.0000 0.0000 0.0000
# 4 0.0000 0.0000 0.0000 0.4121 0.0000 0.0000
# 5 0.0000 0.0000 0.0000 0.0000 53.6658 0.0000
# 6 0.0000 0.0000 0.0000 0.0000 0.0000 92.4182
#
#
#
# Elastic Compliance Matrix: (Units=1/GPa)
#
#
# Indices 1 2 3 4 5 6 
#
# 1 0.013445 -0.002956 -0.004510 0.000000 0.000000 0.000000
# 2 -0.002956 0.012605 -0.002582 0.000000 0.000000 0.000000
# 3 -0.004510 -0.002582 0.009549 0.000000 0.000000 0.000000
# 4 0.000000 0.000000 0.000000 2.426414 0.000000 0.000000
# 5 0.000000 0.000000 0.000000 0.000000 0.018634 0.000000
# 6 0.000000 0.000000 0.000000 0.000000 0.000000 0.010820
#
#
# Mechanical properties :
#
#
# Convention : Reuss Voigt Hill
#
# Bulk Modulus (GPa) = 64.50047 68.17868 66.33958
# Shear Modulus (GPa) = 1.98670 42.99448 22.49059
#
# Velocity S-wave (km/s) = 0.98506 4.58249 3.31433
# Velocity P-wave (km/s) = 5.72686 7.82934 6.85913
#
# Compressibility (1/GPa) = 0.01550376
#
# Stress axis : x y z
#
# Youngs Moduli (GPa) = 74.37768 79.33348 104.71888
#
# Poissons Ratio (x) = 0.23448 0.47231
# Poissons Ratio (y) = 0.21984 0.27036
# Poissons Ratio (z) = 0.33546 0.20482
#
# Static dielectric constant tensor:
#      x y z
#    x 1.787230 0.000000 0.000000 
#    y 0.000000 1.713290 0.000000 
#    z 0.000000 0.000000 1.938220 
# 
# From -- ./inp_files/8831.got.cif
#   From: 2010.05.17/outbox.cif.g08.bks.cpg/sg53_5_cif.got.tgz:8831.got - 2010.06.03 12:45:16.
