data_PCOD9415466
_publ_section_title
;
Structure prediction by ZEFSAII (Michael W. Deem and Ramdas Pophale) SiO2 
 PCOD9415466
Probable space group: P M N A
;
_chemical_formula_sum "Si O2"
_cell_formula_units_Z 64
_cell_length_a 7.980715
_cell_length_b 20.268301
_cell_length_c 19.650410
_cell_angle_alpha 90.000000
_cell_angle_beta 90.000000
_cell_angle_gamma 90.000000
_cell_volume 3178.562559
_symmetry_space_group_name_H-M "P M N A"
_symmetry_group_IT_number 53
_symmetry_cell_setting 'orthorhombic'
loop_
_space_group_symop_operation_xyz
x,y,z
1/2-x,-y,1/2+z
x,-y,-z
1/2-x,y,1/2-z
-x,-y,-z
1/2+x,y,1/2-z
-x,y,z
1/2+x,-y,1/2+z
loop_
_atom_site_type_symbol
_atom_site_label
_atom_site_fract_x
_atom_site_fract_y
_atom_site_fract_z
Si Si1 0.701976 0.151657 0.409243
Si Si2 0.799627 0.877251 0.326544
Si Si3 0.298336 0.721491 0.672120
Si Si4 0.801046 0.026511 0.326367
Si Si5 0.704770 0.593020 0.589113
Si Si6 0.700084 0.786891 0.450621
Si Si7 0.294905 0.636182 0.441750
Si Si8 0.202066 0.536084 0.171120
O O1 0.500000 0.153556 0.410111
O O2 0.762298 0.208902 0.357838
O O3 0.749262 0.080262 0.381466
O O4 0.764122 0.172528 0.483971
O O5 0.750000 0.858378 0.250000
O O6 0.733988 0.827030 0.382416
O O7 0.000000 0.878271 0.331102
O O8 0.734158 0.952237 0.338136
O O9 0.250000 0.712623 0.750000
O O10 0.500000 0.722003 0.667724
O O11 0.240377 0.660202 0.626336
O O12 0.750000 0.047442 0.250000
O O13 0.000000 0.022292 0.327116
O O14 0.500000 0.591978 0.589648
O O15 0.754618 0.596903 0.510133
O O16 0.761668 0.529875 0.632042
O O17 0.500000 0.781265 0.459631
O O18 0.763908 0.711777 0.447115
O O19 0.500000 0.637163 0.441090
O O20 0.240014 0.598398 0.373822
O O21 0.250000 0.537619 0.250000
O O22 0.000000 0.535254 0.168543
#
# Coordination Sequence:
#
# PCOD9415466 Si02
#       8
#     8   8   8   8   8   8   8   8
#     4  10  20  34  53  78 111 147 181 221 269 324
#     4  10  22  40  60  82 108 140 181 228 276 326
#     4  10  19  31  49  75 107 142 178 219 263 312
#     4  10  21  37  57  80 109 144 182 226 273 324
#     4   9  16  31  54  78 104 138 182 224 261 312
#     4  10  20  36  58  82 110 144 183 227 272 323
#     4   9  17  33  56  80 105 140 185 226 265 315
#     4  10  20  33  54  81 108 140 179 225 272 319
#
# _framework density 20.134888
#
# number of rings (size 3 to 8) (size 9 to 14) (size 15 to 20)
#    0.000    2.250    1.250    1.875    0.000    6.000 
#    0.000    4.375    0.000    3.000    0.000    0.000 
#    0.000    0.000    0.000    0.000    0.000    0.000 
#
# Total GULP energy -357318.487728 kJ/mol
# GULP energy per Si atom -5583.101371 kJ/mol
# Density = 2.008906 g / cm^3
# Si number density = 20.134888 Si / 1000 Ang^3
#
#
#
# Elastic Constant Matrix: (Units=GPa)
#
#
# Indices 1 2 3 4 5 6 
#
# 1 13.6821 4.3682 -0.1485 0.0000 0.0000 0.0000
# 2 4.3682 96.6183 94.4230 0.0000 0.0000 0.0000
# 3 -0.1485 94.4230 167.1172 0.0000 0.0000 0.0000
# 4 0.0000 0.0000 0.0000 38.9855 0.0000 0.0000
# 5 0.0000 0.0000 0.0000 0.0000 27.7279 0.0000
# 6 0.0000 0.0000 0.0000 0.0000 0.0000 2.8166
#
#
#
# Elastic Compliance Matrix: (Units=1/GPa)
#
#
# Indices 1 2 3 4 5 6 
#
# 1 0.075621 -0.007781 0.004464 0.000000 0.000000 0.000000
# 2 -0.007781 0.023912 -0.013518 0.000000 0.000000 0.000000
# 3 0.004464 -0.013518 0.013625 0.000000 0.000000 0.000000
# 4 0.000000 0.000000 0.000000 0.025651 0.000000 0.000000
# 5 0.000000 0.000000 0.000000 0.000000 0.036065 0.000000
# 6 0.000000 0.000000 0.000000 0.000000 0.000000 0.355037
#
#
# Mechanical properties :
#
#
# Convention : Reuss Voigt Hill
#
# Bulk Modulus (GPa) = 12.58048 52.74478 32.66263
# Shear Modulus (GPa) = 8.47348 25.82435 17.14892
#
# Velocity S-wave (km/s) = 2.05365 3.58518 2.92156
# Velocity P-wave (km/s) = 3.44746 6.58715 5.25717
#
# Compressibility (1/GPa) = 0.07948822
#
# Stress axis : x y z
#
# Youngs Moduli (GPa) = 13.22389 41.81962 73.39255
#
# Poissons Ratio (x) = 0.32540 -0.32759
# Poissons Ratio (y) = 0.10290 0.99209
# Poissons Ratio (z) = -0.05903 0.56530
#
# Static dielectric constant tensor:
#      x y z
#    x 1.736550 0.000000 0.000000 
#    y 0.000000 1.715250 0.000000 
#    z 0.000000 0.000000 1.683830 
# 
# From -- ./inp_files/26988.got.cif
#   From: 2010.05.17/outbox.cif.g08.bks.cpg/sg53_14_cif.got.tgz:26988.got - 2010.06.03 12:45:16.
