data_PCOD9415519
_publ_section_title
;
Structure prediction by ZEFSAII (Michael W. Deem and Ramdas Pophale) SiO2 
 PCOD9415519
Probable space group: P M N A
;
_chemical_formula_sum "Si O2"
_cell_formula_units_Z 56
_cell_length_a 14.419428
_cell_length_b 31.779932
_cell_length_c 5.306658
_cell_angle_alpha 90.000000
_cell_angle_beta 90.000000
_cell_angle_gamma 90.000000
_cell_volume 2431.767757
_symmetry_space_group_name_H-M "P M N A"
_symmetry_group_IT_number 53
_symmetry_cell_setting 'orthorhombic'
loop_
_space_group_symop_operation_xyz
x,y,z
1/2-x,-y,1/2+z
x,-y,-z
1/2-x,y,1/2-z
-x,-y,-z
1/2+x,y,1/2-z
-x,y,z
1/2+x,-y,1/2+z
loop_
_atom_site_type_symbol
_atom_site_label
_atom_site_fract_x
_atom_site_fract_y
_atom_site_fract_z
Si Si1 0.887156 0.681894 0.907439
Si Si2 0.112483 0.904255 0.426252
Si Si3 0.355535 0.777499 0.682648
Si Si4 0.354462 0.809524 0.182157
Si Si5 0.610114 0.363557 0.908688
Si Si6 0.113364 0.953178 0.926084
Si Si7 0.186975 0.454100 0.501040
O O1 0.859124 0.730387 0.922325
O O2 0.853398 0.663415 0.642483
O O3 0.000000 0.680922 0.905918
O O4 0.854212 0.653326 0.140646
O O5 0.145729 0.856382 0.428826
O O6 0.143287 0.933411 0.659596
O O7 0.000000 0.903068 0.434962
O O8 0.139816 0.923591 0.158252
O O9 0.250000 0.789892 0.750000
O O10 0.396999 0.806601 0.462466
O O11 0.397973 0.781084 0.962682
O O12 0.250000 0.795602 0.250000
O O13 0.500000 0.357134 0.900359
O O14 0.627364 0.412326 0.967709
O O15 0.000000 0.954853 0.915722
O O16 0.145119 0.000000 0.000000
O O17 0.138318 0.500000 0.500000
O O18 0.250000 0.450549 0.250000
O O19 0.250000 0.455005 0.750000
#
# Coordination Sequence:
#
# PCOD9415519 Si02
#       7
#     8   8   8   8   8   8   8
#     4  10  21  36  55  80 109 140 177 224 273 321
#     4  10  19  31  51  77 100 130 172 209 250 307
#     4  10  21  36  53  74 101 136 177 215 260 318
#     4  10  21  36  52  73 103 137 172 214 262 310
#     4  10  21  37  56  81 112 145 181 221 274 334
#     4   9  17  30  49  75 105 131 161 207 255 300
#     4  10  21  37  57  83 113 145 185 230 272 317
#
# _framework density 23.028514000000001
#
# number of rings (size 3 to 8) (size 9 to 14) (size 15 to 20)
#    0.000    2.143    0.000    3.000    0.000    4.857 
#    0.000    0.000    0.000    6.857    0.000    0.000 
#    0.000    0.000    0.000    0.000    0.000    0.000 
#
# Total GULP energy -312849.273204 kJ/mol
# GULP energy per Si atom -5586.594164 kJ/mol
# Density = 2.297610 g / cm^3
# Si number density = 23.028514 Si / 1000 Ang^3
#
#
#
# Elastic Constant Matrix: (Units=GPa)
#
#
# Indices 1 2 3 4 5 6 
#
# 1 52.3261 -18.4187 6.8532 0.0000 0.0000 0.0000
# 2 -18.4187 120.0601 43.3716 0.0000 0.0000 0.0000
# 3 6.8532 43.3716 191.7242 0.0000 0.0000 0.0000
# 4 0.0000 0.0000 0.0000 46.0986 0.0000 0.0000
# 5 0.0000 0.0000 0.0000 0.0000 -1.8267 0.0000
# 6 0.0000 0.0000 0.0000 0.0000 0.0000 35.1008
#
#
#
# Elastic Compliance Matrix: (Units=1/GPa)
#
#
# Indices 1 2 3 4 5 6 
#
# 1 0.020634 0.003737 -0.001583 0.000000 0.000000 0.000000
# 2 0.003737 0.009747 -0.002339 0.000000 0.000000 0.000000
# 3 -0.001583 -0.002339 0.005801 0.000000 0.000000 0.000000
# 4 0.000000 0.000000 0.000000 0.021693 0.000000 0.000000
# 5 0.000000 0.000000 0.000000 0.000000 -0.547444 0.000000
# 6 0.000000 0.000000 0.000000 0.000000 0.000000 0.028489
#
#
# Mechanical properties :
#
#
# Convention : Reuss Voigt Hill
#
# Bulk Modulus (GPa) = 27.92206 47.52472 37.72339
# Shear Modulus (GPa) = -11.14150 38.02816 13.44333
#
# Velocity S-wave (km/s) = -2.20196 4.06809 2.41875
# Velocity P-wave (km/s) = 2.38463 6.53819 4.92110
#
# Compressibility (1/GPa) = 0.03581398
#
# Stress axis : x y z
#
# Youngs Moduli (GPa) = 48.46424 102.59210 172.37071
#
# Poissons Ratio (x) = -0.38342 0.27286
# Poissons Ratio (y) = -0.18113 0.40311
# Poissons Ratio (z) = 0.07672 0.23992
#
# Static dielectric constant tensor:
#      x y z
#    x 1.886920 0.000000 0.000000 
#    y 0.000000 1.825820 0.000000 
#    z 0.000000 0.000000 1.902360 
# 
# From -- ./inp_files/1479.got.cif
#   From: 2010.05.17/outbox.cif.g08.bks.cpg/sg53_1_cif.got.tgz:1479.got - 2010.06.03 12:45:16.
