data_PCOD9415175
_publ_section_title
;
Structure prediction by ZEFSAII (Michael W. Deem and Ramdas Pophale) SiO2 
 PCOD9415175
Probable space group: P M N A
;
_chemical_formula_sum "Si O2"
_cell_formula_units_Z 48
_cell_length_a 7.278774
_cell_length_b 12.695258
_cell_length_c 22.415507
_cell_angle_alpha 90.000000
_cell_angle_beta 90.000000
_cell_angle_gamma 90.000000
_cell_volume 2071.325409
_symmetry_space_group_name_H-M "P M N A"
_symmetry_group_IT_number 53
_symmetry_cell_setting 'orthorhombic'
loop_
_space_group_symop_operation_xyz
x,y,z
1/2-x,-y,1/2+z
x,-y,-z
1/2-x,y,1/2-z
-x,-y,-z
1/2+x,y,1/2-z
-x,y,z
1/2+x,-y,1/2+z
loop_
_atom_site_type_symbol
_atom_site_label
_atom_site_fract_x
_atom_site_fract_y
_atom_site_fract_z
Si Si1 0.277070 0.614251 0.477069
Si Si2 0.776649 0.639689 0.159512
Si Si3 0.723793 0.246800 0.414973
Si Si4 0.717698 0.592219 0.685025
Si Si5 0.219151 0.871130 0.183631
Si Si6 0.776066 0.990207 0.929879
O O1 0.215680 0.500000 0.500000
O O2 0.500000 0.611337 0.478003
O O3 0.225282 0.636049 0.409845
O O4 0.219967 0.705666 0.521623
O O5 0.709965 0.527563 0.184375
O O6 0.710306 0.750512 0.185027
O O7 0.000000 0.640077 0.164527
O O8 0.500000 0.246642 0.413404
O O9 0.788274 0.329490 0.365404
O O10 0.778871 0.126547 0.408708
O O11 0.750000 0.638383 0.750000
O O12 0.500000 0.583224 0.674053
O O13 0.250000 0.918898 0.250000
O O14 0.284292 0.929944 0.123016
O O15 0.000000 0.866682 0.176711
O O16 0.000000 0.997033 0.931502
O O17 0.719254 0.000000 0.000000
#
# Coordination Sequence:
#
# PCOD9415175 Si02
#       6
#     8   8   8   8   8   8
#     4   9  13  21  40  67  95 117 142 187 242 283
#     4   9  16  27  44  68  96 122 152 193 238 282
#     4   9  16  26  42  66  93 118 148 188 235 280
#     4  10  19  30  44  65  93 123 153 185 224 272
#     4  10  20  33  50  72  99 131 166 202 244 294
#     4   9  17  30  48  71  98 125 158 205 252 287
#
# _framework density 23.173570000000002
#
# number of rings (size 3 to 8) (size 9 to 14) (size 15 to 20)
#    0.000    2.667    1.667    1.500    0.000    4.667 
#    0.000    0.000    0.000    0.500    0.000    5.833 
#    0.000    0.000    0.000    0.000    0.000    0.000 
#
# Total GULP energy -267983.409551 kJ/mol
# GULP energy per Si atom -5582.987699 kJ/mol
# Density = 2.312083 g / cm^3
# Si number density = 23.173570 Si / 1000 Ang^3
#
#
#
# Elastic Constant Matrix: (Units=GPa)
#
#
# Indices 1 2 3 4 5 6 
#
# 1 101.7181 5.7236 -5.1423 0.0000 0.0000 0.0000
# 2 5.7236 132.8811 67.1977 0.0000 0.0000 0.0000
# 3 -5.1423 67.1977 181.4850 0.0000 0.0000 0.0000
# 4 0.0000 0.0000 0.0000 21.4115 0.0000 0.0000
# 5 0.0000 0.0000 0.0000 0.0000 3.5193 0.0000
# 6 0.0000 0.0000 0.0000 0.0000 0.0000 -23.8785
#
#
#
# Elastic Compliance Matrix: (Units=1/GPa)
#
#
# Indices 1 2 3 4 5 6 
#
# 1 0.009898 -0.000699 0.000539 0.000000 0.000000 0.000000
# 2 -0.000699 0.009309 -0.003466 0.000000 0.000000 0.000000
# 3 0.000539 -0.003466 0.006809 0.000000 0.000000 0.000000
# 4 0.000000 0.000000 0.000000 0.046704 0.000000 0.000000
# 5 0.000000 0.000000 0.000000 0.000000 0.284149 0.000000
# 6 0.000000 0.000000 0.000000 0.000000 0.000000 -0.041879
#
#
# Mechanical properties :
#
#
# Convention : Reuss Voigt Hill
#
# Bulk Modulus (GPa) = 53.29713 61.29359 57.29536
# Shear Modulus (GPa) = 15.22089 23.43078 19.32583
#
# Velocity S-wave (km/s) = 2.56563 3.18323 2.89097
# Velocity P-wave (km/s) = 5.64142 6.32596 5.99347
#
# Compressibility (1/GPa) = 0.01876274
#
# Stress axis : x y z
#
# Youngs Moduli (GPa) = 101.03370 107.42722 146.86665
#
# Poissons Ratio (x) = 0.07510 -0.07920
# Poissons Ratio (y) = 0.07063 0.50911
# Poissons Ratio (z) = -0.05449 0.37239
#
# Static dielectric constant tensor:
#      x y z
#    x 1.931770 0.000000 0.000000 
#    y 0.000000 1.841400 0.000000 
#    z 0.000000 0.000000 1.841900 
# 
# From -- ./inp_files/27562.got.cif
#   From: 2010.05.17/outbox.cif.g08.bks.cpg/sg53_14_cif.got.tgz:27562.got - 2010.06.03 12:45:16.
