data_PCOD9415476
_publ_section_title
;
Structure prediction by ZEFSAII (Michael W. Deem and Ramdas Pophale) SiO2 
 PCOD9415476
Probable space group: P M N A
;
_chemical_formula_sum "Si O2"
_cell_formula_units_Z 56
_cell_length_a 9.686677
_cell_length_b 15.434686
_cell_length_c 20.943125
_cell_angle_alpha 90.000000
_cell_angle_beta 90.000000
_cell_angle_gamma 90.000000
_cell_volume 3131.223748
_symmetry_space_group_name_H-M "P M N A"
_symmetry_group_IT_number 53
_symmetry_cell_setting 'orthorhombic'
loop_
_space_group_symop_operation_xyz
x,y,z
1/2-x,-y,1/2+z
x,-y,-z
1/2-x,y,1/2-z
-x,-y,-z
1/2+x,y,1/2-z
-x,y,z
1/2+x,-y,1/2+z
loop_
_atom_site_type_symbol
_atom_site_label
_atom_site_fract_x
_atom_site_fract_y
_atom_site_fract_z
Si Si1 0.332444 0.585714 0.459432
Si Si2 0.844299 0.186790 0.126417
Si Si3 0.334368 0.443265 0.686911
Si Si4 0.844030 0.354842 0.194822
Si Si5 0.337054 0.954546 0.811393
Si Si6 0.337456 0.063878 0.940967
Si Si7 0.161183 0.217819 0.981380
O O1 0.284749 0.500000 0.500000
O O2 0.500000 0.580446 0.461396
O O3 0.294249 0.588109 0.383988
O O4 0.293510 0.681450 0.484572
O O5 0.835082 0.289809 0.136714
O O6 0.731230 0.135857 0.166258
O O7 0.830370 0.175330 0.051417
O O8 0.000000 0.160323 0.146490
O O9 0.250000 0.413182 0.750000
O O10 0.500000 0.429592 0.695764
O O11 0.307944 0.546569 0.681289
O O12 0.750000 0.318712 0.250000
O O13 0.000000 0.355281 0.218513
O O14 0.250000 0.984758 0.750000
O O15 0.500000 0.946623 0.797498
O O16 0.320421 0.015208 0.873573
O O17 0.500000 0.082413 0.950541
O O18 0.252943 0.153173 0.939950
O O19 0.296503 0.000000 0.000000
O O20 0.000000 0.217679 0.961425
#
# Coordination Sequence:
#
# PCOD9415476 Si02
#       7
#     8   8   8   8   8   8   8
#     4   9  17  32  55  83 113 145 184 231 280 327
#     4  10  19  31  49  77 110 139 174 222 277 331
#     4   9  17  31  51  72 101 142 184 225 271 324
#     4   9  17  28  43  67  99 136 175 215 264 324
#     4  11  23  38  57  80 109 144 182 225 276 332
#     4  10  21  40  60  79 108 147 184 221 275 336
#     4  10  20  33  56  86 109 139 187 235 274 323
#
# _framework density 17.884381000000001
#
# number of rings (size 3 to 8) (size 9 to 14) (size 15 to 20)
#    0.000    2.286    1.429    1.714    0.000    6.571 
#    0.000    1.429    0.000    6.857    0.000    0.000 
#    0.000    0.000    0.000    0.000    0.000    0.000 
#
# Total GULP energy -311737.879511 kJ/mol
# GULP energy per Si atom -5566.747848 kJ/mol
# Density = 1.784368 g / cm^3
# Si number density = 17.884381 Si / 1000 Ang^3
#
#
#
# Elastic Constant Matrix: (Units=GPa)
#
#
# Indices 1 2 3 4 5 6 
#
# 1 50.5043 40.8908 44.4174 0.0000 0.0000 0.0000
# 2 40.8908 80.1732 31.4370 0.0000 0.0000 0.0000
# 3 44.4174 31.4370 97.3794 0.0000 0.0000 0.0000
# 4 0.0000 0.0000 0.0000 24.0422 0.0000 0.0000
# 5 0.0000 0.0000 0.0000 0.0000 25.4749 0.0000
# 6 0.0000 0.0000 0.0000 0.0000 0.0000 20.7921
#
#
#
# Elastic Compliance Matrix: (Units=1/GPa)
#
#
# Indices 1 2 3 4 5 6 
#
# 1 0.049562 -0.018793 -0.016540 0.000000 0.000000 0.000000
# 2 -0.018793 0.021407 0.001661 0.000000 0.000000 0.000000
# 3 -0.016540 0.001661 0.017277 0.000000 0.000000 0.000000
# 4 0.000000 0.000000 0.000000 0.041594 0.000000 0.000000
# 5 0.000000 0.000000 0.000000 0.000000 0.039254 0.000000
# 6 0.000000 0.000000 0.000000 0.000000 0.000000 0.048095
#
#
# Mechanical properties :
#
#
# Convention : Reuss Voigt Hill
#
# Bulk Modulus (GPa) = 47.83978 51.28303 49.56140
# Shear Modulus (GPa) = 17.15270 21.48262 19.31766
#
# Velocity S-wave (km/s) = 3.10027 3.46959 3.29012
# Velocity P-wave (km/s) = 6.29469 6.69236 6.49657
#
# Compressibility (1/GPa) = 0.02090311
#
# Stress axis : x y z
#
# Youngs Moduli (GPa) = 20.17665 46.71477 57.88025
#
# Poissons Ratio (x) = 0.87790 0.95733
# Poissons Ratio (y) = 0.37918 -0.09615
# Poissons Ratio (z) = 0.33372 -0.07760
#
# Static dielectric constant tensor:
#      x y z
#    x 1.640690 0.000000 0.000000 
#    y 0.000000 1.622990 0.000000 
#    z 0.000000 0.000000 1.667850 
# 
# From -- ./inp_files/30745.got.cif
#   From: 2010.05.17/outbox.cif.g08.bks.cpg/sg53_16_cif.got.tgz:30745.got - 2010.06.03 12:45:16.
