data_PCOD9415884
_publ_section_title
;
Structure prediction by ZEFSAII (Michael W. Deem and Ramdas Pophale) SiO2 
 PCOD9415884
Probable space group: P M N A
;
_chemical_formula_sum "Si O2"
_cell_formula_units_Z 64
_cell_length_a 9.022350
_cell_length_b 21.792314
_cell_length_c 18.627632
_cell_angle_alpha 90.000000
_cell_angle_beta 90.000000
_cell_angle_gamma 90.000000
_cell_volume 3662.525592
_symmetry_space_group_name_H-M "P M N A"
_symmetry_group_IT_number 53
_symmetry_cell_setting 'orthorhombic'
loop_
_space_group_symop_operation_xyz
x,y,z
1/2-x,-y,1/2+z
x,-y,-z
1/2-x,y,1/2-z
-x,-y,-z
1/2+x,y,1/2-z
-x,y,z
1/2+x,-y,1/2+z
loop_
_atom_site_type_symbol
_atom_site_label
_atom_site_fract_x
_atom_site_fract_y
_atom_site_fract_z
Si Si1 0.821222 0.639871 0.329240
Si Si2 0.679584 0.744546 0.924034
Si Si3 0.670466 0.125679 0.914877
Si Si4 0.677667 0.494465 0.828698
Si Si5 0.830162 0.001929 0.912405
Si Si6 0.321677 0.628100 0.828489
Si Si7 0.176916 0.251280 0.919394
Si Si8 0.170184 0.120944 0.410129
O O1 0.750000 0.641540 0.250000
O O2 0.784839 0.571940 0.361523
O O3 0.751067 0.694593 0.374148
O O4 0.000000 0.645929 0.325525
O O5 0.500000 0.744636 0.936158
O O6 0.720372 0.685875 0.876849
O O7 0.715516 0.810356 0.887821
O O8 0.762925 0.742000 0.999546
O O9 0.500000 0.133916 0.893544
O O10 0.766685 0.184486 0.893294
O O11 0.734607 0.060656 0.889605
O O12 0.674054 0.123248 0.002401
O O13 0.750000 0.494665 0.750000
O O14 0.500000 0.494345 0.820914
O O15 0.718380 0.560867 0.861088
O O16 0.767931 0.936558 0.886980
O O17 0.000000 0.010283 0.891422
O O18 0.824809 0.000000 0.000000
O O19 0.250000 0.632644 0.750000
O O20 0.500000 0.629822 0.820986
O O21 0.000000 0.254324 0.916856
O O22 0.000000 0.110021 0.389159
#
# Coordination Sequence:
#
# PCOD9415884 Si02
#       8
#     8   8   8   8   8   8   8   8
#     4  10  19  33  52  73  96 123 157 195 236 282
#     4   9  18  32  48  67  96 131 162 194 236 286
#     4   9  16  27  42  60  86 120 154 189 232 280
#     4   8  15  28  48  71  93 119 153 194 236 278
#     4   9  15  22  35  58  86 115 149 190 232 273
#     4   9  17  31  51  74  97 123 158 198 239 282
#     4  11  21  32  47  69  97 127 159 196 239 284
#     4   8  14  24  38  57  83 118 155 189 229 275
#
# _framework density 17.474281000000001
#
# number of rings (size 3 to 8) (size 9 to 14) (size 15 to 20)
#    0.000    2.875    0.000    3.000    0.000    5.500 
#    0.000    0.625    0.000    3.750    0.000    0.875 
#    0.000    2.000    0.000    0.000    0.000    0.000 
#
# Total GULP energy -356311.411257 kJ/mol
# GULP energy per Si atom -5567.365801 kJ/mol
# Density = 1.743451 g / cm^3
# Si number density = 17.474281 Si / 1000 Ang^3
#
#
#
# Elastic Constant Matrix: (Units=GPa)
#
#
# Indices 1 2 3 4 5 6 
#
# 1 77.0575 70.6969 20.5078 0.0000 0.0000 0.0000
# 2 70.6969 192.5134 37.9234 0.0000 0.0000 0.0000
# 3 20.5078 37.9234 16.9505 0.0000 0.0000 0.0000
# 4 0.0000 0.0000 0.0000 53.4903 0.0000 0.0000
# 5 0.0000 0.0000 0.0000 0.0000 14.8991 0.0000
# 6 0.0000 0.0000 0.0000 0.0000 0.0000 22.2628
#
#
#
# Elastic Compliance Matrix: (Units=1/GPa)
#
#
# Indices 1 2 3 4 5 6 
#
# 1 0.021493 -0.004954 -0.014921 0.000000 0.000000 0.000000
# 2 -0.004954 0.010430 -0.017341 0.000000 0.000000 0.000000
# 3 -0.014921 -0.017341 0.115844 0.000000 0.000000 0.000000
# 4 0.000000 0.000000 0.000000 0.018695 0.000000 0.000000
# 5 0.000000 0.000000 0.000000 0.000000 0.067118 0.000000
# 6 0.000000 0.000000 0.000000 0.000000 0.000000 0.044918
#
#
# Mechanical properties :
#
#
# Convention : Reuss Voigt Hill
#
# Bulk Modulus (GPa) = 13.63582 60.53082 37.08332
# Shear Modulus (GPa) = 13.24945 28.62334 20.93640
#
# Velocity S-wave (km/s) = 2.75658 4.05165 3.46515
# Velocity P-wave (km/s) = 4.23697 7.52349 6.10552
#
# Compressibility (1/GPa) = 0.07333627
#
# Stress axis : x y z
#
# Youngs Moduli (GPa) = 46.52666 95.88122 8.63227
#
# Poissons Ratio (x) = 0.47496 0.12880
# Poissons Ratio (y) = 0.23048 0.14969
# Poissons Ratio (z) = 0.69422 1.66267
#
# Static dielectric constant tensor:
#      x y z
#    x 1.581040 0.000000 0.000000 
#    y 0.000000 1.643690 0.000000 
#    z 0.000000 0.000000 1.589250 
# 
# From -- ./inp_files/26782.got.cif
#   From: 2010.05.17/outbox.cif.g08.bks.cpg/sg53_14_cif.got.tgz:26782.got - 2010.06.03 12:45:16.
