data_PCOD9415612
_publ_section_title
;
Structure prediction by ZEFSAII (Michael W. Deem and Ramdas Pophale) SiO2 
 PCOD9415612
Probable space group: P M N A
;
_chemical_formula_sum "Si O2"
_cell_formula_units_Z 64
_cell_length_a 8.662327
_cell_length_b 16.015463
_cell_length_c 29.331526
_cell_angle_alpha 90.000000
_cell_angle_beta 90.000000
_cell_angle_gamma 90.000000
_cell_volume 4069.197142
_symmetry_space_group_name_H-M "P M N A"
_symmetry_group_IT_number 53
_symmetry_cell_setting 'orthorhombic'
loop_
_space_group_symop_operation_xyz
x,y,z
1/2-x,-y,1/2+z
x,-y,-z
1/2-x,y,1/2-z
-x,-y,-z
1/2+x,y,1/2-z
-x,y,z
1/2+x,-y,1/2+z
loop_
_atom_site_type_symbol
_atom_site_label
_atom_site_fract_x
_atom_site_fract_y
_atom_site_fract_z
Si Si1 0.814918 0.010578 0.301448
Si Si2 0.815876 0.816498 0.801545
Si Si3 0.186871 0.401389 0.052216
Si Si4 0.813690 0.669448 0.144581
Si Si5 0.812704 0.403143 0.949765
Si Si6 0.316154 0.341199 0.144837
Si Si7 0.685629 0.500552 0.301076
Si Si8 0.815450 0.825633 0.301334
O O1 0.750000 0.008367 0.250000
O O2 0.741947 0.094604 0.321411
O O3 0.000000 0.019201 0.300637
O O4 0.774996 0.918506 0.319912
O O5 0.750000 0.808377 0.750000
O O6 0.755151 0.739902 0.831242
O O7 0.000000 0.815956 0.799079
O O8 0.228510 0.499568 0.057773
O O9 0.263183 0.349896 0.092540
O O10 0.000000 0.395640 0.055774
O O11 0.234493 0.377505 0.000734
O O12 0.760117 0.651726 0.092849
O O13 0.773092 0.587570 0.174281
O O14 0.746307 0.751812 0.167323
O O15 0.000000 0.675491 0.144560
O O16 0.000000 0.401778 0.949721
O O17 0.500000 0.338505 0.148274
O O18 0.253147 0.422984 0.170923
O O19 0.750000 0.499613 0.250000
O O20 0.500000 0.493718 0.300582
O O21 0.750000 0.816800 0.250000
O O22 0.000000 0.821190 0.298261
#
# Coordination Sequence:
#
# PCOD9415612 Si02
#       8
#     8   8   8   8   8   8   8   8
#     4   9  17  31  49  70  96 125 160 200 243 285
#     4  11  21  34  52  73  98 128 163 201 243 289
#     4   9  16  32  54  72  93 123 163 204 246 289
#     4  10  19  32  50  72  97 128 165 201 240 286
#     4   8  15  30  53  74  93 123 161 204 247 289
#     4  12  23  34  48  70  99 130 164 200 242 289
#     4  11  22  35  48  65  95 132 170 203 238 281
#     4  10  20  32  48  71 100 133 165 201 241 285
#
# _framework density 15.727918000000001
#
# number of rings (size 3 to 8) (size 9 to 14) (size 15 to 20)
#    0.000    2.000    1.250    5.625    0.000    3.500 
#    0.000    1.875    0.000    0.000    0.000    0.875 
#    0.000    7.000    0.000    0.000    0.000    0.000 
#
# Total GULP energy -357010.784093 kJ/mol
# GULP energy per Si atom -5578.293501 kJ/mol
# Density = 1.569212 g / cm^3
# Si number density = 15.727918 Si / 1000 Ang^3
#
#
#
# Elastic Constant Matrix: (Units=GPa)
#
#
# Indices 1 2 3 4 5 6 
#
# 1 70.8251 52.3363 37.0217 0.0000 0.0000 0.0000
# 2 52.3363 146.9794 71.0574 0.0000 0.0000 0.0000
# 3 37.0217 71.0574 113.1434 0.0000 0.0000 0.0000
# 4 0.0000 0.0000 0.0000 5.1907 0.0000 0.0000
# 5 0.0000 0.0000 0.0000 0.0000 19.5109 0.0000
# 6 0.0000 0.0000 0.0000 0.0000 0.0000 22.6304
#
#
#
# Elastic Compliance Matrix: (Units=1/GPa)
#
#
# Indices 1 2 3 4 5 6 
#
# 1 0.019823 -0.005633 -0.002949 0.000000 0.000000 0.000000
# 2 -0.005633 0.011371 -0.005298 0.000000 0.000000 0.000000
# 3 -0.002949 -0.005298 0.013130 0.000000 0.000000 0.000000
# 4 0.000000 0.000000 0.000000 0.192652 0.000000 0.000000
# 5 0.000000 0.000000 0.000000 0.000000 0.051253 0.000000
# 6 0.000000 0.000000 0.000000 0.000000 0.000000 0.044188
#
#
# Mechanical properties :
#
#
# Convention : Reuss Voigt Hill
#
# Bulk Modulus (GPa) = 60.36805 72.41986 66.39395
# Shear Modulus (GPa) = 13.67244 20.83523 17.25384
#
# Velocity S-wave (km/s) = 2.95160 3.64363 3.31572
# Velocity P-wave (km/s) = 7.07687 7.99042 7.54748
#
# Compressibility (1/GPa) = 0.01656506
#
# Stress axis : x y z
#
# Youngs Moduli (GPa) = 50.44596 87.94417 76.15881
#
# Poissons Ratio (x) = 0.49540 0.22456
# Poissons Ratio (y) = 0.28417 0.40349
# Poissons Ratio (z) = 0.14874 0.46593
#
# Static dielectric constant tensor:
#      x y z
#    x 1.531780 0.000000 0.000000 
#    y 0.000000 1.530540 0.000000 
#    z 0.000000 0.000000 1.514430 
# 
# From -- ./inp_files/38441.got.cif
#   From: 2010.05.17/outbox.cif.g08.bks.cpg/sg53_20_cif.got.tgz:38441.got - 2010.06.03 12:45:16.
