data_PCOD9415002
_publ_section_title
;
Structure prediction by ZEFSAII (Michael W. Deem and Ramdas Pophale) SiO2 
 PCOD9415002
Probable space group: P M N A
;
_chemical_formula_sum "Si O2"
_cell_formula_units_Z 40
_cell_length_a 7.622622
_cell_length_b 7.895522
_cell_length_c 28.756361
_cell_angle_alpha 90.000000
_cell_angle_beta 90.000000
_cell_angle_gamma 90.000000
_cell_volume 1730.689500
_symmetry_space_group_name_H-M "P M N A"
_symmetry_group_IT_number 53
_symmetry_cell_setting 'orthorhombic'
loop_
_space_group_symop_operation_xyz
x,y,z
1/2-x,-y,1/2+z
x,-y,-z
1/2-x,y,1/2-z
-x,-y,-z
1/2+x,y,1/2-z
-x,y,z
1/2+x,-y,1/2+z
loop_
_atom_site_type_symbol
_atom_site_label
_atom_site_fract_x
_atom_site_fract_y
_atom_site_fract_z
Si Si1 0.202439 0.137765 0.563380
Si Si2 0.702957 0.758290 0.534731
Si Si3 0.700788 0.712150 0.340039
Si Si4 0.710505 0.944499 0.697912
Si Si5 0.716279 0.356447 0.368049
O O1 0.211293 0.245058 0.515798
O O2 0.296913 0.223522 0.606588
O O3 0.000000 0.112427 0.575887
O O4 0.283339 0.954187 0.551813
O O5 0.500000 0.714563 0.527862
O O6 0.773896 0.652103 0.578233
O O7 0.500000 0.691954 0.323998
O O8 0.778923 0.525162 0.342145
O O9 0.781971 0.866599 0.311262
O O10 0.750000 0.888490 0.750000
O O11 0.500000 0.953509 0.692113
O O12 0.773006 0.809862 0.659891
O O13 0.500000 0.358131 0.369053
#
# Coordination Sequence:
#
# PCOD9415002 Si02
#       5
#     8   8   8   8   8
#     4  11  21  33  52  84 120 151 187 230 281 330
#     4  10  18  34  58  82 111 152 197 230 271 331
#     4  10  20  38  61  82 111 149 191 231 269 331
#     4  10  21  39  60  84 111 143 183 231 284 335
#     4   9  19  36  60  86 108 143 193 233 269 326
#
# _framework density 23.112175000000001
#
# number of rings (size 3 to 8) (size 9 to 14) (size 15 to 20)
#    0.000    2.000    2.000    3.600    0.000    2.400 
#    0.000    7.000    0.000    0.000    0.000    0.000 
#    0.000    0.000    0.000    0.000    0.000    0.000 
#
# Total GULP energy -223500.037326 kJ/mol
# GULP energy per Si atom -5587.500933 kJ/mol
# Density = 2.305957 g / cm^3
# Si number density = 23.112175 Si / 1000 Ang^3
#
#
#
# Elastic Constant Matrix: (Units=GPa)
#
#
# Indices 1 2 3 4 5 6 
#
# 1 61.8283 -6.0709 -13.7114 0.0000 0.0000 0.0000
# 2 -6.0709 67.6125 -4.3551 0.0000 0.0000 0.0000
# 3 -13.7114 -4.3551 62.7591 0.0000 0.0000 0.0000
# 4 0.0000 0.0000 0.0000 19.1380 0.0000 0.0000
# 5 0.0000 0.0000 0.0000 0.0000 9.3375 0.0000
# 6 0.0000 0.0000 0.0000 0.0000 0.0000 -14.6070
#
#
#
# Elastic Compliance Matrix: (Units=1/GPa)
#
#
# Indices 1 2 3 4 5 6 
#
# 1 0.017212 0.001796 0.003885 0.000000 0.000000 0.000000
# 2 0.001796 0.015044 0.001436 0.000000 0.000000 0.000000
# 3 0.003885 0.001436 0.016882 0.000000 0.000000 0.000000
# 4 0.000000 0.000000 0.000000 0.052252 0.000000 0.000000
# 5 0.000000 0.000000 0.000000 0.000000 0.107095 0.000000
# 6 0.000000 0.000000 0.000000 0.000000 0.000000 -0.068460
#
#
# Mechanical properties :
#
#
# Convention : Reuss Voigt Hill
#
# Bulk Modulus (GPa) = 15.77989 15.99168 15.88578
# Shear Modulus (GPa) = 34.03342 17.19619 25.61481
#
# Velocity S-wave (km/s) = 3.84152 2.73065 3.33270
# Velocity P-wave (km/s) = 5.14963 4.10806 4.65805
#
# Compressibility (1/GPa) = 0.06337180
#
# Stress axis : x y z
#
# Youngs Moduli (GPa) = 58.10004 66.47206 59.23331
#
# Poissons Ratio (x) = -0.11936 -0.23012
# Poissons Ratio (y) = -0.10433 -0.08507
# Poissons Ratio (z) = -0.22572 -0.09547
#
# Static dielectric constant tensor:
#      x y z
#    x 1.853810 0.000000 0.000000 
#    y 0.000000 1.890910 0.000000 
#    z 0.000000 0.000000 1.843080 
# 
# From -- ./inp_files/36035.got.cif
#   From: 2010.05.17/outbox.cif.g08.bks.cpg/sg53_19_cif.got.tgz:36035.got - 2010.06.03 12:45:16.
