data_PCOD9415569
_publ_section_title
;
Structure prediction by ZEFSAII (Michael W. Deem and Ramdas Pophale) SiO2 
 PCOD9415569
Probable space group: P M N A
;
_chemical_formula_sum "Si O2"
_cell_formula_units_Z 48
_cell_length_a 8.586895
_cell_length_b 16.772960
_cell_length_c 19.144425
_cell_angle_alpha 90.000000
_cell_angle_beta 90.000000
_cell_angle_gamma 90.000000
_cell_volume 2757.326474
_symmetry_space_group_name_H-M "P M N A"
_symmetry_group_IT_number 53
_symmetry_cell_setting 'orthorhombic'
loop_
_space_group_symop_operation_xyz
x,y,z
1/2-x,-y,1/2+z
x,-y,-z
1/2-x,y,1/2-z
-x,-y,-z
1/2+x,y,1/2-z
-x,y,z
1/2+x,-y,1/2+z
loop_
_atom_site_type_symbol
_atom_site_label
_atom_site_fract_x
_atom_site_fract_y
_atom_site_fract_z
Si Si1 0.689441 0.416494 0.031470
Si Si2 0.687058 0.332469 0.173437
Si Si3 0.186861 0.022020 0.327827
Si Si4 0.188598 0.747451 0.461942
Si Si5 0.187411 0.160097 0.673120
Si Si6 0.314768 0.175856 0.399830
O O1 0.500000 0.419523 0.032713
O O2 0.737216 0.391875 0.110325
O O3 0.745727 0.500000 0.000000
O O4 0.733889 0.342656 0.981671
O O5 0.750000 0.353049 0.250000
O O6 0.500000 0.331452 0.175051
O O7 0.745145 0.244655 0.150543
O O8 0.250000 0.037328 0.250000
O O9 0.255426 0.089450 0.377266
O O10 0.000000 0.027074 0.327969
O O11 0.232628 0.931010 0.345762
O O12 0.239331 0.779159 0.386713
O O13 0.256436 0.802350 0.522992
O O14 0.000000 0.751767 0.465414
O O15 0.250000 0.178093 0.750000
O O16 0.000000 0.161920 0.676020
O O17 0.500000 0.179490 0.395810
#
# Coordination Sequence:
#
# PCOD9415569 Si02
#       6
#     8   8   8   8   8   8
#     4   8  15  30  53  76  97 126 163 200 239 288
#     4  10  19  32  51  74 102 133 165 201 243 294
#     4  10  19  32  48  68  96 130 167 203 242 285
#     4   9  18  34  53  73  97 128 165 201 244 295
#     4   9  19  34  52  71  95 129 166 205 243 285
#     4  11  21  32  48  72 100 129 163 203 247 292
#
# _framework density 17.408168
#
# number of rings (size 3 to 8) (size 9 to 14) (size 15 to 20)
#    0.000    2.500    0.000    4.000    0.000    2.000 
#    0.000    4.167    0.000   12.500    0.000    0.000 
#    0.000    0.000    0.000    0.000    0.000    0.000 
#
# Total GULP energy -267713.686406 kJ/mol
# GULP energy per Si atom -5577.368467 kJ/mol
# Density = 1.736855 g / cm^3
# Si number density = 17.408168 Si / 1000 Ang^3
#
#
#
# Elastic Constant Matrix: (Units=GPa)
#
#
# Indices 1 2 3 4 5 6 
#
# 1 40.8143 30.9004 32.8692 0.0000 0.0000 0.0000
# 2 30.9004 121.9419 113.6346 0.0000 0.0000 0.0000
# 3 32.8692 113.6346 151.6742 0.0000 0.0000 0.0000
# 4 0.0000 0.0000 0.0000 22.1910 0.0000 0.0000
# 5 0.0000 0.0000 0.0000 0.0000 28.2485 0.0000
# 6 0.0000 0.0000 0.0000 0.0000 0.0000 9.9036
#
#
#
# Elastic Compliance Matrix: (Units=1/GPa)
#
#
# Indices 1 2 3 4 5 6 
#
# 1 0.030655 -0.005226 -0.002728 0.000000 0.000000 0.000000
# 2 -0.005226 0.028060 -0.019890 0.000000 0.000000 0.000000
# 3 -0.002728 -0.019890 0.022086 0.000000 0.000000 0.000000
# 4 0.000000 0.000000 0.000000 0.045063 0.000000 0.000000
# 5 0.000000 0.000000 0.000000 0.000000 0.035400 0.000000
# 6 0.000000 0.000000 0.000000 0.000000 0.000000 0.100973
#
#
# Mechanical properties :
#
#
# Convention : Reuss Voigt Hill
#
# Bulk Modulus (GPa) = 39.82039 74.35986 57.09012
# Shear Modulus (GPa) = 15.32352 21.20371 18.26362
#
# Velocity S-wave (km/s) = 2.97012 3.49382 3.24256
# Velocity P-wave (km/s) = 5.88951 7.68661 6.84727
#
# Compressibility (1/GPa) = 0.02511276
#
# Stress axis : x y z
#
# Youngs Moduli (GPa) = 32.62152 35.63796 45.27772
#
# Poissons Ratio (x) = 0.18624 0.12351
# Poissons Ratio (y) = 0.17048 0.90058
# Poissons Ratio (z) = 0.08899 0.70884
#
# Static dielectric constant tensor:
#      x y z
#    x 1.588570 0.000000 0.000000 
#    y 0.000000 1.586340 0.000000 
#    z 0.000000 0.000000 1.561810 
# 
# From -- ./inp_files/20185.got.cif
#   From: 2010.05.17/outbox.cif.g08.bks.cpg/sg53_11_cif.got.tgz:20185.got - 2010.06.03 12:45:16.
