data_PCOD9415824
_publ_section_title
;
Structure prediction by ZEFSAII (Michael W. Deem and Ramdas Pophale) SiO2 
 PCOD9415824
Probable space group: P M N A
;
_chemical_formula_sum "Si O2"
_cell_formula_units_Z 64
_cell_length_a 7.616847
_cell_length_b 21.499746
_cell_length_c 17.831954
_cell_angle_alpha 90.000000
_cell_angle_beta 90.000000
_cell_angle_gamma 90.000000
_cell_volume 2920.165705
_symmetry_space_group_name_H-M "P M N A"
_symmetry_group_IT_number 53
_symmetry_cell_setting 'orthorhombic'
loop_
_space_group_symop_operation_xyz
x,y,z
1/2-x,-y,1/2+z
x,-y,-z
1/2-x,y,1/2-z
-x,-y,-z
1/2+x,y,1/2-z
-x,y,z
1/2+x,-y,1/2+z
loop_
_atom_site_type_symbol
_atom_site_label
_atom_site_fract_x
_atom_site_fract_y
_atom_site_fract_z
Si Si1 0.294851 0.616712 0.444602
Si Si2 0.205142 0.619326 0.617213
Si Si3 0.789667 0.018710 0.668488
Si Si4 0.715610 0.116095 0.127531
Si Si5 0.791432 0.485670 0.832130
Si Si6 0.710588 0.884952 0.045964
Si Si7 0.199568 0.249261 0.358173
Si Si8 0.709728 0.249777 0.531455
O O1 0.500000 0.617954 0.424617
O O2 0.281562 0.607893 0.534149
O O3 0.218982 0.560098 0.396569
O O4 0.226690 0.686555 0.430322
O O5 0.221168 0.555588 0.661508
O O6 0.280334 0.682327 0.655333
O O7 0.000000 0.632524 0.605671
O O8 0.750000 0.045609 0.750000
O O9 0.721780 0.061954 0.601372
O O10 0.000000 0.015322 0.659715
O O11 0.724010 0.947699 0.664915
O O12 0.500000 0.118989 0.129032
O O13 0.779956 0.181967 0.161040
O O14 0.770803 0.110340 0.040193
O O15 0.750000 0.459939 0.750000
O O16 0.000000 0.491742 0.841230
O O17 0.500000 0.890697 0.043551
O O18 0.754442 0.815067 0.071890
O O19 0.201441 0.246552 0.449496
O O20 0.000000 0.249481 0.328922
O O21 0.500000 0.255143 0.518736
#
# Coordination Sequence:
#
# PCOD9415824 Si02
#       8
#     8   8   8   8   8   8   8   8
#     4   9  19  35  54  76 102 132 165 204 251 299
#     4  10  19  32  54  82 106 130 164 205 248 298
#     4  10  20  33  49  69  96 129 163 200 241 287
#     4   8  14  29  53  74  92 122 164 202 234 277
#     4  11  23  38  53  71 100 136 172 210 251 295
#     4   9  17  31  51  73  95 124 163 201 239 286
#     4   8  15  29  50  75 101 127 160 201 241 287
#     4   9  16  28  49  76 102 125 155 200 250 293
#
# _framework density 21.916564999999999
#
# number of rings (size 3 to 8) (size 9 to 14) (size 15 to 20)
#    0.000    2.750    0.000    2.625    0.000    5.500 
#    0.000    3.750    0.000    8.250    0.000    0.000 
#    0.000    0.000    0.000    0.000    0.000    0.000 
#
# Total GULP energy -356912.214978 kJ/mol
# GULP energy per Si atom -5576.753359 kJ/mol
# Density = 2.186668 g / cm^3
# Si number density = 21.916565 Si / 1000 Ang^3
#
#
#
# Elastic Constant Matrix: (Units=GPa)
#
#
# Indices 1 2 3 4 5 6 
#
# 1 50.1574 1.4147 -7.2682 0.0000 0.0000 0.0000
# 2 1.4147 132.1186 47.6372 0.0000 0.0000 0.0000
# 3 -7.2682 47.6372 73.4771 0.0000 0.0000 0.0000
# 4 0.0000 0.0000 0.0000 -16.7531 0.0000 0.0000
# 5 0.0000 0.0000 0.0000 0.0000 12.3458 0.0000
# 6 0.0000 0.0000 0.0000 0.0000 0.0000 -51.9865
#
#
#
# Elastic Compliance Matrix: (Units=1/GPa)
#
#
# Indices 1 2 3 4 5 6 
#
# 1 0.020380 -0.001233 0.002816 0.000000 0.000000 0.000000
# 2 -0.001233 0.009953 -0.006575 0.000000 0.000000 0.000000
# 3 0.002816 -0.006575 0.018151 0.000000 0.000000 0.000000
# 4 0.000000 0.000000 0.000000 -0.059690 0.000000 0.000000
# 5 0.000000 0.000000 0.000000 0.000000 0.080999 0.000000
# 6 0.000000 0.000000 0.000000 0.000000 0.000000 -0.019236
#
#
# Mechanical properties :
#
#
# Convention : Reuss Voigt Hill
#
# Bulk Modulus (GPa) = 25.97499 37.70229 31.83864
# Shear Modulus (GPa) = 68.14374 2.98586 35.56480
#
# Velocity S-wave (km/s) = 5.58210 1.16848 4.03269
# Velocity P-wave (km/s) = 7.30917 4.36583 6.02015
#
# Compressibility (1/GPa) = 0.03849857
#
# Stress axis : x y z
#
# Youngs Moduli (GPa) = 49.06765 100.47480 55.09419
#
# Poissons Ratio (x) = 0.12393 -0.15512
# Poissons Ratio (y) = 0.06052 0.36223
# Poissons Ratio (z) = -0.13816 0.66059
#
# Static dielectric constant tensor:
#      x y z
#    x 1.855170 0.000000 0.000000 
#    y 0.000000 1.871620 0.000000 
#    z 0.000000 0.000000 1.757090 
# 
# From -- ./inp_files/26932.got.cif
#   From: 2010.05.17/outbox.cif.g08.bks.cpg/sg53_14_cif.got.tgz:26932.got - 2010.06.03 12:45:16.
