data_PCOD9415968
_publ_section_title
;
Structure prediction by ZEFSAII (Michael W. Deem and Ramdas Pophale) SiO2 
 PCOD9415968
Probable space group: P M N A
;
_chemical_formula_sum "Si O2"
_cell_formula_units_Z 64
_cell_length_a 8.673728
_cell_length_b 20.014992
_cell_length_c 21.239712
_cell_angle_alpha 90.000000
_cell_angle_beta 90.000000
_cell_angle_gamma 90.000000
_cell_volume 3687.311632
_symmetry_space_group_name_H-M "P M N A"
_symmetry_group_IT_number 53
_symmetry_cell_setting 'orthorhombic'
loop_
_space_group_symop_operation_xyz
x,y,z
1/2-x,-y,1/2+z
x,-y,-z
1/2-x,y,1/2-z
-x,-y,-z
1/2+x,y,1/2-z
-x,y,z
1/2+x,-y,1/2+z
loop_
_atom_site_type_symbol
_atom_site_label
_atom_site_fract_x
_atom_site_fract_y
_atom_site_fract_z
Si Si1 0.815071 0.541541 0.563179
Si Si2 0.184910 0.328050 0.633299
Si Si3 0.814123 0.038672 0.683792
Si Si4 0.183625 0.823958 0.989442
Si Si5 0.684554 0.672456 0.507888
Si Si6 0.813971 0.821691 0.369761
Si Si7 0.683353 0.536841 0.316931
Si Si8 0.313911 0.956795 0.939133
O O1 0.773050 0.500000 0.500000
O O2 0.746488 0.615108 0.553273
O O3 0.750108 0.505023 0.624575
O O4 0.000000 0.543959 0.566669
O O5 0.235179 0.335858 0.560298
O O6 0.231509 0.252564 0.652344
O O7 0.264536 0.386603 0.671896
O O8 0.000000 0.334737 0.637895
O O9 0.750000 0.014705 0.750000
O O10 0.763036 0.115251 0.671216
O O11 0.000000 0.038148 0.685367
O O12 0.764642 0.993993 0.624458
O O13 0.219289 0.747821 0.969580
O O14 0.251878 0.831657 0.059646
O O15 0.000000 0.830792 0.992575
O O16 0.252025 0.882157 0.946686
O O17 0.500000 0.666330 0.499722
O O18 0.000000 0.822562 0.372959
O O19 0.750000 0.513915 0.250000
O O20 0.500000 0.532625 0.316773
O O21 0.500000 0.955118 0.940061
O O22 0.263880 0.000000 0.000000
#
# Coordination Sequence:
#
# PCOD9415968 Si02
#       8
#     8   8   8   8   8   8   8   8
#     4  11  22  37  60  87 113 144 188 233 276 329
#     4  10  19  33  54  80 110 147 190 229 267 320
#     4  10  21  36  53  76 106 143 182 223 271 324
#     4  10  20  32  52  84 114 138 177 230 276 319
#     4  10  20  34  54  83 115 146 179 223 281 331
#     4   9  18  34  53  74 108 150 186 219 265 324
#     4  12  25  40  58  80 114 152 189 232 280 333
#     4  10  19  35  57  77 104 143 185 224 272 329
#
# _framework density 17.356818000000001
#
# number of rings (size 3 to 8) (size 9 to 14) (size 15 to 20)
#    0.000    1.750    2.500    2.625    0.000    4.250 
#    0.000    1.250    0.000    0.750    0.000    1.750 
#    0.000    0.000    0.000    0.000    0.000    0.000 
#
# Total GULP energy -357381.521397 kJ/mol
# GULP energy per Si atom -5584.086272 kJ/mol
# Density = 1.731731 g / cm^3
# Si number density = 17.356818 Si / 1000 Ang^3
#
#
#
# Elastic Constant Matrix: (Units=GPa)
#
#
# Indices 1 2 3 4 5 6 
#
# 1 37.6490 26.8174 26.7027 0.0000 0.0000 0.0000
# 2 26.8174 103.5405 58.7743 0.0000 0.0000 0.0000
# 3 26.7027 58.7743 112.5502 0.0000 0.0000 0.0000
# 4 0.0000 0.0000 0.0000 22.0347 0.0000 0.0000
# 5 0.0000 0.0000 0.0000 0.0000 25.0240 0.0000
# 6 0.0000 0.0000 0.0000 0.0000 0.0000 26.3312
#
#
#
# Elastic Compliance Matrix: (Units=1/GPa)
#
#
# Indices 1 2 3 4 5 6 
#
# 1 0.034437 -0.006085 -0.004992 0.000000 0.000000 0.000000
# 2 -0.006085 0.014803 -0.006286 0.000000 0.000000 0.000000
# 3 -0.004992 -0.006286 0.013352 0.000000 0.000000 0.000000
# 4 0.000000 0.000000 0.000000 0.045383 0.000000 0.000000
# 5 0.000000 0.000000 0.000000 0.000000 0.039962 0.000000
# 6 0.000000 0.000000 0.000000 0.000000 0.000000 0.037978
#
#
# Mechanical properties :
#
#
# Convention : Reuss Voigt Hill
#
# Bulk Modulus (GPa) = 35.88941 53.14763 44.51852
# Shear Modulus (GPa) = 21.74584 24.10766 22.92675
#
# Velocity S-wave (km/s) = 3.54343 3.73090 3.63837
# Velocity P-wave (km/s) = 6.12074 7.01759 6.58445
#
# Compressibility (1/GPa) = 0.02786338
#
# Stress axis : x y z
#
# Youngs Moduli (GPa) = 29.03892 67.55601 74.89483
#
# Poissons Ratio (x) = 0.41110 0.37390
# Poissons Ratio (y) = 0.17671 0.47080
# Poissons Ratio (z) = 0.14497 0.42467
#
# Static dielectric constant tensor:
#      x y z
#    x 1.582700 0.000000 0.000000 
#    y 0.000000 1.605420 0.000000 
#    z 0.000000 0.000000 1.566410 
# 
# From -- ./inp_files/31291.got.cif
#   From: 2010.05.17/outbox.cif.g08.bks.cpg/sg53_16_cif.got.tgz:31291.got - 2010.06.03 12:45:16.
