data_PCOD9415646
_publ_section_title
;
Structure prediction by ZEFSAII (Michael W. Deem and Ramdas Pophale) SiO2 
 PCOD9415646
Probable space group: P M N A
;
_chemical_formula_sum "Si O2"
_cell_formula_units_Z 48
_cell_length_a 14.583058
_cell_length_b 9.187640
_cell_length_c 15.832220
_cell_angle_alpha 90.000000
_cell_angle_beta 90.000000
_cell_angle_gamma 90.000000
_cell_volume 2121.262375
_symmetry_space_group_name_H-M "P M N A"
_symmetry_group_IT_number 53
_symmetry_cell_setting 'orthorhombic'
loop_
_space_group_symop_operation_xyz
x,y,z
1/2-x,-y,1/2+z
x,-y,-z
1/2-x,y,1/2-z
-x,-y,-z
1/2+x,y,1/2-z
-x,y,z
1/2+x,-y,1/2+z
loop_
_atom_site_type_symbol
_atom_site_label
_atom_site_fract_x
_atom_site_fract_y
_atom_site_fract_z
Si Si1 0.654092 0.607302 0.208614
Si Si2 0.106943 0.286672 0.350081
Si Si3 0.386747 0.149265 0.318185
Si Si4 0.607399 0.828265 0.357142
Si Si5 0.607315 0.669622 0.028905
Si Si6 0.387774 0.338121 0.477784
O O1 0.750000 0.567374 0.250000
O O2 0.608412 0.453553 0.184249
O O3 0.613127 0.715087 0.279206
O O4 0.657246 0.687232 0.117995
O O5 0.145515 0.192502 0.274573
O O6 0.147159 0.261242 0.443337
O O7 0.000000 0.250423 0.361039
O O8 0.500000 0.150684 0.316753
O O9 0.360594 0.268839 0.388513
O O10 0.353827 0.987331 0.339027
O O11 0.500000 0.852285 0.372669
O O12 0.642404 0.760409 0.444011
O O13 0.500000 0.709486 0.043383
O O14 0.606799 0.500000 0.000000
O O15 0.354195 0.500000 0.500000
O O16 0.500000 0.344465 0.476816
#
# Coordination Sequence:
#
# PCOD9415646 Si02
#       6
#     8   8   8   8   8   8
#     4  11  21  33  50  76 107 139 174 217 265 325
#     4   9  17  34  59  81 101 132 182 238 283 325
#     4   9  17  30  51  79 104 129 172 227 276 319
#     4  10  19  32  51  74 104 141 176 216 268 323
#     4   8  15  31  56  79 100 131 174 224 272 317
#     4   9  16  27  47  76 106 134 169 213 256 306
#
# _framework density 22.628035000000001
#
# number of rings (size 3 to 8) (size 9 to 14) (size 15 to 20)
#    0.000    2.667    0.000    4.000    0.000    4.667 
#    0.000    9.167    0.000    6.000    0.000    0.000 
#    0.000    0.000    0.000    0.000    0.000    0.000 
#
# Total GULP energy -267818.564827 kJ/mol
# GULP energy per Si atom -5579.553434 kJ/mol
# Density = 2.257653 g / cm^3
# Si number density = 22.628035 Si / 1000 Ang^3
#
#
#
# Elastic Constant Matrix: (Units=GPa)
#
#
# Indices 1 2 3 4 5 6 
#
# 1 45.6157 -28.3190 -0.3885 0.0000 0.0000 0.0000
# 2 -28.3190 45.5774 12.1198 0.0000 0.0000 0.0000
# 3 -0.3885 12.1198 181.5140 0.0000 0.0000 0.0000
# 4 0.0000 0.0000 0.0000 25.3088 0.0000 0.0000
# 5 0.0000 0.0000 0.0000 0.0000 3.6388 0.0000
# 6 0.0000 0.0000 0.0000 0.0000 0.0000 -4.2338
#
#
#
# Elastic Compliance Matrix: (Units=1/GPa)
#
#
# Indices 1 2 3 4 5 6 
#
# 1 0.036057 0.022788 -0.001444 0.000000 0.000000 0.000000
# 2 0.022788 0.036739 -0.002404 0.000000 0.000000 0.000000
# 3 -0.001444 -0.002404 0.005667 0.000000 0.000000 0.000000
# 4 0.000000 0.000000 0.000000 0.039512 0.000000 0.000000
# 5 0.000000 0.000000 0.000000 0.000000 0.274814 0.000000
# 6 0.000000 0.000000 0.000000 0.000000 0.000000 -0.236196
#
#
# Mechanical properties :
#
#
# Convention : Reuss Voigt Hill
#
# Bulk Modulus (GPa) = 8.59545 26.61462 17.60504
# Shear Modulus (GPa) = 31.74716 24.22911 27.98814
#
# Velocity S-wave (km/s) = 3.74973 3.27579 3.52074
# Velocity P-wave (km/s) = 4.74912 5.10833 4.93200
#
# Compressibility (1/GPa) = 0.11634057
#
# Stress axis : x y z
#
# Youngs Moduli (GPa) = 27.73390 27.21910 176.47078
#
# Poissons Ratio (x) = -0.62026 0.25489
# Poissons Ratio (y) = -0.63199 0.42429
# Poissons Ratio (z) = 0.04006 0.06544
#
# Static dielectric constant tensor:
#      x y z
#    x 1.903960 0.000000 0.000000 
#    y 0.000000 1.830670 0.000000 
#    z 0.000000 0.000000 2.208190 
# 
# From -- ./inp_files/23650.got.cif
#   From: 2010.05.17/outbox.cif.g08.bks.cpg/sg53_12_cif.got.tgz:23650.got - 2010.06.03 12:45:16.
