data_PCOD9415111
_publ_section_title
;
Structure prediction by ZEFSAII (Michael W. Deem and Ramdas Pophale) SiO2 
 PCOD9415111
Probable space group: P M N A
;
_chemical_formula_sum "Si O2"
_cell_formula_units_Z 64
_cell_length_a 9.003443
_cell_length_b 17.076423
_cell_length_c 23.861220
_cell_angle_alpha 90.000000
_cell_angle_beta 90.000000
_cell_angle_gamma 90.000000
_cell_volume 3668.581474
_symmetry_space_group_name_H-M "P M N A"
_symmetry_group_IT_number 53
_symmetry_cell_setting 'orthorhombic'
loop_
_space_group_symop_operation_xyz
x,y,z
1/2-x,-y,1/2+z
x,-y,-z
1/2-x,y,1/2-z
-x,-y,-z
1/2+x,y,1/2-z
-x,y,z
1/2+x,-y,1/2+z
loop_
_atom_site_type_symbol
_atom_site_label
_atom_site_fract_x
_atom_site_fract_y
_atom_site_fract_z
Si Si1 0.672448 0.049912 0.606922
Si Si2 0.179821 0.728484 0.569435
Si Si3 0.679244 0.167915 0.517120
Si Si4 0.827147 0.198138 0.808474
Si Si5 0.323184 0.755144 0.806621
Si Si6 0.821717 0.294627 0.601842
Si Si7 0.819933 0.586798 0.487444
Si Si8 0.676028 0.060068 0.192165
O O1 0.500000 0.025568 0.603988
O O2 0.715972 0.084571 0.546063
O O3 0.682817 0.123909 0.649662
O O4 0.766543 0.983433 0.636942
O O5 0.255442 0.805514 0.542366
O O6 0.221452 0.718415 0.634170
O O7 0.223917 0.652171 0.533310
O O8 0.000000 0.737541 0.565614
O O9 0.500000 0.174824 0.517926
O O10 0.753827 0.231456 0.558559
O O11 0.750000 0.179986 0.750000
O O12 0.747438 0.270846 0.839108
O O13 0.000000 0.214999 0.800100
O O14 0.250000 0.724264 0.750000
O O15 0.500000 0.748131 0.801196
O O16 0.288014 0.847791 0.811349
O O17 0.782511 0.377688 0.573578
O O18 0.000000 0.286881 0.603275
O O19 0.763152 0.500000 0.500000
O O20 0.000000 0.584025 0.489757
O O21 0.750000 0.029839 0.250000
O O22 0.500000 0.050483 0.197024
#
# Coordination Sequence:
#
# PCOD9415111 Si02
#       8
#     8   8   8   8   8   8   8   8
#     4   9  18  30  43  62  89 119 153 194 235 273
#     4   9  17  31  51  72  95 121 151 188 227 274
#     4   9  17  29  45  66  92 121 153 189 228 271
#     4  10  19  29  42  62  89 121 158 195 227 266
#     4   9  19  34  50  70  92 118 154 193 233 273
#     4   9  16  27  44  65  91 122 152 183 220 264
#     4   8  14  26  48  76  97 115 143 178 219 268
#     4  10  19  30  45  63  86 117 154 197 240 279
#
# _framework density 17.445436000000001
#
# number of rings (size 3 to 8) (size 9 to 14) (size 15 to 20)
#    0.000    2.875    0.000    3.375    0.000    5.000 
#    0.000    0.625    0.000   13.875    0.000    1.750 
#    0.000    0.000    0.000    0.000    0.000    0.000 
#
# Total GULP energy -356442.961242 kJ/mol
# GULP energy per Si atom -5569.421269 kJ/mol
# Density = 1.740573 g / cm^3
# Si number density = 17.445436 Si / 1000 Ang^3
#
#
#
# Elastic Constant Matrix: (Units=GPa)
#
#
# Indices 1 2 3 4 5 6 
#
# 1 32.8150 17.2305 19.6057 0.0000 0.0000 0.0000
# 2 17.2305 34.0290 9.1571 0.0000 0.0000 0.0000
# 3 19.6057 9.1571 74.2319 0.0000 0.0000 0.0000
# 4 0.0000 0.0000 0.0000 19.7600 0.0000 0.0000
# 5 0.0000 0.0000 0.0000 0.0000 27.4443 0.0000
# 6 0.0000 0.0000 0.0000 0.0000 0.0000 8.1872
#
#
#
# Elastic Compliance Matrix: (Units=1/GPa)
#
#
# Indices 1 2 3 4 5 6 
#
# 1 0.047691 -0.021472 -0.009947 0.000000 0.000000 0.000000
# 2 -0.021472 0.040063 0.000729 0.000000 0.000000 0.000000
# 3 -0.009947 0.000729 0.016009 0.000000 0.000000 0.000000
# 4 0.000000 0.000000 0.000000 0.050607 0.000000 0.000000
# 5 0.000000 0.000000 0.000000 0.000000 0.036437 0.000000
# 6 0.000000 0.000000 0.000000 0.000000 0.000000 0.122142
#
#
# Mechanical properties :
#
#
# Convention : Reuss Voigt Hill
#
# Bulk Modulus (GPa) = 23.59454 25.89581 24.74517
# Shear Modulus (GPa) = 12.87144 17.41713 15.14429
#
# Velocity S-wave (km/s) = 2.71922 3.16314 2.94954
# Velocity P-wave (km/s) = 4.83869 5.31194 5.08083
#
# Compressibility (1/GPa) = 0.04238269
#
# Stress axis : x y z
#
# Youngs Moduli (GPa) = 20.96820 24.96092 62.46639
#
# Poissons Ratio (x) = 0.53595 0.62137
# Poissons Ratio (y) = 0.45022 -0.04553
# Poissons Ratio (z) = 0.20858 -0.01819
#
# Static dielectric constant tensor:
#      x y z
#    x 1.581950 0.000000 0.000000 
#    y 0.000000 1.604890 0.000000 
#    z 0.000000 0.000000 1.640240 
# 
# From -- ./inp_files/34478.got.cif
#   From: 2010.05.17/outbox.cif.g08.bks.cpg/sg53_18_cif.got.tgz:34478.got - 2010.06.03 12:45:16.
