data_PCOD9415959
_publ_section_title
;
Structure prediction by ZEFSAII (Michael W. Deem and Ramdas Pophale) SiO2 
 PCOD9415959
Probable space group: P M N A
;
_chemical_formula_sum "Si O2"
_cell_formula_units_Z 64
_cell_length_a 14.189623
_cell_length_b 13.181764
_cell_length_c 14.497115
_cell_angle_alpha 90.000000
_cell_angle_beta 90.000000
_cell_angle_gamma 90.000000
_cell_volume 2711.602171
_symmetry_space_group_name_H-M "P M N A"
_symmetry_group_IT_number 53
_symmetry_cell_setting 'orthorhombic'
loop_
_space_group_symop_operation_xyz
x,y,z
1/2-x,-y,1/2+z
x,-y,-z
1/2-x,y,1/2-z
-x,-y,-z
1/2+x,y,1/2-z
-x,y,z
1/2+x,-y,1/2+z
loop_
_atom_site_type_symbol
_atom_site_label
_atom_site_fract_x
_atom_site_fract_y
_atom_site_fract_z
Si Si1 0.107670 0.542401 0.359700
Si Si2 0.114915 0.760825 0.440826
Si Si3 0.385312 0.244419 0.331810
Si Si4 0.384381 0.315452 0.130872
Si Si5 0.615327 0.980472 0.605998
Si Si6 0.850167 0.329921 0.798631
Si Si7 0.604791 0.882614 0.225205
Si Si8 0.614530 0.615820 0.502002
O O1 0.141402 0.646773 0.406565
O O2 0.149616 0.432377 0.379670
O O3 0.110170 0.568455 0.250209
O O4 0.000000 0.535488 0.390096
O O5 0.142655 0.758214 0.547220
O O6 0.149707 0.851363 0.373972
O O7 0.000000 0.765993 0.434802
O O8 0.500000 0.246815 0.331299
O O9 0.355193 0.272647 0.229243
O O10 0.358806 0.133032 0.365062
O O11 0.353761 0.325743 0.407346
O O12 0.500000 0.319936 0.130227
O O13 0.500000 0.990674 0.604379
O O14 0.646097 0.000000 0.500000
O O15 0.647936 0.051837 0.691502
O O16 0.750000 0.319228 0.750000
O O17 0.904169 0.229970 0.767798
O O18 0.851758 0.334484 0.907437
O O19 0.500000 0.926224 0.206859
O O20 0.645371 0.500000 0.500000
O O21 0.500000 0.618264 0.499713
#
# Coordination Sequence:
#
# PCOD9415959 Si02
#       8
#     8   8   8   8   8   8   8   8
#     4   9  16  28  47  69  94 129 170 206 247 304
#     4   8  14  24  41  66  93 122 159 199 236 283
#     4   9  17  27  44  75 106 129 161 207 255 304
#     4   9  15  25  43  69  99 127 161 205 248 296
#     4   9  16  27  45  70  98 124 156 205 257 302
#     4  11  21  32  47  73 103 131 167 217 270 319
#     4   9  17  31  50  71  96 128 168 211 260 317
#     4  10  19  33  54  78 109 148 182 215 266 334
#
# _framework density 23.602281999999999
#
# number of rings (size 3 to 8) (size 9 to 14) (size 15 to 20)
#    0.000    2.750    0.000    3.750    0.000    5.500 
#    0.000    3.125    0.000    3.750    0.000   14.000 
#    0.000    0.000    0.000    0.000    0.000    1.125 
#
# Total GULP energy -357218.966697 kJ/mol
# GULP energy per Si atom -5581.546355 kJ/mol
# Density = 2.354856 g / cm^3
# Si number density = 23.602282 Si / 1000 Ang^3
#
#
#
# Elastic Constant Matrix: (Units=GPa)
#
#
# Indices 1 2 3 4 5 6 
#
# 1 60.9211 14.6294 8.7042 0.0000 0.0000 0.0000
# 2 14.6294 105.5671 83.5947 0.0000 0.0000 0.0000
# 3 8.7042 83.5947 241.5453 0.0000 0.0000 0.0000
# 4 0.0000 0.0000 0.0000 40.2660 0.0000 0.0000
# 5 0.0000 0.0000 0.0000 0.0000 17.1975 0.0000
# 6 0.0000 0.0000 0.0000 0.0000 0.0000 -0.4782
#
#
#
# Elastic Compliance Matrix: (Units=1/GPa)
#
#
# Indices 1 2 3 4 5 6 
#
# 1 0.016993 -0.002576 0.000279 0.000000 0.000000 0.000000
# 2 -0.002576 0.013439 -0.004558 0.000000 0.000000 0.000000
# 3 0.000279 -0.004558 0.005707 0.000000 0.000000 0.000000
# 4 0.000000 0.000000 0.000000 0.024835 0.000000 0.000000
# 5 0.000000 0.000000 0.000000 0.000000 0.058148 0.000000
# 6 0.000000 0.000000 0.000000 0.000000 0.000000 -2.091204
#
#
# Mechanical properties :
#
#
# Convention : Reuss Voigt Hill
#
# Bulk Modulus (GPa) = 44.58342 69.09889 56.84116
# Shear Modulus (GPa) = -2.56293 31.47076 14.45392
#
# Velocity S-wave (km/s) = -1.04319 3.65551 2.47735
# Velocity P-wave (km/s) = 4.18085 6.86709 5.68491
#
# Compressibility (1/GPa) = 0.02242986
#
# Stress axis : x y z
#
# Youngs Moduli (GPa) = 58.84650 74.40974 175.20896
#
# Poissons Ratio (x) = 0.19168 -0.04891
# Poissons Ratio (y) = 0.15159 0.79864
# Poissons Ratio (z) = -0.01643 0.33918
#
# Static dielectric constant tensor:
#      x y z
#    x 1.954040 0.000000 0.000000 
#    y 0.000000 2.193380 0.000000 
#    z 0.000000 0.000000 1.945210 
# 
# From -- ./inp_files/23935.got.cif
#   From: 2010.05.17/outbox.cif.g08.bks.cpg/sg53_12_cif.got.tgz:23935.got - 2010.06.03 12:45:16.
