data_PCOD9415706
_publ_section_title
;
Structure prediction by ZEFSAII (Michael W. Deem and Ramdas Pophale) SiO2 
 PCOD9415706
Probable space group: P M N A
;
_chemical_formula_sum "Si O2"
_cell_formula_units_Z 40
_cell_length_a 8.275464
_cell_length_b 11.640975
_cell_length_c 22.602751
_cell_angle_alpha 90.000000
_cell_angle_beta 90.000000
_cell_angle_gamma 90.000000
_cell_volume 2177.424028
_symmetry_space_group_name_H-M "P M N A"
_symmetry_group_IT_number 53
_symmetry_cell_setting 'orthorhombic'
loop_
_space_group_symop_operation_xyz
x,y,z
1/2-x,-y,1/2+z
x,-y,-z
1/2-x,y,1/2-z
-x,-y,-z
1/2+x,y,1/2-z
-x,y,z
1/2+x,-y,1/2+z
loop_
_atom_site_type_symbol
_atom_site_label
_atom_site_fract_x
_atom_site_fract_y
_atom_site_fract_z
Si Si1 0.310841 0.928099 0.444301
Si Si2 0.311600 0.309834 0.987572
Si Si3 0.689565 0.462933 0.419977
Si Si4 0.805085 0.855659 0.182142
Si Si5 0.692096 0.404504 0.816220
O O1 0.500000 0.959776 0.440446
O O2 0.291206 0.796911 0.465561
O O3 0.249943 0.930276 0.375612
O O4 0.238911 0.000000 0.500000
O O5 0.500000 0.284936 0.979324
O O6 0.273787 0.349864 0.054356
O O7 0.263294 0.423974 0.951619
O O8 0.500000 0.455473 0.432408
O O9 0.723835 0.495321 0.353121
O O10 0.750000 0.884274 0.250000
O O11 0.745848 0.725792 0.168269
O O12 0.000000 0.855195 0.182687
O O13 0.750000 0.418055 0.750000
O O14 0.500000 0.411375 0.823001
#
# Coordination Sequence:
#
# PCOD9415706 Si02
#       5
#     8   8   8   8   8
#     4  10  21  37  56  78 107 144 185 227 273 327
#     4  11  21  33  51  77 105 136 174 218 267 318
#     4  11  20  33  52  74 105 141 173 212 262 321
#     4  10  19  32  52  76 106 139 175 220 271 325
#     4  11  20  31  49  76 108 140 175 217 264 321
#
# _framework density 18.370332000000001
#
# number of rings (size 3 to 8) (size 9 to 14) (size 15 to 20)
#    0.000    1.400    2.000    8.400    0.000    1.200 
#    0.000    0.000    0.000    1.200    0.000    5.600 
#    0.000    0.000    0.000    0.000    0.000    0.000 
#
# Total GULP energy -222867.269544 kJ/mol
# GULP energy per Si atom -5571.681739 kJ/mol
# Density = 1.832852 g / cm^3
# Si number density = 18.370332 Si / 1000 Ang^3
#
#
#
# Elastic Constant Matrix: (Units=GPa)
#
#
# Indices 1 2 3 4 5 6 
#
# 1 55.0855 -17.5187 -3.9482 0.0000 0.0000 0.0000
# 2 -17.5187 23.4705 31.9753 0.0000 0.0000 0.0000
# 3 -3.9482 31.9753 125.2726 0.0000 0.0000 0.0000
# 4 0.0000 0.0000 0.0000 33.0250 0.0000 0.0000
# 5 0.0000 0.0000 0.0000 0.0000 31.2312 0.0000
# 6 0.0000 0.0000 0.0000 0.0000 0.0000 23.6079
#
#
#
# Elastic Compliance Matrix: (Units=1/GPa)
#
#
# Indices 1 2 3 4 5 6 
#
# 1 0.026915 0.029028 -0.006561 0.000000 0.000000 0.000000
# 2 0.029028 0.096629 -0.023749 0.000000 0.000000 0.000000
# 3 -0.006561 -0.023749 0.013838 0.000000 0.000000 0.000000
# 4 0.000000 0.000000 0.000000 0.030280 0.000000 0.000000
# 5 0.000000 0.000000 0.000000 0.000000 0.032019 0.000000
# 6 0.000000 0.000000 0.000000 0.000000 0.000000 0.042359
#
#
# Mechanical properties :
#
#
# Convention : Reuss Voigt Hill
#
# Bulk Modulus (GPa) = 7.41742 24.98283 16.20012
# Shear Modulus (GPa) = 17.26859 30.46082 23.86471
#
# Velocity S-wave (km/s) = 3.06931 4.07646 3.60820
# Velocity P-wave (km/s) = 4.07521 5.98212 5.11826
#
# Compressibility (1/GPa) = 0.13481779
#
# Stress axis : x y z
#
# Youngs Moduli (GPa) = 37.15381 10.34887 72.26627
#
# Poissons Ratio (x) = -0.30041 0.47415
# Poissons Ratio (y) = -1.07851 1.71627
# Poissons Ratio (z) = 0.24377 0.24578
#
# Static dielectric constant tensor:
#      x y z
#    x 1.635720 0.000000 0.000000 
#    y 0.000000 1.609430 0.000000 
#    z 0.000000 0.000000 1.769940 
# 
# From -- ./inp_files/30368.got.cif
#   From: 2010.05.17/outbox.cif.g08.bks.cpg/sg53_16_cif.got.tgz:30368.got - 2010.06.03 12:45:16.
