data_PCOD9415501
_publ_section_title
;
Structure prediction by ZEFSAII (Michael W. Deem and Ramdas Pophale) SiO2 
 PCOD9415501
Probable space group: P M N A
;
_chemical_formula_sum "Si O2"
_cell_formula_units_Z 56
_cell_length_a 11.124129
_cell_length_b 9.618561
_cell_length_c 23.746689
_cell_angle_alpha 90.000000
_cell_angle_beta 90.000000
_cell_angle_gamma 90.000000
_cell_volume 2540.850922
_symmetry_space_group_name_H-M "P M N A"
_symmetry_group_IT_number 53
_symmetry_cell_setting 'orthorhombic'
loop_
_space_group_symop_operation_xyz
x,y,z
1/2-x,-y,1/2+z
x,-y,-z
1/2-x,y,1/2-z
-x,-y,-z
1/2+x,y,1/2-z
-x,y,z
1/2+x,-y,1/2+z
loop_
_atom_site_type_symbol
_atom_site_label
_atom_site_fract_x
_atom_site_fract_y
_atom_site_fract_z
Si Si1 0.249444 0.812122 0.686035
Si Si2 0.363390 0.784017 0.212500
Si Si3 0.631638 0.015676 0.892159
Si Si4 0.130982 0.898814 0.920412
Si Si5 0.630391 0.334635 0.514039
Si Si6 0.366392 0.468648 0.175686
Si Si7 0.870909 0.597751 0.445205
O O1 0.250000 0.861470 0.750000
O O2 0.141948 0.882817 0.650442
O O3 0.358650 0.856282 0.645532
O O4 0.231267 0.647414 0.687361
O O5 0.250000 0.828658 0.250000
O O6 0.500000 0.813795 0.233995
O O7 0.352518 0.618240 0.204359
O O8 0.356403 0.856157 0.151210
O O9 0.500000 0.014237 0.919139
O O10 0.751130 0.993493 0.929422
O O11 0.140991 0.760682 0.958554
O O12 0.000000 0.962065 0.931827
O O13 0.628179 0.500000 0.500000
O O14 0.500000 0.303261 0.540521
O O15 0.750362 0.313518 0.549992
O O16 0.500000 0.416029 0.191026
O O17 0.363506 0.501704 0.109356
O O18 0.874108 0.500000 0.500000
O O19 0.000000 0.672999 0.442887
#
# Coordination Sequence:
#
# PCOD9415501 Si02
#       7
#     8   8   8   8   8   8   8
#     4  10  19  31  50  78 107 141 176 218 271 321
#     4  10  21  39  58  80 109 150 189 225 272 325
#     4   9  20  35  54  77 105 141 183 223 264 319
#     4   9  20  33  50  79 110 140 179 227 273 322
#     4   9  16  29  47  71 104 136 167 213 269 321
#     4  10  20  34  53  79 114 142 176 229 280 325
#     4   9  17  29  49  77 102 133 175 218 264 323
#
# _framework density 22.039861999999999
#
# number of rings (size 3 to 8) (size 9 to 14) (size 15 to 20)
#    0.857    1.714    0.000    3.000    0.000    2.286 
#    0.000    1.429    0.000    0.857    0.000    6.000 
#    0.000    0.000    0.000    0.000    0.000    0.000 
#
# Total GULP energy -311994.518436 kJ/mol
# GULP energy per Si atom -5571.330686 kJ/mol
# Density = 2.198970 g / cm^3
# Si number density = 22.039862 Si / 1000 Ang^3
#
#
#
# Elastic Constant Matrix: (Units=GPa)
#
#
# Indices 1 2 3 4 5 6 
#
# 1 193.5704 30.6599 34.7075 0.0000 0.0000 0.0000
# 2 30.6599 89.9774 -0.7038 0.0000 0.0000 0.0000
# 3 34.7075 -0.7038 63.2514 0.0000 0.0000 0.0000
# 4 0.0000 0.0000 0.0000 -0.6930 0.0000 0.0000
# 5 0.0000 0.0000 0.0000 0.0000 -2.2308 0.0000
# 6 0.0000 0.0000 0.0000 0.0000 0.0000 -28.8719
#
#
#
# Elastic Compliance Matrix: (Units=1/GPa)
#
#
# Indices 1 2 3 4 5 6 
#
# 1 0.006105 -0.002107 -0.003373 0.000000 0.000000 0.000000
# 2 -0.002107 0.011842 0.001288 0.000000 0.000000 0.000000
# 3 -0.003373 0.001288 0.017675 0.000000 0.000000 0.000000
# 4 0.000000 0.000000 0.000000 -1.443035 0.000000 0.000000
# 5 0.000000 0.000000 0.000000 0.000000 -0.448270 0.000000
# 6 0.000000 0.000000 0.000000 0.000000 0.000000 -0.034636
#
#
# Mechanical properties :
#
#
# Convention : Reuss Voigt Hill
#
# Bulk Modulus (GPa) = 36.71412 52.90294 44.80853
# Shear Modulus (GPa) = -2.66972 12.44990 4.89009
#
# Velocity S-wave (km/s) = -1.10179 2.37930 1.49116
# Velocity P-wave (km/s) = 3.88273 5.62170 4.83110
#
# Compressibility (1/GPa) = 0.02723748
#
# Stress axis : x y z
#
# Youngs Moduli (GPa) = 163.81249 84.44683 56.57655
#
# Poissons Ratio (x) = 0.17789 0.19084
# Poissons Ratio (y) = 0.34507 -0.07285
# Poissons Ratio (z) = 0.55256 -0.10874
#
# Static dielectric constant tensor:
#      x y z
#    x 1.818370 0.000000 0.000000 
#    y 0.000000 1.825000 0.000000 
#    z 0.000000 0.000000 1.776140 
# 
# From -- ./inp_files/31951.got.cif
#   From: 2010.05.17/outbox.cif.g08.bks.cpg/sg53_16_cif.got.tgz:31951.got - 2010.06.03 12:45:16.
