data_PCOD9415005
_publ_section_title
;
Structure prediction by ZEFSAII (Michael W. Deem and Ramdas Pophale) SiO2 
 PCOD9415005
Probable space group: P M N A
;
_chemical_formula_sum "Si O2"
_cell_formula_units_Z 40
_cell_length_a 25.117874
_cell_length_b 8.344665
_cell_length_c 9.160958
_cell_angle_alpha 90.000000
_cell_angle_beta 90.000000
_cell_angle_gamma 90.000000
_cell_volume 1920.139032
_symmetry_space_group_name_H-M "P M N A"
_symmetry_group_IT_number 53
_symmetry_cell_setting 'orthorhombic'
loop_
_space_group_symop_operation_xyz
x,y,z
1/2-x,-y,1/2+z
x,-y,-z
1/2-x,y,1/2-z
-x,-y,-z
1/2+x,y,1/2-z
-x,y,z
1/2+x,-y,1/2+z
loop_
_atom_site_type_symbol
_atom_site_label
_atom_site_fract_x
_atom_site_fract_y
_atom_site_fract_z
Si Si1 0.618925 0.805737 0.515317
Si Si2 0.000000 0.822992 0.923235
Si Si3 0.395019 0.224263 0.801146
Si Si4 0.000000 0.026524 0.671425
Si Si5 0.377166 0.500000 0.000000
Si Si6 0.806436 0.720503 0.709599
Si Si7 0.179144 0.000000 0.500000
O O1 0.557637 0.750331 0.542380
O O2 0.632154 0.739581 0.354152
O O3 0.657774 0.760607 0.648110
O O4 0.619765 0.000000 0.500000
O O5 0.000000 0.857151 0.751049
O O6 0.000000 0.000000 0.000000
O O7 0.448197 0.122317 0.778258
O O8 0.408602 0.379785 0.895640
O O9 0.357184 0.112268 0.898144
O O10 0.000000 0.000000 0.500000
O O11 0.340550 0.605881 0.893826
O O12 0.750000 0.645138 0.750000
O O13 0.792577 0.879538 0.612700
#
# Coordination Sequence:
#
# PCOD9415005 Si02
#       7
#     8   4   8   4   4   8   4
#     4  11  20  38  67 100 124 163 215 276 320 373
#     4  10  18  34  59 102 127 153 206 262 338 369
#     4  11  21  39  62  93 132 169 213 263 319 388
#     4  12  20  31  65  98 128 170 214 274 324 375
#     4  10  28  45  56  90 134 177 214 252 330 412
#     4  11  25  43  67  92 128 170 217 271 329 381
#     4  10  20  37  62  94 122 153 212 272 314 372
#
# _framework density 20.831827000000001
#
# number of rings (size 3 to 8) (size 9 to 14) (size 15 to 20)
#    0.000    1.200    7.000    0.000    4.200    2.800 
#    0.000    5.000    0.000    2.400    0.000    0.000 
#    0.000    0.000    0.000    0.000    0.000    0.000 
#
# Total GULP energy -223234.244431 kJ/mol
# GULP energy per Si atom -5580.856111 kJ/mol
# Density = 2.078441 g / cm^3
# Si number density = 20.831827 Si / 1000 Ang^3
#
#
#
# Elastic Constant Matrix: (Units=GPa)
#
#
# Indices 1 2 3 4 5 6 
#
# 1 68.0026 -11.4625 26.6308 0.0000 0.0000 0.0000
# 2 -11.4625 35.0243 21.1068 0.0000 0.0000 0.0000
# 3 26.6308 21.1068 170.8671 0.0000 0.0000 0.0000
# 4 0.0000 0.0000 0.0000 28.8696 0.0000 0.0000
# 5 0.0000 0.0000 0.0000 0.0000 22.7422 0.0000
# 6 0.0000 0.0000 0.0000 0.0000 0.0000 30.2612
#
#
#
# Elastic Compliance Matrix: (Units=1/GPa)
#
#
# Indices 1 2 3 4 5 6 
#
# 1 0.017501 0.007964 -0.003712 0.000000 0.000000 0.000000
# 2 0.007964 0.034472 -0.005500 0.000000 0.000000 0.000000
# 3 -0.003712 -0.005500 0.007110 0.000000 0.000000 0.000000
# 4 0.000000 0.000000 0.000000 0.034639 0.000000 0.000000
# 5 0.000000 0.000000 0.000000 0.000000 0.043971 0.000000
# 6 0.000000 0.000000 0.000000 0.000000 0.000000 0.033046
#
#
# Mechanical properties :
#
#
# Convention : Reuss Voigt Hill
#
# Bulk Modulus (GPa) = 17.67079 38.49382 28.08230
# Shear Modulus (GPa) = 26.02860 32.21584 29.12222
#
# Velocity S-wave (km/s) = 3.53861 3.93679 3.74300
# Velocity P-wave (km/s) = 5.01963 6.25962 5.67360
#
# Compressibility (1/GPa) = 0.05659056
#
# Stress axis : x y z
#
# Youngs Moduli (GPa) = 57.13865 29.00869 140.64062
#
# Poissons Ratio (x) = -0.23104 0.52199
# Poissons Ratio (y) = -0.45507 0.77347
# Poissons Ratio (z) = 0.21207 0.15954
#
# Static dielectric constant tensor:
#      x y z
#    x 1.710090 0.000000 0.000000 
#    y 0.000000 1.768320 0.000000 
#    z 0.000000 0.000000 1.811700 
# 
# From -- ./inp_files/12365.got.cif
#   From: 2010.05.17/outbox.cif.g08.bks.cpg/sg53_7_cif.got.tgz:12365.got - 2010.06.03 12:45:16.
