data_PCOD9415319
_publ_section_title
;
Structure prediction by ZEFSAII (Michael W. Deem and Ramdas Pophale) SiO2 
 PCOD9415319
Probable space group: P M N A
;
_chemical_formula_sum "Si O2"
_cell_formula_units_Z 64
_cell_length_a 7.802150
_cell_length_b 18.520535
_cell_length_c 20.542197
_cell_angle_alpha 90.000000
_cell_angle_beta 90.000000
_cell_angle_gamma 90.000000
_cell_volume 2968.347305
_symmetry_space_group_name_H-M "P M N A"
_symmetry_group_IT_number 53
_symmetry_cell_setting 'orthorhombic'
loop_
_space_group_symop_operation_xyz
x,y,z
1/2-x,-y,1/2+z
x,-y,-z
1/2-x,y,1/2-z
-x,-y,-z
1/2+x,y,1/2-z
-x,y,z
1/2+x,-y,1/2+z
loop_
_atom_site_type_symbol
_atom_site_label
_atom_site_fract_x
_atom_site_fract_y
_atom_site_fract_z
Si Si1 0.292681 0.634839 0.822746
Si Si2 0.800783 0.797376 0.660960
Si Si3 0.688231 0.681623 0.440919
Si Si4 0.706660 0.047529 0.181536
Si Si5 0.296987 0.224908 0.825237
Si Si6 0.197745 0.180098 0.492062
Si Si7 0.802291 0.433425 0.459422
Si Si8 0.207770 0.080826 0.598523
O O1 0.250000 0.606141 0.750000
O O2 0.500000 0.637632 0.828333
O O3 0.226743 0.718200 0.825359
O O4 0.231841 0.593065 0.888689
O O5 0.717402 0.871806 0.684554
O O6 0.800550 0.811809 0.584158
O O7 0.000000 0.794011 0.683279
O O8 0.500000 0.648856 0.438810
O O9 0.741471 0.706264 0.368688
O O10 0.688541 0.757862 0.477813
O O11 0.799159 0.631309 0.487999
O O12 0.750000 0.010792 0.250000
O O13 0.500000 0.055155 0.174636
O O14 0.772136 0.995167 0.125067
O O15 0.250000 0.230455 0.750000
O O16 0.500000 0.221681 0.829942
O O17 0.233307 0.149311 0.857432
O O18 0.245046 0.104176 0.524599
O O19 0.000000 0.194846 0.513135
O O20 0.722700 0.500000 0.500000
O O21 0.000000 0.453614 0.445438
O O22 0.000000 0.076425 0.604388
#
# Coordination Sequence:
#
# PCOD9415319 Si02
#       8
#     8   8   8   8   8   8   8   8
#     4  10  20  36  58  86 115 146 185 225 273 328
#     4   9  17  30  52  76 104 138 180 229 274 328
#     4  11  21  34  55  84 114 144 181 229 279 334
#     4  10  19  31  45  68  99 137 181 227 283 337
#     4  10  19  33  53  78 109 147 192 240 285 335
#     4   9  16  32  53  73 101 139 181 229 276 328
#     4  10  21  40  65  87 112 151 190 223 270 336
#     4   8  16  28  47  72 100 137 182 230 282 333
#
# _framework density 21.56082
#
# number of rings (size 3 to 8) (size 9 to 14) (size 15 to 20)
#    0.000    2.375    1.250    3.000    0.000    1.250 
#    0.000    6.250    0.000    1.500    0.000    4.375 
#    0.000    0.000    0.000    0.000    0.000    0.000 
#
# Total GULP energy -356480.881205 kJ/mol
# GULP energy per Si atom -5570.013769 kJ/mol
# Density = 2.151175 g / cm^3
# Si number density = 21.560820 Si / 1000 Ang^3
#
#
#
# Elastic Constant Matrix: (Units=GPa)
#
#
# Indices 1 2 3 4 5 6 
#
# 1 35.7830 2.9430 8.9291 0.0000 0.0000 0.0000
# 2 2.9430 97.4927 50.4886 0.0000 0.0000 0.0000
# 3 8.9291 50.4886 136.8700 0.0000 0.0000 0.0000
# 4 0.0000 0.0000 0.0000 79.5294 0.0000 0.0000
# 5 0.0000 0.0000 0.0000 0.0000 9.0951 0.0000
# 6 0.0000 0.0000 0.0000 0.0000 0.0000 -23.9632
#
#
#
# Elastic Compliance Matrix: (Units=1/GPa)
#
#
# Indices 1 2 3 4 5 6 
#
# 1 0.028410 0.000126 -0.001900 0.000000 0.000000 0.000000
# 2 0.000126 0.012680 -0.004686 0.000000 0.000000 0.000000
# 3 -0.001900 -0.004686 0.009159 0.000000 0.000000 0.000000
# 4 0.000000 0.000000 0.000000 0.012574 0.000000 0.000000
# 5 0.000000 0.000000 0.000000 0.000000 0.109950 0.000000
# 6 0.000000 0.000000 0.000000 0.000000 0.000000 -0.041731
#
#
# Mechanical properties :
#
#
# Convention : Reuss Voigt Hill
#
# Bulk Modulus (GPa) = 26.78814 43.87412 35.33113
# Shear Modulus (GPa) = 31.96860 26.78459 29.37660
#
# Velocity S-wave (km/s) = 3.85478 3.52842 3.69521
# Velocity P-wave (km/s) = 5.68013 6.08218 5.88459
#
# Compressibility (1/GPa) = 0.03732995
#
# Stress axis : x y z
#
# Youngs Moduli (GPa) = 35.19889 78.86496 109.18721
#
# Poissons Ratio (x) = -0.00997 0.20746
# Poissons Ratio (y) = -0.00445 0.51161
# Poissons Ratio (z) = 0.06688 0.36953
#
# Static dielectric constant tensor:
#      x y z
#    x 1.807040 0.000000 0.000000 
#    y 0.000000 1.809540 0.000000 
#    z 0.000000 0.000000 1.957370 
# 
# From -- ./inp_files/31111.got.cif
#   From: 2010.05.17/outbox.cif.g08.bks.cpg/sg53_16_cif.got.tgz:31111.got - 2010.06.03 12:45:16.
