data_PCOD9415048
_publ_section_title
;
Structure prediction by ZEFSAII (Michael W. Deem and Ramdas Pophale) SiO2 
 PCOD9415048
Probable space group: P M N A
;
_chemical_formula_sum "Si O2"
_cell_formula_units_Z 36
_cell_length_a 14.699286
_cell_length_b 6.958072
_cell_length_c 15.886895
_cell_angle_alpha 90.000000
_cell_angle_beta 90.000000
_cell_angle_gamma 90.000000
_cell_volume 1624.890814
_symmetry_space_group_name_H-M "P M N A"
_symmetry_group_IT_number 53
_symmetry_cell_setting 'orthorhombic'
loop_
_space_group_symop_operation_xyz
x,y,z
1/2-x,-y,1/2+z
x,-y,-z
1/2-x,y,1/2-z
-x,-y,-z
1/2+x,y,1/2-z
-x,y,z
1/2+x,-y,1/2+z
loop_
_atom_site_type_symbol
_atom_site_label
_atom_site_fract_x
_atom_site_fract_y
_atom_site_fract_z
Si Si1 0.821028 0.731784 0.017619
Si Si2 0.000000 0.223345 0.211092
Si Si3 0.199673 0.655675 0.334140
Si Si4 0.208087 0.240665 0.165676
Si Si5 0.500000 0.420030 0.790113
Si Si6 0.000000 0.810984 0.124423
O O1 0.739984 0.750318 0.083716
O O2 0.912699 0.800186 0.064006
O O3 0.833998 0.500000 0.000000
O O4 0.795319 0.832697 0.929957
O O5 0.000000 0.998196 0.185295
O O6 0.899053 0.282147 0.179524
O O7 0.000000 0.347107 0.297679
O O8 0.250000 0.726726 0.250000
O O9 0.092225 0.665305 0.326296
O O10 0.250000 0.142302 0.250000
O O11 0.268451 0.433406 0.160896
O O12 0.500000 0.364507 0.690586
#
# Coordination Sequence:
#
# PCOD9415048 Si02
#       6
#     8   4   8   8   4   4
#     4  10  20  37  61  96 129 164 211 264 318 379
#     4  12  23  39  66  94 125 168 211 264 325 378
#     4  10  18  35  63  89 125 171 207 253 324 377
#     4  10  20  38  60  86 126 167 205 262 320 374
#     4  12  20  42  62  92 135 165 209 273 308 383
#     4  12  24  37  66 100 122 165 215 265 332 376
#
# _framework density 22.155335000000001
#
# number of rings (size 3 to 8) (size 9 to 14) (size 15 to 20)
#    0.000    1.333    6.667    2.333    0.000    1.778 
#    4.000    6.111    0.000    0.000    0.000    1.556 
#    0.000    0.000    0.000    0.000    0.000    0.000 
#
# Total GULP energy -200674.301355 kJ/mol
# GULP energy per Si atom -5574.286149 kJ/mol
# Density = 2.210491 g / cm^3
# Si number density = 22.155335 Si / 1000 Ang^3
#
#
#
# Elastic Constant Matrix: (Units=GPa)
#
#
# Indices 1 2 3 4 5 6 
#
# 1 231.1707 37.0286 101.0945 0.0000 0.0000 0.0000
# 2 37.0286 97.8293 19.4613 0.0000 0.0000 0.0000
# 3 101.0945 19.4613 158.2663 0.0000 0.0000 0.0000
# 4 0.0000 0.0000 0.0000 -4.2737 0.0000 0.0000
# 5 0.0000 0.0000 0.0000 0.0000 30.4329 0.0000
# 6 0.0000 0.0000 0.0000 0.0000 0.0000 -17.0575
#
#
#
# Elastic Compliance Matrix: (Units=1/GPa)
#
#
# Indices 1 2 3 4 5 6 
#
# 1 0.006240 -0.001608 -0.003788 0.000000 0.000000 0.000000
# 2 -0.001608 0.010893 -0.000312 0.000000 0.000000 0.000000
# 3 -0.003788 -0.000312 0.008777 0.000000 0.000000 0.000000
# 4 0.000000 0.000000 0.000000 -0.233987 0.000000 0.000000
# 5 0.000000 0.000000 0.000000 0.000000 0.032859 0.000000
# 6 0.000000 0.000000 0.000000 0.000000 0.000000 -0.058625
#
#
# Mechanical properties :
#
#
# Convention : Reuss Voigt Hill
#
# Bulk Modulus (GPa) = 69.00247 89.15947 79.08097
# Shear Modulus (GPa) = -22.97842 23.79912 0.41035
#
# Velocity S-wave (km/s) = -3.22398 3.28105 0.43083
# Velocity P-wave (km/s) = 4.16579 7.39486 6.00157
#
# Compressibility (1/GPa) = 0.01449224
#
# Stress axis : x y z
#
# Youngs Moduli (GPa) = 160.25569 91.80451 113.93993
#
# Poissons Ratio (x) = 0.14765 0.43162
# Poissons Ratio (y) = 0.25774 0.03556
# Poissons Ratio (z) = 0.60707 0.02865
#
# Static dielectric constant tensor:
#      x y z
#    x 1.755920 0.000000 0.000000 
#    y 0.000000 1.922320 0.000000 
#    z 0.000000 0.000000 1.854000 
# 
# From -- ./inp_files/22335.got.cif
#   From: 2010.05.17/outbox.cif.g08.bks.cpg/sg53_12_cif.got.tgz:22335.got - 2010.06.03 12:45:16.
