data_PCOD9415192
_publ_section_title
;
Structure prediction by ZEFSAII (Michael W. Deem and Ramdas Pophale) SiO2 
 PCOD9415192
Probable space group: P M N A
;
_chemical_formula_sum "Si O2"
_cell_formula_units_Z 64
_cell_length_a 9.215170
_cell_length_b 23.782344
_cell_length_c 16.352638
_cell_angle_alpha 90.000000
_cell_angle_beta 90.000000
_cell_angle_gamma 90.000000
_cell_volume 3583.817047
_symmetry_space_group_name_H-M "P M N A"
_symmetry_group_IT_number 53
_symmetry_cell_setting 'orthorhombic'
loop_
_space_group_symop_operation_xyz
x,y,z
1/2-x,-y,1/2+z
x,-y,-z
1/2-x,y,1/2-z
-x,-y,-z
1/2+x,y,1/2-z
-x,y,z
1/2+x,-y,1/2+z
loop_
_atom_site_type_symbol
_atom_site_label
_atom_site_fract_x
_atom_site_fract_y
_atom_site_fract_z
Si Si1 0.176835 0.128296 0.992294
Si Si2 0.327657 0.310311 0.331169
Si Si3 0.326484 0.056979 0.665689
Si Si4 0.326018 0.743134 0.493957
Si Si5 0.173510 0.076731 0.165657
Si Si6 0.666509 0.585992 0.899044
Si Si7 0.674364 0.468392 0.833682
Si Si8 0.167733 0.640689 0.421638
O O1 0.222763 0.089917 0.915666
O O2 0.220366 0.192924 0.979728
O O3 0.000000 0.126200 0.993723
O O4 0.223324 0.106616 0.081926
O O5 0.250000 0.288439 0.250000
O O6 0.500000 0.309511 0.321149
O O7 0.289530 0.275377 0.412938
O O8 0.270955 0.373537 0.347980
O O9 0.250000 0.075070 0.750000
O O10 0.500000 0.064806 0.673828
O O11 0.300287 0.990197 0.655536
O O12 0.500000 0.739906 0.486626
O O13 0.255201 0.697798 0.433709
O O14 0.250000 0.095000 0.250000
O O15 0.000000 0.085177 0.173825
O O16 0.500000 0.592461 0.868695
O O17 0.703900 0.520338 0.894315
O O18 0.669527 0.608880 0.990972
O O19 0.750000 0.484453 0.750000
O O20 0.500000 0.464542 0.826207
O O21 0.727036 0.406907 0.861067
O O22 0.000000 0.653306 0.401790
#
# Coordination Sequence:
#
# PCOD9415192 Si02
#       8
#     8   8   8   8   8   8   8   8
#     4   9  17  32  53  73  97 133 171 203 240 290
#     4  10  19  30  45  67  95 125 156 191 233 281
#     4   9  17  31  52  76 101 130 165 205 248 292
#     4   9  19  34  50  68  91 123 164 202 232 272
#     4   9  17  30  50  77 106 134 164 198 240 292
#     4   9  17  31  51  71  91 117 150 188 231 281
#     4  10  20  32  48  71  95 118 147 186 233 283
#     4   9  18  34  52  68  90 121 154 189 232 279
#
# _framework density 17.858055
#
# number of rings (size 3 to 8) (size 9 to 14) (size 15 to 20)
#    0.000    2.750    0.000    1.500    0.000    6.000 
#    0.000    2.500    0.000    9.750    0.000    0.000 
#    0.000    0.000    0.000    0.000    0.000    0.000 
#
# Total GULP energy -356659.429359 kJ/mol
# GULP energy per Si atom -5572.803584 kJ/mol
# Density = 1.781741 g / cm^3
# Si number density = 17.858055 Si / 1000 Ang^3
#
#
#
# Elastic Constant Matrix: (Units=GPa)
#
#
# Indices 1 2 3 4 5 6 
#
# 1 10.8646 19.3234 11.5479 0.0000 0.0000 0.0000
# 2 19.3234 88.3805 36.7523 0.0000 0.0000 0.0000
# 3 11.5479 36.7523 58.9103 0.0000 0.0000 0.0000
# 4 0.0000 0.0000 0.0000 12.5201 0.0000 0.0000
# 5 0.0000 0.0000 0.0000 0.0000 20.2943 0.0000
# 6 0.0000 0.0000 0.0000 0.0000 0.0000 19.5824
#
#
#
# Elastic Compliance Matrix: (Units=1/GPa)
#
#
# Indices 1 2 3 4 5 6 
#
# 1 0.157308 -0.029127 -0.012665 0.000000 0.000000 0.000000
# 2 -0.029127 0.020672 -0.007187 0.000000 0.000000 0.000000
# 3 -0.012665 -0.007187 0.023941 0.000000 0.000000 0.000000
# 4 0.000000 0.000000 0.000000 0.079872 0.000000 0.000000
# 5 0.000000 0.000000 0.000000 0.000000 0.049275 0.000000
# 6 0.000000 0.000000 0.000000 0.000000 0.000000 0.051066
#
#
# Mechanical properties :
#
#
# Convention : Reuss Voigt Hill
#
# Bulk Modulus (GPa) = 9.61878 32.60030 21.10954
# Shear Modulus (GPa) = 9.71355 16.51482 13.11419
#
# Velocity S-wave (km/s) = 2.33476 3.04432 2.71284
# Velocity P-wave (km/s) = 3.55895 5.53643 4.65393
#
# Compressibility (1/GPa) = 0.10396331
#
# Stress axis : x y z
#
# Youngs Moduli (GPa) = 6.35696 48.37577 41.76906
#
# Poissons Ratio (x) = 1.40904 0.52900
# Poissons Ratio (y) = 0.18516 0.30018
# Poissons Ratio (z) = 0.08051 0.34766
#
# Static dielectric constant tensor:
#      x y z
#    x 1.602430 0.000000 0.000000 
#    y 0.000000 1.615990 0.000000 
#    z 0.000000 0.000000 1.613290 
# 
# From -- ./inp_files/20996.got.cif
#   From: 2010.05.17/outbox.cif.g08.bks.cpg/sg53_11_cif.got.tgz:20996.got - 2010.06.03 12:45:16.
