data_PCOD9415635
_publ_section_title
;
Structure prediction by ZEFSAII (Michael W. Deem and Ramdas Pophale) SiO2 
 PCOD9415635
Probable space group: P M N A
;
_chemical_formula_sum "Si O2"
_cell_formula_units_Z 64
_cell_length_a 9.117517
_cell_length_b 14.435288
_cell_length_c 30.290794
_cell_angle_alpha 90.000000
_cell_angle_beta 90.000000
_cell_angle_gamma 90.000000
_cell_volume 3986.692069
_symmetry_space_group_name_H-M "P M N A"
_symmetry_group_IT_number 53
_symmetry_cell_setting 'orthorhombic'
loop_
_space_group_symop_operation_xyz
x,y,z
1/2-x,-y,1/2+z
x,-y,-z
1/2-x,y,1/2-z
-x,-y,-z
1/2+x,y,1/2-z
-x,y,z
1/2+x,-y,1/2+z
loop_
_atom_site_type_symbol
_atom_site_label
_atom_site_fract_x
_atom_site_fract_y
_atom_site_fract_z
Si Si1 0.676050 0.012496 0.703168
Si Si2 0.329539 0.315474 0.596091
Si Si3 0.178164 0.707755 0.924476
Si Si4 0.332437 0.833602 0.148908
Si Si5 0.679256 0.495080 0.448380
Si Si6 0.676211 0.115793 0.378536
Si Si7 0.169594 0.820293 0.011191
Si Si8 0.666727 0.030648 0.936795
O O1 0.750000 0.994312 0.750000
O O2 0.500000 0.014459 0.706570
O O3 0.735417 0.109642 0.683717
O O4 0.718834 0.934145 0.666998
O O5 0.500000 0.323222 0.609898
O O6 0.236895 0.263130 0.633313
O O7 0.274552 0.415244 0.579488
O O8 0.327740 0.249308 0.552927
O O9 0.228741 0.602039 0.927198
O O10 0.222401 0.777623 0.885417
O O11 0.000000 0.703408 0.924369
O O12 0.220249 0.760935 0.969427
O O13 0.500000 0.823923 0.164146
O O14 0.334005 0.898432 0.105076
O O15 0.723697 0.500000 0.500000
O O16 0.500000 0.497196 0.448766
O O17 0.500000 0.111501 0.381104
O O18 0.739290 0.054931 0.418811
O O19 0.264040 0.909274 0.024002
O O20 0.000000 0.848116 0.004093
O O21 0.500000 0.003084 0.945684
#
# Coordination Sequence:
#
# PCOD9415635 Si02
#       8
#     8   8   8   8   8   8   8   8
#     4  10  19  32  51  73  94 115 142 177 222 276
#     4   9  15  24  42  66  91 119 154 195 235 271
#     4   9  16  26  41  62  88 118 155 196 231 264
#     4   9  17  29  45  66  92 120 148 181 223 271
#     4   9  14  23  41  67  92 117 157 206 243 265
#     4   9  18  31  45  63  88 116 147 183 222 270
#     4   9  15  24  40  60  83 115 154 192 228 264
#     4   9  17  28  41  57  83 118 153 186 222 264
#
# _framework density 16.053411000000001
#
# number of rings (size 3 to 8) (size 9 to 14) (size 15 to 20)
#    0.000    2.875    1.250    1.125    0.000    4.000 
#    0.000    3.125    0.000    1.875    0.000    0.875 
#    0.000    2.000    0.000    0.000    0.000    0.000 
#
# Total GULP energy -356581.173125 kJ/mol
# GULP energy per Si atom -5571.580830 kJ/mol
# Density = 1.601687 g / cm^3
# Si number density = 16.053411 Si / 1000 Ang^3
#
#
#
# Elastic Constant Matrix: (Units=GPa)
#
#
# Indices 1 2 3 4 5 6 
#
# 1 34.5174 28.4612 24.1535 0.0000 0.0000 0.0000
# 2 28.4612 131.5845 42.0967 0.0000 0.0000 0.0000
# 3 24.1535 42.0967 68.2962 0.0000 0.0000 0.0000
# 4 0.0000 0.0000 0.0000 15.1578 0.0000 0.0000
# 5 0.0000 0.0000 0.0000 0.0000 16.3801 0.0000
# 6 0.0000 0.0000 0.0000 0.0000 0.0000 2.3286
#
#
#
# Elastic Compliance Matrix: (Units=1/GPa)
#
#
# Indices 1 2 3 4 5 6 
#
# 1 0.041269 -0.005303 -0.011327 0.000000 0.000000 0.000000
# 2 -0.005303 0.010148 -0.004380 0.000000 0.000000 0.000000
# 3 -0.011327 -0.004380 0.021347 0.000000 0.000000 0.000000
# 4 0.000000 0.000000 0.000000 0.065973 0.000000 0.000000
# 5 0.000000 0.000000 0.000000 0.000000 0.061050 0.000000
# 6 0.000000 0.000000 0.000000 0.000000 0.000000 0.429436
#
#
# Mechanical properties :
#
#
# Convention : Reuss Voigt Hill
#
# Bulk Modulus (GPa) = 32.52423 47.09122 39.80772
# Shear Modulus (GPa) = 7.33688 16.08575 11.71131
#
# Velocity S-wave (km/s) = 2.14014 3.16890 2.70390
# Velocity P-wave (km/s) = 5.13916 6.54117 5.88209
#
# Compressibility (1/GPa) = 0.03074631
#
# Stress axis : x y z
#
# Youngs Moduli (GPa) = 24.23129 98.54403 46.84420
#
# Poissons Ratio (x) = 0.52255 0.53059
# Poissons Ratio (y) = 0.12849 0.20516
# Poissons Ratio (z) = 0.27446 0.43158
#
# Static dielectric constant tensor:
#      x y z
#    x 1.541360 0.000000 0.000000 
#    y 0.000000 1.554250 0.000000 
#    z 0.000000 0.000000 1.536620 
# 
# From -- ./inp_files/38424.got.cif
#   From: 2010.05.17/outbox.cif.g08.bks.cpg/sg53_20_cif.got.tgz:38424.got - 2010.06.03 12:45:16.
