data_PCOD9415165
_publ_section_title
;
Structure prediction by ZEFSAII (Michael W. Deem and Ramdas Pophale) SiO2 
 PCOD9415165
Probable space group: P M N A
;
_chemical_formula_sum "Si O2"
_cell_formula_units_Z 64
_cell_length_a 8.823017
_cell_length_b 27.105650
_cell_length_c 18.795246
_cell_angle_alpha 90.000000
_cell_angle_beta 90.000000
_cell_angle_gamma 90.000000
_cell_volume 4494.950946
_symmetry_space_group_name_H-M "P M N A"
_symmetry_group_IT_number 53
_symmetry_cell_setting 'orthorhombic'
loop_
_space_group_symop_operation_xyz
x,y,z
1/2-x,-y,1/2+z
x,-y,-z
1/2-x,y,1/2-z
-x,-y,-z
1/2+x,y,1/2-z
-x,y,z
1/2+x,-y,1/2+z
loop_
_atom_site_type_symbol
_atom_site_label
_atom_site_fract_x
_atom_site_fract_y
_atom_site_fract_z
Si Si1 0.316159 0.897909 0.914910
Si Si2 0.817165 0.507436 0.671977
Si Si3 0.825120 0.951527 0.449147
Si Si4 0.179842 0.398909 0.088880
Si Si5 0.325787 0.552995 0.040275
Si Si6 0.682165 0.309703 0.172037
Si Si7 0.819905 0.010322 0.171985
Si Si8 0.317958 0.803731 0.827063
O O1 0.500000 0.902855 0.912213
O O2 0.246502 0.940054 0.864434
O O3 0.272605 0.844644 0.884540
O O4 0.271908 0.909020 0.996652
O O5 0.750000 0.501409 0.750000
O O6 0.751081 0.557260 0.636894
O O7 0.777008 0.461875 0.619603
O O8 0.000000 0.511170 0.673202
O O9 0.000000 0.942912 0.428112
O O10 0.823886 0.000000 0.500000
O O11 0.728405 0.965871 0.380691
O O12 0.250196 0.348031 0.116270
O O13 0.000000 0.398936 0.097486
O O14 0.225192 0.411448 0.007729
O O15 0.500000 0.570521 0.040606
O O16 0.325390 0.500000 0.000000
O O17 0.750000 0.321192 0.250000
O O18 0.500000 0.313872 0.174431
O O19 0.723947 0.252772 0.155733
O O20 0.750000 0.004482 0.250000
O O21 0.000000 0.014018 0.176325
O O22 0.250000 0.816216 0.750000
O O23 0.500000 0.805270 0.821205
#
# Coordination Sequence:
#
# PCOD9415165 Si02
#       8
#     8   8   8   8   8   8   8   8
#     4   9  17  30  45  61  82 108 138 169 206 246
#     4  10  19  30  44  62  85 111 139 170 204 243
#     4   8  15  28  43  58  80 107 133 166 204 242
#     4  11  20  29  43  61  82 110 143 174 206 243
#     4   8  16  30  44  59  81 108 136 168 205 243
#     4  10  19  31  44  59  82 109 140 175 208 241
#     4  11  20  28  40  59  83 110 141 171 202 241
#     4   9  18  30  44  61  81 108 139 172 206 241
#
# _framework density 14.238198000000001
#
# number of rings (size 3 to 8) (size 9 to 14) (size 15 to 20)
#    0.000    2.500    0.000    5.250    0.000    7.000 
#    0.000    0.000    0.000    0.000    0.000    0.000 
#    0.000    1.000    0.000    6.250    0.000    3.875 
#
# Total GULP energy -356649.745142 kJ/mol
# GULP energy per Si atom -5572.652268 kJ/mol
# Density = 1.420579 g / cm^3
# Si number density = 14.238198 Si / 1000 Ang^3
#
#
#
# Elastic Constant Matrix: (Units=GPa)
#
#
# Indices 1 2 3 4 5 6 
#
# 1 59.5412 30.5355 41.1085 0.0000 0.0000 0.0000
# 2 30.5355 71.2582 45.8552 0.0000 0.0000 0.0000
# 3 41.1085 45.8552 100.3837 0.0000 0.0000 0.0000
# 4 0.0000 0.0000 0.0000 25.8375 0.0000 0.0000
# 5 0.0000 0.0000 0.0000 0.0000 22.9899 0.0000
# 6 0.0000 0.0000 0.0000 0.0000 0.0000 19.6375
#
#
#
# Elastic Compliance Matrix: (Units=1/GPa)
#
#
# Indices 1 2 3 4 5 6 
#
# 1 0.025026 -0.005848 -0.007577 0.000000 0.000000 0.000000
# 2 -0.005848 0.021243 -0.007309 0.000000 0.000000 0.000000
# 3 -0.007577 -0.007309 0.016403 0.000000 0.000000 0.000000
# 4 0.000000 0.000000 0.000000 0.038703 0.000000 0.000000
# 5 0.000000 0.000000 0.000000 0.000000 0.043497 0.000000
# 6 0.000000 0.000000 0.000000 0.000000 0.000000 0.050923
#
#
# Mechanical properties :
#
#
# Convention : Reuss Voigt Hill
#
# Bulk Modulus (GPa) = 47.16103 51.79798 49.47951
# Shear Modulus (GPa) = 20.46405 21.27191 20.86798
#
# Velocity S-wave (km/s) = 3.79524 3.86943 3.83251
# Velocity P-wave (km/s) = 7.23878 7.51145 7.37637
#
# Compressibility (1/GPa) = 0.02120395
#
# Stress axis : x y z
#
# Youngs Moduli (GPa) = 39.95917 47.07482 60.96348
#
# Poissons Ratio (x) = 0.27530 0.46191
# Poissons Ratio (y) = 0.23369 0.44557
# Poissons Ratio (z) = 0.30277 0.34406
#
# Static dielectric constant tensor:
#      x y z
#    x 1.476400 0.000000 0.000000 
#    y 0.000000 1.466360 0.000000 
#    z 0.000000 0.000000 1.474040 
# 
# From -- ./inp_files/27092.got.cif
#   From: 2010.05.17/outbox.cif.g08.bks.cpg/sg53_14_cif.got.tgz:27092.got - 2010.06.03 12:45:16.
