data_PCOD9415132
_publ_section_title
;
Structure prediction by ZEFSAII (Michael W. Deem and Ramdas Pophale) SiO2 
 PCOD9415132
Probable space group: P M N A
;
_chemical_formula_sum "Si O2"
_cell_formula_units_Z 64
_cell_length_a 9.315478
_cell_length_b 16.051823
_cell_length_c 23.615367
_cell_angle_alpha 90.000000
_cell_angle_beta 90.000000
_cell_angle_gamma 90.000000
_cell_volume 3531.215369
_symmetry_space_group_name_H-M "P M N A"
_symmetry_group_IT_number 53
_symmetry_cell_setting 'orthorhombic'
loop_
_space_group_symop_operation_xyz
x,y,z
1/2-x,-y,1/2+z
x,-y,-z
1/2-x,y,1/2-z
-x,-y,-z
1/2+x,y,1/2-z
-x,y,z
1/2+x,-y,1/2+z
loop_
_atom_site_type_symbol
_atom_site_label
_atom_site_fract_x
_atom_site_fract_y
_atom_site_fract_z
Si Si1 0.833893 0.195322 0.605991
Si Si2 0.164449 0.443443 0.306288
Si Si3 0.830667 0.096550 0.984218
Si Si4 0.674502 0.221717 0.068402
Si Si5 0.835857 0.353948 0.519432
Si Si6 0.335474 0.543680 0.394823
Si Si7 0.834065 0.300951 0.807176
Si Si8 0.836001 0.242448 0.304768
O O1 0.750493 0.122429 0.573341
O O2 0.834566 0.274517 0.562567
O O3 0.748715 0.226745 0.660733
O O4 0.000000 0.174950 0.617467
O O5 0.250000 0.470924 0.250000
O O6 0.240941 0.475437 0.362735
O O7 0.163927 0.343291 0.305486
O O8 0.000000 0.473472 0.303977
O O9 0.754993 0.152227 0.032247
O O10 0.000000 0.117055 0.979822
O O11 0.816117 0.000000 0.000000
O O12 0.500000 0.212889 0.064015
O O13 0.718423 0.216432 0.133615
O O14 0.707348 0.311659 0.039877
O O15 0.734566 0.422377 0.547509
O O16 0.000000 0.384249 0.515898
O O17 0.500000 0.517648 0.402654
O O18 0.333159 0.621277 0.350514
O O19 0.750000 0.321643 0.750000
O O20 0.000000 0.280544 0.795424
O O21 0.750000 0.214147 0.250000
O O22 0.000000 0.214677 0.299687
#
# Coordination Sequence:
#
# PCOD9415132 Si02
#       8
#     8   8   8   8   8   8   8   8
#     4   9  17  30  48  69  95 127 162 198 235 279
#     4  10  19  31  47  66  92 126 165 211 258 299
#     4  10  20  33  52  80 108 129 152 188 235 286
#     4   9  18  34  55  77 101 129 164 202 240 292
#     4   8  15  28  46  67  92 124 160 199 243 289
#     4  10  19  29  43  65  94 127 165 209 252 294
#     4  10  19  29  43  65  94 129 168 206 244 288
#     4   9  19  35  54  76  99 127 165 207 250 294
#
# _framework density 18.124071000000001
#
# number of rings (size 3 to 8) (size 9 to 14) (size 15 to 20)
#    0.000    2.625    0.000    3.000    0.000    7.500 
#    0.000    0.625    0.000    4.500    0.000    1.750 
#    0.000    0.000    0.000    0.000    0.000    0.000 
#
# Total GULP energy -357017.823210 kJ/mol
# GULP energy per Si atom -5578.403488 kJ/mol
# Density = 1.808282 g / cm^3
# Si number density = 18.124071 Si / 1000 Ang^3
#
#
#
# Elastic Constant Matrix: (Units=GPa)
#
#
# Indices 1 2 3 4 5 6 
#
# 1 101.1929 20.5480 41.6751 0.0000 0.0000 0.0000
# 2 20.5480 23.3932 13.0134 0.0000 0.0000 0.0000
# 3 41.6751 13.0134 86.6020 0.0000 0.0000 0.0000
# 4 0.0000 0.0000 0.0000 18.9425 0.0000 0.0000
# 5 0.0000 0.0000 0.0000 0.0000 27.8127 0.0000
# 6 0.0000 0.0000 0.0000 0.0000 0.0000 11.9321
#
#
#
# Elastic Compliance Matrix: (Units=1/GPa)
#
#
# Indices 1 2 3 4 5 6 
#
# 1 0.013963 -0.009305 -0.005321 0.000000 0.000000 0.000000
# 2 -0.009305 0.052847 -0.003464 0.000000 0.000000 0.000000
# 3 -0.005321 -0.003464 0.014628 0.000000 0.000000 0.000000
# 4 0.000000 0.000000 0.000000 0.052791 0.000000 0.000000
# 5 0.000000 0.000000 0.000000 0.000000 0.035955 0.000000
# 6 0.000000 0.000000 0.000000 0.000000 0.000000 0.083808
#
#
# Mechanical properties :
#
#
# Convention : Reuss Voigt Hill
#
# Bulk Modulus (GPa) = 22.09472 40.18455 31.13963
# Shear Modulus (GPa) = 16.37964 20.80091 18.59028
#
# Velocity S-wave (km/s) = 3.00951 3.39144 3.20617
# Velocity P-wave (km/s) = 4.92884 6.12829 5.56099
#
# Compressibility (1/GPa) = 0.04525969
#
# Stress axis : x y z
#
# Youngs Moduli (GPa) = 71.61818 18.92251 68.36109
#
# Poissons Ratio (x) = 0.17607 0.36376
# Poissons Ratio (y) = 0.66638 0.23677
# Poissons Ratio (z) = 0.38109 0.06554
#
# Static dielectric constant tensor:
#      x y z
#    x 1.618270 0.000000 0.000000 
#    y 0.000000 1.611580 0.000000 
#    z 0.000000 0.000000 1.638790 
# 
# From -- ./inp_files/34434.got.cif
#   From: 2010.05.17/outbox.cif.g08.bks.cpg/sg53_18_cif.got.tgz:34434.got - 2010.06.03 12:45:16.
