data_PCOD9415814
_publ_section_title
;
Structure prediction by ZEFSAII (Michael W. Deem and Ramdas Pophale) SiO2 
 PCOD9415814
Probable space group: P M N A
;
_chemical_formula_sum "Si O2"
_cell_formula_units_Z 48
_cell_length_a 27.935431
_cell_length_b 5.327336
_cell_length_c 14.265041
_cell_angle_alpha 90.000000
_cell_angle_beta 90.000000
_cell_angle_gamma 90.000000
_cell_volume 2122.943761
_symmetry_space_group_name_H-M "P M N A"
_symmetry_group_IT_number 53
_symmetry_cell_setting 'orthorhombic'
loop_
_space_group_symop_operation_xyz
x,y,z
1/2-x,-y,1/2+z
x,-y,-z
1/2-x,y,1/2-z
-x,-y,-z
1/2+x,y,1/2-z
-x,y,z
1/2+x,-y,1/2+z
loop_
_atom_site_type_symbol
_atom_site_label
_atom_site_fract_x
_atom_site_fract_y
_atom_site_fract_z
Si Si1 0.443961 0.397686 0.297284
Si Si2 0.450414 0.310819 0.085377
Si Si3 0.233380 0.588495 0.642251
Si Si4 0.648881 0.067003 0.102220
Si Si5 0.274179 0.913236 0.355427
Si Si6 0.618894 0.879961 0.298080
O O1 0.500000 0.378458 0.331104
O O2 0.447884 0.443753 0.185575
O O3 0.413607 0.642325 0.327569
O O4 0.412946 0.137775 0.309004
O O5 0.500000 0.160763 0.086895
O O6 0.404248 0.148651 0.080181
O O7 0.450485 0.500000 0.000000
O O8 0.250000 0.558175 0.750000
O O9 0.179900 0.696104 0.638186
O O10 0.244982 0.318091 0.601137
O O11 0.264678 0.815209 0.601865
O O12 0.640026 0.880623 0.190107
O O13 0.669261 0.000000 0.000000
O O14 0.250000 0.939632 0.250000
O O15 0.330767 0.872150 0.352860
#
# Coordination Sequence:
#
# PCOD9415814 Si02
#       6
#     8   8   8   8   8   8
#     4  10  21  33  49  71 100 133 174 220 269 311
#     4   9  19  33  47  67 100 141 182 225 268 308
#     4  10  20  35  52  72 101 129 172 226 271 321
#     4  11  22  33  51  79 104 138 186 236 273 311
#     4  10  19  32  54  72  91 130 172 222 258 323
#     4  11  20  34  53  72  99 134 181 223 262 313
#
# _framework density 22.610113999999999
#
# number of rings (size 3 to 8) (size 9 to 14) (size 15 to 20)
#    0.000    1.833    3.333    2.500    7.000    2.333 
#    0.000    0.000    0.000    0.000    0.000    0.000 
#    0.000    0.000    0.000    0.000    0.000   69.167 
#
# Total GULP energy -267490.002853 kJ/mol
# GULP energy per Si atom -5572.708393 kJ/mol
# Density = 2.255865 g / cm^3
# Si number density = 22.610114 Si / 1000 Ang^3
#
#
#
# Elastic Constant Matrix: (Units=GPa)
#
#
# Indices 1 2 3 4 5 6 
#
# 1 167.8366 24.1247 13.1547 0.0000 0.0000 0.0000
# 2 24.1247 107.9974 8.2069 0.0000 0.0000 0.0000
# 3 13.1547 8.2069 18.7389 0.0000 0.0000 0.0000
# 4 0.0000 0.0000 0.0000 -20.7235 0.0000 0.0000
# 5 0.0000 0.0000 0.0000 0.0000 660.1037 0.0000
# 6 0.0000 0.0000 0.0000 0.0000 0.0000 12.5954
#
#
#
# Elastic Compliance Matrix: (Units=1/GPa)
#
#
# Indices 1 2 3 4 5 6 
#
# 1 0.006436 -0.001132 -0.004022 0.000000 0.000000 0.000000
# 2 -0.001132 0.009777 -0.003487 0.000000 0.000000 0.000000
# 3 -0.004022 -0.003487 0.057716 0.000000 0.000000 0.000000
# 4 0.000000 0.000000 0.000000 -0.048254 0.000000 0.000000
# 5 0.000000 0.000000 0.000000 0.000000 0.001515 0.000000
# 6 0.000000 0.000000 0.000000 0.000000 0.000000 0.079394
#
#
# Mechanical properties :
#
#
# Convention : Reuss Voigt Hill
#
# Bulk Modulus (GPa) = 17.65358 42.83836 30.24597
# Shear Modulus (GPa) = 35.02631 147.00088 91.01360
#
# Velocity S-wave (km/s) = 3.94019 8.07197 6.35145
# Velocity P-wave (km/s) = 5.34087 10.28899 8.19720
#
# Compressibility (1/GPa) = 0.05664574
#
# Stress axis : x y z
#
# Youngs Moduli (GPa) = 155.37206 102.27694 17.32628
#
# Poissons Ratio (x) = 0.11578 0.06969
# Poissons Ratio (y) = 0.17589 0.06042
# Poissons Ratio (z) = 0.62496 0.35668
#
# Static dielectric constant tensor:
#      x y z
#    x 1.905940 0.000000 0.000000 
#    y 0.000000 1.919050 0.000000 
#    z 0.000000 0.000000 1.909390 
# 
# From -- ./inp_files/29523.got.cif
#   From: 2010.05.17/outbox.cif.g08.bks.cpg/sg53_15_cif.got.tgz:29523.got - 2010.06.03 12:45:16.
