data_PCOD9415897
_publ_section_title
;
Structure prediction by ZEFSAII (Michael W. Deem and Ramdas Pophale) SiO2 
 PCOD9415897
Probable space group: P M N A
;
_chemical_formula_sum "Si O2"
_cell_formula_units_Z 64
_cell_length_a 17.740393
_cell_length_b 20.538901
_cell_length_c 9.156743
_cell_angle_alpha 90.000000
_cell_angle_beta 90.000000
_cell_angle_gamma 90.000000
_cell_volume 3336.425741
_symmetry_space_group_name_H-M "P M N A"
_symmetry_group_IT_number 53
_symmetry_cell_setting 'orthorhombic'
loop_
_space_group_symop_operation_xyz
x,y,z
1/2-x,-y,1/2+z
x,-y,-z
1/2-x,y,1/2-z
-x,-y,-z
1/2+x,y,1/2-z
-x,y,z
1/2+x,-y,1/2+z
loop_
_atom_site_type_symbol
_atom_site_label
_atom_site_fract_x
_atom_site_fract_y
_atom_site_fract_z
Si Si1 0.909121 0.257677 0.914789
Si Si2 0.585456 0.926454 0.059289
Si Si3 0.234594 0.109465 0.407666
Si Si4 0.089874 0.316871 0.233066
Si Si5 0.909433 0.572773 0.546772
Si Si6 0.672837 0.875443 0.333894
Si Si7 0.287366 0.258526 0.107712
Si Si8 0.320835 0.337364 0.829384
O O1 0.875582 0.185074 0.894505
O O2 0.871458 0.298227 0.784549
O O3 0.000000 0.255782 0.903654
O O4 0.889738 0.293768 0.068705
O O5 0.500000 0.900221 0.056103
O O6 0.621900 0.915559 0.219624
O O7 0.648022 0.895317 0.954484
O O8 0.582415 0.000000 0.000000
O O9 0.250000 0.079939 0.250000
O O10 0.291467 0.084649 0.531361
O O11 0.246854 0.187176 0.400148
O O12 0.112133 0.388148 0.302182
O O13 0.125603 0.264052 0.343743
O O14 0.000000 0.314850 0.238886
O O15 0.885117 0.500000 0.500000
O O16 0.874676 0.616293 0.419722
O O17 0.000000 0.572891 0.544875
O O18 0.750000 0.852648 0.250000
O O19 0.250000 0.292889 0.250000
O O20 0.282854 0.290549 0.950551
O O21 0.250000 0.370620 0.750000
#
# Coordination Sequence:
#
# PCOD9415897 Si02
#       8
#     8   8   8   8   8   8   8   8
#     4  11  20  32  53  84 116 143 179 229 289 348
#     4  10  22  40  58  78 109 151 197 240 283 337
#     4  10  20  34  57  86 114 145 186 233 287 346
#     4   9  19  33  52  78 107 141 180 223 272 331
#     4   9  19  38  57  72  99 144 191 230 274 331
#     4  10  20  36  57  82 114 150 186 228 286 349
#     4  10  19  33  52  76 108 143 176 216 275 338
#     4  11  20  32  52  77 106 137 178 229 281 337
#
# _framework density 19.182203999999999
#
# number of rings (size 3 to 8) (size 9 to 14) (size 15 to 20)
#    0.000    2.000    0.000    5.625    0.000    2.500 
#    0.000    5.625    0.000    4.500    0.000    0.000 
#    0.000    0.000    0.000    0.000    0.000    0.000 
#
# Total GULP energy -356320.142829 kJ/mol
# GULP energy per Si atom -5567.502232 kJ/mol
# Density = 1.913854 g / cm^3
# Si number density = 19.182204 Si / 1000 Ang^3
#
#
#
# Elastic Constant Matrix: (Units=GPa)
#
#
# Indices 1 2 3 4 5 6 
#
# 1 96.6828 21.3726 59.3172 0.0000 0.0000 0.0000
# 2 21.3726 53.2255 33.7052 0.0000 0.0000 0.0000
# 3 59.3172 33.7052 142.2554 0.0000 0.0000 0.0000
# 4 0.0000 0.0000 0.0000 20.3943 0.0000 0.0000
# 5 0.0000 0.0000 0.0000 0.0000 34.5931 0.0000
# 6 0.0000 0.0000 0.0000 0.0000 0.0000 -8.4299
#
#
#
# Elastic Compliance Matrix: (Units=1/GPa)
#
#
# Indices 1 2 3 4 5 6 
#
# 1 0.014131 -0.002286 -0.005351 0.000000 0.000000 0.000000
# 2 -0.002286 0.022474 -0.004372 0.000000 0.000000 0.000000
# 3 -0.005351 -0.004372 0.010297 0.000000 0.000000 0.000000
# 4 0.000000 0.000000 0.000000 0.049033 0.000000 0.000000
# 5 0.000000 0.000000 0.000000 0.000000 0.028907 0.000000
# 6 0.000000 0.000000 0.000000 0.000000 0.000000 -0.118626
#
#
# Mechanical properties :
#
#
# Convention : Reuss Voigt Hill
#
# Bulk Modulus (GPa) = 43.69644 57.88373 50.79009
# Shear Modulus (GPa) = 132.05714 21.16276 76.60995
#
# Velocity S-wave (km/s) = 8.30620 3.32512 6.32651
# Velocity P-wave (km/s) = 10.71540 6.70695 8.93876
#
# Compressibility (1/GPa) = 0.02288516
#
# Stress axis : x y z
#
# Youngs Moduli (GPa) = 70.76508 44.49519 97.11970
#
# Poissons Ratio (x) = 0.10172 0.51967
# Poissons Ratio (y) = 0.16177 0.42458
# Poissons Ratio (z) = 0.37865 0.19452
#
# Static dielectric constant tensor:
#      x y z
#    x 1.716400 0.000000 0.000000 
#    y 0.000000 1.700890 0.000000 
#    z 0.000000 0.000000 1.724490 
# 
# From -- ./inp_files/10220.got.cif
#   From: 2010.05.17/outbox.cif.g08.bks.cpg/sg53_6_cif.got.tgz:10220.got - 2010.06.03 12:45:16.
