data_PCOD9415136
_publ_section_title
;
Structure prediction by ZEFSAII (Michael W. Deem and Ramdas Pophale) SiO2 
 PCOD9415136
Probable space group: P M N A
;
_chemical_formula_sum "Si O2"
_cell_formula_units_Z 56
_cell_length_a 7.617837
_cell_length_b 19.735948
_cell_length_c 17.457155
_cell_angle_alpha 90.000000
_cell_angle_beta 90.000000
_cell_angle_gamma 90.000000
_cell_volume 2624.600069
_symmetry_space_group_name_H-M "P M N A"
_symmetry_group_IT_number 53
_symmetry_cell_setting 'orthorhombic'
loop_
_space_group_symop_operation_xyz
x,y,z
1/2-x,-y,1/2+z
x,-y,-z
1/2-x,y,1/2-z
-x,-y,-z
1/2+x,y,1/2-z
-x,y,z
1/2+x,-y,1/2+z
loop_
_atom_site_type_symbol
_atom_site_label
_atom_site_fract_x
_atom_site_fract_y
_atom_site_fract_z
Si Si1 0.290705 0.842938 0.835626
Si Si2 0.287508 0.204425 0.567825
Si Si3 0.796147 0.714485 0.920553
Si Si4 0.292214 0.925789 0.982443
Si Si5 0.785965 0.540172 0.076920
Si Si6 0.289825 0.587215 0.663803
Si Si7 0.210493 0.672731 0.161886
O O1 0.250000 0.866495 0.750000
O O2 0.500000 0.837122 0.843281
O O3 0.214211 0.768296 0.851583
O O4 0.222410 0.890892 0.904398
O O5 0.500000 0.202039 0.567354
O O6 0.221915 0.246671 0.493587
O O7 0.230417 0.127720 0.551712
O O8 0.229315 0.251580 0.638245
O O9 0.717937 0.643475 0.894439
O O10 0.000000 0.701877 0.939803
O O11 0.500000 0.933852 0.969635
O O12 0.218431 0.000000 0.000000
O O13 0.732057 0.488265 0.143905
O O14 0.725274 0.614855 0.102273
O O15 0.000000 0.544311 0.071852
O O16 0.730485 0.500000 0.000000
O O17 0.250000 0.606535 0.750000
O O18 0.500000 0.587438 0.654922
O O19 0.250000 0.656399 0.250000
O O20 0.000000 0.672910 0.154476
#
# Coordination Sequence:
#
# PCOD9415136 Si02
#       7
#     8   8   8   8   8   8   8
#     4  10  19  31  49  73 100 130 162 196 240 294
#     4   9  18  33  53  76  99 127 166 206 244 292
#     4   9  17  30  48  70  97 127 161 201 242 289
#     4   9  19  36  56  77 102 132 164 201 249 302
#     4   9  17  31  51  71  92 125 171 216 255 297
#     4  10  19  29  44  67  94 124 156 194 240 285
#     4  10  20  34  53  76 103 136 175 219 264 310
#
# _framework density 21.336584999999999
#
# number of rings (size 3 to 8) (size 9 to 14) (size 15 to 20)
#    0.000    2.571    0.000    2.143    0.000    6.571 
#    0.000    0.714    0.000    6.857    0.000    0.000 
#    0.000    0.000    0.000    0.000    0.000    0.000 
#
# Total GULP energy -312280.765512 kJ/mol
# GULP energy per Si atom -5576.442241 kJ/mol
# Density = 2.128802 g / cm^3
# Si number density = 21.336585 Si / 1000 Ang^3
#
#
#
# Elastic Constant Matrix: (Units=GPa)
#
#
# Indices 1 2 3 4 5 6 
#
# 1 39.7368 -4.1551 -9.7903 0.0000 0.0000 0.0000
# 2 -4.1551 143.6485 30.6948 0.0000 0.0000 0.0000
# 3 -9.7903 30.6948 71.7373 0.0000 0.0000 0.0000
# 4 0.0000 0.0000 0.0000 22.2238 0.0000 0.0000
# 5 0.0000 0.0000 0.0000 0.0000 -85.2611 0.0000
# 6 0.0000 0.0000 0.0000 0.0000 0.0000 -46.4389
#
#
#
# Elastic Compliance Matrix: (Units=1/GPa)
#
#
# Indices 1 2 3 4 5 6 
#
# 1 0.026041 -0.000007 0.003557 0.000000 0.000000 0.000000
# 2 -0.000007 0.007662 -0.003279 0.000000 0.000000 0.000000
# 3 0.003557 -0.003279 0.015828 0.000000 0.000000 0.000000
# 4 0.000000 0.000000 0.000000 0.044997 0.000000 0.000000
# 5 0.000000 0.000000 0.000000 0.000000 -0.011729 0.000000
# 6 0.000000 0.000000 0.000000 0.000000 0.000000 -0.021534
#
#
# Mechanical properties :
#
#
# Convention : Reuss Voigt Hill
#
# Bulk Modulus (GPa) = 19.97082 32.06905 26.01994
# Shear Modulus (GPa) = 64.58655 -6.00370 29.29143
#
# Velocity S-wave (km/s) = 5.50782 -1.67926 3.70919
# Velocity P-wave (km/s) = 7.05891 3.36197 5.52861
#
# Compressibility (1/GPa) = 0.05007305
#
# Stress axis : x y z
#
# Youngs Moduli (GPa) = 38.40063 130.51490 63.17793
#
# Poissons Ratio (x) = 0.00088 -0.22471
# Poissons Ratio (y) = 0.00026 0.20718
# Poissons Ratio (z) = -0.13659 0.42800
#
# Static dielectric constant tensor:
#      x y z
#    x 1.817220 0.000000 0.000000 
#    y 0.000000 1.794220 0.000000 
#    z 0.000000 0.000000 1.795430 
# 
# From -- ./inp_files/21851.got.cif
#   From: 2010.05.17/outbox.cif.g08.bks.cpg/sg53_11_cif.got.tgz:21851.got - 2010.06.03 12:45:16.
