data_PCOD9415128
_publ_section_title
;
Structure prediction by ZEFSAII (Michael W. Deem and Ramdas Pophale) SiO2 
 PCOD9415128
Probable space group: P M N A
;
_chemical_formula_sum "Si O2"
_cell_formula_units_Z 64
_cell_length_a 8.176550
_cell_length_b 14.494683
_cell_length_c 29.225471
_cell_angle_alpha 90.000000
_cell_angle_beta 90.000000
_cell_angle_gamma 90.000000
_cell_volume 3463.700542
_symmetry_space_group_name_H-M "P M N A"
_symmetry_group_IT_number 53
_symmetry_cell_setting 'orthorhombic'
loop_
_space_group_symop_operation_xyz
x,y,z
1/2-x,-y,1/2+z
x,-y,-z
1/2-x,y,1/2-z
-x,-y,-z
1/2+x,y,1/2-z
-x,y,z
1/2+x,-y,1/2+z
loop_
_atom_site_type_symbol
_atom_site_label
_atom_site_fract_x
_atom_site_fract_y
_atom_site_fract_z
Si Si1 0.304123 0.100232 0.981107
Si Si2 0.801586 0.524421 0.199169
Si Si3 0.191696 0.243466 0.300451
Si Si4 0.193496 0.775132 0.937822
Si Si5 0.697627 0.876606 0.122701
Si Si6 0.805525 0.263674 0.799796
Si Si7 0.311698 0.380231 0.373686
Si Si8 0.193435 0.081638 0.361692
O O1 0.500000 0.090560 0.978224
O O2 0.244988 0.125347 0.930125
O O3 0.265321 0.182648 0.015975
O O4 0.242543 0.000000 0.000000
O O5 0.750000 0.489725 0.250000
O O6 0.744460 0.630533 0.195993
O O7 0.740665 0.466916 0.154798
O O8 0.000000 0.520470 0.198157
O O9 0.250000 0.260139 0.250000
O O10 0.301456 0.302687 0.334439
O O11 0.211497 0.137225 0.314839
O O12 0.000000 0.267552 0.307026
O O13 0.259832 0.677661 0.916908
O O14 0.225288 0.855619 0.900558
O O15 0.000000 0.763563 0.943319
O O16 0.500000 0.873494 0.122531
O O17 0.754179 0.798280 0.157443
O O18 0.751596 0.977492 0.140156
O O19 0.750000 0.227523 0.750000
O O20 0.000000 0.268265 0.799004
O O21 0.500000 0.402824 0.385054
O O22 0.000000 0.079944 0.373516
#
# Coordination Sequence:
#
# PCOD9415128 Si02
#       8
#     8   8   8   8   8   8   8   8
#     4  10  19  34  55  75 102 140 176 210 254 305
#     4   9  18  33  53  75 100 131 168 210 258 309
#     4  10  19  29  43  64  94 129 164 202 243 297
#     4  10  19  30  48  76 106 131 164 211 254 296
#     4  10  20  35  55  76 100 134 174 213 254 302
#     4  10  21  37  56  78 104 133 169 214 259 305
#     4   9  18  32  49  71 100 131 164 204 253 304
#     4   9  18  33  48  64  93 133 170 201 247 305
#
# _framework density 18.477347999999999
#
# number of rings (size 3 to 8) (size 9 to 14) (size 15 to 20)
#    0.000    2.375    1.250    1.500    0.000    4.750 
#    0.000    1.250    0.000    0.750    0.000    5.250 
#    0.000    0.000    0.000    0.000    0.000    0.000 
#
# Total GULP energy -356430.020992 kJ/mol
# GULP energy per Si atom -5569.219078 kJ/mol
# Density = 1.843529 g / cm^3
# Si number density = 18.477348 Si / 1000 Ang^3
#
#
#
# Elastic Constant Matrix: (Units=GPa)
#
#
# Indices 1 2 3 4 5 6 
#
# 1 11.5258 9.0488 7.6207 0.0000 0.0000 0.0000
# 2 9.0488 87.5286 56.3546 0.0000 0.0000 0.0000
# 3 7.6207 56.3546 100.0427 0.0000 0.0000 0.0000
# 4 0.0000 0.0000 0.0000 28.4467 0.0000 0.0000
# 5 0.0000 0.0000 0.0000 0.0000 25.7016 0.0000
# 6 0.0000 0.0000 0.0000 0.0000 0.0000 10.8337
#
#
#
# Elastic Compliance Matrix: (Units=1/GPa)
#
#
# Indices 1 2 3 4 5 6 
#
# 1 0.094878 -0.008089 -0.002671 0.000000 0.000000 0.000000
# 2 -0.008089 0.018616 -0.009870 0.000000 0.000000 0.000000
# 3 -0.002671 -0.009870 0.015759 0.000000 0.000000 0.000000
# 4 0.000000 0.000000 0.000000 0.035153 0.000000 0.000000
# 5 0.000000 0.000000 0.000000 0.000000 0.038908 0.000000
# 6 0.000000 0.000000 0.000000 0.000000 0.000000 0.092305
#
#
# Mechanical properties :
#
#
# Convention : Reuss Voigt Hill
#
# Bulk Modulus (GPa) = 11.36453 38.34950 24.85701
# Shear Modulus (GPa) = 13.65333 21.40125 17.52729
#
# Velocity S-wave (km/s) = 2.72126 3.40699 3.08325
# Velocity P-wave (km/s) = 4.00469 6.02301 5.11440
#
# Compressibility (1/GPa) = 0.08799307
#
# Stress axis : x y z
#
# Youngs Moduli (GPa) = 10.53984 53.71707 63.45508
#
# Poissons Ratio (x) = 0.43453 0.16946
# Poissons Ratio (y) = 0.08526 0.62632
# Poissons Ratio (z) = 0.02815 0.53021
#
# Static dielectric constant tensor:
#      x y z
#    x 1.675370 0.000000 0.000000 
#    y 0.000000 1.665010 0.000000 
#    z 0.000000 0.000000 1.655900 
# 
# From -- ./inp_files/34248.got.cif
#   From: 2010.05.17/outbox.cif.g08.bks.cpg/sg53_18_cif.got.tgz:34248.got - 2010.06.03 12:45:16.
