data_PCOD9415570
_publ_section_title
;
Structure prediction by ZEFSAII (Michael W. Deem and Ramdas Pophale) SiO2 
 PCOD9415570
Probable space group: P M N A
;
_chemical_formula_sum "Si O2"
_cell_formula_units_Z 56
_cell_length_a 8.506965
_cell_length_b 19.775632
_cell_length_c 18.738243
_cell_angle_alpha 90.000000
_cell_angle_beta 90.000000
_cell_angle_gamma 90.000000
_cell_volume 3152.346037
_symmetry_space_group_name_H-M "P M N A"
_symmetry_group_IT_number 53
_symmetry_cell_setting 'orthorhombic'
loop_
_space_group_symop_operation_xyz
x,y,z
1/2-x,-y,1/2+z
x,-y,-z
1/2-x,y,1/2-z
-x,-y,-z
1/2+x,y,1/2-z
-x,y,z
1/2+x,-y,1/2+z
loop_
_atom_site_type_symbol
_atom_site_label
_atom_site_fract_x
_atom_site_fract_y
_atom_site_fract_z
Si Si1 0.314081 0.775479 0.106843
Si Si2 0.689738 0.082905 0.578616
Si Si3 0.189689 0.800751 0.828906
Si Si4 0.687589 0.358840 0.673380
Si Si5 0.308586 0.427510 0.527184
Si Si6 0.691126 0.067808 0.412459
Si Si7 0.809875 0.712270 0.961476
O O1 0.500000 0.771441 0.112831
O O2 0.257903 0.852098 0.117979
O O3 0.239791 0.718051 0.156972
O O4 0.260011 0.754630 0.027042
O O5 0.500000 0.086702 0.581232
O O6 0.735643 0.083974 0.494461
O O7 0.739991 0.008709 0.605699
O O8 0.250000 0.788485 0.750000
O O9 0.244856 0.873244 0.859918
O O10 0.238212 0.744251 0.886514
O O11 0.000000 0.801759 0.827718
O O12 0.750000 0.380856 0.750000
O O13 0.500000 0.360737 0.673715
O O14 0.743186 0.404552 0.606405
O O15 0.251654 0.500000 0.500000
O O16 0.500000 0.430117 0.528913
O O17 0.265986 0.365622 0.474868
O O18 0.500000 0.067976 0.412124
O O19 0.000000 0.717480 0.967171
#
# Coordination Sequence:
#
# PCOD9415570 Si02
#       7
#     8   8   8   8   8   8   8
#     4  11  20  30  49  77 105 131 166 213 260 306
#     4   9  15  29  51  71  91 125 170 212 258 308
#     4  10  19  32  48  69  97 132 172 210 256 302
#     4  10  20  35  55  78 107 141 174 211 255 308
#     4   8  15  30  55  83 104 129 168 209 248 295
#     4   8  15  28  49  69  90 125 171 214 254 309
#     4   9  17  32  53  72  97 134 174 210 246 301
#
# _framework density 17.764547
#
# number of rings (size 3 to 8) (size 9 to 14) (size 15 to 20)
#    0.000    2.714    1.429    3.429    0.000    0.571 
#    0.000    3.571    0.000   12.429    0.000    0.000 
#    0.000    0.000    0.000    0.000    0.000    0.000 
#
# Total GULP energy -312155.610474 kJ/mol
# GULP energy per Si atom -5574.207330 kJ/mol
# Density = 1.772411 g / cm^3
# Si number density = 17.764547 Si / 1000 Ang^3
#
#
#
# Elastic Constant Matrix: (Units=GPa)
#
#
# Indices 1 2 3 4 5 6 
#
# 1 24.4194 22.5361 18.1358 0.0000 0.0000 0.0000
# 2 22.5361 147.6147 62.6787 0.0000 0.0000 0.0000
# 3 18.1358 62.6787 108.9692 0.0000 0.0000 0.0000
# 4 0.0000 0.0000 0.0000 16.3449 0.0000 0.0000
# 5 0.0000 0.0000 0.0000 0.0000 23.7532 0.0000
# 6 0.0000 0.0000 0.0000 0.0000 0.0000 -7.3189
#
#
#
# Elastic Compliance Matrix: (Units=1/GPa)
#
#
# Indices 1 2 3 4 5 6 
#
# 1 0.049782 -0.005401 -0.005178 0.000000 0.000000 0.000000
# 2 -0.005401 0.009550 -0.004594 0.000000 0.000000 0.000000
# 3 -0.005178 -0.004594 0.012681 0.000000 0.000000 0.000000
# 4 0.000000 0.000000 0.000000 0.061181 0.000000 0.000000
# 5 0.000000 0.000000 0.000000 0.000000 0.042100 0.000000
# 6 0.000000 0.000000 0.000000 0.000000 0.000000 -0.136632
#
#
# Mechanical properties :
#
#
# Convention : Reuss Voigt Hill
#
# Bulk Modulus (GPa) = 24.00083 54.18938 39.09510
# Shear Modulus (GPa) = 60.31584 18.39935 39.35759
#
# Velocity S-wave (km/s) = 5.83324 3.22177 4.71203
# Velocity P-wave (km/s) = 7.67520 6.66410 7.18745
#
# Compressibility (1/GPa) = 0.04166523
#
# Stress axis : x y z
#
# Youngs Moduli (GPa) = 20.08768 104.71582 78.85693
#
# Poissons Ratio (x) = 0.56560 0.40835
# Poissons Ratio (y) = 0.10850 0.36227
# Poissons Ratio (z) = 0.10402 0.48106
#
# Static dielectric constant tensor:
#      x y z
#    x 1.605010 0.000000 0.000000 
#    y 0.000000 1.624150 0.000000 
#    z 0.000000 0.000000 1.591350 
# 
# From -- ./inp_files/26684.got.cif
#   From: 2010.05.17/outbox.cif.g08.bks.cpg/sg53_14_cif.got.tgz:26684.got - 2010.06.03 12:45:16.
