data_PCOD9415394
_publ_section_title
;
Structure prediction by ZEFSAII (Michael W. Deem and Ramdas Pophale) SiO2 
 PCOD9415394
Probable space group: P M N A
;
_chemical_formula_sum "Si O2"
_cell_formula_units_Z 64
_cell_length_a 9.043054
_cell_length_b 15.809854
_cell_length_c 29.165551
_cell_angle_alpha 90.000000
_cell_angle_beta 90.000000
_cell_angle_gamma 90.000000
_cell_volume 4169.780261
_symmetry_space_group_name_H-M "P M N A"
_symmetry_group_IT_number 53
_symmetry_cell_setting 'orthorhombic'
loop_
_space_group_symop_operation_xyz
x,y,z
1/2-x,-y,1/2+z
x,-y,-z
1/2-x,y,1/2-z
-x,-y,-z
1/2+x,y,1/2-z
-x,y,z
1/2+x,-y,1/2+z
loop_
_atom_site_type_symbol
_atom_site_label
_atom_site_fract_x
_atom_site_fract_y
_atom_site_fract_z
Si Si1 0.322413 0.167573 0.105077
Si Si2 0.323260 0.673746 0.556437
Si Si3 0.823245 0.989166 0.946261
Si Si4 0.176998 0.103398 0.701847
Si Si5 0.822771 0.675044 0.051703
Si Si6 0.322464 0.840324 0.389961
Si Si7 0.323104 0.904392 0.797505
Si Si8 0.669866 0.501012 0.055649
O O1 0.500000 0.171697 0.102610
O O2 0.251329 0.252639 0.085657
O O3 0.278975 0.147958 0.157688
O O4 0.263963 0.088866 0.075247
O O5 0.500000 0.675984 0.561086
O O6 0.287759 0.687724 0.502288
O O7 0.260797 0.581760 0.569876
O O8 0.787903 0.075546 0.919341
O O9 0.000000 0.973577 0.941797
O O10 0.790879 0.000000 0.000000
O O11 0.250000 0.129279 0.750000
O O12 0.241565 0.152934 0.658561
O O13 0.000000 0.110699 0.704161
O O14 0.215049 0.003590 0.694984
O O15 0.781809 0.757300 0.080994
O O16 0.743699 0.589894 0.068630
O O17 0.000000 0.663521 0.054485
O O18 0.500000 0.839076 0.383014
O O19 0.250000 0.876820 0.750000
O O20 0.500000 0.899954 0.792953
O O21 0.500000 0.495801 0.070798
O O22 0.671246 0.500000 0.000000
#
# Coordination Sequence:
#
# PCOD9415394 Si02
#       8
#     8   8   8   8   8   8   8   8
#     4  11  21  33  47  70  99 127 161 202 245 287
#     4  10  19  32  50  71  97 132 168 200 237 284
#     4  10  20  33  47  65  94 133 171 199 228 277
#     4  10  19  33  50  69  93 122 160 203 248 291
#     4   9  18  32  49  70  98 130 166 202 237 284
#     4  10  19  31  48  70  96 128 164 201 240 283
#     4   9  19  33  49  68  92 121 158 202 246 289
#     4   9  17  30  48  71  97 125 160 203 248 285
#
# _framework density 15.348530999999999
#
# number of rings (size 3 to 8) (size 9 to 14) (size 15 to 20)
#    0.000    2.250    1.250    2.250    0.000    6.250 
#    0.000    1.250    0.000    0.000    0.000    0.875 
#    0.000    2.000    0.000    0.000    0.000    0.000 
#
# Total GULP energy -357027.635134 kJ/mol
# GULP energy per Si atom -5578.556799 kJ/mol
# Density = 1.531360 g / cm^3
# Si number density = 15.348531 Si / 1000 Ang^3
#
#
#
# Elastic Constant Matrix: (Units=GPa)
#
#
# Indices 1 2 3 4 5 6 
#
# 1 44.4373 45.7464 42.2084 0.0000 0.0000 0.0000
# 2 45.7464 107.2823 50.4193 0.0000 0.0000 0.0000
# 3 42.2084 50.4193 97.2114 0.0000 0.0000 0.0000
# 4 0.0000 0.0000 0.0000 7.6275 0.0000 0.0000
# 5 0.0000 0.0000 0.0000 0.0000 24.5242 0.0000
# 6 0.0000 0.0000 0.0000 0.0000 0.0000 23.8034
#
#
#
# Elastic Compliance Matrix: (Units=1/GPa)
#
#
# Indices 1 2 3 4 5 6 
#
# 1 0.052365 -0.015396 -0.014751 0.000000 0.000000 0.000000
# 2 -0.015396 0.016853 -0.002056 0.000000 0.000000 0.000000
# 3 -0.014751 -0.002056 0.017758 0.000000 0.000000 0.000000
# 4 0.000000 0.000000 0.000000 0.131104 0.000000 0.000000
# 5 0.000000 0.000000 0.000000 0.000000 0.040776 0.000000
# 6 0.000000 0.000000 0.000000 0.000000 0.000000 0.042011
#
#
# Mechanical properties :
#
#
# Convention : Reuss Voigt Hill
#
# Bulk Modulus (GPa) = 44.30854 58.40879 51.35867
# Shear Modulus (GPa) = 13.41221 18.56149 15.98685
#
# Velocity S-wave (km/s) = 2.95929 3.48132 3.23087
# Velocity P-wave (km/s) = 6.37240 7.36865 6.88856
#
# Compressibility (1/GPa) = 0.02256901
#
# Stress axis : x y z
#
# Youngs Moduli (GPa) = 19.09691 59.33837 56.31362
#
# Poissons Ratio (x) = 0.91360 0.83067
# Poissons Ratio (y) = 0.29402 0.11576
# Poissons Ratio (z) = 0.28169 0.12198
#
# Static dielectric constant tensor:
#      x y z
#    x 1.512490 0.000000 0.000000 
#    y 0.000000 1.491660 0.000000 
#    z 0.000000 0.000000 1.491830 
# 
# From -- ./inp_files/38417.got.cif
#   From: 2010.05.17/outbox.cif.g08.bks.cpg/sg53_20_cif.got.tgz:38417.got - 2010.06.03 12:45:16.
