data_PCOD9415065
_publ_section_title
;
Structure prediction by ZEFSAII (Michael W. Deem and Ramdas Pophale) SiO2 
 PCOD9415065
Probable space group: P M N A
;
_chemical_formula_sum "Si O2"
_cell_formula_units_Z 56
_cell_length_a 14.615545
_cell_length_b 12.455856
_cell_length_c 14.158290
_cell_angle_alpha 90.000000
_cell_angle_beta 90.000000
_cell_angle_gamma 90.000000
_cell_volume 2577.504290
_symmetry_space_group_name_H-M "P M N A"
_symmetry_group_IT_number 53
_symmetry_cell_setting 'orthorhombic'
loop_
_space_group_symop_operation_xyz
x,y,z
1/2-x,-y,1/2+z
x,-y,-z
1/2-x,y,1/2-z
-x,-y,-z
1/2+x,y,1/2-z
-x,y,z
1/2+x,-y,1/2+z
loop_
_atom_site_type_symbol
_atom_site_label
_atom_site_fract_x
_atom_site_fract_y
_atom_site_fract_z
Si Si1 0.328121 0.409965 0.169872
Si Si2 0.894461 0.210792 0.220380
Si Si3 0.235865 0.739412 0.954875
Si Si4 0.892570 0.830675 0.444705
Si Si5 0.853583 0.354128 0.707815
Si Si6 0.610299 0.028760 0.772063
Si Si7 0.102672 0.789211 0.126959
O O1 0.250000 0.418401 0.250000
O O2 0.385994 0.307446 0.204551
O O3 0.280676 0.375851 0.071511
O O4 0.374916 0.525452 0.174600
O O5 0.827009 0.234434 0.134265
O O6 0.000000 0.204643 0.189028
O O7 0.866552 0.094240 0.258087
O O8 0.321401 0.818193 0.971292
O O9 0.171235 0.751864 0.045655
O O10 0.874764 0.725849 0.378559
O O11 0.865650 0.926862 0.374799
O O12 0.000000 0.837682 0.470696
O O13 0.750000 0.348681 0.750000
O O14 0.905896 0.306169 0.797223
O O15 0.500000 0.038823 0.768395
O O16 0.641003 0.109367 0.688027
O O17 0.000000 0.815025 0.090811
#
# Coordination Sequence:
#
# PCOD9415065 Si02
#       7
#     8   8   8   8   8   8   8
#     4   9  22  40  57  82 126 170 206 248 304 370
#     4  10  21  42  64  86 126 170 205 248 311 378
#     4  11  22  40  58  99 126 159 206 257 315 359
#     4  10  21  39  63  93 125 159 206 259 310 362
#     4  10  18  38  62  85 123 168 207 254 303 367
#     4   8  18  38  62  88 123 163 203 253 306 366
#     4  10  20  37  64  97 126 155 204 262 313 364
#
# _framework density 21.726443
#
# number of rings (size 3 to 8) (size 9 to 14) (size 15 to 20)
#    0.000    2.286    1.429    1.714    0.000    2.857 
#   12.857    2.857    0.000    6.000    0.000    0.000 
#    0.000    0.000    0.000    0.000    0.000    0.000 
#
# Total GULP energy -312541.296478 kJ/mol
# GULP energy per Si atom -5581.094580 kJ/mol
# Density = 2.167699 g / cm^3
# Si number density = 21.726443 Si / 1000 Ang^3
#
#
#
# Elastic Constant Matrix: (Units=GPa)
#
#
# Indices 1 2 3 4 5 6 
#
# 1 110.7430 19.2725 28.3921 0.0000 0.0000 0.0000
# 2 19.2725 142.7199 22.9802 0.0000 0.0000 0.0000
# 3 28.3921 22.9802 58.0366 0.0000 0.0000 0.0000
# 4 0.0000 0.0000 0.0000 9.0006 0.0000 0.0000
# 5 0.0000 0.0000 0.0000 0.0000 31.2693 0.0000
# 6 0.0000 0.0000 0.0000 0.0000 0.0000 20.8131
#
#
#
# Elastic Compliance Matrix: (Units=1/GPa)
#
#
# Indices 1 2 3 4 5 6 
#
# 1 0.010377 -0.000624 -0.004829 0.000000 0.000000 0.000000
# 2 -0.000624 0.007521 -0.002673 0.000000 0.000000 0.000000
# 3 -0.004829 -0.002673 0.020652 0.000000 0.000000 0.000000
# 4 0.000000 0.000000 0.000000 0.111104 0.000000 0.000000
# 5 0.000000 0.000000 0.000000 0.000000 0.031980 0.000000
# 6 0.000000 0.000000 0.000000 0.000000 0.000000 0.048047
#
#
# Mechanical properties :
#
#
# Convention : Reuss Voigt Hill
#
# Bulk Modulus (GPa) = 44.84852 50.30989 47.57920
# Shear Modulus (GPa) = 19.73441 28.27358 24.00399
#
# Velocity S-wave (km/s) = 3.01709 3.61133 3.32750
# Velocity P-wave (km/s) = 5.72925 6.37144 6.05886
#
# Compressibility (1/GPa) = 0.02229728
#
# Stress axis : x y z
#
# Youngs Moduli (GPa) = 96.37075 132.95480 48.42257
#
# Poissons Ratio (x) = 0.08291 0.23385
# Poissons Ratio (y) = 0.06010 0.12944
# Poissons Ratio (z) = 0.46541 0.35540
#
# Static dielectric constant tensor:
#      x y z
#    x 1.837750 0.000000 0.000000 
#    y 0.000000 1.805840 0.000000 
#    z 0.000000 0.000000 1.788860 
# 
# From -- ./inp_files/22806.got.cif
#   From: 2010.05.17/outbox.cif.g08.bks.cpg/sg53_12_cif.got.tgz:22806.got - 2010.06.03 12:45:16.
