data_PCOD9415348
_publ_section_title
;
Structure prediction by ZEFSAII (Michael W. Deem and Ramdas Pophale) SiO2 
 PCOD9415348
Probable space group: P M N A
;
_chemical_formula_sum "Si O2"
_cell_formula_units_Z 48
_cell_length_a 14.676388
_cell_length_b 28.293733
_cell_length_c 5.314076
_cell_angle_alpha 90.000000
_cell_angle_beta 90.000000
_cell_angle_gamma 90.000000
_cell_volume 2206.669015
_symmetry_space_group_name_H-M "P M N A"
_symmetry_group_IT_number 53
_symmetry_cell_setting 'orthorhombic'
loop_
_space_group_symop_operation_xyz
x,y,z
1/2-x,-y,1/2+z
x,-y,-z
1/2-x,y,1/2-z
-x,-y,-z
1/2+x,y,1/2-z
-x,y,z
1/2+x,-y,1/2+z
loop_
_atom_site_type_symbol
_atom_site_label
_atom_site_fract_x
_atom_site_fract_y
_atom_site_fract_z
Si Si1 0.812033 0.551653 0.997535
Si Si2 0.638881 0.972434 0.747705
Si Si3 0.138646 0.136624 0.241968
Si Si4 0.140809 0.189005 0.736192
Si Si5 0.391198 0.348096 0.380885
Si Si6 0.608700 0.298388 0.873403
O O1 0.750000 0.549174 0.750000
O O2 0.872488 0.597383 0.944315
O O3 0.859401 0.500000 0.000000
O O4 0.750000 0.557424 0.250000
O O5 0.750000 0.972362 0.750000
O O6 0.611029 0.917906 0.724065
O O7 0.609462 0.000000 0.500000
O O8 0.610322 0.000000 0.000000
O O9 0.250000 0.137619 0.250000
O O10 0.107514 0.156541 0.509040
O O11 0.109012 0.169545 0.007499
O O12 0.250000 0.185531 0.750000
O O13 0.120225 0.242367 0.651664
O O14 0.500000 0.341446 0.372963
O O15 0.352457 0.319514 0.616668
O O16 0.355487 0.325899 0.119631
O O17 0.500000 0.307272 0.872858
#
# Coordination Sequence:
#
# PCOD9415348 Si02
#       6
#     8   8   8   8   8   8
#     4  10  21  37  57  83 113 142 174 215 260 307
#     4   9  15  23  37  58  87 123 156 189 239 297
#     4   9  17  28  42  64  95 126 159 201 245 297
#     4  10  19  31  47  68  96 129 162 200 251 303
#     4  10  21  37  56  78 105 139 176 216 261 306
#     4  10  21  36  53  75 103 133 172 218 256 299
#
# _framework density 21.752244000000001
#
# number of rings (size 3 to 8) (size 9 to 14) (size 15 to 20)
#    0.000    2.333    0.000    3.000    0.000    6.333 
#    0.000    0.000    0.000    6.000    0.000    0.000 
#    0.000   13.333    0.000    0.000    0.000    0.000 
#
# Total GULP energy -267945.768605 kJ/mol
# GULP energy per Si atom -5582.203513 kJ/mol
# Density = 2.170274 g / cm^3
# Si number density = 21.752244 Si / 1000 Ang^3
#
#
#
# Elastic Constant Matrix: (Units=GPa)
#
#
# Indices 1 2 3 4 5 6 
#
# 1 55.0245 -7.8347 18.8463 0.0000 0.0000 0.0000
# 2 -7.8347 148.7863 77.2305 0.0000 0.0000 0.0000
# 3 18.8463 77.2305 205.6082 0.0000 0.0000 0.0000
# 4 0.0000 0.0000 0.0000 45.3642 0.0000 0.0000
# 5 0.0000 0.0000 0.0000 0.0000 -4.0569 0.0000
# 6 0.0000 0.0000 0.0000 0.0000 0.0000 32.8701
#
#
#
# Elastic Compliance Matrix: (Units=1/GPa)
#
#
# Indices 1 2 3 4 5 6 
#
# 1 0.019440 0.002421 -0.002691 0.000000 0.000000 0.000000
# 2 0.002421 0.008650 -0.003471 0.000000 0.000000 0.000000
# 3 -0.002691 -0.003471 0.006414 0.000000 0.000000 0.000000
# 4 0.000000 0.000000 0.000000 0.022044 0.000000 0.000000
# 5 0.000000 0.000000 0.000000 0.000000 -0.246493 0.000000
# 6 0.000000 0.000000 0.000000 0.000000 0.000000 0.030423
#
#
# Mechanical properties :
#
#
# Convention : Reuss Voigt Hill
#
# Bulk Modulus (GPa) = 37.00804 65.10036 51.05420
# Shear Modulus (GPa) = -34.95733 36.24726 0.64497
#
# Velocity S-wave (km/s) = -4.01317 4.08655 0.54511
# Velocity P-wave (km/s) = 2.10326 7.22908 4.89060
#
# Compressibility (1/GPa) = 0.02702116
#
# Stress axis : x y z
#
# Youngs Moduli (GPa) = 51.44003 115.60375 155.90674
#
# Poissons Ratio (x) = -0.27982 0.41956
# Poissons Ratio (y) = -0.12451 0.54116
# Poissons Ratio (z) = 0.13843 0.40127
#
# Static dielectric constant tensor:
#      x y z
#    x 1.740460 0.000000 0.000000 
#    y 0.000000 1.820140 0.000000 
#    z 0.000000 0.000000 1.665840 
# 
# From -- ./inp_files/2228.got.cif
#   From: 2010.05.17/outbox.cif.g08.bks.cpg/sg53_2_cif.got.tgz:2228.got - 2010.06.03 12:45:16.
