data_PCOD9415639
_publ_section_title
;
Structure prediction by ZEFSAII (Michael W. Deem and Ramdas Pophale) SiO2 
 PCOD9415639
Probable space group: P M N A
;
_chemical_formula_sum "Si O2"
_cell_formula_units_Z 48
_cell_length_a 8.983273
_cell_length_b 14.287574
_cell_length_c 21.735345
_cell_angle_alpha 90.000000
_cell_angle_beta 90.000000
_cell_angle_gamma 90.000000
_cell_volume 2789.713659
_symmetry_space_group_name_H-M "P M N A"
_symmetry_group_IT_number 53
_symmetry_cell_setting 'orthorhombic'
loop_
_space_group_symop_operation_xyz
x,y,z
1/2-x,-y,1/2+z
x,-y,-z
1/2-x,y,1/2-z
-x,-y,-z
1/2+x,y,1/2-z
-x,y,z
1/2+x,-y,1/2+z
loop_
_atom_site_type_symbol
_atom_site_label
_atom_site_fract_x
_atom_site_fract_y
_atom_site_fract_z
Si Si1 0.178640 0.302308 0.686524
Si Si2 0.671754 0.959664 0.570373
Si Si3 0.320560 0.578819 0.552460
Si Si4 0.829227 0.140542 0.600494
Si Si5 0.170260 0.222160 0.463095
Si Si6 0.319845 0.479107 0.183131
O O1 0.250000 0.273154 0.750000
O O2 0.233242 0.229138 0.636601
O O3 0.216424 0.410383 0.676028
O O4 0.000000 0.298581 0.688747
O O5 0.500000 0.944238 0.584357
O O6 0.757713 0.861649 0.576466
O O7 0.680698 0.000000 0.500000
O O8 0.740261 0.045093 0.608333
O O9 0.278698 0.500000 0.500000
O O10 0.500000 0.577090 0.557110
O O11 0.262571 0.681969 0.533908
O O12 0.249021 0.562842 0.620376
O O13 0.832615 0.175396 0.530395
O O14 0.000000 0.123060 0.619041
O O15 0.000000 0.242411 0.444437
O O16 0.250000 0.450064 0.250000
O O17 0.500000 0.466834 0.184773
#
# Coordination Sequence:
#
# PCOD9415639 Si02
#       6
#     8   8   8   8   8   8
#     4   9  18  31  48  71  98 128 164 205 246 294
#     4   9  17  29  46  70  98 127 159 196 243 300
#     4  11  23  36  52  78 110 140 174 220 268 311
#     4   9  17  30  48  71  99 130 164 201 245 299
#     4  10  19  32  51  73  99 132 168 207 253 304
#     4  10  20  36  56  77 104 140 180 217 259 313
#
# _framework density 17.206067000000001
#
# number of rings (size 3 to 8) (size 9 to 14) (size 15 to 20)
#    0.000    2.333    0.000    3.000    0.000    6.667 
#    0.000    0.000    0.000    1.000    0.000    4.667 
#    0.000    0.000    0.000    0.000    0.000    0.000 
#
# Total GULP energy -267218.766373 kJ/mol
# GULP energy per Si atom -5567.057633 kJ/mol
# Density = 1.716691 g / cm^3
# Si number density = 17.206067 Si / 1000 Ang^3
#
#
#
# Elastic Constant Matrix: (Units=GPa)
#
#
# Indices 1 2 3 4 5 6 
#
# 1 65.4893 37.5160 26.2975 0.0000 0.0000 0.0000
# 2 37.5160 83.9709 22.7318 0.0000 0.0000 0.0000
# 3 26.2975 22.7318 40.2418 0.0000 0.0000 0.0000
# 4 0.0000 0.0000 0.0000 23.9049 0.0000 0.0000
# 5 0.0000 0.0000 0.0000 0.0000 23.1617 0.0000
# 6 0.0000 0.0000 0.0000 0.0000 0.0000 29.0498
#
#
#
# Elastic Compliance Matrix: (Units=1/GPa)
#
#
# Indices 1 2 3 4 5 6 
#
# 1 0.024340 -0.007754 -0.011526 0.000000 0.000000 0.000000
# 2 -0.007754 0.016529 -0.004270 0.000000 0.000000 0.000000
# 3 -0.011526 -0.004270 0.034793 0.000000 0.000000 0.000000
# 4 0.000000 0.000000 0.000000 0.041832 0.000000 0.000000
# 5 0.000000 0.000000 0.000000 0.000000 0.043175 0.000000
# 6 0.000000 0.000000 0.000000 0.000000 0.000000 0.034424
#
#
# Mechanical properties :
#
#
# Convention : Reuss Voigt Hill
#
# Bulk Modulus (GPa) = 35.00978 40.31028 37.66003
# Shear Modulus (GPa) = 19.86385 22.10040 20.98213
#
# Velocity S-wave (km/s) = 3.40143 3.58782 3.49587
# Velocity P-wave (km/s) = 5.98480 6.37511 6.18304
#
# Compressibility (1/GPa) = 0.02856345
#
# Stress axis : x y z
#
# Youngs Moduli (GPa) = 41.08477 60.49911 28.74106
#
# Poissons Ratio (x) = 0.46913 0.33126
# Poissons Ratio (y) = 0.31859 0.12271
# Poissons Ratio (z) = 0.47352 0.25831
#
# Static dielectric constant tensor:
#      x y z
#    x 1.592990 0.000000 0.000000 
#    y 0.000000 1.585930 0.000000 
#    z 0.000000 0.000000 1.622800 
# 
# From -- ./inp_files/33884.got.cif
#   From: 2010.05.17/outbox.cif.g08.bks.cpg/sg53_17_cif.got.tgz:33884.got - 2010.06.03 12:45:16.
