data_PCOD9415400
_publ_section_title
;
Structure prediction by ZEFSAII (Michael W. Deem and Ramdas Pophale) SiO2 
 PCOD9415400
Probable space group: P M N A
;
_chemical_formula_sum "Si O2"
_cell_formula_units_Z 64
_cell_length_a 9.182057
_cell_length_b 19.132593
_cell_length_c 21.966629
_cell_angle_alpha 90.000000
_cell_angle_beta 90.000000
_cell_angle_gamma 90.000000
_cell_volume 3859.021806
_symmetry_space_group_name_H-M "P M N A"
_symmetry_group_IT_number 53
_symmetry_cell_setting 'orthorhombic'
loop_
_space_group_symop_operation_xyz
x,y,z
1/2-x,-y,1/2+z
x,-y,-z
1/2-x,y,1/2-z
-x,-y,-z
1/2+x,y,1/2-z
-x,y,z
1/2+x,-y,1/2+z
loop_
_atom_site_type_symbol
_atom_site_label
_atom_site_fract_x
_atom_site_fract_y
_atom_site_fract_z
Si Si1 0.173462 0.967537 0.186740
Si Si2 0.672530 0.669463 0.513403
Si Si3 0.324933 0.047173 0.440098
Si Si4 0.829110 0.589494 0.116236
Si Si5 0.167830 0.460492 0.434423
Si Si6 0.167278 0.844747 0.372970
Si Si7 0.825472 0.820200 0.511953
Si Si8 0.832489 0.298734 0.691425
O O1 0.250000 0.989548 0.250000
O O2 0.228542 0.890028 0.169218
O O3 0.000000 0.968968 0.194880
O O4 0.209338 0.010886 0.124867
O O5 0.500000 0.675564 0.525680
O O6 0.687741 0.635097 0.445998
O O7 0.749801 0.612634 0.556793
O O8 0.749964 0.744534 0.517274
O O9 0.500000 0.057187 0.442790
O O10 0.243176 0.121056 0.444880
O O11 0.286321 0.000000 0.500000
O O12 0.754304 0.514677 0.107445
O O13 0.749229 0.633479 0.167606
O O14 0.000000 0.582053 0.127624
O O15 0.166799 0.500000 0.500000
O O16 0.000000 0.450801 0.416138
O O17 0.203835 0.849494 0.443886
O O18 0.173667 0.763033 0.357492
O O19 0.000000 0.868168 0.363048
O O20 0.000000 0.813589 0.518974
O O21 0.750000 0.271123 0.750000
O O22 0.000000 0.314018 0.704795
#
# Coordination Sequence:
#
# PCOD9415400 Si02
#       8
#     8   8   8   8   8   8   8   8
#     4  11  23  38  58  79 106 140 180 226 271 324
#     4  10  19  31  49  73 103 135 169 209 255 313
#     4  10  21  38  56  78 107 141 179 221 272 327
#     4  10  19  31  48  70  97 133 173 212 258 307
#     4   9  17  29  47  70  98 130 164 205 250 297
#     4  10  21  35  52  75 105 140 180 221 266 318
#     4  11  21  33  53  80 108 140 177 221 269 321
#     4  11  22  35  48  68 100 138 181 223 262 311
#
# _framework density 16.584513999999999
#
# number of rings (size 3 to 8) (size 9 to 14) (size 15 to 20)
#    0.000    1.750    2.500    2.625    0.000    6.250 
#    0.000    0.000    0.000    0.000    0.000    0.875 
#    0.000    2.000    0.000    0.000    0.000    0.000 
#
# Total GULP energy -356994.288747 kJ/mol
# GULP energy per Si atom -5578.035762 kJ/mol
# Density = 1.654677 g / cm^3
# Si number density = 16.584514 Si / 1000 Ang^3
#
#
#
# Elastic Constant Matrix: (Units=GPa)
#
#
# Indices 1 2 3 4 5 6 
#
# 1 94.6514 58.3873 40.2266 0.0000 0.0000 0.0000
# 2 58.3873 95.4656 31.1441 0.0000 0.0000 0.0000
# 3 40.2266 31.1441 63.6395 0.0000 0.0000 0.0000
# 4 0.0000 0.0000 0.0000 23.1837 0.0000 0.0000
# 5 0.0000 0.0000 0.0000 0.0000 60.7563 0.0000
# 6 0.0000 0.0000 0.0000 0.0000 0.0000 31.5180
#
#
#
# Elastic Compliance Matrix: (Units=1/GPa)
#
#
# Indices 1 2 3 4 5 6 
#
# 1 0.019781 -0.009542 -0.007833 0.000000 0.000000 0.000000
# 2 -0.009542 0.017068 -0.002321 0.000000 0.000000 0.000000
# 3 -0.007833 -0.002321 0.021801 0.000000 0.000000 0.000000
# 4 0.000000 0.000000 0.000000 0.043134 0.000000 0.000000
# 5 0.000000 0.000000 0.000000 0.000000 0.016459 0.000000
# 6 0.000000 0.000000 0.000000 0.000000 0.000000 0.031728
#
#
# Mechanical properties :
#
#
# Convention : Reuss Voigt Hill
#
# Bulk Modulus (GPa) = 51.93221 57.03027 54.48124
# Shear Modulus (GPa) = 25.53834 31.35815 28.44824
#
# Velocity S-wave (km/s) = 3.92840 4.35306 4.14617
# Velocity P-wave (km/s) = 7.20820 7.72838 7.47282
#
# Compressibility (1/GPa) = 0.01925587
#
# Stress axis : x y z
#
# Youngs Moduli (GPa) = 50.55434 58.58764 45.86940
#
# Poissons Ratio (x) = 0.55907 0.35932
# Poissons Ratio (y) = 0.48241 0.10647
# Poissons Ratio (z) = 0.39602 0.13599
#
# Static dielectric constant tensor:
#      x y z
#    x 1.554140 0.000000 0.000000 
#    y 0.000000 1.544760 0.000000 
#    z 0.000000 0.000000 1.530660 
# 
# From -- ./inp_files/31191.got.cif
#   From: 2010.05.17/outbox.cif.g08.bks.cpg/sg53_16_cif.got.tgz:31191.got - 2010.06.03 12:45:16.
