data_PCOD9415491
_publ_section_title
;
Structure prediction by ZEFSAII (Michael W. Deem and Ramdas Pophale) SiO2 
 PCOD9415491
Probable space group: P M N A
;
_chemical_formula_sum "Si O2"
_cell_formula_units_Z 64
_cell_length_a 9.376717
_cell_length_b 18.417253
_cell_length_c 20.438443
_cell_angle_alpha 90.000000
_cell_angle_beta 90.000000
_cell_angle_gamma 90.000000
_cell_volume 3529.583585
_symmetry_space_group_name_H-M "P M N A"
_symmetry_group_IT_number 53
_symmetry_cell_setting 'orthorhombic'
loop_
_space_group_symop_operation_xyz
x,y,z
1/2-x,-y,1/2+z
x,-y,-z
1/2-x,y,1/2-z
-x,-y,-z
1/2+x,y,1/2-z
-x,y,z
1/2+x,-y,1/2+z
loop_
_atom_site_type_symbol
_atom_site_label
_atom_site_fract_x
_atom_site_fract_y
_atom_site_fract_z
Si Si1 0.670212 0.696272 0.040575
Si Si2 0.330167 0.194104 0.070089
Si Si3 0.829187 0.916664 0.316725
Si Si4 0.338752 0.258875 0.311652
Si Si5 0.671045 0.254424 0.817556
Si Si6 0.161533 0.433337 0.187921
Si Si7 0.333259 0.426471 0.458757
Si Si8 0.673538 0.973111 0.929643
O O1 0.500000 0.682494 0.039540
O O2 0.714948 0.703224 0.116391
O O3 0.693100 0.772243 0.001853
O O4 0.749284 0.635040 0.998353
O O5 0.500000 0.199899 0.083131
O O6 0.243459 0.240504 0.122326
O O7 0.286079 0.110690 0.078299
O O8 0.750000 0.935546 0.250000
O O9 0.800919 0.831458 0.330349
O O10 0.000000 0.923712 0.309105
O O11 0.781584 0.971005 0.373709
O O12 0.250000 0.229882 0.250000
O O13 0.500000 0.230806 0.312221
O O14 0.345816 0.345944 0.305092
O O15 0.750000 0.274506 0.750000
O O16 0.500000 0.262692 0.809469
O O17 0.250000 0.461357 0.250000
O O18 0.221962 0.443178 0.114688
O O19 0.000000 0.462453 0.189836
O O20 0.328695 0.500000 0.500000
O O21 0.500000 0.403845 0.451092
O O22 0.500000 0.974407 0.930261
O O23 0.723653 0.000000 0.000000
#
# Coordination Sequence:
#
# PCOD9415491 Si02
#       8
#     8   8   8   8   8   8   8   8
#     4  10  20  34  54  79 107 134 170 218 263 312
#     4  10  19  31  50  76 103 135 174 217 266 313
#     4   9  17  31  51  72  99 134 173 215 256 304
#     4  10  19  32  50  73 102 134 171 212 254 303
#     4   9  18  33  53  78 103 134 175 218 263 310
#     4   9  18  33  54  78 103 136 173 208 247 297
#     4  10  21  38  58  81 110 142 176 212 260 318
#     4   9  17  30  49  72  98 132 174 216 259 308
#
# _framework density 18.132451
#
# number of rings (size 3 to 8) (size 9 to 14) (size 15 to 20)
#    0.000    2.500    1.250    1.125    0.000    5.250 
#    0.000    2.500    0.000    6.000    0.000    0.000 
#    0.000    0.000    0.000    0.000    0.000    0.000 
#
# Total GULP energy -356700.262129 kJ/mol
# GULP energy per Si atom -5573.441596 kJ/mol
# Density = 1.809118 g / cm^3
# Si number density = 18.132451 Si / 1000 Ang^3
#
#
#
# Elastic Constant Matrix: (Units=GPa)
#
#
# Indices 1 2 3 4 5 6 
#
# 1 33.7723 12.9450 48.0386 0.0000 0.0000 0.0000
# 2 12.9450 23.9297 28.0161 0.0000 0.0000 0.0000
# 3 48.0386 28.0161 165.8939 0.0000 0.0000 0.0000
# 4 0.0000 0.0000 0.0000 21.0587 0.0000 0.0000
# 5 0.0000 0.0000 0.0000 0.0000 25.6162 0.0000
# 6 0.0000 0.0000 0.0000 0.0000 0.0000 8.4497
#
#
#
# Elastic Compliance Matrix: (Units=1/GPa)
#
#
# Indices 1 2 3 4 5 6 
#
# 1 0.053633 -0.013499 -0.013251 0.000000 0.000000 0.000000
# 2 -0.013499 0.055486 -0.005461 0.000000 0.000000 0.000000
# 3 -0.013251 -0.005461 0.010787 0.000000 0.000000 0.000000
# 4 0.000000 0.000000 0.000000 0.047486 0.000000 0.000000
# 5 0.000000 0.000000 0.000000 0.000000 0.039038 0.000000
# 6 0.000000 0.000000 0.000000 0.000000 0.000000 0.118347
#
#
# Mechanical properties :
#
#
# Convention : Reuss Voigt Hill
#
# Bulk Modulus (GPa) = 18.02368 44.62168 31.32268
# Shear Modulus (GPa) = 12.26409 19.99801 16.13105
#
# Velocity S-wave (km/s) = 2.60352 3.32457 2.98589
# Velocity P-wave (km/s) = 4.35882 6.27688 5.40364
#
# Compressibility (1/GPa) = 0.05548257
#
# Stress axis : x y z
#
# Youngs Moduli (GPa) = 18.64526 18.02268 92.70105
#
# Poissons Ratio (x) = 0.24330 1.22837
# Poissons Ratio (y) = 0.25170 0.50627
# Poissons Ratio (z) = 0.24707 0.09843
#
# Static dielectric constant tensor:
#      x y z
#    x 1.615730 0.000000 0.000000 
#    y 0.000000 1.621290 0.000000 
#    z 0.000000 0.000000 1.629040 
# 
# From -- ./inp_files/31182.got.cif
#   From: 2010.05.17/outbox.cif.g08.bks.cpg/sg53_16_cif.got.tgz:31182.got - 2010.06.03 12:45:16.
