data_PCOD9415848
_publ_section_title
;
Structure prediction by ZEFSAII (Michael W. Deem and Ramdas Pophale) SiO2 
 PCOD9415848
Probable space group: P M N A
;
_chemical_formula_sum "Si O2"
_cell_formula_units_Z 64
_cell_length_a 14.926271
_cell_length_b 9.699696
_cell_length_c 22.543784
_cell_angle_alpha 90.000000
_cell_angle_beta 90.000000
_cell_angle_gamma 90.000000
_cell_volume 3263.895610
_symmetry_space_group_name_H-M "P M N A"
_symmetry_group_IT_number 53
_symmetry_cell_setting 'orthorhombic'
loop_
_space_group_symop_operation_xyz
x,y,z
1/2-x,-y,1/2+z
x,-y,-z
1/2-x,y,1/2-z
-x,-y,-z
1/2+x,y,1/2-z
-x,y,z
1/2+x,-y,1/2+z
loop_
_atom_site_type_symbol
_atom_site_label
_atom_site_fract_x
_atom_site_fract_y
_atom_site_fract_z
Si Si1 0.606872 0.367012 0.706630
Si Si2 0.294762 0.142303 0.404609
Si Si3 0.399464 0.457418 0.839224
Si Si4 0.897189 0.142014 0.883504
Si Si5 0.270879 0.377697 0.318685
Si Si6 0.657247 0.342941 0.514081
Si Si7 0.097407 0.883732 0.549695
Si Si8 0.866272 0.364722 0.535156
O O1 0.500000 0.381394 0.696926
O O2 0.622389 0.379043 0.777565
O O3 0.634926 0.224929 0.675106
O O4 0.660136 0.494737 0.677878
O O5 0.307073 0.239720 0.347871
O O6 0.332457 0.239401 0.457919
O O7 0.188145 0.118026 0.412679
O O8 0.341179 0.993531 0.400372
O O9 0.500000 0.516002 0.832779
O O10 0.322329 0.571460 0.848254
O O11 0.398411 0.363259 0.897420
O O12 0.893406 0.256935 0.935520
O O13 0.000000 0.099311 0.874599
O O14 0.250000 0.355067 0.250000
O O15 0.624641 0.500000 0.500000
O O16 0.758621 0.361260 0.537309
O O17 0.099880 0.751416 0.508077
O O18 0.000000 0.894960 0.580323
O O19 0.105408 0.000000 0.500000
O O20 0.893532 0.500000 0.500000
#
# Coordination Sequence:
#
# PCOD9415848 Si02
#       8
#     8   8   8   8   8   8   8   8
#     4   9  20  39  61  83 110 147 193 243 289 337
#     4  11  22  37  57  83 118 151 187 236 289 345
#     4  10  19  33  58  89 116 145 187 236 281 332
#     4  11  23  39  59  83 112 150 195 243 298 348
#     4  10  21  38  59  84 112 149 192 231 280 339
#     4  10  20  36  58  84 115 149 188 238 291 347
#     4  10  21  36  53  77 112 149 179 214 270 338
#     4  10  19  32  55  86 116 146 180 221 275 337
#
# _framework density 19.608470000000001
#
# number of rings (size 3 to 8) (size 9 to 14) (size 15 to 20)
#    0.000    1.875    0.000    6.000    0.000    4.250 
#    0.000    4.375    0.000    1.500    0.000    0.000 
#    0.000    0.000    0.000    0.000    0.000    0.000 
#
# Total GULP energy -357052.056930 kJ/mol
# GULP energy per Si atom -5578.938390 kJ/mol
# Density = 1.956384 g / cm^3
# Si number density = 19.608470 Si / 1000 Ang^3
#
#
#
# Elastic Constant Matrix: (Units=GPa)
#
#
# Indices 1 2 3 4 5 6 
#
# 1 65.5529 44.2194 27.3774 0.0000 0.0000 0.0000
# 2 44.2194 149.6167 43.9888 0.0000 0.0000 0.0000
# 3 27.3774 43.9888 64.3026 0.0000 0.0000 0.0000
# 4 0.0000 0.0000 0.0000 18.8392 0.0000 0.0000
# 5 0.0000 0.0000 0.0000 0.0000 0.9909 0.0000
# 6 0.0000 0.0000 0.0000 0.0000 0.0000 -6.2000
#
#
#
# Elastic Compliance Matrix: (Units=1/GPa)
#
#
# Indices 1 2 3 4 5 6 
#
# 1 0.020635 -0.004401 -0.005775 0.000000 0.000000 0.000000
# 2 -0.004401 0.009305 -0.004492 0.000000 0.000000 0.000000
# 3 -0.005775 -0.004492 0.021083 0.000000 0.000000 0.000000
# 4 0.000000 0.000000 0.000000 0.053081 0.000000 0.000000
# 5 0.000000 0.000000 0.000000 0.000000 1.009156 0.000000
# 6 0.000000 0.000000 0.000000 0.000000 0.000000 -0.161291
#
#
# Mechanical properties :
#
#
# Convention : Reuss Voigt Hill
#
# Bulk Modulus (GPa) = 46.10847 56.73814 51.42331
# Shear Modulus (GPa) = 5.05799 13.65180 9.35489
#
# Velocity S-wave (km/s) = 1.60782 2.64146 2.18660
# Velocity P-wave (km/s) = 5.19735 6.18881 5.71462
#
# Compressibility (1/GPa) = 0.02168799
#
# Stress axis : x y z
#
# Youngs Moduli (GPa) = 48.46034 107.46834 47.43140
#
# Poissons Ratio (x) = 0.47296 0.27392
# Poissons Ratio (y) = 0.21327 0.21305
# Poissons Ratio (z) = 0.27986 0.48273
#
# Static dielectric constant tensor:
#      x y z
#    x 1.738990 0.000000 0.000000 
#    y 0.000000 1.657800 0.000000 
#    z 0.000000 0.000000 1.692800 
# 
# From -- ./inp_files/35339.got.cif
#   From: 2010.05.17/outbox.cif.g08.bks.cpg/sg53_18_cif.got.tgz:35339.got - 2010.06.03 12:45:16.
