data_PCOD9415445
_publ_section_title
;
Structure prediction by ZEFSAII (Michael W. Deem and Ramdas Pophale) SiO2 
 PCOD9415445
Probable space group: P M N A
;
_chemical_formula_sum "Si O2"
_cell_formula_units_Z 64
_cell_length_a 8.970483
_cell_length_b 19.406902
_cell_length_c 21.515080
_cell_angle_alpha 90.000000
_cell_angle_beta 90.000000
_cell_angle_gamma 90.000000
_cell_volume 3745.544883
_symmetry_space_group_name_H-M "P M N A"
_symmetry_group_IT_number 53
_symmetry_cell_setting 'orthorhombic'
loop_
_space_group_symop_operation_xyz
x,y,z
1/2-x,-y,1/2+z
x,-y,-z
1/2-x,y,1/2-z
-x,-y,-z
1/2+x,y,1/2-z
-x,y,z
1/2+x,-y,1/2+z
loop_
_atom_site_type_symbol
_atom_site_label
_atom_site_fract_x
_atom_site_fract_y
_atom_site_fract_z
Si Si1 0.829801 0.971796 0.428504
Si Si2 0.173341 0.200248 0.309763
Si Si3 0.322065 0.483996 0.317505
Si Si4 0.833497 0.103840 0.101615
Si Si5 0.677523 0.546227 0.059875
Si Si6 0.170070 0.162920 0.961772
Si Si7 0.177222 0.695231 0.497959
Si Si8 0.677485 0.669518 0.632737
O O1 0.767767 0.894250 0.426318
O O2 0.000000 0.975842 0.405791
O O3 0.832540 0.000000 0.500000
O O4 0.717995 0.025001 0.395911
O O5 0.250000 0.167708 0.250000
O O6 0.209319 0.150002 0.366146
O O7 0.256649 0.271356 0.323938
O O8 0.000000 0.211884 0.301144
O O9 0.250000 0.498352 0.250000
O O10 0.500000 0.493328 0.313345
O O11 0.257558 0.526773 0.375902
O O12 0.291918 0.404691 0.337368
O O13 0.000000 0.114083 0.128079
O O14 0.839238 0.130767 0.031076
O O15 0.500000 0.533308 0.067155
O O16 0.727191 0.500000 0.000000
O O17 0.699572 0.626016 0.042140
O O18 0.000000 0.168336 0.938346
O O19 0.245668 0.237506 0.968670
O O20 0.246512 0.679446 0.565646
O O21 0.000000 0.707257 0.504718
O O22 0.500000 0.677921 0.625786
#
# Coordination Sequence:
#
# PCOD9415445 Si02
#       8
#     8   8   8   8   8   8   8   8
#     4   9  17  29  47  71  99 131 170 208 251 305
#     4  12  24  36  51  71 101 141 185 227 269 318
#     4  11  24  39  59  82 109 145 187 234 281 335
#     4  10  19  32  49  71 101 135 174 216 264 311
#     4  10  21  38  58  82 112 146 184 230 282 336
#     4  10  19  31  49  73 105 137 171 215 262 315
#     4  11  21  33  54  80 109 146 182 223 275 330
#     4  11  22  36  53  77 107 143 184 226 271 325
#
# _framework density 17.086966
#
# number of rings (size 3 to 8) (size 9 to 14) (size 15 to 20)
#    0.000    1.500    2.500    3.750    0.000    6.250 
#    0.000    0.000    0.000    0.000    0.000    0.875 
#    0.000    4.000    0.000    0.000    0.000    0.000 
#
# Total GULP energy -357152.830805 kJ/mol
# GULP energy per Si atom -5580.512981 kJ/mol
# Density = 1.704808 g / cm^3
# Si number density = 17.086966 Si / 1000 Ang^3
#
#
#
# Elastic Constant Matrix: (Units=GPa)
#
#
# Indices 1 2 3 4 5 6 
#
# 1 79.0166 46.6705 19.6660 0.0000 0.0000 0.0000
# 2 46.6705 90.4468 22.2973 0.0000 0.0000 0.0000
# 3 19.6660 22.2973 47.7635 0.0000 0.0000 0.0000
# 4 0.0000 0.0000 0.0000 -9.8048 0.0000 0.0000
# 5 0.0000 0.0000 0.0000 0.0000 21.4451 0.0000
# 6 0.0000 0.0000 0.0000 0.0000 0.0000 13.6851
#
#
#
# Elastic Compliance Matrix: (Units=1/GPa)
#
#
# Indices 1 2 3 4 5 6 
#
# 1 0.018741 -0.008778 -0.003618 0.000000 0.000000 0.000000
# 2 -0.008778 0.016606 -0.004138 0.000000 0.000000 0.000000
# 3 -0.003618 -0.004138 0.024358 0.000000 0.000000 0.000000
# 4 0.000000 0.000000 0.000000 -0.101991 0.000000 0.000000
# 5 0.000000 0.000000 0.000000 0.000000 0.046631 0.000000
# 6 0.000000 0.000000 0.000000 0.000000 0.000000 0.073072
#
#
# Mechanical properties :
#
#
# Convention : Reuss Voigt Hill
#
# Bulk Modulus (GPa) = 37.54327 43.83269 40.68798
# Shear Modulus (GPa) = 41.88860 13.63796 27.76328
#
# Velocity S-wave (km/s) = 4.95663 2.82822 4.03528
# Velocity P-wave (km/s) = 7.40116 6.03104 6.75095
#
# Compressibility (1/GPa) = 0.02663593
#
# Stress axis : x y z
#
# Youngs Moduli (GPa) = 53.35907 60.21966 41.05442
#
# Poissons Ratio (x) = 0.52863 0.14855
# Poissons Ratio (y) = 0.46840 0.16987
# Poissons Ratio (z) = 0.19307 0.24917
#
# Static dielectric constant tensor:
#      x y z
#    x 1.582300 0.000000 0.000000 
#    y 0.000000 1.577140 0.000000 
#    z 0.000000 0.000000 1.549090 
# 
# From -- ./inp_files/31143.got.cif
#   From: 2010.05.17/outbox.cif.g08.bks.cpg/sg53_16_cif.got.tgz:31143.got - 2010.06.03 12:45:16.
