data_PCOD9415334
_publ_section_title
;
Structure prediction by ZEFSAII (Michael W. Deem and Ramdas Pophale) SiO2 
 PCOD9415334
Probable space group: P M N A
;
_chemical_formula_sum "Si O2"
_cell_formula_units_Z 48
_cell_length_a 27.745609
_cell_length_b 5.005642
_cell_length_c 19.412074
_cell_angle_alpha 90.000000
_cell_angle_beta 90.000000
_cell_angle_gamma 90.000000
_cell_volume 2696.037856
_symmetry_space_group_name_H-M "P M N A"
_symmetry_group_IT_number 53
_symmetry_cell_setting 'orthorhombic'
loop_
_space_group_symop_operation_xyz
x,y,z
1/2-x,-y,1/2+z
x,-y,-z
1/2-x,y,1/2-z
-x,-y,-z
1/2+x,y,1/2-z
-x,y,z
1/2+x,-y,1/2+z
loop_
_atom_site_type_symbol
_atom_site_label
_atom_site_fract_x
_atom_site_fract_y
_atom_site_fract_z
Si Si1 0.696460 0.909647 0.281769
Si Si2 0.147415 0.588874 0.719971
Si Si3 0.696195 0.451460 0.923618
Si Si4 0.942634 0.078622 0.426197
Si Si5 0.262633 0.950166 0.576136
Si Si6 0.443426 0.407943 0.839250
O O1 0.750000 0.935786 0.250000
O O2 0.677233 0.614508 0.267545
O O3 0.662033 0.117073 0.242744
O O4 0.702171 0.982100 0.361650
O O5 0.163980 0.528366 0.641376
O O6 0.091037 0.520026 0.719824
O O7 0.742024 0.651437 0.919423
O O8 0.716662 0.151851 0.918032
O O9 0.674761 0.500000 0.000000
O O10 0.938782 0.382896 0.402824
O O11 0.000000 0.020623 0.429867
O O12 0.921300 0.000000 0.500000
O O13 0.925406 0.878397 0.366686
O O14 0.283024 0.000000 0.500000
O O15 0.500000 0.397850 0.820535
#
# Coordination Sequence:
#
# PCOD9415334 Si02
#       6
#     8   8   8   8   8   8
#     4  12  21  35  56  76 104 133 168 215 253 312
#     4  12  22  34  52  77 100 138 179 208 258 308
#     4  10  19  31  46  70 101 134 169 205 244 290
#     4   9  17  31  50  68  91 132 180 222 263 294
#     4  10  20  34  51  72 101 133 162 202 252 298
#     4  10  21  35  49  70 102 135 175 226 263 301
#
# _framework density 17.803902999999998
#
# number of rings (size 3 to 8) (size 9 to 14) (size 15 to 20)
#    0.000    1.500    3.333    3.000    0.000    3.333 
#    0.000    1.667    0.000    0.000    0.000    0.000 
#    0.000    4.000    0.000    0.000    0.000    0.000 
#
# Total GULP energy -268132.435432 kJ/mol
# GULP energy per Si atom -5586.092405 kJ/mol
# Density = 1.776338 g / cm^3
# Si number density = 17.803903 Si / 1000 Ang^3
#
#
#
# Elastic Constant Matrix: (Units=GPa)
#
#
# Indices 1 2 3 4 5 6 
#
# 1 48.3782 -7.7303 24.0143 0.0000 0.0000 0.0000
# 2 -7.7303 49.6640 -9.2119 0.0000 0.0000 0.0000
# 3 24.0143 -9.2119 77.9322 0.0000 0.0000 0.0000
# 4 0.0000 0.0000 0.0000 21.5062 0.0000 0.0000
# 5 0.0000 0.0000 0.0000 0.0000 12.3306 0.0000
# 6 0.0000 0.0000 0.0000 0.0000 0.0000 17.8610
#
#
#
# Elastic Compliance Matrix: (Units=1/GPa)
#
#
# Indices 1 2 3 4 5 6 
#
# 1 0.024700 0.002487 -0.007317 0.000000 0.000000 0.000000
# 2 0.002487 0.020837 0.001697 0.000000 0.000000 0.000000
# 3 -0.007317 0.001697 0.015287 0.000000 0.000000 0.000000
# 4 0.000000 0.000000 0.000000 0.046498 0.000000 0.000000
# 5 0.000000 0.000000 0.000000 0.000000 0.081099 0.000000
# 6 0.000000 0.000000 0.000000 0.000000 0.000000 0.055988
#
#
# Mechanical properties :
#
#
# Convention : Reuss Voigt Hill
#
# Bulk Modulus (GPa) = 18.32921 21.12430 19.72675
# Shear Modulus (GPa) = 18.59693 21.59972 20.09833
#
# Velocity S-wave (km/s) = 3.23544 3.48688 3.36351
# Velocity P-wave (km/s) = 4.92695 5.30112 5.11746
#
# Compressibility (1/GPa) = 0.05455773
#
# Stress axis : x y z
#
# Youngs Moduli (GPa) = 40.48575 47.99123 65.41531
#
# Poissons Ratio (x) = -0.11937 0.47865
# Poissons Ratio (y) = -0.10070 -0.11098
# Poissons Ratio (z) = 0.29624 -0.08142
#
# Static dielectric constant tensor:
#      x y z
#    x 1.629720 0.000000 0.000000 
#    y 0.000000 1.619400 0.000000 
#    z 0.000000 0.000000 1.621010 
# 
# From -- ./inp_files/29524.got.cif
#   From: 2010.05.17/outbox.cif.g08.bks.cpg/sg53_15_cif.got.tgz:29524.got - 2010.06.03 12:45:16.
