data_PCOD9415074
_publ_section_title
;
Structure prediction by ZEFSAII (Michael W. Deem and Ramdas Pophale) SiO2 
 PCOD9415074
Probable space group: P M N A
;
_chemical_formula_sum "Si O2"
_cell_formula_units_Z 30
_cell_length_a 17.975369
_cell_length_b 8.738458
_cell_length_c 8.194651
_cell_angle_alpha 90.000000
_cell_angle_beta 90.000000
_cell_angle_gamma 90.000000
_cell_volume 1287.191253
_symmetry_space_group_name_H-M "P M N A"
_symmetry_group_IT_number 53
_symmetry_cell_setting 'orthorhombic'
loop_
_space_group_symop_operation_xyz
x,y,z
1/2-x,-y,1/2+z
x,-y,-z
1/2-x,y,1/2-z
-x,-y,-z
1/2+x,y,1/2-z
-x,y,z
1/2+x,-y,1/2+z
loop_
_atom_site_type_symbol
_atom_site_label
_atom_site_fract_x
_atom_site_fract_y
_atom_site_fract_z
Si Si1 0.000000 0.580883 0.715415
Si Si2 0.500000 0.722027 0.427432
Si Si3 0.619873 0.103497 0.737335
Si Si4 0.653192 0.332025 0.022542
Si Si5 0.750000 0.883498 0.750000
Si Si6 0.000000 0.000000 0.500000
O O1 0.072714 0.635337 0.612487
O O2 0.000000 0.401419 0.774495
O O3 0.000000 0.654034 0.893697
O O4 0.572408 0.824901 0.406761
O O5 0.687113 0.998045 0.685528
O O6 0.644012 0.246424 0.851096
O O7 0.564514 0.012282 0.857830
O O8 0.707138 0.225138 0.125372
O O9 0.686510 0.500000 0.000000
#
# Coordination Sequence:
#
# PCOD9415074 Si02
#       6
#     4   4   8   8   4   2
#     4  11  23  44  75 115 148 195 272 318 377 442
#     4  10  23  43  74 115 150 201 256 334 357 454
#     4  11  23  45  77 107 154 201 259 304 389 459
#     4  12  25  47  74 108 150 204 254 317 389 471
#     4  12  28  44  72 114 146 200 252 324 378 470
#     4  10  18  42  80 106 136 204 254 294 358 468
#
# _framework density 23.306560999999999
#
# number of rings (size 3 to 8) (size 9 to 14) (size 15 to 20)
#    0.000    0.800    5.333    2.000    0.000    5.333 
#    4.800    1.333    0.000    0.000    0.000    0.000 
#    0.000    0.000    0.000    0.000    0.000    0.000 
#
# Total GULP energy -167410.789137 kJ/mol
# GULP energy per Si atom -5580.359638 kJ/mol
# Density = 2.325351 g / cm^3
# Si number density = 23.306561 Si / 1000 Ang^3
#
#
#
# Elastic Constant Matrix: (Units=GPa)
#
#
# Indices 1 2 3 4 5 6 
#
# 1 132.4151 84.5160 30.6125 0.0000 0.0000 0.0000
# 2 84.5160 161.9789 41.6742 0.0000 0.0000 0.0000
# 3 30.6125 41.6742 81.8843 0.0000 0.0000 0.0000
# 4 0.0000 0.0000 0.0000 30.8587 0.0000 0.0000
# 5 0.0000 0.0000 0.0000 0.0000 26.2247 0.0000
# 6 0.0000 0.0000 0.0000 0.0000 0.0000 3.6433
#
#
#
# Elastic Compliance Matrix: (Units=1/GPa)
#
#
# Indices 1 2 3 4 5 6 
#
# 1 0.011466 -0.005615 -0.001429 0.000000 0.000000 0.000000
# 2 -0.005615 0.009854 -0.002916 0.000000 0.000000 0.000000
# 3 -0.001429 -0.002916 0.014230 0.000000 0.000000 0.000000
# 4 0.000000 0.000000 0.000000 0.032406 0.000000 0.000000
# 5 0.000000 0.000000 0.000000 0.000000 0.038132 0.000000
# 6 0.000000 0.000000 0.000000 0.000000 0.000000 0.274477
#
#
# Mechanical properties :
#
#
# Convention : Reuss Voigt Hill
#
# Bulk Modulus (GPa) = 63.97582 76.65374 70.31478
# Shear Modulus (GPa) = 12.32452 26.77704 19.55078
#
# Velocity S-wave (km/s) = 2.30206 3.39323 2.89944
# Velocity P-wave (km/s) = 5.88007 6.95074 6.43770
#
# Compressibility (1/GPa) = 0.01563091
#
# Stress axis : x y z
#
# Youngs Moduli (GPa) = 87.21200 101.48554 70.27185
#
# Poissons Ratio (x) = 0.56986 0.10041
# Poissons Ratio (y) = 0.48971 0.20489
# Poissons Ratio (z) = 0.12462 0.29590
#
# Static dielectric constant tensor:
#      x y z
#    x 1.861520 0.000000 0.000000 
#    y 0.000000 1.970450 0.000000 
#    z 0.000000 0.000000 1.856110 
# 
# From -- ./inp_files/10549.got.cif
#   From: 2010.05.17/outbox.cif.g08.bks.cpg/sg53_6_cif.got.tgz:10549.got - 2010.06.03 12:45:16.
