data_PCOD9415340
_publ_section_title
;
Structure prediction by ZEFSAII (Michael W. Deem and Ramdas Pophale) SiO2 
 PCOD9415340
Probable space group: P M N A
;
_chemical_formula_sum "Si O2"
_cell_formula_units_Z 64
_cell_length_a 8.383963
_cell_length_b 15.391416
_cell_length_c 30.800753
_cell_angle_alpha 90.000000
_cell_angle_beta 90.000000
_cell_angle_gamma 90.000000
_cell_volume 3974.561886
_symmetry_space_group_name_H-M "P M N A"
_symmetry_group_IT_number 53
_symmetry_cell_setting 'orthorhombic'
loop_
_space_group_symop_operation_xyz
x,y,z
1/2-x,-y,1/2+z
x,-y,-z
1/2-x,y,1/2-z
-x,-y,-z
1/2+x,y,1/2-z
-x,y,z
1/2+x,-y,1/2+z
loop_
_atom_site_type_symbol
_atom_site_label
_atom_site_fract_x
_atom_site_fract_y
_atom_site_fract_z
Si Si1 0.808147 0.705269 0.615982
Si Si2 0.308499 0.866433 0.942626
Si Si3 0.190601 0.993325 0.796862
Si Si4 0.691942 0.449480 0.435981
Si Si5 0.693040 0.963380 0.391654
Si Si6 0.694340 0.371499 0.529188
Si Si7 0.307010 0.825670 0.462523
Si Si8 0.691327 0.794867 0.796253
O O1 0.753240 0.777382 0.580850
O O2 0.752049 0.610222 0.602643
O O3 0.754220 0.737952 0.663046
O O4 0.000000 0.706585 0.615549
O O5 0.500000 0.867562 0.942872
O O6 0.248868 0.947881 0.914632
O O7 0.247306 0.866832 0.991876
O O8 0.250000 0.026233 0.750000
O O9 0.000000 0.995564 0.795862
O O10 0.246491 0.039014 0.841381
O O11 0.244714 0.892975 0.800768
O O12 0.500000 0.449476 0.435593
O O13 0.742338 0.401925 0.480856
O O14 0.744888 0.549730 0.439307
O O15 0.500000 0.963691 0.391491
O O16 0.746951 0.883803 0.421961
O O17 0.500000 0.369887 0.529609
O O18 0.749789 0.274363 0.539170
O O19 0.500000 0.824884 0.462453
O O20 0.750000 0.760718 0.750000
O O21 0.500000 0.799261 0.796353
#
# Coordination Sequence:
#
# PCOD9415340 Si02
#       8
#     8   8   8   8   8   8   8   8
#     4  10  20  31  44  66  96 124 150 183 228 273
#     4  11  21  32  44  64  96 129 159 188 223 267
#     4  10  19  31  47  67  89 115 150 190 230 272
#     4   9  16  28  48  69  87 115 154 188 225 268
#     4  10  21  33  47  67  90 122 160 190 225 272
#     4   8  15  28  46  68  90 113 149 196 229 256
#     4  10  19  33  49  65  91 125 159 196 230 264
#     4  10  19  32  47  66  91 120 151 187 229 273
#
# _framework density 16.102402999999999
#
# number of rings (size 3 to 8) (size 9 to 14) (size 15 to 20)
#    0.000    2.250    2.500    3.000    0.000    4.000 
#    0.000    1.875    0.000    0.000    0.000    0.875 
#    0.000    4.000    0.000    0.000    0.000    0.000 
#
# Total GULP energy -356832.582760 kJ/mol
# GULP energy per Si atom -5575.509106 kJ/mol
# Density = 1.606575 g / cm^3
# Si number density = 16.102403 Si / 1000 Ang^3
#
#
#
# Elastic Constant Matrix: (Units=GPa)
#
#
# Indices 1 2 3 4 5 6 
#
# 1 12.3409 9.3390 19.1608 0.0000 0.0000 0.0000
# 2 9.3390 75.6028 54.0785 0.0000 0.0000 0.0000
# 3 19.1608 54.0785 145.5490 0.0000 0.0000 0.0000
# 4 0.0000 0.0000 0.0000 24.3664 0.0000 0.0000
# 5 0.0000 0.0000 0.0000 0.0000 21.0763 0.0000
# 6 0.0000 0.0000 0.0000 0.0000 0.0000 5.7809
#
#
#
# Elastic Compliance Matrix: (Units=1/GPa)
#
#
# Indices 1 2 3 4 5 6 
#
# 1 0.102778 -0.004110 -0.012003 0.000000 0.000000 0.000000
# 2 -0.004110 0.018179 -0.006213 0.000000 0.000000 0.000000
# 3 -0.012003 -0.006213 0.010759 0.000000 0.000000 0.000000
# 4 0.000000 0.000000 0.000000 0.041040 0.000000 0.000000
# 5 0.000000 0.000000 0.000000 0.000000 0.047447 0.000000
# 6 0.000000 0.000000 0.000000 0.000000 0.000000 0.172984
#
#
# Mechanical properties :
#
#
# Convention : Reuss Voigt Hill
#
# Bulk Modulus (GPa) = 11.48590 44.29437 27.89013
# Shear Modulus (GPa) = 10.70982 20.30568 15.50775
#
# Velocity S-wave (km/s) = 2.58176 3.55496 3.10670
# Velocity P-wave (km/s) = 4.00448 6.66468 5.49790
#
# Compressibility (1/GPa) = 0.08706327
#
# Stress axis : x y z
#
# Youngs Moduli (GPa) = 9.72971 55.00815 92.94337
#
# Poissons Ratio (x) = 0.22609 1.11561
# Poissons Ratio (y) = 0.03999 0.57749
# Poissons Ratio (z) = 0.11679 0.34178
#
# Static dielectric constant tensor:
#      x y z
#    x 1.556460 0.000000 0.000000 
#    y 0.000000 1.534710 0.000000 
#    z 0.000000 0.000000 1.549770 
# 
# From -- ./inp_files/38512.got.cif
#   From: 2010.05.17/outbox.cif.g08.bks.cpg/sg53_20_cif.got.tgz:38512.got - 2010.06.03 12:45:16.
