data_PCOD9415120
_publ_section_title
;
Structure prediction by ZEFSAII (Michael W. Deem and Ramdas Pophale) SiO2 
 PCOD9415120
Probable space group: P M N A
;
_chemical_formula_sum "Si O2"
_cell_formula_units_Z 32
_cell_length_a 22.997799
_cell_length_b 7.447428
_cell_length_c 7.187956
_cell_angle_alpha 90.000000
_cell_angle_beta 90.000000
_cell_angle_gamma 90.000000
_cell_volume 1231.113226
_symmetry_space_group_name_H-M "P M N A"
_symmetry_group_IT_number 53
_symmetry_cell_setting 'orthorhombic'
loop_
_space_group_symop_operation_xyz
x,y,z
1/2-x,-y,1/2+z
x,-y,-z
1/2-x,y,1/2-z
-x,-y,-z
1/2+x,y,1/2-z
-x,y,z
1/2+x,-y,1/2+z
loop_
_atom_site_type_symbol
_atom_site_label
_atom_site_fract_x
_atom_site_fract_y
_atom_site_fract_z
Si Si1 0.127708 0.289496 0.478870
Si Si2 0.500000 0.789974 0.985729
Si Si3 0.500000 0.710933 0.547209
Si Si4 0.123712 0.716512 0.962397
Si Si5 0.251539 0.283122 0.471506
O O1 0.136104 0.500000 0.500000
O O2 0.063640 0.261223 0.563525
O O3 0.124270 0.249037 0.259266
O O4 0.189766 0.212204 0.547688
O O5 0.500000 0.723462 0.771719
O O6 0.500000 0.000000 0.000000
O O7 0.500000 0.500000 0.500000
O O8 0.439030 0.788192 0.474299
O O9 0.185442 0.784100 0.039054
O O10 0.122892 0.500000 0.000000
O O11 0.253653 0.500000 0.500000
O O12 0.250000 0.254755 0.250000
#
# Coordination Sequence:
#
# PCOD9415120 Si02
#       5
#     8   4   4   8   8
#     4   9  16  26  41  63  87 114 150 190 234 285
#     4  10  19  29  42  65  95 124 155 196 244 291
#     4   8  14  25  42  65  90 118 155 194 237 295
#     4   8  13  22  38  64  89 110 141 188 236 278
#     4   8  13  21  35  58  85 109 138 183 232 274
#
# _framework density 25.992735
#
# number of rings (size 3 to 8) (size 9 to 14) (size 15 to 20)
#    0.000    3.500    0.000    0.375    0.000    0.000 
#    0.000    0.000    0.000    0.000    0.000  143.500 
#    0.000    0.000    0.000    0.000    0.000    0.000 
#
# Total GULP energy -178266.383419 kJ/mol
# GULP energy per Si atom -5570.824482 kJ/mol
# Density = 2.593357 g / cm^3
# Si number density = 25.992735 Si / 1000 Ang^3
#
#
#
# Elastic Constant Matrix: (Units=GPa)
#
#
# Indices 1 2 3 4 5 6 
#
# 1 426.6489 10.0704 15.9772 0.0000 0.0000 0.0000
# 2 10.0704 67.9728 -15.5854 0.0000 0.0000 0.0000
# 3 15.9772 -15.5854 143.1914 0.0000 0.0000 0.0000
# 4 0.0000 0.0000 0.0000 -2.1797 0.0000 0.0000
# 5 0.0000 0.0000 0.0000 0.0000 -24.9492 0.0000
# 6 0.0000 0.0000 0.0000 0.0000 0.0000 -60.2165
#
#
#
# Elastic Compliance Matrix: (Units=1/GPa)
#
#
# Indices 1 2 3 4 5 6 
#
# 1 0.002365 -0.000421 -0.000310 0.000000 0.000000 0.000000
# 2 -0.000421 0.015163 0.001697 0.000000 0.000000 0.000000
# 3 -0.000310 0.001697 0.007203 0.000000 0.000000 0.000000
# 4 0.000000 0.000000 0.000000 -0.458769 0.000000 0.000000
# 5 0.000000 0.000000 0.000000 0.000000 -0.040082 0.000000
# 6 0.000000 0.000000 0.000000 0.000000 0.000000 -0.016607
#
#
# Mechanical properties :
#
#
# Convention : Reuss Voigt Hill
#
# Bulk Modulus (GPa) = 37.50352 73.19305 55.34828
# Shear Modulus (GPa) = -10.33549 24.35431 7.00941
#
# Velocity S-wave (km/s) = -1.99623 3.06431 1.64394
# Velocity P-wave (km/s) = 3.02432 6.38280 4.99433
#
# Compressibility (1/GPa) = 0.02666417
#
# Stress axis : x y z
#
# Youngs Moduli (GPa) = 422.76195 65.94815 138.83137
#
# Poissons Ratio (x) = 0.02780 0.04301
# Poissons Ratio (y) = 0.17818 -0.23566
# Poissons Ratio (z) = 0.13097 -0.11194
#
# Static dielectric constant tensor:
#      x y z
#    x 2.436840 0.000000 0.000000 
#    y 0.000000 1.916810 0.000000 
#    z 0.000000 0.000000 1.869080 
# 
# From -- ./inp_files/11466.got.cif
#   From: 2010.05.17/outbox.cif.g08.bks.cpg/sg53_6_cif.got.tgz:11466.got - 2010.06.03 12:45:16.
