data_PCOD9415226
_publ_section_title
;
Structure prediction by ZEFSAII (Michael W. Deem and Ramdas Pophale) SiO2 
 PCOD9415226
Probable space group: P M N A
;
_chemical_formula_sum "Si O2"
_cell_formula_units_Z 48
_cell_length_a 15.686231
_cell_length_b 19.553890
_cell_length_c 8.496538
_cell_angle_alpha 90.000000
_cell_angle_beta 90.000000
_cell_angle_gamma 90.000000
_cell_volume 2606.116213
_symmetry_space_group_name_H-M "P M N A"
_symmetry_group_IT_number 53
_symmetry_cell_setting 'orthorhombic'
loop_
_space_group_symop_operation_xyz
x,y,z
1/2-x,-y,1/2+z
x,-y,-z
1/2-x,y,1/2-z
-x,-y,-z
1/2+x,y,1/2-z
-x,y,z
1/2+x,-y,1/2+z
loop_
_atom_site_type_symbol
_atom_site_label
_atom_site_fract_x
_atom_site_fract_y
_atom_site_fract_z
Si Si1 0.596690 0.326469 0.441748
Si Si2 0.750000 0.577084 0.940725
Si Si3 0.098052 0.169812 0.059936
Si Si4 0.596690 0.326469 0.058252
Si Si5 0.750000 0.923137 0.063583
Si Si6 0.901948 0.169812 0.440064
O O1 0.500000 0.342291 0.492284
O O2 0.666790 0.380629 0.494132
O O3 0.617249 0.248328 0.488395
O O4 0.596915 0.326717 0.250000
O O5 0.750000 0.576558 0.750000
O O6 0.666790 0.619371 0.994132
O O7 0.750000 0.500000 0.000000
O O8 0.101999 0.167725 0.250000
O O9 0.000000 0.154754 0.014196
O O10 0.166798 0.117845 0.994042
O O11 0.500000 0.342291 0.007716
O O12 0.617249 0.248328 0.011605
O O13 0.750000 0.925221 0.250000
O O14 0.666798 0.882155 0.005958
O O15 0.750000 0.000000 0.000000
O O16 0.000000 0.154754 0.485804
#
# Coordination Sequence:
#
# PCOD9415226 Si02
#       6
#     8   8   8   8   8   8
#     4   8  15  30  53  76  96 126 169 212 255 306
#     4  10  19  30  46  70 102 136 169 206 248 300
#     4   9  18  36  62  85 103 130 175 227 271 313
#     4   8  15  30  53  76  96 126 169 212 255 306
#     4  12  25  38  54  78 112 148 177 210 256 314
#     4   9  18  36  62  85 103 130 175 227 271 313
#
# _framework density 18.418213000000002
#
# number of rings (size 3 to 8) (size 9 to 14) (size 15 to 20)
#    0.000    2.667    0.000    4.500    0.000    4.667 
#    0.000    3.333    0.000    2.000    0.000    0.000 
#    0.000    0.000    0.000    0.000    0.000    0.000 
#
# Total GULP energy -267813.694705 kJ/mol
# GULP energy per Si atom -5579.451973 kJ/mol
# Density = 1.837629 g / cm^3
# Si number density = 18.418213 Si / 1000 Ang^3
#
#
#
# Elastic Constant Matrix: (Units=GPa)
#
#
# Indices 1 2 3 4 5 6 
#
# 1 172.9746 153.8427 39.6046 0.0000 0.0000 0.0000
# 2 153.8427 190.4995 35.5813 0.0000 0.0000 0.0000
# 3 39.6046 35.5813 24.1614 0.0000 0.0000 0.0000
# 4 0.0000 0.0000 0.0000 30.4661 0.0000 0.0000
# 5 0.0000 0.0000 0.0000 0.0000 17.2551 0.0000
# 6 0.0000 0.0000 0.0000 0.0000 0.0000 -6.8816
#
#
#
# Elastic Compliance Matrix: (Units=1/GPa)
#
#
# Indices 1 2 3 4 5 6 
#
# 1 0.023816 -0.016472 -0.014780 0.000000 0.000000 0.000000
# 2 -0.016472 0.018634 -0.000441 0.000000 0.000000 0.000000
# 3 -0.014780 -0.000441 0.066264 0.000000 0.000000 0.000000
# 4 0.000000 0.000000 0.000000 0.032823 0.000000 0.000000
# 5 0.000000 0.000000 0.000000 0.000000 0.057954 0.000000
# 6 0.000000 0.000000 0.000000 0.000000 0.000000 -0.145315
#
#
# Mechanical properties :
#
#
# Convention : Reuss Voigt Hill
#
# Bulk Modulus (GPa) = 22.06142 93.96587 58.01364
# Shear Modulus (GPa) = 37.68695 18.74173 28.21434
#
# Velocity S-wave (km/s) = 4.52838 3.19339 3.91816
# Velocity P-wave (km/s) = 6.27261 8.04523 7.21357
#
# Compressibility (1/GPa) = 0.04532801
#
# Stress axis : x y z
#
# Youngs Moduli (GPa) = 41.98920 53.66415 15.09110
#
# Poissons Ratio (x) = 0.88398 0.22304
# Poissons Ratio (y) = 0.69166 0.00665
# Poissons Ratio (z) = 0.62059 0.02366
#
# Static dielectric constant tensor:
#      x y z
#    x 1.635570 0.000000 0.000000 
#    y 0.000000 1.613030 0.000000 
#    z 0.000000 0.000000 1.638360 
# 
# From -- ./inp_files/8618.got.cif
#   From: 2010.05.17/outbox.cif.g08.bks.cpg/sg53_5_cif.got.tgz:8618.got - 2010.06.03 12:45:16.
