data_PCOD9415637
_publ_section_title
;
Structure prediction by ZEFSAII (Michael W. Deem and Ramdas Pophale) SiO2 
 PCOD9415637
Probable space group: P M N A
;
_chemical_formula_sum "Si O2"
_cell_formula_units_Z 64
_cell_length_a 9.462115
_cell_length_b 19.696846
_cell_length_c 19.922686
_cell_angle_alpha 90.000000
_cell_angle_beta 90.000000
_cell_angle_gamma 90.000000
_cell_volume 3713.067134
_symmetry_space_group_name_H-M "P M N A"
_symmetry_group_IT_number 53
_symmetry_cell_setting 'orthorhombic'
loop_
_space_group_symop_operation_xyz
x,y,z
1/2-x,-y,1/2+z
x,-y,-z
1/2-x,y,1/2-z
-x,-y,-z
1/2+x,y,1/2-z
-x,y,z
1/2+x,-y,1/2+z
loop_
_atom_site_type_symbol
_atom_site_label
_atom_site_fract_x
_atom_site_fract_y
_atom_site_fract_z
Si Si1 0.833789 0.036107 0.317882
Si Si2 0.163242 0.719439 0.684176
Si Si3 0.340644 0.553895 0.812682
Si Si4 0.334113 0.128083 0.817558
Si Si5 0.665143 0.183962 0.556350
Si Si6 0.667132 0.709626 0.550761
Si Si7 0.160384 0.449957 0.062241
Si Si8 0.165484 0.937849 0.950956
O O1 0.750000 0.055474 0.250000
O O2 0.759649 0.065216 0.384448
O O3 0.000000 0.053552 0.313582
O O4 0.822805 0.953919 0.324493
O O5 0.250000 0.742620 0.750000
O O6 0.161493 0.636671 0.686972
O O7 0.243181 0.735355 0.614617
O O8 0.000000 0.742371 0.685119
O O9 0.250000 0.530933 0.750000
O O10 0.500000 0.531358 0.806605
O O11 0.269802 0.530476 0.880910
O O12 0.250000 0.146774 0.750000
O O13 0.500000 0.144612 0.812503
O O14 0.261781 0.162671 0.881721
O O15 0.500000 0.186031 0.577516
O O16 0.704213 0.253241 0.518393
O O17 0.675870 0.128130 0.497315
O O18 0.500000 0.722706 0.563803
O O19 0.685788 0.628758 0.544005
O O20 0.000000 0.452776 0.089706
O O21 0.169740 0.500000 0.000000
O O22 0.000000 0.948243 0.931992
O O23 0.207092 0.000000 0.000000
#
# Coordination Sequence:
#
# PCOD9415637 Si02
#       8
#     8   8   8   8   8   8   8   8
#     4  10  20  33  51  74 101 131 166 207 247 290
#     4   9  16  27  45  68  94 125 161 199 237 280
#     4   9  16  26  43  68  96 124 156 196 238 281
#     4  10  20  33  52  76 100 127 163 206 248 290
#     4  10  20  34  52  74 101 132 163 200 246 293
#     4   9  18  32  49  71  99 130 164 200 242 293
#     4   9  17  30  49  72  98 128 161 199 244 292
#     4  10  19  32  51  73  99 129 161 199 243 289
#
# _framework density 17.236424
#
# number of rings (size 3 to 8) (size 9 to 14) (size 15 to 20)
#    0.000    2.500    1.250    1.500    0.000    5.500 
#    0.000    0.625    0.000    0.750    0.000    0.000 
#    0.000    0.000    0.000    0.000    0.000    0.000 
#
# Total GULP energy -356937.940879 kJ/mol
# GULP energy per Si atom -5577.155326 kJ/mol
# Density = 1.719719 g / cm^3
# Si number density = 17.236424 Si / 1000 Ang^3
#
#
#
# Elastic Constant Matrix: (Units=GPa)
#
#
# Indices 1 2 3 4 5 6 
#
# 1 123.6999 21.3468 85.2031 0.0000 0.0000 0.0000
# 2 21.3468 19.4567 17.5815 0.0000 0.0000 0.0000
# 3 85.2031 17.5815 116.9105 0.0000 0.0000 0.0000
# 4 0.0000 0.0000 0.0000 15.6151 0.0000 0.0000
# 5 0.0000 0.0000 0.0000 0.0000 38.3934 0.0000
# 6 0.0000 0.0000 0.0000 0.0000 0.0000 12.3173
#
#
#
# Elastic Compliance Matrix: (Units=1/GPa)
#
#
# Indices 1 2 3 4 5 6 
#
# 1 0.017460 -0.008862 -0.011392 0.000000 0.000000 0.000000
# 2 -0.008862 0.063977 -0.003162 0.000000 0.000000 0.000000
# 3 -0.011392 -0.003162 0.017331 0.000000 0.000000 0.000000
# 4 0.000000 0.000000 0.000000 0.064041 0.000000 0.000000
# 5 0.000000 0.000000 0.000000 0.000000 0.026046 0.000000
# 6 0.000000 0.000000 0.000000 0.000000 0.000000 0.081186
#
#
# Mechanical properties :
#
#
# Convention : Reuss Voigt Hill
#
# Bulk Modulus (GPa) = 19.25473 56.48109 37.86791
# Shear Modulus (GPa) = 14.96169 22.32754 18.64461
#
# Velocity S-wave (km/s) = 2.94943 3.60303 3.29249
# Velocity P-wave (km/s) = 4.77431 7.08157 6.03915
#
# Compressibility (1/GPa) = 0.05193529
#
# Stress axis : x y z
#
# Youngs Moduli (GPa) = 57.27345 15.63062 57.69844
#
# Poissons Ratio (x) = 0.13852 0.65730
# Poissons Ratio (y) = 0.50757 0.18247
# Poissons Ratio (z) = 0.65246 0.04943
#
# Static dielectric constant tensor:
#      x y z
#    x 1.585340 0.000000 0.000000 
#    y 0.000000 1.596880 0.000000 
#    z 0.000000 0.000000 1.554200 
# 
# From -- ./inp_files/27050.got.cif
#   From: 2010.05.17/outbox.cif.g08.bks.cpg/sg53_14_cif.got.tgz:27050.got - 2010.06.03 12:45:16.
