data_PCOD9415417
_publ_section_title
;
Structure prediction by ZEFSAII (Michael W. Deem and Ramdas Pophale) SiO2 
 PCOD9415417
Probable space group: P M N A
;
_chemical_formula_sum "Si O2"
_cell_formula_units_Z 48
_cell_length_a 8.118807
_cell_length_b 33.140606
_cell_length_c 9.205098
_cell_angle_alpha 90.000000
_cell_angle_beta 90.000000
_cell_angle_gamma 90.000000
_cell_volume 2476.743772
_symmetry_space_group_name_H-M "P M N A"
_symmetry_group_IT_number 53
_symmetry_cell_setting 'orthorhombic'
loop_
_space_group_symop_operation_xyz
x,y,z
1/2-x,-y,1/2+z
x,-y,-z
1/2-x,y,1/2-z
-x,-y,-z
1/2+x,y,1/2-z
-x,y,z
1/2+x,-y,1/2+z
loop_
_atom_site_type_symbol
_atom_site_label
_atom_site_fract_x
_atom_site_fract_y
_atom_site_fract_z
Si Si1 0.695881 0.300399 0.418107
Si Si2 0.699236 0.379673 0.583185
Si Si3 0.198894 0.872955 0.580281
Si Si4 0.199234 0.039611 0.417934
Si Si5 0.196756 0.213805 0.419451
Si Si6 0.801073 0.540099 0.917077
O O1 0.750000 0.303174 0.250000
O O2 0.500000 0.302193 0.418560
O O3 0.760990 0.338496 0.508122
O O4 0.744120 0.256512 0.480322
O O5 0.750000 0.381821 0.750000
O O6 0.500000 0.379349 0.576375
O O7 0.757610 0.419192 0.496297
O O8 0.250000 0.873035 0.750000
O O9 0.256202 0.916524 0.521968
O O10 0.256705 0.829553 0.519233
O O11 0.000000 0.872803 0.573087
O O12 0.250000 0.037312 0.250000
O O13 0.000000 0.039389 0.425290
O O14 0.261674 0.000000 0.500000
O O15 0.250000 0.214136 0.250000
O O16 0.000000 0.214059 0.424614
O O17 0.750000 0.539538 0.750000
O O18 0.000000 0.540086 0.923440
O O19 0.741832 0.500000 0.000000
#
# Coordination Sequence:
#
# PCOD9415417 Si02
#       6
#     8   8   8   8   8   8
#     4  10  19  31  48  72  99 125 157 196 239 286
#     4  10  22  37  53  75 102 133 169 206 242 285
#     4   8  14  24  39  61  87 115 148 187 230 276
#     4   9  17  29  45  65  90 119 151 189 232 278
#     4   9  15  24  41  65  91 119 152 191 236 281
#     4  10  21  37  57  82 109 136 169 206 245 291
#
# _framework density 19.380285000000001
#
# number of rings (size 3 to 8) (size 9 to 14) (size 15 to 20)
#    0.000    2.667    0.000    3.000    0.000    3.333 
#    0.000    0.000    0.000    1.000    0.000    4.667 
#    0.000    0.000    0.000    0.000    0.000    0.000 
#
# Total GULP energy -267423.692860 kJ/mol
# GULP energy per Si atom -5571.326935 kJ/mol
# Density = 1.933617 g / cm^3
# Si number density = 19.380285 Si / 1000 Ang^3
#
#
#
# Elastic Constant Matrix: (Units=GPa)
#
#
# Indices 1 2 3 4 5 6 
#
# 1 16.7123 21.2584 1.0011 0.0000 0.0000 0.0000
# 2 21.2584 266.1188 83.9806 0.0000 0.0000 0.0000
# 3 1.0011 83.9806 75.1863 0.0000 0.0000 0.0000
# 4 0.0000 0.0000 0.0000 25.0600 0.0000 0.0000
# 5 0.0000 0.0000 0.0000 0.0000 18.4707 0.0000
# 6 0.0000 0.0000 0.0000 0.0000 0.0000 16.9199
#
#
#
# Elastic Compliance Matrix: (Units=1/GPa)
#
#
# Indices 1 2 3 4 5 6 
#
# 1 0.069711 -0.008148 0.008173 0.000000 0.000000 0.000000
# 2 -0.008148 0.006756 -0.007437 0.000000 0.000000 0.000000
# 3 0.008173 -0.007437 0.021499 0.000000 0.000000 0.000000
# 4 0.000000 0.000000 0.000000 0.039904 0.000000 0.000000
# 5 0.000000 0.000000 0.000000 0.000000 0.054140 0.000000
# 6 0.000000 0.000000 0.000000 0.000000 0.000000 0.059102
#
#
# Mechanical properties :
#
#
# Convention : Reuss Voigt Hill
#
# Bulk Modulus (GPa) = 12.02788 63.38863 37.70826
# Shear Modulus (GPa) = 17.02710 28.87527 22.95118
#
# Velocity S-wave (km/s) = 2.96730 3.86415 3.44503
# Velocity P-wave (km/s) = 4.23787 7.25863 5.94337
#
# Compressibility (1/GPa) = 0.08314016
#
# Stress axis : x y z
#
# Youngs Moduli (GPa) = 14.34497 148.02459 46.51434
#
# Poissons Ratio (x) = 1.20607 -0.38014
# Poissons Ratio (y) = 0.11688 0.34594
# Poissons Ratio (z) = -0.11724 1.10091
#
# Static dielectric constant tensor:
#      x y z
#    x 1.679670 0.000000 0.000000 
#    y 0.000000 1.770350 0.000000 
#    z 0.000000 0.000000 1.639680 
# 
# From -- ./inp_files/6712.got.cif
#   From: 2010.05.17/outbox.cif.g08.bks.cpg/sg53_4_cif.got.tgz:6712.got - 2010.06.03 12:45:16.
