data_PCOD9415830
_publ_section_title
;
Structure prediction by ZEFSAII (Michael W. Deem and Ramdas Pophale) SiO2 
 PCOD9415830
Probable space group: P M N A
;
_chemical_formula_sum "Si O2"
_cell_formula_units_Z 64
_cell_length_a 9.063850
_cell_length_b 11.108402
_cell_length_c 34.493695
_cell_angle_alpha 90.000000
_cell_angle_beta 90.000000
_cell_angle_gamma 90.000000
_cell_volume 3472.993868
_symmetry_space_group_name_H-M "P M N A"
_symmetry_group_IT_number 53
_symmetry_cell_setting 'orthorhombic'
loop_
_space_group_symop_operation_xyz
x,y,z
1/2-x,-y,1/2+z
x,-y,-z
1/2-x,y,1/2-z
-x,-y,-z
1/2+x,y,1/2-z
-x,y,z
1/2+x,-y,1/2+z
loop_
_atom_site_type_symbol
_atom_site_label
_atom_site_fract_x
_atom_site_fract_y
_atom_site_fract_z
Si Si1 0.822879 0.154702 0.628932
Si Si2 0.176092 0.079784 0.093103
Si Si3 0.824949 0.203068 0.476303
Si Si4 0.827219 0.440597 0.056594
Si Si5 0.677466 0.726963 0.209416
Si Si6 0.828122 0.673502 0.861817
Si Si7 0.324813 0.308855 0.945338
Si Si8 0.324577 0.554644 0.790295
O O1 0.777260 0.196706 0.671818
O O2 0.792972 0.258517 0.597267
O O3 0.000000 0.135896 0.629020
O O4 0.743770 0.035886 0.613613
O O5 0.243850 0.107038 0.050783
O O6 0.209984 0.197622 0.119352
O O7 0.000000 0.070801 0.089850
O O8 0.768187 0.333947 0.462080
O O9 0.794265 0.206954 0.522248
O O10 0.000000 0.191477 0.470569
O O11 0.813317 0.420662 0.102841
O O12 0.767244 0.571430 0.046296
O O13 0.000000 0.425534 0.046489
O O14 0.750000 0.764893 0.250000
O O15 0.500000 0.734174 0.212803
O O16 0.715767 0.586078 0.202862
O O17 0.731087 0.633864 0.825867
O O18 0.000000 0.676717 0.850222
O O19 0.500000 0.336946 0.947983
O O20 0.250000 0.591726 0.750000
O O21 0.500000 0.561473 0.786790
#
# Coordination Sequence:
#
# PCOD9415830 Si02
#       8
#     8   8   8   8   8   8   8   8
#     4  10  21  38  57  78 106 141 183 224 263 312
#     4  10  22  39  56  76 104 139 181 227 270 314
#     4  10  20  35  55  77 105 143 181 221 270 319
#     4  10  20  33  52  79 110 141 175 221 273 323
#     4   9  19  35  56  82 110 138 168 208 258 312
#     4   9  19  35  52  73 103 137 174 216 262 314
#     4  10  21  35  53  79 109 141 181 224 264 318
#     4  10  19  32  54  83 112 139 168 208 260 318
#
# _framework density 18.427904999999999
#
# number of rings (size 3 to 8) (size 9 to 14) (size 15 to 20)
#    0.000    2.250    0.000    3.375    0.000    8.500 
#    0.000    3.125    0.000    1.500    0.000    0.000 
#    0.000    0.000    0.000    0.000    0.000    0.000 
#
# Total GULP energy -357289.060470 kJ/mol
# GULP energy per Si atom -5582.641570 kJ/mol
# Density = 1.838596 g / cm^3
# Si number density = 18.427905 Si / 1000 Ang^3
#
#
#
# Elastic Constant Matrix: (Units=GPa)
#
#
# Indices 1 2 3 4 5 6 
#
# 1 26.8401 10.4576 25.0620 0.0000 0.0000 0.0000
# 2 10.4576 29.5726 5.3725 0.0000 0.0000 0.0000
# 3 25.0620 5.3725 86.3020 0.0000 0.0000 0.0000
# 4 0.0000 0.0000 0.0000 20.0829 0.0000 0.0000
# 5 0.0000 0.0000 0.0000 0.0000 30.9964 0.0000
# 6 0.0000 0.0000 0.0000 0.0000 0.0000 25.1483
#
#
#
# Elastic Compliance Matrix: (Units=1/GPa)
#
#
# Indices 1 2 3 4 5 6 
#
# 1 0.059331 -0.018055 -0.016106 0.000000 0.000000 0.000000
# 2 -0.018055 0.039696 0.002772 0.000000 0.000000 0.000000
# 3 -0.016106 0.002772 0.016092 0.000000 0.000000 0.000000
# 4 0.000000 0.000000 0.000000 0.049794 0.000000 0.000000
# 5 0.000000 0.000000 0.000000 0.000000 0.032262 0.000000
# 6 0.000000 0.000000 0.000000 0.000000 0.000000 0.039764
#
#
# Mechanical properties :
#
#
# Convention : Reuss Voigt Hill
#
# Bulk Modulus (GPa) = 19.10526 24.94430 22.02478
# Shear Modulus (GPa) = 15.76476 22.03370 18.89923
#
# Velocity S-wave (km/s) = 2.92804 3.46160 3.20594
# Velocity P-wave (km/s) = 4.67133 5.43529 5.06773
#
# Compressibility (1/GPa) = 0.05234161
#
# Stress axis : x y z
#
# Youngs Moduli (GPa) = 16.85458 25.19133 62.14378
#
# Poissons Ratio (x) = 0.45483 1.00087
# Poissons Ratio (y) = 0.30431 -0.17226
# Poissons Ratio (z) = 0.27145 -0.06983
#
# Static dielectric constant tensor:
#      x y z
#    x 1.614430 0.000000 0.000000 
#    y 0.000000 1.615300 0.000000 
#    z 0.000000 0.000000 1.637950 
# 
# From -- ./inp_files/38173.got.cif
#   From: 2010.05.17/outbox.cif.g08.bks.cpg/sg53_20_cif.got.tgz:38173.got - 2010.06.03 12:45:16.
