data_PCOD9415705
_publ_section_title
;
Structure prediction by ZEFSAII (Michael W. Deem and Ramdas Pophale) SiO2 
 PCOD9415705
Probable space group: P M N A
;
_chemical_formula_sum "Si O2"
_cell_formula_units_Z 48
_cell_length_a 24.625399
_cell_length_b 15.892963
_cell_length_c 6.671822
_cell_angle_alpha 90.000000
_cell_angle_beta 90.000000
_cell_angle_gamma 90.000000
_cell_volume 2611.154680
_symmetry_space_group_name_H-M "P M N A"
_symmetry_group_IT_number 53
_symmetry_cell_setting 'orthorhombic'
loop_
_space_group_symop_operation_xyz
x,y,z
1/2-x,-y,1/2+z
x,-y,-z
1/2-x,y,1/2-z
-x,-y,-z
1/2+x,y,1/2-z
-x,y,z
1/2+x,-y,1/2+z
loop_
_atom_site_type_symbol
_atom_site_label
_atom_site_fract_x
_atom_site_fract_y
_atom_site_fract_z
Si Si1 0.121542 0.853890 0.738688
Si Si2 0.649054 0.592577 0.524187
Si Si3 0.305555 0.301945 0.130544
Si Si4 0.750000 0.367510 0.750000
Si Si5 0.120870 0.000000 0.000000
Si Si6 0.563043 0.260807 0.556026
Si Si7 0.063131 0.892308 0.340316
O O1 0.161200 0.782560 0.659348
O O2 0.077715 0.802874 0.873302
O O3 0.094403 0.897409 0.548298
O O4 0.149438 0.923706 0.881787
O O5 0.624688 0.500000 0.500000
O O6 0.664236 0.621794 0.751156
O O7 0.705439 0.588975 0.395267
O O8 0.606770 0.663877 0.449331
O O9 0.250000 0.291415 0.250000
O O10 0.288826 0.318133 0.903189
O O11 0.085282 0.046103 0.830941
O O12 0.500000 0.287866 0.540762
O O13 0.569234 0.202595 0.752571
O O14 0.000000 0.908471 0.371695
#
# Coordination Sequence:
#
# PCOD9415705 Si02
#       7
#     8   8   8   4   4   8   8
#     4  10  19  34  55  76 105 141 180 225 274 322
#     4  10  21  33  54  83 112 143 178 227 281 325
#     4   9  20  37  56  79 101 138 181 220 272 329
#     4  10  20  34  56  80 110 136 180 238 274 320
#     4  10  21  32  50  78 110 134 174 226 267 320
#     4   9  19  35  52  77 110 147 189 223 265 334
#     4  10  19  32  52  76 105 143 179 219 269 318
#
# _framework density 18.382671999999999
#
# number of rings (size 3 to 8) (size 9 to 14) (size 15 to 20)
#    0.000    2.333    0.000    2.250    3.500    4.333 
#    0.000    0.000    3.667    0.000    0.000    9.333 
#    0.000    0.000    0.000    0.000    0.000    0.000 
#
# Total GULP energy -267376.133319 kJ/mol
# GULP energy per Si atom -5570.336111 kJ/mol
# Density = 1.834083 g / cm^3
# Si number density = 18.382672 Si / 1000 Ang^3
#
#
#
# Elastic Constant Matrix: (Units=GPa)
#
#
# Indices 1 2 3 4 5 6 
#
# 1 39.0929 22.3434 13.3655 0.0000 0.0000 0.0000
# 2 22.3434 107.1464 46.9960 0.0000 0.0000 0.0000
# 3 13.3655 46.9960 107.8094 0.0000 0.0000 0.0000
# 4 0.0000 0.0000 0.0000 11.6057 0.0000 0.0000
# 5 0.0000 0.0000 0.0000 0.0000 18.2146 0.0000
# 6 0.0000 0.0000 0.0000 0.0000 0.0000 7.2790
#
#
#
# Elastic Compliance Matrix: (Units=1/GPa)
#
#
# Indices 1 2 3 4 5 6 
#
# 1 0.029165 -0.005559 -0.001193 0.000000 0.000000 0.000000
# 2 -0.005559 0.012599 -0.004803 0.000000 0.000000 0.000000
# 3 -0.001193 -0.004803 0.011517 0.000000 0.000000 0.000000
# 4 0.000000 0.000000 0.000000 0.086165 0.000000 0.000000
# 5 0.000000 0.000000 0.000000 0.000000 0.054901 0.000000
# 6 0.000000 0.000000 0.000000 0.000000 0.000000 0.137381
#
#
# Mechanical properties :
#
#
# Convention : Reuss Voigt Hill
#
# Bulk Modulus (GPa) = 33.14278 46.60651 39.87465
# Shear Modulus (GPa) = 13.70263 18.84279 16.27271
#
# Velocity S-wave (km/s) = 2.73318 3.20508 2.97849
# Velocity P-wave (km/s) = 5.29423 6.25342 5.79371
#
# Compressibility (1/GPa) = 0.03017248
#
# Stress axis : x y z
#
# Youngs Moduli (GPa) = 34.28783 79.37248 86.82716
#
# Poissons Ratio (x) = 0.44121 0.10354
# Poissons Ratio (y) = 0.19060 0.41702
# Poissons Ratio (z) = 0.04089 0.38122
#
# Static dielectric constant tensor:
#      x y z
#    x 1.610550 0.000000 0.000000 
#    y 0.000000 1.664310 0.000000 
#    z 0.000000 0.000000 1.672000 
# 
# From -- ./inp_files/4513.got.cif
#   From: 2010.05.17/outbox.cif.g08.bks.cpg/sg53_3_cif.got.tgz:4513.got - 2010.06.03 12:45:16.
