data_PCOD9415186
_publ_section_title
;
Structure prediction by ZEFSAII (Michael W. Deem and Ramdas Pophale) SiO2 
 PCOD9415186
Probable space group: P M N A
;
_chemical_formula_sum "Si O2"
_cell_formula_units_Z 56
_cell_length_a 9.127826
_cell_length_b 21.311381
_cell_length_c 16.959540
_cell_angle_alpha 90.000000
_cell_angle_beta 90.000000
_cell_angle_gamma 90.000000
_cell_volume 3299.081274
_symmetry_space_group_name_H-M "P M N A"
_symmetry_group_IT_number 53
_symmetry_cell_setting 'orthorhombic'
loop_
_space_group_symop_operation_xyz
x,y,z
1/2-x,-y,1/2+z
x,-y,-z
1/2-x,y,1/2-z
-x,-y,-z
1/2+x,y,1/2-z
-x,y,z
1/2+x,-y,1/2+z
loop_
_atom_site_type_symbol
_atom_site_label
_atom_site_fract_x
_atom_site_fract_y
_atom_site_fract_z
Si Si1 0.329555 0.460338 0.118191
Si Si2 0.823299 0.147636 0.968547
Si Si3 0.175629 0.290794 0.999208
Si Si4 0.666728 0.959222 0.580954
Si Si5 0.825496 0.934901 0.333216
Si Si6 0.669210 0.408710 0.938203
Si Si7 0.325571 0.660768 0.671836
O O1 0.500000 0.457097 0.144336
O O2 0.280159 0.532934 0.115815
O O3 0.228424 0.411153 0.162735
O O4 0.328020 0.436157 0.027461
O O5 0.738585 0.112887 0.898478
O O6 0.000000 0.141985 0.955761
O O7 0.783444 0.220358 0.975682
O O8 0.793120 0.109722 0.049774
O O9 0.218847 0.305408 0.090032
O O10 0.000000 0.295626 0.996317
O O11 0.241999 0.344528 0.943340
O O12 0.500000 0.959594 0.612393
O O13 0.664717 0.000000 0.500000
O O14 0.774440 0.995729 0.638571
O O15 0.750000 0.921387 0.250000
O O16 0.000000 0.930840 0.328774
O O17 0.500000 0.396039 0.918551
O O18 0.250000 0.687360 0.750000
O O19 0.500000 0.663434 0.679114
#
# Coordination Sequence:
#
# PCOD9415186 Si02
#       7
#     8   8   8   8   8   8   8
#     4   8  14  26  43  63  87 115 147 188 235 279
#     4   9  18  34  53  73 101 134 164 197 240 288
#     4   9  18  31  48  70  97 130 165 198 237 289
#     4   8  15  30  51  72  97 128 158 193 237 280
#     4  11  21  33  52  77 102 127 160 201 244 289
#     4   8  14  25  43  66  90 115 147 188 232 276
#     4  10  19  30  45  66  92 125 163 203 247 292
#
# _framework density 16.974422000000001
#
# number of rings (size 3 to 8) (size 9 to 14) (size 15 to 20)
#    0.000    3.000    0.000    3.429    0.000    4.286 
#    0.000    3.571    0.000    2.571    0.000    6.000 
#    0.000    0.000    0.000    0.000    0.000    0.000 
#
# Total GULP energy -311798.317435 kJ/mol
# GULP energy per Si atom -5567.827097 kJ/mol
# Density = 1.693579 g / cm^3
# Si number density = 16.974422 Si / 1000 Ang^3
#
#
#
# Elastic Constant Matrix: (Units=GPa)
#
#
# Indices 1 2 3 4 5 6 
#
# 1 67.1653 45.0299 39.6055 0.0000 0.0000 0.0000
# 2 45.0299 126.9980 28.0599 0.0000 0.0000 0.0000
# 3 39.6055 28.0599 56.1683 0.0000 0.0000 0.0000
# 4 0.0000 0.0000 0.0000 12.0661 0.0000 0.0000
# 5 0.0000 0.0000 0.0000 0.0000 20.4686 0.0000
# 6 0.0000 0.0000 0.0000 0.0000 0.0000 18.8363
#
#
#
# Elastic Compliance Matrix: (Units=1/GPa)
#
#
# Indices 1 2 3 4 5 6 
#
# 1 0.029764 -0.006650 -0.017665 0.000000 0.000000 0.000000
# 2 -0.006650 0.010337 -0.000475 0.000000 0.000000 0.000000
# 3 -0.017665 -0.000475 0.030497 0.000000 0.000000 0.000000
# 4 0.000000 0.000000 0.000000 0.082877 0.000000 0.000000
# 5 0.000000 0.000000 0.000000 0.000000 0.048855 0.000000
# 6 0.000000 0.000000 0.000000 0.000000 0.000000 0.053089
#
#
# Mechanical properties :
#
#
# Convention : Reuss Voigt Hill
#
# Bulk Modulus (GPa) = 47.57903 52.85803 50.21853
# Shear Modulus (GPa) = 16.02541 19.44994 17.73768
#
# Velocity S-wave (km/s) = 3.07594 3.38870 3.23610
# Velocity P-wave (km/s) = 6.38012 6.82044 6.60395
#
# Compressibility (1/GPa) = 0.02101766
#
# Stress axis : x y z
#
# Youngs Moduli (GPa) = 33.59800 96.73932 32.79049
#
# Poissons Ratio (x) = 0.64335 0.57924
# Poissons Ratio (y) = 0.22344 0.01557
# Poissons Ratio (z) = 0.59350 0.04593
#
# Static dielectric constant tensor:
#      x y z
#    x 1.567440 0.000000 0.000000 
#    y 0.000000 1.594820 0.000000 
#    z 0.000000 0.000000 1.586900 
# 
# From -- ./inp_files/26720.got.cif
#   From: 2010.05.17/outbox.cif.g08.bks.cpg/sg53_14_cif.got.tgz:26720.got - 2010.06.03 12:45:16.
