data_PCOD9415034
_publ_section_title
;
Structure prediction by ZEFSAII (Michael W. Deem and Ramdas Pophale) SiO2 
 PCOD9415034
Probable space group: P M N A
;
_chemical_formula_sum "Si O2"
_cell_formula_units_Z 56
_cell_length_a 17.611802
_cell_length_b 14.559120
_cell_length_c 11.824628
_cell_angle_alpha 90.000000
_cell_angle_beta 90.000000
_cell_angle_gamma 90.000000
_cell_volume 3031.980520
_symmetry_space_group_name_H-M "P M N A"
_symmetry_group_IT_number 53
_symmetry_cell_setting 'orthorhombic'
loop_
_space_group_symop_operation_xyz
x,y,z
1/2-x,-y,1/2+z
x,-y,-z
1/2-x,y,1/2-z
-x,-y,-z
1/2+x,y,1/2-z
-x,y,z
1/2+x,-y,1/2+z
loop_
_atom_site_type_symbol
_atom_site_label
_atom_site_fract_x
_atom_site_fract_y
_atom_site_fract_z
Si Si1 0.340992 0.552901 0.235211
Si Si2 0.679824 0.283911 0.926212
Si Si3 0.910517 0.228152 0.139079
Si Si4 0.857712 0.701066 0.098460
Si Si5 0.668821 0.653224 0.815500
Si Si6 0.911103 0.848543 0.276966
Si Si7 0.407484 0.020457 0.370573
O O1 0.250000 0.548174 0.250000
O O2 0.356228 0.629570 0.140590
O O3 0.371564 0.598980 0.351126
O O4 0.361676 0.451131 0.196586
O O5 0.767912 0.278748 0.889365
O O6 0.636567 0.193585 0.881137
O O7 0.677805 0.310156 0.057526
O O8 0.888976 0.282479 0.250013
O O9 0.881365 0.124042 0.150997
O O10 0.000000 0.222325 0.121444
O O11 0.877722 0.281474 0.030861
O O12 0.901950 0.774075 0.175826
O O13 0.750000 0.657966 0.750000
O O14 0.000000 0.856873 0.306834
O O15 0.883171 0.944068 0.220754
O O16 0.500000 0.017091 0.368112
O O17 0.384754 0.000000 0.500000
#
# Coordination Sequence:
#
# PCOD9415034 Si02
#       7
#     8   8   8   8   8   8   8
#     4   8  18  33  57  83 106 148 195 232 279 349
#     4  10  20  36  58  83 115 152 194 237 283 342
#     4  11  22  36  58  85 115 148 189 239 294 345
#     4  10  18  35  58  86 113 142 188 246 290 338
#     4  11  21  37  55  78 116 156 195 233 282 342
#     4  10  19  34  60  87 112 146 192 238 283 339
#     4   9  17  33  58  84 108 143 186 227 280 350
#
# _framework density 18.469776
#
# number of rings (size 3 to 8) (size 9 to 14) (size 15 to 20)
#    0.000    2.143    2.857    2.143    0.000    1.143 
#    0.000    6.429    3.143    6.857    0.000    0.000 
#    0.000    0.000    0.000    0.000    0.000    0.000 
#
# Total GULP energy -312067.426048 kJ/mol
# GULP energy per Si atom -5572.632608 kJ/mol
# Density = 1.842774 g / cm^3
# Si number density = 18.469776 Si / 1000 Ang^3
#
#
#
# Elastic Constant Matrix: (Units=GPa)
#
#
# Indices 1 2 3 4 5 6 
#
# 1 33.9509 23.2236 18.3791 0.0000 0.0000 0.0000
# 2 23.2236 111.8390 65.7470 0.0000 0.0000 0.0000
# 3 18.3791 65.7470 115.6839 0.0000 0.0000 0.0000
# 4 0.0000 0.0000 0.0000 98.3684 0.0000 0.0000
# 5 0.0000 0.0000 0.0000 0.0000 29.1686 0.0000
# 6 0.0000 0.0000 0.0000 0.0000 0.0000 21.9923
#
#
#
# Elastic Compliance Matrix: (Units=1/GPa)
#
#
# Indices 1 2 3 4 5 6 
#
# 1 0.034676 -0.005950 -0.002128 0.000000 0.000000 0.000000
# 2 -0.005950 0.014449 -0.007266 0.000000 0.000000 0.000000
# 3 -0.002128 -0.007266 0.013112 0.000000 0.000000 0.000000
# 4 0.000000 0.000000 0.000000 0.010166 0.000000 0.000000
# 5 0.000000 0.000000 0.000000 0.000000 0.034283 0.000000
# 6 0.000000 0.000000 0.000000 0.000000 0.000000 0.045470
#
#
# Mechanical properties :
#
#
# Convention : Reuss Voigt Hill
#
# Bulk Modulus (GPa) = 31.69670 52.90812 42.30241
# Shear Modulus (GPa) = 25.85849 40.18079 33.01964
#
# Velocity S-wave (km/s) = 3.74577 4.66927 4.23279
# Velocity P-wave (km/s) = 5.99220 7.60115 6.84412
#
# Compressibility (1/GPa) = 0.03154903
#
# Stress axis : x y z
#
# Youngs Moduli (GPa) = 28.83842 69.21098 76.26613
#
# Poissons Ratio (x) = 0.41179 0.16227
# Poissons Ratio (y) = 0.17158 0.55418
# Poissons Ratio (z) = 0.06136 0.50291
#
# Static dielectric constant tensor:
#      x y z
#    x 1.648510 0.000000 0.000000 
#    y 0.000000 1.664620 0.000000 
#    z 0.000000 0.000000 1.616570 
# 
# From -- ./inp_files/16067.got.cif
#   From: 2010.05.17/outbox.cif.g08.bks.cpg/sg53_9_cif.got.tgz:16067.got - 2010.06.03 12:45:16.
