data_PCOD9415463
_publ_section_title
;
Structure prediction by ZEFSAII (Michael W. Deem and Ramdas Pophale) SiO2 
 PCOD9415463
Probable space group: P M N A
;
_chemical_formula_sum "Si O2"
_cell_formula_units_Z 64
_cell_length_a 8.745630
_cell_length_b 14.707197
_cell_length_c 28.495055
_cell_angle_alpha 90.000000
_cell_angle_beta 90.000000
_cell_angle_gamma 90.000000
_cell_volume 3665.139500
_symmetry_space_group_name_H-M "P M N A"
_symmetry_group_IT_number 53
_symmetry_cell_setting 'orthorhombic'
loop_
_space_group_symop_operation_xyz
x,y,z
1/2-x,-y,1/2+z
x,-y,-z
1/2-x,y,1/2-z
-x,-y,-z
1/2+x,y,1/2-z
-x,y,z
1/2+x,-y,1/2+z
loop_
_atom_site_type_symbol
_atom_site_label
_atom_site_fract_x
_atom_site_fract_y
_atom_site_fract_z
Si Si1 0.681550 0.853946 0.925710
Si Si2 0.318997 0.534598 0.119075
Si Si3 0.682463 0.851083 0.198100
Si Si4 0.179445 0.642530 0.033350
Si Si5 0.819486 0.858000 0.026796
Si Si6 0.818133 0.343612 0.801581
Si Si7 0.182493 0.974494 0.118131
Si Si8 0.316466 0.355671 0.067978
O O1 0.500000 0.863260 0.920096
O O2 0.724043 0.747901 0.919127
O O3 0.766683 0.922640 0.891298
O O4 0.728543 0.877329 0.979232
O O5 0.500000 0.541476 0.127877
O O6 0.275694 0.590497 0.072317
O O7 0.229564 0.579030 0.162032
O O8 0.279798 0.430225 0.107148
O O9 0.750000 0.867127 0.250000
O O10 0.500000 0.846205 0.200479
O O11 0.748340 0.753108 0.182195
O O12 0.736801 0.927582 0.162079
O O13 0.199593 0.751381 0.038638
O O14 0.000000 0.621526 0.039071
O O15 0.234136 0.620066 0.980804
O O16 0.774044 0.918392 0.071091
O O17 0.000000 0.873819 0.017315
O O18 0.750000 0.361319 0.750000
O O19 0.000000 0.334848 0.798721
O O20 0.000000 0.967768 0.123587
O O21 0.500000 0.358503 0.059844
#
# Coordination Sequence:
#
# PCOD9415463 Si02
#       8
#     8   8   8   8   8   8   8   8
#     4  10  20  34  51  73 102 138 180 223 264 307
#     4  11  21  34  53  76 103 139 179 217 262 313
#     4  11  22  38  59  83 110 139 170 207 255 309
#     4  10  19  31  49  75 106 139 176 218 263 314
#     4   9  19  33  48  70 104 141 173 210 259 312
#     4  11  22  38  58  82 110 137 167 207 257 311
#     4  11  21  34  53  77 106 140 177 216 260 310
#     4   9  20  36  51  70 103 143 180 221 266 311
#
# _framework density 17.461819999999999
#
# number of rings (size 3 to 8) (size 9 to 14) (size 15 to 20)
#    0.000    1.750    0.000    6.000    0.000    7.000 
#    0.000    0.000    0.000    0.750    0.000    3.500 
#    0.000    0.000    0.000    0.000    0.000    0.000 
#
# Total GULP energy -357642.915595 kJ/mol
# GULP energy per Si atom -5588.170556 kJ/mol
# Density = 1.742208 g / cm^3
# Si number density = 17.461820 Si / 1000 Ang^3
#
#
#
# Elastic Constant Matrix: (Units=GPa)
#
#
# Indices 1 2 3 4 5 6 
#
# 1 87.8250 43.1147 39.8348 0.0000 0.0000 0.0000
# 2 43.1147 80.6222 56.5615 0.0000 0.0000 0.0000
# 3 39.8348 56.5615 67.4392 0.0000 0.0000 0.0000
# 4 0.0000 0.0000 0.0000 28.1171 0.0000 0.0000
# 5 0.0000 0.0000 0.0000 0.0000 31.2885 0.0000
# 6 0.0000 0.0000 0.0000 0.0000 0.0000 26.3513
#
#
#
# Elastic Compliance Matrix: (Units=1/GPa)
#
#
# Indices 1 2 3 4 5 6 
#
# 1 0.016271 -0.004759 -0.005620 0.000000 0.000000 0.000000
# 2 -0.004759 0.031527 -0.023631 0.000000 0.000000 0.000000
# 3 -0.005620 -0.023631 0.037967 0.000000 0.000000 0.000000
# 4 0.000000 0.000000 0.000000 0.035566 0.000000 0.000000
# 5 0.000000 0.000000 0.000000 0.000000 0.031961 0.000000
# 6 0.000000 0.000000 0.000000 0.000000 0.000000 0.037949
#
#
# Mechanical properties :
#
#
# Convention : Reuss Voigt Hill
#
# Bulk Modulus (GPa) = 56.35000 57.21204 56.78102
# Shear Modulus (GPa) = 18.85545 23.57641 21.21593
#
# Velocity S-wave (km/s) = 3.28961 3.67845 3.48945
# Velocity P-wave (km/s) = 6.83880 7.13278 6.98734
#
# Compressibility (1/GPa) = 0.01774623
#
# Stress axis : x y z
#
# Youngs Moduli (GPa) = 61.45718 31.71884 26.33859
#
# Poissons Ratio (x) = 0.15094 0.14802
# Poissons Ratio (y) = 0.29246 0.62241
# Poissons Ratio (z) = 0.34539 0.74955
#
# Static dielectric constant tensor:
#      x y z
#    x 1.584580 0.000000 0.000000 
#    y 0.000000 1.608450 0.000000 
#    z 0.000000 0.000000 1.561130 
# 
# From -- ./inp_files/34166.got.cif
#   From: 2010.05.17/outbox.cif.g08.bks.cpg/sg53_18_cif.got.tgz:34166.got - 2010.06.03 12:45:16.
