data_PCOD9415688
_publ_section_title
;
Structure prediction by ZEFSAII (Michael W. Deem and Ramdas Pophale) SiO2 
 PCOD9415688
Probable space group: P M N A
;
_chemical_formula_sum "Si O2"
_cell_formula_units_Z 40
_cell_length_a 25.457979
_cell_length_b 5.246553
_cell_length_c 18.699453
_cell_angle_alpha 90.000000
_cell_angle_beta 90.000000
_cell_angle_gamma 90.000000
_cell_volume 2497.623034
_symmetry_space_group_name_H-M "P M N A"
_symmetry_group_IT_number 53
_symmetry_cell_setting 'orthorhombic'
loop_
_space_group_symop_operation_xyz
x,y,z
1/2-x,-y,1/2+z
x,-y,-z
1/2-x,y,1/2-z
-x,-y,-z
1/2+x,y,1/2-z
-x,y,z
1/2+x,-y,1/2+z
loop_
_atom_site_type_symbol
_atom_site_label
_atom_site_fract_x
_atom_site_fract_y
_atom_site_fract_z
Si Si1 0.562035 0.534015 0.585443
Si Si2 0.277143 0.240491 0.543863
Si Si3 0.287052 0.456950 0.821029
Si Si4 0.812361 0.965891 0.729767
Si Si5 0.876767 0.960138 0.128069
O O1 0.568874 0.500000 0.500000
O O2 0.500000 0.537681 0.600465
O O3 0.589200 0.299888 0.627930
O O4 0.588334 0.803789 0.603231
O O5 0.288412 0.500000 0.500000
O O6 0.244926 0.352949 0.611452
O O7 0.329553 0.112778 0.574882
O O8 0.252021 0.000000 0.500000
O O9 0.250000 0.484288 0.750000
O O10 0.313807 0.731282 0.824640
O O11 0.327578 0.234395 0.804022
O O12 0.750000 0.989910 0.750000
O O13 0.847278 0.945035 0.800178
#
# Coordination Sequence:
#
# PCOD9415688 Si02
#       5
#     8   8   8   8   8
#     4  11  24  39  51  69 101 137 179 236 284 303
#     4  12  23  32  49  76 102 131 180 230 255 295
#     4  10  19  34  47  65 102 134 160 213 256 317
#     4  10  19  32  52  70  96 128 166 216 252 328
#     4  12  21  36  54  74  94 134 183 227 267 308
#
# _framework density 16.015225999999998
#
# number of rings (size 3 to 8) (size 9 to 14) (size 15 to 20)
#    0.000    1.000    4.000    6.600    5.600    1.600 
#    0.000    0.000    0.000    0.000    0.000    0.000 
#    0.000    0.000    0.000    0.000    0.000  252.000 
#
# Total GULP energy -222769.260735 kJ/mol
# GULP energy per Si atom -5569.231518 kJ/mol
# Density = 1.597877 g / cm^3
# Si number density = 16.015226 Si / 1000 Ang^3
#
#
#
# Elastic Constant Matrix: (Units=GPa)
#
#
# Indices 1 2 3 4 5 6 
#
# 1 48.2367 13.0957 29.0444 0.0000 0.0000 0.0000
# 2 13.0957 115.1844 6.9347 0.0000 0.0000 0.0000
# 3 29.0444 6.9347 46.9437 0.0000 0.0000 0.0000
# 4 0.0000 0.0000 0.0000 36.9091 0.0000 0.0000
# 5 0.0000 0.0000 0.0000 0.0000 0.6522 0.0000
# 6 0.0000 0.0000 0.0000 0.0000 0.0000 54.0871
#
#
#
# Elastic Compliance Matrix: (Units=1/GPa)
#
#
# Indices 1 2 3 4 5 6 
#
# 1 0.033798 -0.002607 -0.020526 0.000000 0.000000 0.000000
# 2 -0.002607 0.008961 0.000289 0.000000 0.000000 0.000000
# 3 -0.020526 0.000289 0.033959 0.000000 0.000000 0.000000
# 4 0.000000 0.000000 0.000000 0.027094 0.000000 0.000000
# 5 0.000000 0.000000 0.000000 0.000000 1.533203 0.000000
# 6 0.000000 0.000000 0.000000 0.000000 0.000000 0.018489
#
#
# Mechanical properties :
#
#
# Convention : Reuss Voigt Hill
#
# Bulk Modulus (GPa) = 32.22648 34.27936 33.25292
# Shear Modulus (GPa) = 2.92136 29.08235 16.00185
#
# Velocity S-wave (km/s) = 1.35206 4.26598 3.16439
# Velocity P-wave (km/s) = 4.75432 6.76132 5.84461
#
# Compressibility (1/GPa) = 0.03103038
#
# Stress axis : x y z
#
# Youngs Moduli (GPa) = 29.58752 111.59840 29.44726
#
# Poissons Ratio (x) = 0.29092 0.60444
# Poissons Ratio (y) = 0.07713 -0.00852
# Poissons Ratio (z) = 0.60731 -0.03227
#
# Static dielectric constant tensor:
#      x y z
#    x 1.493510 0.000000 0.000000 
#    y 0.000000 1.627530 0.000000 
#    z 0.000000 0.000000 1.667910 
# 
# From -- ./inp_files/24546.got.cif
#   From: 2010.05.17/outbox.cif.g08.bks.cpg/sg53_13_cif.got.tgz:24546.got - 2010.06.03 12:45:16.
