data_PCOD9415265
_publ_section_title
;
Structure prediction by ZEFSAII (Michael W. Deem and Ramdas Pophale) SiO2 
 PCOD9415265
Probable space group: P M N A
;
_chemical_formula_sum "Si O2"
_cell_formula_units_Z 48
_cell_length_a 8.582661
_cell_length_b 11.163537
_cell_length_c 22.833631
_cell_angle_alpha 90.000000
_cell_angle_beta 90.000000
_cell_angle_gamma 90.000000
_cell_volume 2187.755345
_symmetry_space_group_name_H-M "P M N A"
_symmetry_group_IT_number 53
_symmetry_cell_setting 'orthorhombic'
loop_
_space_group_symop_operation_xyz
x,y,z
1/2-x,-y,1/2+z
x,-y,-z
1/2-x,y,1/2-z
-x,-y,-z
1/2+x,y,1/2-z
-x,y,z
1/2+x,-y,1/2+z
loop_
_atom_site_type_symbol
_atom_site_label
_atom_site_fract_x
_atom_site_fract_y
_atom_site_fract_z
Si Si1 0.186430 0.098663 0.883528
Si Si2 0.813646 0.333390 0.813223
Si Si3 0.811986 0.143161 0.357192
Si Si4 0.674607 0.619467 0.535675
Si Si5 0.181406 0.404612 0.341626
Si Si6 0.185446 0.156172 0.495368
O O1 0.238274 0.227571 0.857664
O O2 0.252413 0.080814 0.949743
O O3 0.000000 0.096617 0.886963
O O4 0.242580 0.987197 0.843137
O O5 0.750000 0.297543 0.750000
O O6 0.761357 0.471730 0.822538
O O7 0.000000 0.333364 0.814477
O O8 0.761646 0.268190 0.325987
O O9 0.768562 0.153512 0.426518
O O10 0.000000 0.138800 0.353266
O O11 0.658859 0.500000 0.500000
O O12 0.500000 0.653790 0.557013
O O13 0.792629 0.598098 0.588629
O O14 0.743815 0.714459 0.490825
O O15 0.000000 0.412013 0.325612
O O16 0.000000 0.147714 0.496754
#
# Coordination Sequence:
#
# PCOD9415265 Si02
#       6
#     8   8   8   8   8   8
#     4  11  23  37  57  87 120 155 196 242 292 345
#     4  11  25  44  64  87 113 145 192 245 296 350
#     4   9  20  37  57  86 122 157 194 232 276 341
#     4  10  19  30  47  76 114 152 191 235 280 332
#     4  10  21  38  60  85 113 148 189 234 287 343
#     4  10  20  33  52  81 118 159 198 234 279 342
#
# _framework density 21.940296
#
# number of rings (size 3 to 8) (size 9 to 14) (size 15 to 20)
#    0.000    1.833    0.000    5.000    0.000   14.000 
#    0.000    0.833    0.000    2.000    0.000    0.000 
#    0.000    0.000    0.000    0.000    0.000    0.000 
#
# Total GULP energy -267336.869117 kJ/mol
# GULP energy per Si atom -5569.518107 kJ/mol
# Density = 2.189036 g / cm^3
# Si number density = 21.940296 Si / 1000 Ang^3
#
#
#
# Elastic Constant Matrix: (Units=GPa)
#
#
# Indices 1 2 3 4 5 6 
#
# 1 26.6058 23.7490 -6.8084 0.0000 0.0000 0.0000
# 2 23.7490 119.3727 14.9152 0.0000 0.0000 0.0000
# 3 -6.8084 14.9152 47.2891 0.0000 0.0000 0.0000
# 4 0.0000 0.0000 0.0000 -83.7047 0.0000 0.0000
# 5 0.0000 0.0000 0.0000 0.0000 24.7732 0.0000
# 6 0.0000 0.0000 0.0000 0.0000 0.0000 33.7077
#
#
#
# Elastic Compliance Matrix: (Units=1/GPa)
#
#
# Indices 1 2 3 4 5 6 
#
# 1 0.050563 -0.011419 0.010881 0.000000 0.000000 0.000000
# 2 -0.011419 0.011300 -0.005208 0.000000 0.000000 0.000000
# 3 0.010881 -0.005208 0.024356 0.000000 0.000000 0.000000
# 4 0.000000 0.000000 0.000000 -0.011947 0.000000 0.000000
# 5 0.000000 0.000000 0.000000 0.000000 0.040366 0.000000
# 6 0.000000 0.000000 0.000000 0.000000 0.000000 0.029667
#
#
# Mechanical properties :
#
#
# Convention : Reuss Voigt Hill
#
# Bulk Modulus (GPa) = 13.38196 28.55325 20.96761
# Shear Modulus (GPa) = 27.66936 5.71605 16.69270
#
# Velocity S-wave (km/s) = 3.55508 1.61584 2.76130
# Velocity P-wave (km/s) = 4.79207 4.06492 4.44339
#
# Compressibility (1/GPa) = 0.07472744
#
# Stress axis : x y z
#
# Youngs Moduli (GPa) = 19.77720 88.49829 41.05797
#
# Poissons Ratio (x) = 1.01057 -0.44677
# Poissons Ratio (y) = 0.22584 0.21383
# Poissons Ratio (z) = -0.21520 0.46090
#
# Static dielectric constant tensor:
#      x y z
#    x 1.762830 0.000000 0.000000 
#    y 0.000000 1.947800 0.000000 
#    z 0.000000 0.000000 1.754320 
# 
# From -- ./inp_files/33869.got.cif
#   From: 2010.05.17/outbox.cif.g08.bks.cpg/sg53_17_cif.got.tgz:33869.got - 2010.06.03 12:45:16.
