data_PCOD9415878
_publ_section_title
;
Structure prediction by ZEFSAII (Michael W. Deem and Ramdas Pophale) SiO2 
 PCOD9415878
Probable space group: P M N A
;
_chemical_formula_sum "Si O2"
_cell_formula_units_Z 56
_cell_length_a 10.181897
_cell_length_b 12.981614
_cell_length_c 20.741764
_cell_angle_alpha 90.000000
_cell_angle_beta 90.000000
_cell_angle_gamma 90.000000
_cell_volume 2741.593612
_symmetry_space_group_name_H-M "P M N A"
_symmetry_group_IT_number 53
_symmetry_cell_setting 'orthorhombic'
loop_
_space_group_symop_operation_xyz
x,y,z
1/2-x,-y,1/2+z
x,-y,-z
1/2-x,y,1/2-z
-x,-y,-z
1/2+x,y,1/2-z
-x,y,z
1/2+x,-y,1/2+z
loop_
_atom_site_type_symbol
_atom_site_label
_atom_site_fract_x
_atom_site_fract_y
_atom_site_fract_z
Si Si1 0.348210 0.075788 0.051643
Si Si2 0.644770 0.560205 0.199359
Si Si3 0.650604 0.376776 0.496260
Si Si4 0.147709 0.634364 0.615212
Si Si5 0.150808 0.192509 0.694436
Si Si6 0.850937 0.760112 0.440974
Si Si7 0.345486 0.841579 0.809840
O O1 0.500000 0.040290 0.060707
O O2 0.301828 0.100747 0.123773
O O3 0.352652 0.178377 0.008001
O O4 0.280321 0.000000 0.000000
O O5 0.750000 0.523887 0.250000
O O6 0.500000 0.548316 0.227856
O O7 0.652415 0.482857 0.139969
O O8 0.662928 0.682263 0.189223
O O9 0.650115 0.500000 0.500000
O O10 0.500000 0.340457 0.497026
O O11 0.730439 0.351098 0.431748
O O12 0.737930 0.324484 0.551929
O O13 0.157138 0.720021 0.671151
O O14 0.000000 0.647870 0.586246
O O15 0.250000 0.157065 0.750000
O O16 0.175620 0.163874 0.619784
O O17 0.000000 0.167066 0.710901
O O18 0.000000 0.719185 0.430434
O O19 0.250000 0.862839 0.750000
O O20 0.500000 0.867010 0.797253
#
# Coordination Sequence:
#
# PCOD9415878 Si02
#       7
#     8   8   8   8   8   8   8
#     4   9  18  36  62  88 112 144 191 240 284 340
#     4   9  17  28  43  66  98 137 180 222 266 316
#     4  11  23  34  48  77 115 151 187 232 287 336
#     4  10  19  33  51  74 105 145 195 236 274 334
#     4   9  18  31  49  73 102 140 182 226 273 319
#     4  10  19  36  59  80 105 144 192 233 276 336
#     4  10  20  35  57  86 116 148 187 235 291 348
#
# _framework density 20.426075999999998
#
# number of rings (size 3 to 8) (size 9 to 14) (size 15 to 20)
#    0.000    2.286    1.429    1.714    0.000    4.000 
#    0.000    3.571    0.000    1.714    0.000    0.000 
#    0.000    0.000    0.000    0.000    0.000    0.000 
#
# Total GULP energy -311999.258295 kJ/mol
# GULP energy per Si atom -5571.415327 kJ/mol
# Density = 2.037958 g / cm^3
# Si number density = 20.426076 Si / 1000 Ang^3
#
#
#
# Elastic Constant Matrix: (Units=GPa)
#
#
# Indices 1 2 3 4 5 6 
#
# 1 121.3957 11.2707 74.0680 0.0000 0.0000 0.0000
# 2 11.2707 37.7924 6.8751 0.0000 0.0000 0.0000
# 3 74.0680 6.8751 142.4911 0.0000 0.0000 0.0000
# 4 0.0000 0.0000 0.0000 17.7169 0.0000 0.0000
# 5 0.0000 0.0000 0.0000 0.0000 34.6186 0.0000
# 6 0.0000 0.0000 0.0000 0.0000 0.0000 7.0009
#
#
#
# Elastic Compliance Matrix: (Units=1/GPa)
#
#
# Indices 1 2 3 4 5 6 
#
# 1 0.012298 -0.002527 -0.006271 0.000000 0.000000 0.000000
# 2 -0.002527 0.027214 0.000000 0.000000 0.000000 0.000000
# 3 -0.006271 0.000000 0.010278 0.000000 0.000000 0.000000
# 4 0.000000 0.000000 0.000000 0.056443 0.000000 0.000000
# 5 0.000000 0.000000 0.000000 0.000000 0.028886 0.000000
# 6 0.000000 0.000000 0.000000 0.000000 0.000000 0.142840
#
#
# Mechanical properties :
#
#
# Convention : Reuss Voigt Hill
#
# Bulk Modulus (GPa) = 31.06056 54.01187 42.53622
# Shear Modulus (GPa) = 16.32467 25.83163 21.07815
#
# Velocity S-wave (km/s) = 2.83009 3.56004 3.21584
# Velocity P-wave (km/s) = 5.09103 6.58775 5.88715
#
# Compressibility (1/GPa) = 0.03219517
#
# Stress axis : x y z
#
# Youngs Moduli (GPa) = 81.31307 36.74599 97.29941
#
# Poissons Ratio (x) = 0.09285 0.61014
# Poissons Ratio (y) = 0.20547 -0.00004
# Poissons Ratio (z) = 0.50989 -0.00002
#
# Static dielectric constant tensor:
#      x y z
#    x 1.486500 0.000000 0.000000 
#    y 0.000000 1.816110 0.000000 
#    z 0.000000 0.000000 1.783800 
# 
# From -- ./inp_files/30730.got.cif
#   From: 2010.05.17/outbox.cif.g08.bks.cpg/sg53_16_cif.got.tgz:30730.got - 2010.06.03 12:45:16.
