data_PCOD9415436
_publ_section_title
;
Structure prediction by ZEFSAII (Michael W. Deem and Ramdas Pophale) SiO2 
 PCOD9415436
Probable space group: P M N A
;
_chemical_formula_sum "Si O2"
_cell_formula_units_Z 64
_cell_length_a 8.880582
_cell_length_b 27.739301
_cell_length_c 15.206865
_cell_angle_alpha 90.000000
_cell_angle_beta 90.000000
_cell_angle_gamma 90.000000
_cell_volume 3746.076417
_symmetry_space_group_name_H-M "P M N A"
_symmetry_group_IT_number 53
_symmetry_cell_setting 'orthorhombic'
loop_
_space_group_symop_operation_xyz
x,y,z
1/2-x,-y,1/2+z
x,-y,-z
1/2-x,y,1/2-z
-x,-y,-z
1/2+x,y,1/2-z
-x,y,z
1/2+x,-y,1/2+z
loop_
_atom_site_type_symbol
_atom_site_label
_atom_site_fract_x
_atom_site_fract_y
_atom_site_fract_z
Si Si1 0.820680 0.033667 0.655750
Si Si2 0.680535 0.192298 0.656850
Si Si3 0.680911 0.468236 0.843363
Si Si4 0.678882 0.919027 0.843732
Si Si5 0.318006 0.617931 0.028359
Si Si6 0.818538 0.420239 0.343339
Si Si7 0.319257 0.109180 0.523419
Si Si8 0.819561 0.304301 0.844183
O O1 0.750000 0.047399 0.750000
O O2 0.745158 0.064273 0.578860
O O3 0.000000 0.041862 0.656701
O O4 0.793835 0.976536 0.643659
O O5 0.750000 0.176934 0.750000
O O6 0.500000 0.190156 0.664817
O O7 0.725247 0.156694 0.578617
O O8 0.722291 0.248130 0.641331
O O9 0.750000 0.453358 0.750000
O O10 0.500000 0.467407 0.836561
O O11 0.723643 0.430967 0.919163
O O12 0.725702 0.523739 0.860189
O O13 0.750000 0.905542 0.750000
O O14 0.500000 0.911639 0.842069
O O15 0.752525 0.892303 0.925987
O O16 0.500000 0.622268 0.031867
O O17 0.244363 0.662060 0.079548
O O18 0.272591 0.611377 0.927017
O O19 0.750000 0.405637 0.250000
O O20 0.000000 0.419139 0.337668
O O21 0.500000 0.106363 0.519932
O O22 0.750000 0.318935 0.750000
O O23 0.000000 0.308001 0.839800
#
# Coordination Sequence:
#
# PCOD9415436 Si02
#       8
#     8   8   8   8   8   8   8   8
#     4  10  20  33  49  73 105 137 169 204 244 292
#     4   9  20  36  53  75 102 130 159 196 242 292
#     4   9  17  29  45  67  97 130 160 194 237 284
#     4  10  21  36  52  72 101 136 171 207 246 289
#     4  10  19  31  49  72  97 127 164 201 240 288
#     4   9  18  32  48  67  95 130 165 201 240 282
#     4  11  21  33  52  76 101 131 168 207 248 294
#     4  10  20  35  53  74 101 129 158 195 242 292
#
# _framework density 17.084543
#
# number of rings (size 3 to 8) (size 9 to 14) (size 15 to 20)
#    0.000    2.250    0.000    3.000    0.000    9.000 
#    0.000    0.000    0.000    4.500    0.000    1.750 
#    0.000    0.000    0.000    0.000    0.000    0.000 
#
# Total GULP energy -357269.826977 kJ/mol
# GULP energy per Si atom -5582.341047 kJ/mol
# Density = 1.704566 g / cm^3
# Si number density = 17.084543 Si / 1000 Ang^3
#
#
#
# Elastic Constant Matrix: (Units=GPa)
#
#
# Indices 1 2 3 4 5 6 
#
# 1 34.8626 37.7079 54.7447 0.0000 0.0000 0.0000
# 2 37.7079 67.5423 80.1221 0.0000 0.0000 0.0000
# 3 54.7447 80.1221 180.4433 0.0000 0.0000 0.0000
# 4 0.0000 0.0000 0.0000 26.1657 0.0000 0.0000
# 5 0.0000 0.0000 0.0000 0.0000 33.4452 0.0000
# 6 0.0000 0.0000 0.0000 0.0000 0.0000 18.4029
#
#
#
# Elastic Compliance Matrix: (Units=1/GPa)
#
#
# Indices 1 2 3 4 5 6 
#
# 1 0.079135 -0.033172 -0.009279 0.000000 0.000000 0.000000
# 2 -0.033172 0.045189 -0.010001 0.000000 0.000000 0.000000
# 3 -0.009279 -0.010001 0.012798 0.000000 0.000000 0.000000
# 4 0.000000 0.000000 0.000000 0.038218 0.000000 0.000000
# 5 0.000000 0.000000 0.000000 0.000000 0.029900 0.000000
# 6 0.000000 0.000000 0.000000 0.000000 0.000000 0.054339
#
#
# Mechanical properties :
#
#
# Convention : Reuss Voigt Hill
#
# Bulk Modulus (GPa) = 31.04009 69.77750 50.40880
# Shear Modulus (GPa) = 13.32544 22.95432 18.13988
#
# Velocity S-wave (km/s) = 2.79583 3.66945 3.26202
# Velocity P-wave (km/s) = 5.35071 7.67361 6.61493
#
# Compressibility (1/GPa) = 0.03221640
#
# Stress axis : x y z
#
# Youngs Moduli (GPa) = 12.63669 22.12940 78.13791
#
# Poissons Ratio (x) = 0.73408 0.72506
# Poissons Ratio (y) = 0.41919 0.78146
# Poissons Ratio (z) = 0.11726 0.22132
#
# Static dielectric constant tensor:
#      x y z
#    x 1.571550 0.000000 0.000000 
#    y 0.000000 1.577170 0.000000 
#    z 0.000000 0.000000 1.562330 
# 
# From -- ./inp_files/20982.got.cif
#   From: 2010.05.17/outbox.cif.g08.bks.cpg/sg53_11_cif.got.tgz:20982.got - 2010.06.03 12:45:16.
