data_PCOD9415935
_publ_section_title
;
Structure prediction by ZEFSAII (Michael W. Deem and Ramdas Pophale) SiO2 
 PCOD9415935
Probable space group: P M N A
;
_chemical_formula_sum "Si O2"
_cell_formula_units_Z 64
_cell_length_a 17.513513
_cell_length_b 21.451963
_cell_length_c 9.014159
_cell_angle_alpha 90.000000
_cell_angle_beta 90.000000
_cell_angle_gamma 90.000000
_cell_volume 3386.612621
_symmetry_space_group_name_H-M "P M N A"
_symmetry_group_IT_number 53
_symmetry_cell_setting 'orthorhombic'
loop_
_space_group_symop_operation_xyz
x,y,z
1/2-x,-y,1/2+z
x,-y,-z
1/2-x,y,1/2-z
-x,-y,-z
1/2+x,y,1/2-z
-x,y,z
1/2+x,-y,1/2+z
loop_
_atom_site_type_symbol
_atom_site_label
_atom_site_fract_x
_atom_site_fract_y
_atom_site_fract_z
Si Si1 0.664487 0.030354 0.786573
Si Si2 0.364249 0.859635 0.447803
Si Si3 0.590697 0.519444 0.337000
Si Si4 0.416425 0.901927 0.754340
Si Si5 0.587999 0.226582 0.802264
Si Si6 0.812250 0.555902 0.616328
Si Si7 0.091735 0.628643 0.376347
Si Si8 0.188244 0.861255 0.507024
O O1 0.750000 0.006287 0.750000
O O2 0.642078 0.083246 0.667922
O O3 0.671802 0.069904 0.937482
O O4 0.606238 0.974057 0.773888
O O5 0.413905 0.882500 0.584096
O O6 0.395322 0.799271 0.362526
O O7 0.277651 0.849573 0.501634
O O8 0.619188 0.500000 0.500000
O O9 0.500000 0.519356 0.345236
O O10 0.618720 0.471492 0.213591
O O11 0.612887 0.586103 0.266788
O O12 0.500000 0.890563 0.819592
O O13 0.351782 0.862206 0.835722
O O14 0.500000 0.211099 0.838067
O O15 0.599074 0.299560 0.830253
O O16 0.645629 0.188335 0.904802
O O17 0.788522 0.500000 0.500000
O O18 0.750000 0.569887 0.750000
O O19 0.850795 0.608561 0.509991
O O20 0.000000 0.617522 0.411017
#
# Coordination Sequence:
#
# PCOD9415935 Si02
#       8
#     8   8   8   8   8   8   8   8
#     4   9  19  35  55  77 104 141 180 218 271 340
#     4  10  21  38  57  77 107 145 182 221 274 334
#     4   9  17  32  55  83 114 148 185 223 269 324
#     4  12  23  33  52  83 111 136 175 230 282 324
#     4  10  20  38  60  81 106 140 187 231 269 321
#     4  10  19  33  53  82 118 150 183 226 275 321
#     4   9  19  36  59  83 111 151 188 223 274 335
#     4  10  21  38  56  75 106 147 183 219 272 334
#
# _framework density 18.897939999999998
#
# number of rings (size 3 to 8) (size 9 to 14) (size 15 to 20)
#    0.000    2.125    0.000    4.500    0.000    7.500 
#    0.000   10.000    0.000    4.500    0.000    0.000 
#    0.000    0.000    0.000    0.000    0.000    0.000 
#
# Total GULP energy -356710.006220 kJ/mol
# GULP energy per Si atom -5573.593847 kJ/mol
# Density = 1.885493 g / cm^3
# Si number density = 18.897940 Si / 1000 Ang^3
#
#
#
# Elastic Constant Matrix: (Units=GPa)
#
#
# Indices 1 2 3 4 5 6 
#
# 1 64.5046 35.7647 30.2483 0.0000 0.0000 0.0000
# 2 35.7647 76.7189 23.8049 0.0000 0.0000 0.0000
# 3 30.2483 23.8049 94.2461 0.0000 0.0000 0.0000
# 4 0.0000 0.0000 0.0000 4.4329 0.0000 0.0000
# 5 0.0000 0.0000 0.0000 0.0000 31.2597 0.0000
# 6 0.0000 0.0000 0.0000 0.0000 0.0000 11.4247
#
#
#
# Elastic Compliance Matrix: (Units=1/GPa)
#
#
# Indices 1 2 3 4 5 6 
#
# 1 0.022931 -0.009121 -0.005056 0.000000 0.000000 0.000000
# 2 -0.009121 0.017771 -0.001561 0.000000 0.000000 0.000000
# 3 -0.005056 -0.001561 0.012628 0.000000 0.000000 0.000000
# 4 0.000000 0.000000 0.000000 0.225587 0.000000 0.000000
# 5 0.000000 0.000000 0.000000 0.000000 0.031990 0.000000
# 6 0.000000 0.000000 0.000000 0.000000 0.000000 0.087530
#
#
# Mechanical properties :
#
#
# Convention : Reuss Voigt Hill
#
# Bulk Modulus (GPa) = 45.76007 46.12281 45.94144
# Shear Modulus (GPa) = 11.43650 19.13356 15.28503
#
# Velocity S-wave (km/s) = 2.46269 3.18538 2.84706
# Velocity P-wave (km/s) = 5.68800 6.16345 5.93049
#
# Compressibility (1/GPa) = 0.02185312
#
# Stress axis : x y z
#
# Youngs Moduli (GPa) = 43.60942 56.27118 79.19210
#
# Poissons Ratio (x) = 0.51325 0.40038
# Poissons Ratio (y) = 0.39777 0.12364
# Poissons Ratio (z) = 0.22048 0.08785
#
# Static dielectric constant tensor:
#      x y z
#    x 1.659240 0.000000 0.000000 
#    y 0.000000 1.631130 0.000000 
#    z 0.000000 0.000000 1.683980 
# 
# From -- ./inp_files/10277.got.cif
#   From: 2010.05.17/outbox.cif.g08.bks.cpg/sg53_6_cif.got.tgz:10277.got - 2010.06.03 12:45:16.
