data_PCOD9415573
_publ_section_title
;
Structure prediction by ZEFSAII (Michael W. Deem and Ramdas Pophale) SiO2 
 PCOD9415573
Probable space group: P M N A
;
_chemical_formula_sum "Si O2"
_cell_formula_units_Z 48
_cell_length_a 7.426362
_cell_length_b 21.667531
_cell_length_c 14.158739
_cell_angle_alpha 90.000000
_cell_angle_beta 90.000000
_cell_angle_gamma 90.000000
_cell_volume 2278.295844
_symmetry_space_group_name_H-M "P M N A"
_symmetry_group_IT_number 53
_symmetry_cell_setting 'orthorhombic'
loop_
_space_group_symop_operation_xyz
x,y,z
1/2-x,-y,1/2+z
x,-y,-z
1/2-x,y,1/2-z
-x,-y,-z
1/2+x,y,1/2-z
-x,y,z
1/2+x,-y,1/2+z
loop_
_atom_site_type_symbol
_atom_site_label
_atom_site_fract_x
_atom_site_fract_y
_atom_site_fract_z
Si Si1 0.720349 0.096385 0.043224
Si Si2 0.221034 0.649370 0.558678
Si Si3 0.714400 0.028426 0.858486
Si Si4 0.295373 0.518197 0.889071
Si Si5 0.715294 0.613232 0.149033
Si Si6 0.784862 0.779247 0.639647
O O1 0.500000 0.097955 0.044657
O O2 0.783750 0.162232 0.080564
O O3 0.778340 0.039996 0.111395
O O4 0.778326 0.076687 0.937851
O O5 0.283268 0.586886 0.611827
O O6 0.275849 0.644663 0.448310
O O7 0.282771 0.712704 0.605249
O O8 0.000000 0.647376 0.560874
O O9 0.750000 0.043032 0.750000
O O10 0.500000 0.026507 0.869353
O O11 0.500000 0.523379 0.851948
O O12 0.207880 0.456724 0.847317
O O13 0.306277 0.500000 0.000000
O O14 0.750000 0.644119 0.250000
O O15 0.500000 0.607417 0.139334
O O16 0.750000 0.788477 0.750000
O O17 0.000000 0.777541 0.626197
#
# Coordination Sequence:
#
# PCOD9415573 Si02
#       6
#     8   8   8   8   8   8
#     4   8  16  30  47  66  92 123 148 174 215 266
#     4   8  15  28  45  63  85 115 147 175 210 263
#     4   9  16  29  48  69  92 119 150 181 215 254
#     4   7  11  22  40  59  78 104 140 176 206 245
#     4   9  16  27  44  64  85 112 145 178 214 257
#     4  10  19  32  49  67  87 114 147 180 217 261
#
# _framework density 21.068377999999999
#
# number of rings (size 3 to 8) (size 9 to 14) (size 15 to 20)
#    0.000    3.500    0.000    3.500    0.000    0.667 
#    0.000    4.167    0.000    4.500    0.000    0.000 
#    0.000    0.000    0.000    0.000    0.000    0.000 
#
# Total GULP energy -267496.002296 kJ/mol
# GULP energy per Si atom -5572.833381 kJ/mol
# Density = 2.102043 g / cm^3
# Si number density = 21.068378 Si / 1000 Ang^3
#
#
#
# Elastic Constant Matrix: (Units=GPa)
#
#
# Indices 1 2 3 4 5 6 
#
# 1 67.1022 8.1022 -4.8167 0.0000 0.0000 0.0000
# 2 8.1022 156.7133 60.4010 0.0000 0.0000 0.0000
# 3 -4.8167 60.4010 120.9419 0.0000 0.0000 0.0000
# 4 0.0000 0.0000 0.0000 22.0319 0.0000 0.0000
# 5 0.0000 0.0000 0.0000 0.0000 19.1885 0.0000
# 6 0.0000 0.0000 0.0000 0.0000 0.0000 -0.0944
#
#
#
# Elastic Compliance Matrix: (Units=1/GPa)
#
#
# Indices 1 2 3 4 5 6 
#
# 1 0.015143 -0.001257 0.001231 0.000000 0.000000 0.000000
# 2 -0.001257 0.008007 -0.004049 0.000000 0.000000 0.000000
# 3 0.001231 -0.004049 0.010339 0.000000 0.000000 0.000000
# 4 0.000000 0.000000 0.000000 0.045389 0.000000 0.000000
# 5 0.000000 0.000000 0.000000 0.000000 0.052114 0.000000
# 6 0.000000 0.000000 0.000000 0.000000 0.000000-10.588572
#
#
# Mechanical properties :
#
#
# Convention : Reuss Voigt Hill
#
# Bulk Modulus (GPa) = 39.46522 52.45894 45.96208
# Shear Modulus (GPa) = -0.47888 26.96325 13.24218
#
# Velocity S-wave (km/s) = -0.47728 3.58131 2.50978
# Velocity P-wave (km/s) = 4.29755 6.48494 5.50106
#
# Compressibility (1/GPa) = 0.02533876
#
# Stress axis : x y z
#
# Youngs Moduli (GPa) = 66.03785 124.89756 96.71660
#
# Poissons Ratio (x) = 0.15704 -0.11906
# Poissons Ratio (y) = 0.08303 0.39158
# Poissons Ratio (z) = -0.08130 0.50568
#
# Static dielectric constant tensor:
#      x y z
#    x 1.824380 0.000000 0.000000 
#    y 0.000000 1.753600 0.000000 
#    z 0.000000 0.000000 1.767230 
# 
# From -- ./inp_files/14960.got.cif
#   From: 2010.05.17/outbox.cif.g08.bks.cpg/sg53_8_cif.got.tgz:14960.got - 2010.06.03 12:45:16.
