data_PCOD9415654
_publ_section_title
;
Structure prediction by ZEFSAII (Michael W. Deem and Ramdas Pophale) SiO2 
 PCOD9415654
Probable space group: P M N A
;
_chemical_formula_sum "Si O2"
_cell_formula_units_Z 64
_cell_length_a 7.599243
_cell_length_b 13.260881
_cell_length_c 29.639710
_cell_angle_alpha 90.000000
_cell_angle_beta 90.000000
_cell_angle_gamma 90.000000
_cell_volume 2986.872333
_symmetry_space_group_name_H-M "P M N A"
_symmetry_group_IT_number 53
_symmetry_cell_setting 'orthorhombic'
loop_
_space_group_symop_operation_xyz
x,y,z
1/2-x,-y,1/2+z
x,-y,-z
1/2-x,y,1/2-z
-x,-y,-z
1/2+x,y,1/2-z
-x,y,z
1/2+x,-y,1/2+z
loop_
_atom_site_type_symbol
_atom_site_label
_atom_site_fract_x
_atom_site_fract_y
_atom_site_fract_z
Si Si1 0.707772 0.051269 0.894769
Si Si2 0.791699 0.866361 0.199765
Si Si3 0.708584 0.569354 0.700907
Si Si4 0.786055 0.646685 0.171968
Si Si5 0.207074 0.364990 0.397986
Si Si6 0.284571 0.155493 0.062231
Si Si7 0.215246 0.782082 0.463279
Si Si8 0.294765 0.578649 0.071682
O O1 0.500000 0.050410 0.904466
O O2 0.779216 0.946396 0.914073
O O3 0.729021 0.065772 0.841571
O O4 0.777785 0.148966 0.921657
O O5 0.750000 0.901755 0.250000
O O6 0.722078 0.752130 0.192218
O O7 0.000000 0.860682 0.195658
O O8 0.750000 0.612968 0.750000
O O9 0.500000 0.567979 0.695808
O O10 0.772877 0.453089 0.698658
O O11 0.778729 0.622320 0.655956
O O12 0.718686 0.629201 0.121283
O O13 0.000000 0.647635 0.170787
O O14 0.278646 0.258287 0.414225
O O15 0.282194 0.466532 0.421565
O O16 0.000000 0.364620 0.409183
O O17 0.500000 0.154622 0.064637
O O18 0.237570 0.163780 0.009736
O O19 0.279023 0.666251 0.460396
O O20 0.000000 0.776261 0.461653
O O21 0.500000 0.565468 0.059629
#
# Coordination Sequence:
#
# PCOD9415654 Si02
#       8
#     8   8   8   8   8   8   8   8
#     4  10  19  34  55  77 105 138 175 217 257 301
#     4  11  22  35  53  78 107 137 170 210 260 314
#     4  10  19  32  51  75 101 133 172 212 256 308
#     4   9  18  31  48  73 106 137 163 201 253 310
#     4   9  18  32  49  73 106 139 172 211 256 303
#     4   9  18  32  52  77 104 138 178 217 255 300
#     4   9  16  28  51  82 107 133 172 215 260 305
#     4   9  16  27  48  77 107 136 165 206 252 299
#
# _framework density 21.427095999999999
#
# number of rings (size 3 to 8) (size 9 to 14) (size 15 to 20)
#    0.000    2.500    1.250    1.500    0.000    3.000 
#    0.000    3.750    0.000    3.750    0.000    3.500 
#    0.000    0.000    0.000    0.000    0.000    0.000 
#
# Total GULP energy -357157.245003 kJ/mol
# GULP energy per Si atom -5580.581953 kJ/mol
# Density = 2.137833 g / cm^3
# Si number density = 21.427096 Si / 1000 Ang^3
#
#
#
# Elastic Constant Matrix: (Units=GPa)
#
#
# Indices 1 2 3 4 5 6 
#
# 1 46.3024 9.4344 -12.4072 0.0000 0.0000 0.0000
# 2 9.4344 106.4909 37.8399 0.0000 0.0000 0.0000
# 3 -12.4072 37.8399 63.9945 0.0000 0.0000 0.0000
# 4 0.0000 0.0000 0.0000 -28.3835 0.0000 0.0000
# 5 0.0000 0.0000 0.0000 0.0000 12.2658 0.0000
# 6 0.0000 0.0000 0.0000 0.0000 0.0000 3.3119
#
#
#
# Elastic Compliance Matrix: (Units=1/GPa)
#
#
# Indices 1 2 3 4 5 6 
#
# 1 0.024659 -0.004916 0.007688 0.000000 0.000000 0.000000
# 2 -0.004916 0.012869 -0.008562 0.000000 0.000000 0.000000
# 3 0.007688 -0.008562 0.022180 0.000000 0.000000 0.000000
# 4 0.000000 0.000000 0.000000 -0.035232 0.000000 0.000000
# 5 0.000000 0.000000 0.000000 0.000000 0.081527 0.000000
# 6 0.000000 0.000000 0.000000 0.000000 0.000000 0.301944
#
#
# Mechanical properties :
#
#
# Convention : Reuss Voigt Hill
#
# Bulk Modulus (GPa) = 20.77894 31.83576 26.30735
# Shear Modulus (GPa) = 11.47919 9.56689 10.52304
#
# Velocity S-wave (km/s) = 2.31710 2.11531 2.21850
# Velocity P-wave (km/s) = 4.10818 4.56684 4.34357
#
# Compressibility (1/GPa) = 0.04812566
#
# Stress axis : x y z
#
# Youngs Moduli (GPa) = 40.55323 77.70895 45.08606
#
# Poissons Ratio (x) = 0.38205 -0.34662
# Poissons Ratio (y) = 0.19938 0.38604
# Poissons Ratio (z) = -0.31177 0.66537
#
# Static dielectric constant tensor:
#      x y z
#    x 1.806860 0.000000 0.000000 
#    y 0.000000 1.789870 0.000000 
#    z 0.000000 0.000000 1.765970 
# 
# From -- ./inp_files/38311.got.cif
#   From: 2010.05.17/outbox.cif.g08.bks.cpg/sg53_20_cif.got.tgz:38311.got - 2010.06.03 12:45:16.
