data_PCOD9415844
_publ_section_title
;
Structure prediction by ZEFSAII (Michael W. Deem and Ramdas Pophale) SiO2 
 PCOD9415844
Probable space group: P M N A
;
_chemical_formula_sum "Si O2"
_cell_formula_units_Z 52
_cell_length_a 14.689852
_cell_length_b 8.916826
_cell_length_c 22.005502
_cell_angle_alpha 90.000000
_cell_angle_beta 90.000000
_cell_angle_gamma 90.000000
_cell_volume 2882.431483
_symmetry_space_group_name_H-M "P M N A"
_symmetry_group_IT_number 53
_symmetry_cell_setting 'orthorhombic'
loop_
_space_group_symop_operation_xyz
x,y,z
1/2-x,-y,1/2+z
x,-y,-z
1/2-x,y,1/2-z
-x,-y,-z
1/2+x,y,1/2-z
-x,y,z
1/2+x,-y,1/2+z
loop_
_atom_site_type_symbol
_atom_site_label
_atom_site_fract_x
_atom_site_fract_y
_atom_site_fract_z
Si Si1 0.226342 0.035156 0.352385
Si Si2 0.603792 0.651036 0.316826
Si Si3 0.841367 0.500000 0.500000
Si Si4 0.394489 0.533230 0.194356
Si Si5 0.264509 0.703257 0.102046
Si Si6 0.399964 0.724241 0.897368
Si Si7 0.607070 0.994165 0.269485
O O1 0.183521 0.162094 0.395153
O O2 0.154663 0.014473 0.296188
O O3 0.323841 0.065697 0.319592
O O4 0.232709 0.882011 0.391023
O O5 0.500000 0.619320 0.332136
O O6 0.636427 0.540323 0.263743
O O7 0.667200 0.648666 0.374528
O O8 0.609758 0.817015 0.286741
O O9 0.787288 0.623356 0.460834
O O10 0.894529 0.600309 0.549375
O O11 0.500000 0.584386 0.193912
O O12 0.335845 0.640659 0.151893
O O13 0.392498 0.370097 0.164903
O O14 0.500000 0.797661 0.900358
O O15 0.500000 0.040230 0.270353
#
# Coordination Sequence:
#
# PCOD9415844 Si02
#       7
#     8   8   4   8   8   8   8
#     4  10  19  32  55  82 108 143 177 218 274 323
#     4   9  16  30  55  82 105 140 178 213 266 330
#     4  10  23  40  53  72 106 152 189 230 271 306
#     4   9  17  30  52  79 108 138 169 212 270 330
#     4  10  19  34  54  76 107 143 185 224 264 320
#     4  10  21  37  54  79 110 141 182 225 270 322
#     4   9  17  31  52  84 118 137 165 213 271 335
#
# _framework density 18.040323999999998
#
# number of rings (size 3 to 8) (size 9 to 14) (size 15 to 20)
#    0.000    2.462    1.538    1.154    0.000    1.846 
#   11.077    1.154    0.000    0.923    0.000    4.308 
#    0.000    0.000    0.000    0.000    0.000    0.000 
#
# Total GULP energy -289720.244637 kJ/mol
# GULP energy per Si atom -5571.543166 kJ/mol
# Density = 1.799926 g / cm^3
# Si number density = 18.040324 Si / 1000 Ang^3
#
#
#
# Elastic Constant Matrix: (Units=GPa)
#
#
# Indices 1 2 3 4 5 6 
#
# 1 105.8190 28.8730 34.2284 0.0000 0.0000 0.0000
# 2 28.8730 43.8882 31.5566 0.0000 0.0000 0.0000
# 3 34.2284 31.5566 58.1125 0.0000 0.0000 0.0000
# 4 0.0000 0.0000 0.0000 25.4597 0.0000 0.0000
# 5 0.0000 0.0000 0.0000 0.0000 85.5550 0.0000
# 6 0.0000 0.0000 0.0000 0.0000 0.0000 10.1420
#
#
#
# Elastic Compliance Matrix: (Units=1/GPa)
#
#
# Indices 1 2 3 4 5 6 
#
# 1 0.012239 -0.004706 -0.004654 0.000000 0.000000 0.000000
# 2 -0.004706 0.039190 -0.018509 0.000000 0.000000 0.000000
# 3 -0.004654 -0.018509 0.030000 0.000000 0.000000 0.000000
# 4 0.000000 0.000000 0.000000 0.039278 0.000000 0.000000
# 5 0.000000 0.000000 0.000000 0.000000 0.011688 0.000000
# 6 0.000000 0.000000 0.000000 0.000000 0.000000 0.098600
#
#
# Mechanical properties :
#
#
# Convention : Reuss Voigt Hill
#
# Bulk Modulus (GPa) = 38.92333 44.12619 41.52476
# Shear Modulus (GPa) = 16.93213 31.77544 24.35379
#
# Velocity S-wave (km/s) = 3.06693 4.20140 3.67817
# Velocity P-wave (km/s) = 5.84500 6.93171 6.41142
#
# Compressibility (1/GPa) = 0.02569153
#
# Stress axis : x y z
#
# Youngs Moduli (GPa) = 81.70345 25.51691 33.33342
#
# Poissons Ratio (x) = 0.12008 0.15512
# Poissons Ratio (y) = 0.38450 0.61697
# Poissons Ratio (z) = 0.38021 0.47230
#
# Static dielectric constant tensor:
#      x y z
#    x 1.641620 0.000000 0.000000 
#    y 0.000000 1.633780 0.000000 
#    z 0.000000 0.000000 1.608890 
# 
# From -- ./inp_files/32376.got.cif
#   From: 2010.05.17/outbox.cif.g08.bks.cpg/sg53_17_cif.got.tgz:32376.got - 2010.06.03 12:45:16.
