data_PCOD9415004
_publ_section_title
;
Structure prediction by ZEFSAII (Michael W. Deem and Ramdas Pophale) SiO2 
 PCOD9415004
Probable space group: P M N A
;
_chemical_formula_sum "Si O2"
_cell_formula_units_Z 58
_cell_length_a 8.008858
_cell_length_b 17.464636
_cell_length_c 20.051200
_cell_angle_alpha 90.000000
_cell_angle_beta 90.000000
_cell_angle_gamma 90.000000
_cell_volume 2804.597231
_symmetry_space_group_name_H-M "P M N A"
_symmetry_group_IT_number 53
_symmetry_cell_setting 'orthorhombic'
loop_
_space_group_symop_operation_xyz
x,y,z
1/2-x,-y,1/2+z
x,-y,-z
1/2-x,y,1/2-z
-x,-y,-z
1/2+x,y,1/2-z
-x,y,z
1/2+x,-y,1/2+z
loop_
_atom_site_type_symbol
_atom_site_label
_atom_site_fract_x
_atom_site_fract_y
_atom_site_fract_z
Si Si1 0.195775 0.813909 0.826055
Si Si2 0.695173 0.694675 0.934643
Si Si3 0.697231 0.604700 0.323445
Si Si4 0.700536 0.221018 0.674816
Si Si5 0.300078 0.176262 0.967982
Si Si6 0.310371 0.945783 0.574009
Si Si7 0.298916 0.474911 0.073673
Si Si8 0.500000 0.000000 0.000000
O O1 0.250000 0.810863 0.750000
O O2 0.285565 0.752128 0.872875
O O3 0.221061 0.896981 0.859204
O O4 0.000000 0.796946 0.831151
O O5 0.500000 0.682070 0.947345
O O6 0.767902 0.611639 0.917604
O O7 0.751162 0.740975 0.000651
O O8 0.750000 0.579276 0.250000
O O9 0.500000 0.613128 0.325030
O O10 0.765863 0.690978 0.333530
O O11 0.745400 0.540092 0.375462
O O12 0.750000 0.196408 0.750000
O O13 0.500000 0.219390 0.670981
O O14 0.768218 0.175793 0.610559
O O15 0.500000 0.160432 0.981727
O O16 0.199574 0.117396 0.014232
O O17 0.500000 0.977802 0.575968
O O18 0.150394 0.996931 0.557384
O O19 0.500000 0.473294 0.077587
O O20 0.249103 0.500000 0.000000
#
# Coordination Sequence:
#
# PCOD9415004 Si02
#       8
#     8   8   8   8   8   8   8   2
#     4  10  21  36  60  89 121 156 195 249 294 347
#     4   9  19  33  52  77 109 143 189 238 294 356
#     4  10  21  35  50  69  98 136 185 235 285 345
#     4  10  20  33  51  77 103 139 186 237 290 344
#     4  10  18  34  58  84 112 145 184 234 287 337
#     4  10  22  39  62  98 126 159 202 239 282 339
#     4  10  20  34  51  73 102 144 187 238 300 358
#     4  12  22  40  68  94 128 164 196 238 270 354
#
# _framework density 20.680330999999999
#
# number of rings (size 3 to 8) (size 9 to 14) (size 15 to 20)
#    0.000    2.069    0.690    2.690    1.931    4.690 
#    0.000    0.000    0.000    0.828    3.586    0.000 
#    0.000    0.000    0.000    0.000    0.000    0.000 
#
# Total GULP energy -323097.719012 kJ/mol
# GULP energy per Si atom -5570.650328 kJ/mol
# Density = 2.063326 g / cm^3
# Si number density = 20.680331 Si / 1000 Ang^3
#
#
#
# Elastic Constant Matrix: (Units=GPa)
#
#
# Indices 1 2 3 4 5 6 
#
# 1 69.8252 9.9114 0.5504 0.0000 0.0000 0.0000
# 2 9.9114 13.5682 1.9734 0.0000 0.0000 0.0000
# 3 0.5504 1.9734 116.3915 0.0000 0.0000 0.0000
# 4 0.0000 0.0000 0.0000 -18.7548 0.0000 0.0000
# 5 0.0000 0.0000 0.0000 0.0000 12.7505 0.0000
# 6 0.0000 0.0000 0.0000 0.0000 0.0000 28.4686
#
#
#
# Elastic Compliance Matrix: (Units=1/GPa)
#
#
# Indices 1 2 3 4 5 6 
#
# 1 0.015980 -0.011691 0.000123 0.000000 0.000000 0.000000
# 2 -0.011691 0.082437 -0.001342 0.000000 0.000000 0.000000
# 3 0.000123 -0.001342 0.008614 0.000000 0.000000 0.000000
# 4 0.000000 0.000000 0.000000 -0.053320 0.000000 0.000000
# 5 0.000000 0.000000 0.000000 0.000000 0.078428 0.000000
# 6 0.000000 0.000000 0.000000 0.000000 0.000000 0.035126
#
#
# Mechanical properties :
#
#
# Convention : Reuss Voigt Hill
#
# Bulk Modulus (GPa) = 12.31386 24.96171 18.63779
# Shear Modulus (GPa) = 22.71104 16.98284 19.84694
#
# Velocity S-wave (km/s) = 3.31750 2.86878 3.10127
# Velocity P-wave (km/s) = 4.54331 4.80309 4.67501
#
# Compressibility (1/GPa) = 0.08120931
#
# Stress axis : x y z
#
# Youngs Moduli (GPa) = 62.57820 12.13046 116.09182
#
# Poissons Ratio (x) = 0.14182 -0.01424
# Poissons Ratio (y) = 0.73160 0.15585
# Poissons Ratio (z) = -0.00768 0.01628
#
# Static dielectric constant tensor:
#      x y z
#    x 1.748350 0.000000 0.000000 
#    y 0.000000 1.896600 0.000000 
#    z 0.000000 0.000000 1.347170 
# 
# From -- ./inp_files/26560.got.cif
#   From: 2010.05.17/outbox.cif.g08.bks.cpg/sg53_14_cif.got.tgz:26560.got - 2010.06.03 12:45:16.
