data_PCOD9415516
_publ_section_title
;
Structure prediction by ZEFSAII (Michael W. Deem and Ramdas Pophale) SiO2 
 PCOD9415516
Probable space group: P M N A
;
_chemical_formula_sum "Si O2"
_cell_formula_units_Z 48
_cell_length_a 9.042059
_cell_length_b 9.841104
_cell_length_c 31.021665
_cell_angle_alpha 90.000000
_cell_angle_beta 90.000000
_cell_angle_gamma 90.000000
_cell_volume 2760.426968
_symmetry_space_group_name_H-M "P M N A"
_symmetry_group_IT_number 53
_symmetry_cell_setting 'orthorhombic'
loop_
_space_group_symop_operation_xyz
x,y,z
1/2-x,-y,1/2+z
x,-y,-z
1/2-x,y,1/2-z
-x,-y,-z
1/2+x,y,1/2-z
-x,y,z
1/2+x,-y,1/2+z
loop_
_atom_site_type_symbol
_atom_site_label
_atom_site_fract_x
_atom_site_fract_y
_atom_site_fract_z
Si Si1 0.822673 0.315644 0.386964
Si Si2 0.824549 0.200653 0.934253
Si Si3 0.176057 0.411875 0.857044
Si Si4 0.822921 0.654292 0.512073
Si Si5 0.676967 0.991383 0.872698
Si Si6 0.823005 0.197801 0.703802
O O1 0.738919 0.438279 0.364031
O O2 0.788835 0.320010 0.438012
O O3 0.782636 0.166380 0.370001
O O4 0.000000 0.335209 0.382327
O O5 0.793325 0.323608 0.900404
O O6 0.000000 0.185795 0.937959
O O7 0.754892 0.067860 0.912287
O O8 0.754552 0.242315 0.979570
O O9 0.256622 0.332126 0.818623
O O10 0.000000 0.412586 0.850289
O O11 0.778893 0.500000 0.500000
O O12 0.000000 0.664827 0.506308
O O13 0.500000 0.999237 0.879428
O O14 0.712127 0.075405 0.829446
O O15 0.750000 0.175891 0.750000
O O16 0.000000 0.208385 0.707436
#
# Coordination Sequence:
#
# PCOD9415516 Si02
#       6
#     8   8   8   8   8   8
#     4  10  20  35  54  78 108 144 184 226 270 317
#     4  10  20  33  51  75 106 143 183 226 268 314
#     4  10  20  34  54  80 108 139 175 217 265 315
#     4  10  19  31  51  76 104 143 190 232 269 312
#     4   9  20  37  56  77 106 143 179 217 268 326
#     4  10  20  37  61  84 105 133 171 214 261 320
#
# _framework density 17.388615000000001
#
# number of rings (size 3 to 8) (size 9 to 14) (size 15 to 20)
#    0.000    2.167    1.667    1.500    0.000    4.333 
#    0.000    4.167    0.000    2.000    0.000    0.000 
#    0.000    0.000    0.000    0.000    0.000    0.000 
#
# Total GULP energy -267974.612700 kJ/mol
# GULP energy per Si atom -5582.804431 kJ/mol
# Density = 1.734904 g / cm^3
# Si number density = 17.388615 Si / 1000 Ang^3
#
#
#
# Elastic Constant Matrix: (Units=GPa)
#
#
# Indices 1 2 3 4 5 6 
#
# 1 38.5725 47.8630 40.4727 0.0000 0.0000 0.0000
# 2 47.8630 133.2162 45.8707 0.0000 0.0000 0.0000
# 3 40.4727 45.8707 84.2523 0.0000 0.0000 0.0000
# 4 0.0000 0.0000 0.0000 14.7240 0.0000 0.0000
# 5 0.0000 0.0000 0.0000 0.0000 28.5796 0.0000
# 6 0.0000 0.0000 0.0000 0.0000 0.0000 1.7789
#
#
#
# Elastic Compliance Matrix: (Units=1/GPa)
#
#
# Indices 1 2 3 4 5 6 
#
# 1 0.077115 -0.018401 -0.027026 0.000000 0.000000 0.000000
# 2 -0.018401 0.013629 0.001419 0.000000 0.000000 0.000000
# 3 -0.027026 0.001419 0.024079 0.000000 0.000000 0.000000
# 4 0.000000 0.000000 0.000000 0.067916 0.000000 0.000000
# 5 0.000000 0.000000 0.000000 0.000000 0.034990 0.000000
# 6 0.000000 0.000000 0.000000 0.000000 0.000000 0.562130
#
#
# Mechanical properties :
#
#
# Convention : Reuss Voigt Hill
#
# Bulk Modulus (GPa) = 37.30234 58.27264 47.78749
# Shear Modulus (GPa) = 5.70248 17.13882 11.42065
#
# Velocity S-wave (km/s) = 1.81289 3.14289 2.56557
# Velocity P-wave (km/s) = 5.08732 6.83776 6.02643
#
# Compressibility (1/GPa) = 0.02680797
#
# Stress axis : x y z
#
# Youngs Moduli (GPa) = 12.96760 73.37203 41.52949
#
# Poissons Ratio (x) = 1.35009 1.12238
# Poissons Ratio (y) = 0.23861 -0.05893
# Poissons Ratio (z) = 0.35046 -0.10411
#
# Static dielectric constant tensor:
#      x y z
#    x 1.576600 0.000000 0.000000 
#    y 0.000000 1.580820 0.000000 
#    z 0.000000 0.000000 1.565720 
# 
# From -- ./inp_files/37664.got.cif
#   From: 2010.05.17/outbox.cif.g08.bks.cpg/sg53_19_cif.got.tgz:37664.got - 2010.06.03 12:45:16.
