data_PCOD9415720
_publ_section_title
;
Structure prediction by ZEFSAII (Michael W. Deem and Ramdas Pophale) SiO2 
 PCOD9415720
Probable space group: P M N A
;
_chemical_formula_sum "Si O2"
_cell_formula_units_Z 64
_cell_length_a 8.814804
_cell_length_b 15.571015
_cell_length_c 23.146488
_cell_angle_alpha 90.000000
_cell_angle_beta 90.000000
_cell_angle_gamma 90.000000
_cell_volume 3176.981518
_symmetry_space_group_name_H-M "P M N A"
_symmetry_group_IT_number 53
_symmetry_cell_setting 'orthorhombic'
loop_
_space_group_symop_operation_xyz
x,y,z
1/2-x,-y,1/2+z
x,-y,-z
1/2-x,y,1/2-z
-x,-y,-z
1/2+x,y,1/2-z
-x,y,z
1/2+x,-y,1/2+z
loop_
_atom_site_type_symbol
_atom_site_label
_atom_site_fract_x
_atom_site_fract_y
_atom_site_fract_z
Si Si1 0.675425 0.868274 0.003517
Si Si2 0.683434 0.249262 0.812287
Si Si3 0.684542 0.599681 0.100735
Si Si4 0.319666 0.104454 0.380211
Si Si5 0.819488 0.703474 0.860387
Si Si6 0.680821 0.458658 0.190947
Si Si7 0.676183 0.332240 0.017421
Si Si8 0.182590 0.927925 0.369579
O O1 0.500000 0.894071 0.993097
O O2 0.675748 0.764833 0.007945
O O3 0.727418 0.907675 0.063955
O O4 0.770815 0.893410 0.947604
O O5 0.750000 0.270812 0.750000
O O6 0.500000 0.251423 0.809767
O O7 0.730517 0.318221 0.860792
O O8 0.730838 0.153419 0.831393
O O9 0.500000 0.601008 0.098007
O O10 0.730407 0.515763 0.136181
O O11 0.733834 0.608052 0.034421
O O12 0.500000 0.099954 0.376087
O O13 0.269706 0.197039 0.355331
O O14 0.247427 0.020027 0.352490
O O15 0.737777 0.637814 0.818153
O O16 0.000000 0.699106 0.853048
O O17 0.773187 0.672991 0.924807
O O18 0.750000 0.494414 0.250000
O O19 0.500000 0.461521 0.194258
O O20 0.500000 0.354033 0.032220
O O21 0.000000 0.930900 0.368699
#
# Coordination Sequence:
#
# PCOD9415720 Si02
#       8
#     8   8   8   8   8   8   8   8
#     4   9  16  29  51  78 108 145 184 220 262 320
#     4  10  20  36  55  79 112 149 186 228 275 328
#     4   9  18  35  60  87 115 145 183 226 273 335
#     4  10  21  34  51  77 110 143 179 227 279 325
#     4  10  22  40  57  80 116 151 186 235 286 335
#     4  11  23  40  63  87 110 143 187 234 281 333
#     4   9  16  32  58  85 114 150 187 224 271 334
#     4  10  19  32  52  77 107 145 187 225 265 321
#
# _framework density 20.144908000000001
#
# number of rings (size 3 to 8) (size 9 to 14) (size 15 to 20)
#    0.000    2.250    1.250    1.875    0.000    4.500 
#    0.000    5.625    0.000    1.500    0.000    0.000 
#    0.000    0.000    0.000    0.000    0.000    0.000 
#
# Total GULP energy -357370.791446 kJ/mol
# GULP energy per Si atom -5583.918616 kJ/mol
# Density = 2.009906 g / cm^3
# Si number density = 20.144908 Si / 1000 Ang^3
#
#
#
# Elastic Constant Matrix: (Units=GPa)
#
#
# Indices 1 2 3 4 5 6 
#
# 1 19.2977 18.1877 0.1072 0.0000 0.0000 0.0000
# 2 18.1877 84.3679 22.0177 0.0000 0.0000 0.0000
# 3 0.1072 22.0177 17.9432 0.0000 0.0000 0.0000
# 4 0.0000 0.0000 0.0000 12.7320 0.0000 0.0000
# 5 0.0000 0.0000 0.0000 0.0000 21.2027 0.0000
# 6 0.0000 0.0000 0.0000 0.0000 0.0000 16.4719
#
#
#
# Elastic Compliance Matrix: (Units=1/GPa)
#
#
# Indices 1 2 3 4 5 6 
#
# 1 0.073463 -0.023129 0.027942 0.000000 0.000000 0.000000
# 2 -0.023129 0.024719 -0.030193 0.000000 0.000000 0.000000
# 3 0.027942 -0.030193 0.092614 0.000000 0.000000 0.000000
# 4 0.000000 0.000000 0.000000 0.078542 0.000000 0.000000
# 5 0.000000 0.000000 0.000000 0.000000 0.047164 0.000000
# 6 0.000000 0.000000 0.000000 0.000000 0.000000 0.060710
#
#
# Mechanical properties :
#
#
# Convention : Reuss Voigt Hill
#
# Bulk Modulus (GPa) = 7.14108 22.47046 14.80577
# Shear Modulus (GPa) = 10.53408 15.50106 13.01757
#
# Velocity S-wave (km/s) = 2.28921 2.77696 2.54480
# Velocity P-wave (km/s) = 3.24652 4.63256 4.00003
#
# Compressibility (1/GPa) = 0.14003486
#
# Stress axis : x y z
#
# Youngs Moduli (GPa) = 13.61231 40.45551 10.79749
#
# Poissons Ratio (x) = 0.93569 -0.30170
# Poissons Ratio (y) = 0.31484 0.32601
# Poissons Ratio (z) = -0.38035 1.22149
#
# Static dielectric constant tensor:
#      x y z
#    x 1.676570 0.000000 0.000000 
#    y 0.000000 1.754230 0.000000 
#    z 0.000000 0.000000 1.703580 
# 
# From -- ./inp_files/34298.got.cif
#   From: 2010.05.17/outbox.cif.g08.bks.cpg/sg53_18_cif.got.tgz:34298.got - 2010.06.03 12:45:16.
