data_PCOD9415933
_publ_section_title
;
Structure prediction by ZEFSAII (Michael W. Deem and Ramdas Pophale) SiO2 
 PCOD9415933
Probable space group: P M N A
;
_chemical_formula_sum "Si O2"
_cell_formula_units_Z 48
_cell_length_a 8.376423
_cell_length_b 15.571413
_cell_length_c 19.759001
_cell_angle_alpha 90.000000
_cell_angle_beta 90.000000
_cell_angle_gamma 90.000000
_cell_volume 2577.220680
_symmetry_space_group_name_H-M "P M N A"
_symmetry_group_IT_number 53
_symmetry_cell_setting 'orthorhombic'
loop_
_space_group_symop_operation_xyz
x,y,z
1/2-x,-y,1/2+z
x,-y,-z
1/2-x,y,1/2-z
-x,-y,-z
1/2+x,y,1/2-z
-x,y,z
1/2+x,-y,1/2+z
loop_
_atom_site_type_symbol
_atom_site_label
_atom_site_fract_x
_atom_site_fract_y
_atom_site_fract_z
Si Si1 0.310467 0.372780 0.173968
Si Si2 0.191410 0.562880 0.173745
Si Si3 0.305185 0.039452 0.427670
Si Si4 0.192907 0.108214 0.826744
Si Si5 0.805102 0.725315 0.087490
Si Si6 0.806730 0.764194 0.934627
O O1 0.250000 0.354843 0.250000
O O2 0.500000 0.374819 0.175366
O O3 0.248836 0.467756 0.154778
O O4 0.251711 0.301722 0.121598
O O5 0.250000 0.580981 0.250000
O O6 0.247246 0.637279 0.123001
O O7 0.000000 0.562705 0.174458
O O8 0.500000 0.039652 0.427778
O O9 0.253378 0.137932 0.421199
O O10 0.256303 0.000000 0.500000
O O11 0.253156 0.976145 0.367840
O O12 0.250000 0.109500 0.750000
O O13 0.245466 0.192892 0.867838
O O14 0.000000 0.108399 0.827056
O O15 0.000000 0.725436 0.087258
O O16 0.754061 0.736524 0.009955
O O17 0.000000 0.763971 0.934284
#
# Coordination Sequence:
#
# PCOD9415933 Si02
#       6
#     8   8   8   8   8   8
#     4  11  23  40  58  79 107 142 182 228 276 328
#     4  10  19  34  55  80 108 144 183 225 272 324
#     4   9  16  31  57  81 105 143 188 225 262 315
#     4  10  19  33  53  82 112 143 182 224 269 321
#     4   9  18  32  55  82 110 143 183 221 265 327
#     4  10  19  35  59  84 108 143 185 228 269 319
#
# _framework density 18.624714999999998
#
# number of rings (size 3 to 8) (size 9 to 14) (size 15 to 20)
#    0.000    2.167    1.667    3.500    0.000    1.333 
#    0.000    9.167    0.000    1.000    0.000    0.000 
#    0.000    0.000    0.000    0.000    0.000    0.000 
#
# Total GULP energy -267980.337774 kJ/mol
# GULP energy per Si atom -5582.923704 kJ/mol
# Density = 1.858232 g / cm^3
# Si number density = 18.624715 Si / 1000 Ang^3
#
#
#
# Elastic Constant Matrix: (Units=GPa)
#
#
# Indices 1 2 3 4 5 6 
#
# 1 32.9018 32.5377 25.2386 0.0000 0.0000 0.0000
# 2 32.5377 211.2947 140.9202 0.0000 0.0000 0.0000
# 3 25.2386 140.9202 165.1404 0.0000 0.0000 0.0000
# 4 0.0000 0.0000 0.0000 43.1159 0.0000 0.0000
# 5 0.0000 0.0000 0.0000 0.0000 28.5641 0.0000
# 6 0.0000 0.0000 0.0000 0.0000 0.0000 10.6591
#
#
#
# Elastic Compliance Matrix: (Units=1/GPa)
#
#
# Indices 1 2 3 4 5 6 
#
# 1 0.036081 -0.004360 -0.001794 0.000000 0.000000 0.000000
# 2 -0.004360 0.011511 -0.009156 0.000000 0.000000 0.000000
# 3 -0.001794 -0.009156 0.014143 0.000000 0.000000 0.000000
# 4 0.000000 0.000000 0.000000 0.023193 0.000000 0.000000
# 5 0.000000 0.000000 0.000000 0.000000 0.035009 0.000000
# 6 0.000000 0.000000 0.000000 0.000000 0.000000 0.093817
#
#
# Mechanical properties :
#
#
# Convention : Reuss Voigt Hill
#
# Bulk Modulus (GPa) = 32.13896 89.63665 60.88781
# Shear Modulus (GPa) = 19.62746 30.51051 25.06899
#
# Velocity S-wave (km/s) = 3.24981 4.05183 3.67278
# Velocity P-wave (km/s) = 5.60136 8.37389 7.12381
#
# Compressibility (1/GPa) = 0.03111488
#
# Stress axis : x y z
#
# Youngs Moduli (GPa) = 27.71537 86.87593 70.70670
#
# Poissons Ratio (x) = 0.37875 0.12685
# Poissons Ratio (y) = 0.12083 0.64740
# Poissons Ratio (z) = 0.04972 0.79545
#
# Static dielectric constant tensor:
#      x y z
#    x 1.650360 0.000000 0.000000 
#    y 0.000000 1.635980 0.000000 
#    z 0.000000 0.000000 1.612060 
# 
# From -- ./inp_files/26205.got.cif
#   From: 2010.05.17/outbox.cif.g08.bks.cpg/sg53_14_cif.got.tgz:26205.got - 2010.06.03 12:45:16.
