data_PCOD9415149
_publ_section_title
;
Structure prediction by ZEFSAII (Michael W. Deem and Ramdas Pophale) SiO2 
 PCOD9415149
Probable space group: P M N A
;
_chemical_formula_sum "Si O2"
_cell_formula_units_Z 32
_cell_length_a 13.696978
_cell_length_b 12.142738
_cell_length_c 7.588811
_cell_angle_alpha 90.000000
_cell_angle_beta 90.000000
_cell_angle_gamma 90.000000
_cell_volume 1262.162055
_symmetry_space_group_name_H-M "P M N A"
_symmetry_group_IT_number 53
_symmetry_cell_setting 'orthorhombic'
loop_
_space_group_symop_operation_xyz
x,y,z
1/2-x,-y,1/2+z
x,-y,-z
1/2-x,y,1/2-z
-x,-y,-z
1/2+x,y,1/2-z
-x,y,z
1/2+x,-y,1/2+z
loop_
_atom_site_type_symbol
_atom_site_label
_atom_site_fract_x
_atom_site_fract_y
_atom_site_fract_z
Si Si1 0.383183 0.842942 0.361640
Si Si2 0.616830 0.931027 0.754900
Si Si3 0.817831 0.628077 0.995577
Si Si4 0.613603 0.702971 0.884417
O O1 0.500000 0.836707 0.347178
O O2 0.359972 0.889312 0.557397
O O3 0.346790 0.717616 0.356403
O O4 0.351913 0.942196 0.231904
O O5 0.500000 0.933041 0.767038
O O6 0.644298 0.832025 0.884180
O O7 0.700580 0.637196 0.975973
O O8 0.873922 0.669270 0.820080
O O9 0.843358 0.500000 0.000000
O O10 0.500000 0.689748 0.938843
#
# Coordination Sequence:
#
# PCOD9415149 Si02
#       4
#     8   8   8   8
#     4   8  13  23  43  70  94 115 150 201 242 278
#     4   7  11  23  44  67  87 112 151 196 243 284
#     4  10  19  29  46  74 102 132 168 201 243 304
#     4   9  18  32  49  70  98 131 167 208 248 289
#
# _framework density 25.35332
#
# number of rings (size 3 to 8) (size 9 to 14) (size 15 to 20)
#    0.000    3.500    0.000    3.750    0.000    2.500 
#    0.000    0.000    0.000   24.000    0.000   33.250 
#    0.000    0.000    0.000    0.000    0.000    0.000 
#
# Total GULP energy -178538.012718 kJ/mol
# GULP energy per Si atom -5579.312897 kJ/mol
# Density = 2.529561 g / cm^3
# Si number density = 25.353320 Si / 1000 Ang^3
#
#
#
# Elastic Constant Matrix: (Units=GPa)
#
#
# Indices 1 2 3 4 5 6 
#
# 1 152.9457 11.8004 -18.9296 0.0000 0.0000 0.0000
# 2 11.8004 253.6044 20.6520 0.0000 0.0000 0.0000
# 3 -18.9296 20.6520 29.0448 0.0000 0.0000 0.0000
# 4 0.0000 0.0000 0.0000 8.2158 0.0000 0.0000
# 5 0.0000 0.0000 0.0000 0.0000 16.7407 0.0000
# 6 0.0000 0.0000 0.0000 0.0000 0.0000 11.3049
#
#
#
# Elastic Compliance Matrix: (Units=1/GPa)
#
#
# Indices 1 2 3 4 5 6 
#
# 1 0.007250 -0.000766 0.005270 0.000000 0.000000 0.000000
# 2 -0.000766 0.004267 -0.003533 0.000000 0.000000 0.000000
# 3 0.005270 -0.003533 0.040376 0.000000 0.000000 0.000000
# 4 0.000000 0.000000 0.000000 0.121717 0.000000 0.000000
# 5 0.000000 0.000000 0.000000 0.000000 0.059735 0.000000
# 6 0.000000 0.000000 0.000000 0.000000 0.000000 0.088457
#
#
# Mechanical properties :
#
#
# Convention : Reuss Voigt Hill
#
# Bulk Modulus (GPa) = 18.57597 51.40450 34.99023
# Shear Modulus (GPa) = 14.80142 35.39041 25.09592
#
# Velocity S-wave (km/s) = 2.41883 3.74021 3.14960
# Velocity P-wave (km/s) = 3.89149 6.24272 5.20169
#
# Compressibility (1/GPa) = 0.05383300
#
# Stress axis : x y z
#
# Youngs Moduli (GPa) = 137.93782 234.38203 24.76690
#
# Poissons Ratio (x) = 0.17965 -0.13052
# Poissons Ratio (y) = 0.10573 0.08751
# Poissons Ratio (z) = -0.72692 0.82813
#
# Static dielectric constant tensor:
#      x y z
#    x 1.953110 0.000000 0.000000 
#    y 0.000000 2.006070 0.000000 
#    z 0.000000 0.000000 2.087020 
# 
# From -- ./inp_files/8010.got.cif
#   From: 2010.05.17/outbox.cif.g08.bks.cpg/sg53_5_cif.got.tgz:8010.got - 2010.06.03 12:45:16.
