data_PCOD9415762
_publ_section_title
;
Structure prediction by ZEFSAII (Michael W. Deem and Ramdas Pophale) SiO2 
 PCOD9415762
Probable space group: P M N A
;
_chemical_formula_sum "Si O2"
_cell_formula_units_Z 40
_cell_length_a 8.314872
_cell_length_b 12.044224
_cell_length_c 21.932000
_cell_angle_alpha 90.000000
_cell_angle_beta 90.000000
_cell_angle_gamma 90.000000
_cell_volume 2196.406039
_symmetry_space_group_name_H-M "P M N A"
_symmetry_group_IT_number 53
_symmetry_cell_setting 'orthorhombic'
loop_
_space_group_symop_operation_xyz
x,y,z
1/2-x,-y,1/2+z
x,-y,-z
1/2-x,y,1/2-z
-x,-y,-z
1/2+x,y,1/2-z
-x,y,z
1/2+x,-y,1/2+z
loop_
_atom_site_type_symbol
_atom_site_label
_atom_site_fract_x
_atom_site_fract_y
_atom_site_fract_z
Si Si1 0.808402 0.031686 0.319746
Si Si2 0.306973 0.722627 0.681706
Si Si3 0.189368 0.461337 0.088772
Si Si4 0.696353 0.918888 0.055595
Si Si5 0.310198 0.333125 0.971721
O O1 0.750000 0.009790 0.250000
O O2 0.749369 0.957702 0.376894
O O3 0.000000 0.022490 0.317376
O O4 0.762359 0.157992 0.336978
O O5 0.250000 0.705303 0.750000
O O6 0.500000 0.729592 0.678319
O O7 0.251739 0.619105 0.641873
O O8 0.279425 0.577969 0.081797
O O9 0.000000 0.483280 0.095771
O O10 0.217354 0.387753 0.028195
O O11 0.500000 0.922457 0.056207
O O12 0.742858 0.791697 0.042457
O O13 0.747931 0.000000 0.000000
O O14 0.500000 0.331521 0.986218
#
# Coordination Sequence:
#
# PCOD9415762 Si02
#       5
#     8   8   8   8   8
#     4  10  19  33  53  75 103 134 165 206 251 299
#     4  10  20  33  51  74  99 129 165 204 246 293
#     4  10  20  34  50  72 103 131 158 202 256 298
#     4   9  18  32  51  76 102 129 166 209 247 287
#     4  10  19  32  53  76  97 129 169 203 242 295
#
# _framework density 18.211569000000001
#
# number of rings (size 3 to 8) (size 9 to 14) (size 15 to 20)
#    0.000    2.200    0.000    6.000    0.000    4.800 
#    0.000    5.000    0.000   12.000    0.000    0.000 
#    0.000    0.000    0.000    0.000    0.000    0.000 
#
# Total GULP energy -223025.452409 kJ/mol
# GULP energy per Si atom -5575.636310 kJ/mol
# Density = 1.817012 g / cm^3
# Si number density = 18.211569 Si / 1000 Ang^3
#
#
#
# Elastic Constant Matrix: (Units=GPa)
#
#
# Indices 1 2 3 4 5 6 
#
# 1 14.9973 3.0122 -0.5326 0.0000 0.0000 0.0000
# 2 3.0122 153.5355 65.0782 0.0000 0.0000 0.0000
# 3 -0.5326 65.0782 50.7261 0.0000 0.0000 0.0000
# 4 0.0000 0.0000 0.0000 35.0835 0.0000 0.0000
# 5 0.0000 0.0000 0.0000 0.0000 8.5844 0.0000
# 6 0.0000 0.0000 0.0000 0.0000 0.0000 23.7630
#
#
#
# Elastic Compliance Matrix: (Units=1/GPa)
#
#
# Indices 1 2 3 4 5 6 
#
# 1 0.067583 -0.003566 0.005284 0.000000 0.000000 0.000000
# 2 -0.003566 0.014465 -0.018595 0.000000 0.000000 0.000000
# 3 0.005284 -0.018595 0.043625 0.000000 0.000000 0.000000
# 4 0.000000 0.000000 0.000000 0.028503 0.000000 0.000000
# 5 0.000000 0.000000 0.000000 0.000000 0.116490 0.000000
# 6 0.000000 0.000000 0.000000 0.000000 0.000000 0.042082
#
#
# Mechanical properties :
#
#
# Convention : Reuss Voigt Hill
#
# Bulk Modulus (GPa) = 10.87908 39.37497 25.12702
# Shear Modulus (GPa) = 13.25765 23.59958 18.42862
#
# Velocity S-wave (km/s) = 2.70104 3.60371 3.18452
# Velocity P-wave (km/s) = 3.96411 6.24367 5.22961
#
# Compressibility (1/GPa) = 0.09191956
#
# Stress axis : x y z
#
# Youngs Moduli (GPa) = 14.79671 69.13365 22.92267
#
# Poissons Ratio (x) = 0.24650 -0.12112
# Poissons Ratio (y) = 0.05276 0.42624
# Poissons Ratio (z) = -0.07819 1.28552
#
# Static dielectric constant tensor:
#      x y z
#    x 1.625410 0.000000 0.000000 
#    y 0.000000 1.636360 0.000000 
#    z 0.000000 0.000000 1.658400 
# 
# From -- ./inp_files/30371.got.cif
#   From: 2010.05.17/outbox.cif.g08.bks.cpg/sg53_16_cif.got.tgz:30371.got - 2010.06.03 12:45:16.
