data_PCOD9415089
_publ_section_title
;
Structure prediction by ZEFSAII (Michael W. Deem and Ramdas Pophale) SiO2 
 PCOD9415089
Probable space group: P M N A
;
_chemical_formula_sum "Si O2"
_cell_formula_units_Z 48
_cell_length_a 8.727109
_cell_length_b 11.936853
_cell_length_c 27.433253
_cell_angle_alpha 90.000000
_cell_angle_beta 90.000000
_cell_angle_gamma 90.000000
_cell_volume 2857.837658
_symmetry_space_group_name_H-M "P M N A"
_symmetry_group_IT_number 53
_symmetry_cell_setting 'orthorhombic'
loop_
_space_group_symop_operation_xyz
x,y,z
1/2-x,-y,1/2+z
x,-y,-z
1/2-x,y,1/2-z
-x,-y,-z
1/2+x,y,1/2-z
-x,y,z
1/2+x,-y,1/2+z
loop_
_atom_site_type_symbol
_atom_site_label
_atom_site_fract_x
_atom_site_fract_y
_atom_site_fract_z
Si Si1 0.822062 0.311688 0.618185
Si Si2 0.182895 0.118004 0.447555
Si Si3 0.829978 0.484911 0.943198
Si Si4 0.182108 0.870284 0.051543
Si Si5 0.183500 0.496918 0.696209
Si Si6 0.182952 0.674345 0.616019
O O1 0.797956 0.398790 0.574082
O O2 0.735428 0.203198 0.597834
O O3 0.765449 0.388742 0.663699
O O4 0.000000 0.284937 0.625954
O O5 0.243060 0.166652 0.499541
O O6 0.211086 0.198573 0.401047
O O7 0.000000 0.102314 0.452042
O O8 0.263521 0.998221 0.441612
O O9 0.786593 0.602078 0.919831
O O10 0.000000 0.446449 0.927005
O O11 0.831681 0.500000 0.000000
O O12 0.000000 0.863945 0.046413
O O13 0.250000 0.495064 0.750000
O O14 0.218121 0.614051 0.667788
O O15 0.000000 0.489188 0.698486
O O16 0.000000 0.655169 0.608052
#
# Coordination Sequence:
#
# PCOD9415089 Si02
#       6
#     8   8   8   8   8   8
#     4  10  20  34  50  69  96 130 167 201 241 297
#     4  10  19  33  52  72 100 140 176 201 237 290
#     4  10  19  28  42  68  99 127 157 197 243 287
#     4  11  21  32  48  74 106 135 169 209 245 283
#     4   9  19  35  54  76  98 122 157 204 255 302
#     4   9  19  33  49  70  96 128 165 200 237 292
#
# _framework density 16.795915999999998
#
# number of rings (size 3 to 8) (size 9 to 14) (size 15 to 20)
#    0.000    2.167    0.000    6.000    0.000    8.667 
#    0.000    0.000    0.000    1.000    0.000    2.333 
#    0.000    0.000    0.000    0.000    0.000    0.000 
#
# Total GULP energy -267208.496126 kJ/mol
# GULP energy per Si atom -5566.843669 kJ/mol
# Density = 1.675769 g / cm^3
# Si number density = 16.795916 Si / 1000 Ang^3
#
#
#
# Elastic Constant Matrix: (Units=GPa)
#
#
# Indices 1 2 3 4 5 6 
#
# 1 42.7394 21.0220 28.9687 0.0000 0.0000 0.0000
# 2 21.0220 76.3252 51.1583 0.0000 0.0000 0.0000
# 3 28.9687 51.1583 116.0905 0.0000 0.0000 0.0000
# 4 0.0000 0.0000 0.0000 20.7035 0.0000 0.0000
# 5 0.0000 0.0000 0.0000 0.0000 -197.7538 0.0000
# 6 0.0000 0.0000 0.0000 0.0000 0.0000 -1.0554
#
#
#
# Elastic Compliance Matrix: (Units=1/GPa)
#
#
# Indices 1 2 3 4 5 6 
#
# 1 0.029203 -0.004483 -0.005312 0.000000 0.000000 0.000000
# 2 -0.004483 0.019282 -0.007378 0.000000 0.000000 0.000000
# 3 -0.005312 -0.007378 0.013191 0.000000 0.000000 0.000000
# 4 0.000000 0.000000 0.000000 0.048301 0.000000 0.000000
# 5 0.000000 0.000000 0.000000 0.000000 -0.005057 0.000000
# 6 0.000000 0.000000 0.000000 0.000000 0.000000 -0.947538
#
#
# Mechanical properties :
#
#
# Convention : Reuss Voigt Hill
#
# Bulk Modulus (GPa) = 36.59028 48.60588 42.59808
# Shear Modulus (GPa) = -6.25656 -26.68739 -16.47198
#
# Velocity S-wave (km/s) = -1.93213 -3.99045 -3.13503
# Velocity P-wave (km/s) = 4.10549 2.78753 3.50894
#
# Compressibility (1/GPa) = 0.02732966
#
# Stress axis : x y z
#
# Youngs Moduli (GPa) = 34.24321 51.86141 75.80974
#
# Poissons Ratio (x) = 0.23250 0.40267
# Poissons Ratio (y) = 0.15352 0.55936
# Poissons Ratio (z) = 0.18189 0.38266
#
# Static dielectric constant tensor:
#      x y z
#    x 1.590260 0.000000 0.000000 
#    y 0.000000 -0.143720 0.000000 
#    z 0.000000 0.000000 1.545880 
# 
# From -- ./inp_files/36179.got.cif
#   From: 2010.05.17/outbox.cif.g08.bks.cpg/sg53_19_cif.got.tgz:36179.got - 2010.06.03 12:45:16.
