data_PCOD9415862
_publ_section_title
;
Structure prediction by ZEFSAII (Michael W. Deem and Ramdas Pophale) SiO2 
 PCOD9415862
Probable space group: P M N A
;
_chemical_formula_sum "Si O2"
_cell_formula_units_Z 56
_cell_length_a 8.938754
_cell_length_b 20.149840
_cell_length_c 18.803900
_cell_angle_alpha 90.000000
_cell_angle_beta 90.000000
_cell_angle_gamma 90.000000
_cell_volume 3386.854349
_symmetry_space_group_name_H-M "P M N A"
_symmetry_group_IT_number 53
_symmetry_cell_setting 'orthorhombic'
loop_
_space_group_symop_operation_xyz
x,y,z
1/2-x,-y,1/2+z
x,-y,-z
1/2-x,y,1/2-z
-x,-y,-z
1/2+x,y,1/2-z
-x,y,z
1/2+x,-y,1/2+z
loop_
_atom_site_type_symbol
_atom_site_label
_atom_site_fract_x
_atom_site_fract_y
_atom_site_fract_z
Si Si1 0.820331 0.648551 0.970766
Si Si2 0.318985 0.562625 0.670013
Si Si3 0.678590 0.862124 0.826491
Si Si4 0.322091 0.013703 0.825370
Si Si5 0.821394 0.199698 0.043187
Si Si6 0.328025 0.454537 0.928925
Si Si7 0.819769 0.927509 0.468555
O O1 0.778677 0.617179 0.892519
O O2 0.779304 0.725723 0.977864
O O3 0.000000 0.641832 0.974059
O O4 0.751011 0.609771 0.037802
O O5 0.250000 0.572561 0.750000
O O6 0.500000 0.561440 0.676020
O O7 0.258062 0.494511 0.633220
O O8 0.750000 0.854118 0.750000
O O9 0.500000 0.854890 0.825927
O O10 0.756191 0.811661 0.878744
O O11 0.714550 0.938204 0.848891
O O12 0.250000 0.026368 0.750000
O O13 0.500000 0.014792 0.817607
O O14 0.280547 0.065192 0.885797
O O15 0.000000 0.194764 0.042863
O O16 0.753935 0.138017 0.999775
O O17 0.500000 0.442576 0.907448
O O18 0.330122 0.500000 0.000000
O O19 0.000000 0.922562 0.478200
O O20 0.776859 0.000000 0.500000
#
# Coordination Sequence:
#
# PCOD9415862 Si02
#       7
#     8   8   8   8   8   8   8
#     4   9  20  36  51  72 107 144 176 212 259 311
#     4  10  19  33  54  79 109 142 173 209 252 299
#     4  10  19  33  49  69  98 133 169 210 259 315
#     4   9  18  32  51  71  94 124 161 209 263 317
#     4  11  22  34  50  76 105 138 178 219 264 314
#     4   9  17  31  53  79 103 131 172 213 250 299
#     4  10  19  35  53  72 100 134 174 222 275 321
#
# _framework density 16.534514999999999
#
# number of rings (size 3 to 8) (size 9 to 14) (size 15 to 20)
#    0.000    2.286    1.429    1.714    0.000    5.429 
#    0.000    1.429    0.000    0.857    0.000    2.000 
#    0.000    0.000    0.000    0.000    0.000    0.000 
#
# Total GULP energy -311851.481254 kJ/mol
# GULP energy per Si atom -5568.776451 kJ/mol
# Density = 1.649688 g / cm^3
# Si number density = 16.534515 Si / 1000 Ang^3
#
#
#
# Elastic Constant Matrix: (Units=GPa)
#
#
# Indices 1 2 3 4 5 6 
#
# 1 36.2839 47.9368 30.4319 0.0000 0.0000 0.0000
# 2 47.9368 123.4697 47.5361 0.0000 0.0000 0.0000
# 3 30.4319 47.5361 55.8096 0.0000 0.0000 0.0000
# 4 0.0000 0.0000 0.0000 21.2954 0.0000 0.0000
# 5 0.0000 0.0000 0.0000 0.0000 30.0849 0.0000
# 6 0.0000 0.0000 0.0000 0.0000 0.0000 36.7806
#
#
#
# Elastic Compliance Matrix: (Units=1/GPa)
#
#
# Indices 1 2 3 4 5 6 
#
# 1 0.072209 -0.019158 -0.023056 0.000000 0.000000 0.000000
# 2 -0.019158 0.017134 -0.004147 0.000000 0.000000 0.000000
# 3 -0.023056 -0.004147 0.034022 0.000000 0.000000 0.000000
# 4 0.000000 0.000000 0.000000 0.046959 0.000000 0.000000
# 5 0.000000 0.000000 0.000000 0.000000 0.033239 0.000000
# 6 0.000000 0.000000 0.000000 0.000000 0.000000 0.027188
#
#
# Mechanical properties :
#
#
# Convention : Reuss Voigt Hill
#
# Bulk Modulus (GPa) = 32.63451 51.93028 42.28240
# Shear Modulus (GPa) = 14.98398 23.60940 19.29669
#
# Velocity S-wave (km/s) = 3.01362 3.78284 3.41992
# Velocity P-wave (km/s) = 5.64706 7.11022 6.42045
#
# Compressibility (1/GPa) = 0.03064241
#
# Stress axis : x y z
#
# Youngs Moduli (GPa) = 13.84863 58.36309 29.39232
#
# Poissons Ratio (x) = 1.11815 0.67767
# Poissons Ratio (y) = 0.26532 0.12190
# Poissons Ratio (z) = 0.31929 0.24205
#
# Static dielectric constant tensor:
#      x y z
#    x 1.556010 0.000000 0.000000 
#    y 0.000000 1.566610 0.000000 
#    z 0.000000 0.000000 1.569240 
# 
# From -- ./inp_files/26659.got.cif
#   From: 2010.05.17/outbox.cif.g08.bks.cpg/sg53_14_cif.got.tgz:26659.got - 2010.06.03 12:45:16.
