data_PCOD9415358
_publ_section_title
;
Structure prediction by ZEFSAII (Michael W. Deem and Ramdas Pophale) SiO2 
 PCOD9415358
Probable space group: P M N A
;
_chemical_formula_sum "Si O2"
_cell_formula_units_Z 64
_cell_length_a 9.018736
_cell_length_b 21.782328
_cell_length_c 18.757281
_cell_angle_alpha 90.000000
_cell_angle_beta 90.000000
_cell_angle_gamma 90.000000
_cell_volume 3684.850327
_symmetry_space_group_name_H-M "P M N A"
_symmetry_group_IT_number 53
_symmetry_cell_setting 'orthorhombic'
loop_
_space_group_symop_operation_xyz
x,y,z
1/2-x,-y,1/2+z
x,-y,-z
1/2-x,y,1/2-z
-x,-y,-z
1/2+x,y,1/2-z
-x,y,z
1/2+x,-y,1/2+z
loop_
_atom_site_type_symbol
_atom_site_label
_atom_site_fract_x
_atom_site_fract_y
_atom_site_fract_z
Si Si1 0.678414 0.634591 0.327968
Si Si2 0.679069 0.743020 0.917988
Si Si3 0.670564 0.126189 0.916256
Si Si4 0.822278 0.499161 0.828151
Si Si5 0.829925 0.002268 0.913021
Si Si6 0.321025 0.633653 0.671203
Si Si7 0.177990 0.250903 0.926161
Si Si8 0.170724 0.120978 0.410036
O O1 0.750000 0.639278 0.250000
O O2 0.500000 0.636161 0.320539
O O3 0.718611 0.567258 0.360247
O O4 0.720840 0.691979 0.376486
O O5 0.500000 0.739563 0.919974
O O6 0.749689 0.688170 0.873565
O O7 0.718387 0.810779 0.887203
O O8 0.744691 0.740580 0.997465
O O9 0.500000 0.133873 0.895091
O O10 0.765846 0.185677 0.896001
O O11 0.735850 0.061506 0.890594
O O12 0.674456 0.123243 0.003141
O O13 0.750000 0.498996 0.750000
O O14 0.784721 0.565635 0.860655
O O15 0.000000 0.499326 0.820490
O O16 0.766668 0.937181 0.887268
O O17 0.000000 0.010133 0.892326
O O18 0.824316 0.000000 0.000000
O O19 0.250000 0.635494 0.750000
O O20 0.500000 0.639849 0.674793
O O21 0.000000 0.249643 0.934508
O O22 0.000000 0.111019 0.389331
#
# Coordination Sequence:
#
# PCOD9415358 Si02
#       8
#     8   8   8   8   8   8   8   8
#     4   9  18  32  51  73  96 123 157 197 238 283
#     4  10  20  33  48  68  97 130 161 194 236 285
#     4   9  16  26  40  59  87 122 155 189 231 277
#     4   8  15  29  48  70  93 119 153 193 237 279
#     4   9  15  22  36  59  85 114 150 191 230 271
#     4  10  19  32  52  74  96 123 157 197 237 281
#     4  10  19  31  47  69  97 127 159 196 239 284
#     4   8  15  26  39  57  84 118 152 188 230 274
#
# _framework density 17.368413
#
# number of rings (size 3 to 8) (size 9 to 14) (size 15 to 20)
#    0.000    2.875    0.000    2.625    0.000    6.500 
#    0.000    0.625    0.000    3.750    0.000    0.875 
#    0.000    2.000    0.000    0.000    0.000    0.000 
#
# Total GULP energy -356296.502941 kJ/mol
# GULP energy per Si atom -5567.132858 kJ/mol
# Density = 1.732888 g / cm^3
# Si number density = 17.368413 Si / 1000 Ang^3
#
#
#
# Elastic Constant Matrix: (Units=GPa)
#
#
# Indices 1 2 3 4 5 6 
#
# 1 65.8540 67.5744 17.5344 0.0000 0.0000 0.0000
# 2 67.5744 195.2697 40.7963 0.0000 0.0000 0.0000
# 3 17.5344 40.7963 20.5097 0.0000 0.0000 0.0000
# 4 0.0000 0.0000 0.0000 158.3617 0.0000 0.0000
# 5 0.0000 0.0000 0.0000 0.0000 13.7117 0.0000
# 6 0.0000 0.0000 0.0000 0.0000 0.0000 27.6752
#
#
#
# Elastic Compliance Matrix: (Units=1/GPa)
#
#
# Indices 1 2 3 4 5 6 
#
# 1 0.024099 -0.006905 -0.006869 0.000000 0.000000 0.000000
# 2 -0.006905 0.010741 -0.015462 0.000000 0.000000 0.000000
# 3 -0.006869 -0.015462 0.085386 0.000000 0.000000 0.000000
# 4 0.000000 0.000000 0.000000 0.006315 0.000000 0.000000
# 5 0.000000 0.000000 0.000000 0.000000 0.072931 0.000000
# 6 0.000000 0.000000 0.000000 0.000000 0.000000 0.036133
#
#
# Mechanical properties :
#
#
# Convention : Reuss Voigt Hill
#
# Bulk Modulus (GPa) = 16.19312 59.27150 37.73231
# Shear Modulus (GPa) = 15.89015 50.33160 33.11087
#
# Velocity S-wave (km/s) = 3.02799 5.38904 4.37095
# Velocity P-wave (km/s) = 4.64419 8.53946 6.87353
#
# Compressibility (1/GPa) = 0.06175464
#
# Stress axis : x y z
#
# Youngs Moduli (GPa) = 41.49555 93.10256 11.71153
#
# Poissons Ratio (x) = 0.64283 0.08045
# Poissons Ratio (y) = 0.28651 0.18108
# Poissons Ratio (z) = 0.28503 1.43955
#
# Static dielectric constant tensor:
#      x y z
#    x 1.581710 0.000000 0.000000 
#    y 0.000000 1.636560 0.000000 
#    z 0.000000 0.000000 1.603620 
# 
# From -- ./inp_files/26783.got.cif
#   From: 2010.05.17/outbox.cif.g08.bks.cpg/sg53_14_cif.got.tgz:26783.got - 2010.06.03 12:45:16.
