data_PCOD9415924
_publ_section_title
;
Structure prediction by ZEFSAII (Michael W. Deem and Ramdas Pophale) SiO2 
 PCOD9415924
Probable space group: P M N A
;
_chemical_formula_sum "Si O2"
_cell_formula_units_Z 48
_cell_length_a 8.418298
_cell_length_b 32.972536
_cell_length_c 9.219113
_cell_angle_alpha 90.000000
_cell_angle_beta 90.000000
_cell_angle_gamma 90.000000
_cell_volume 2558.973477
_symmetry_space_group_name_H-M "P M N A"
_symmetry_group_IT_number 53
_symmetry_cell_setting 'orthorhombic'
loop_
_space_group_symop_operation_xyz
x,y,z
1/2-x,-y,1/2+z
x,-y,-z
1/2-x,y,1/2-z
-x,-y,-z
1/2+x,y,1/2-z
-x,y,z
1/2+x,-y,1/2+z
loop_
_atom_site_type_symbol
_atom_site_label
_atom_site_fract_x
_atom_site_fract_y
_atom_site_fract_z
Si Si1 0.311265 0.881615 0.413928
Si Si2 0.308904 0.803422 0.916258
Si Si3 0.807679 0.539553 0.584760
Si Si4 0.309672 0.959970 0.914267
Si Si5 0.192015 0.372443 0.417081
Si Si6 0.308179 0.285370 0.083354
O O1 0.250000 0.883822 0.250000
O O2 0.500000 0.883164 0.413868
O O3 0.255884 0.840050 0.488963
O O4 0.247043 0.919643 0.504839
O O5 0.250000 0.807309 0.750000
O O6 0.500000 0.805048 0.915554
O O7 0.257425 0.758720 0.974206
O O8 0.749672 0.500000 0.500000
O O9 0.750000 0.537381 0.750000
O O10 0.756385 0.583710 0.522349
O O11 0.000000 0.538898 0.583791
O O12 0.250000 0.960630 0.750000
O O13 0.500000 0.960235 0.913434
O O14 0.253288 0.000000 0.000000
O O15 0.250000 0.372515 0.250000
O O16 0.245293 0.328877 0.481231
O O17 0.000000 0.372321 0.417726
O O18 0.250000 0.285571 0.250000
O O19 0.500000 0.285390 0.082335
#
# Coordination Sequence:
#
# PCOD9415924 Si02
#       6
#     8   8   8   8   8   8
#     4  12  25  41  60  82 111 146 184 224 266 312
#     4  10  19  33  53  79 108 137 172 213 261 312
#     4   9  17  28  43  64  90 121 157 198 244 295
#     4  11  24  42  65  92 121 152 186 224 266 311
#     4   8  13  23  39  61  88 118 154 196 243 292
#     4   8  14  24  42  67  94 124 158 201 249 297
#
# _framework density 18.757522000000002
#
# number of rings (size 3 to 8) (size 9 to 14) (size 15 to 20)
#    0.000    2.333    0.000    3.500    0.000    3.667 
#    0.000    0.000    0.000    1.000    0.000    2.333 
#    0.000    0.000    0.000    0.000    0.000    0.000 
#
# Total GULP energy -267485.567564 kJ/mol
# GULP energy per Si atom -5572.615991 kJ/mol
# Density = 1.871483 g / cm^3
# Si number density = 18.757522 Si / 1000 Ang^3
#
#
#
# Elastic Constant Matrix: (Units=GPa)
#
#
# Indices 1 2 3 4 5 6 
#
# 1 40.8747 34.8349 19.4992 0.0000 0.0000 0.0000
# 2 34.8349 251.4090 83.6065 0.0000 0.0000 0.0000
# 3 19.4992 83.6065 83.2556 0.0000 0.0000 0.0000
# 4 0.0000 0.0000 0.0000 18.9432 0.0000 0.0000
# 5 0.0000 0.0000 0.0000 0.0000 23.7699 0.0000
# 6 0.0000 0.0000 0.0000 0.0000 0.0000 33.7600
#
#
#
# Elastic Compliance Matrix: (Units=1/GPa)
#
#
# Indices 1 2 3 4 5 6 
#
# 1 0.028638 -0.002609 -0.004088 0.000000 0.000000 0.000000
# 2 -0.002609 0.006210 -0.005625 0.000000 0.000000 0.000000
# 3 -0.004088 -0.005625 0.018617 0.000000 0.000000 0.000000
# 4 0.000000 0.000000 0.000000 0.052790 0.000000 0.000000
# 5 0.000000 0.000000 0.000000 0.000000 0.042070 0.000000
# 6 0.000000 0.000000 0.000000 0.000000 0.000000 0.029621
#
#
# Mechanical properties :
#
#
# Convention : Reuss Voigt Hill
#
# Bulk Modulus (GPa) = 34.69494 72.38007 53.53750
# Shear Modulus (GPa) = 23.56324 31.13453 27.34889
#
# Velocity S-wave (km/s) = 3.54814 4.07854 3.82255
# Velocity P-wave (km/s) = 5.94327 7.80066 6.93443
#
# Compressibility (1/GPa) = 0.02882265
#
# Stress axis : x y z
#
# Youngs Moduli (GPa) = 34.91834 161.04182 53.71428
#
# Poissons Ratio (x) = 0.42012 0.21956
# Poissons Ratio (y) = 0.09109 0.30213
# Poissons Ratio (z) = 0.14273 0.90582
#
# Static dielectric constant tensor:
#      x y z
#    x 1.629770 0.000000 0.000000 
#    y 0.000000 1.729800 0.000000 
#    z 0.000000 0.000000 1.598190 
# 
# From -- ./inp_files/6721.got.cif
#   From: 2010.05.17/outbox.cif.g08.bks.cpg/sg53_4_cif.got.tgz:6721.got - 2010.06.03 12:45:16.
