data_PCOD9415237
_publ_section_title
;
Structure prediction by ZEFSAII (Michael W. Deem and Ramdas Pophale) SiO2 
 PCOD9415237
Probable space group: P M N A
;
_chemical_formula_sum "Si O2"
_cell_formula_units_Z 64
_cell_length_a 8.869548
_cell_length_b 17.322413
_cell_length_c 26.110577
_cell_angle_alpha 90.000000
_cell_angle_beta 90.000000
_cell_angle_gamma 90.000000
_cell_volume 4011.680582
_symmetry_space_group_name_H-M "P M N A"
_symmetry_group_IT_number 53
_symmetry_cell_setting 'orthorhombic'
loop_
_space_group_symop_operation_xyz
x,y,z
1/2-x,-y,1/2+z
x,-y,-z
1/2-x,y,1/2-z
-x,-y,-z
1/2+x,y,1/2-z
-x,y,z
1/2+x,-y,1/2+z
loop_
_atom_site_type_symbol
_atom_site_label
_atom_site_fract_x
_atom_site_fract_y
_atom_site_fract_z
Si Si1 0.825962 0.495112 0.562155
Si Si2 0.820907 0.907926 0.501312
Si Si3 0.680307 0.821795 0.598877
Si Si4 0.678176 0.338468 0.552497
Si Si5 0.318510 0.666554 0.939691
Si Si6 0.180109 0.089570 0.305488
Si Si7 0.679903 0.174432 0.597480
Si Si8 0.320415 0.092666 0.805259
O O1 0.822822 0.500000 0.500000
O O2 0.729777 0.420204 0.575680
O O3 0.775610 0.580335 0.579202
O O4 0.000000 0.483225 0.577199
O O5 0.740384 0.870427 0.550237
O O6 0.754450 0.870633 0.449974
O O7 0.000000 0.892413 0.504570
O O8 0.798956 0.000000 0.500000
O O9 0.500000 0.821460 0.598969
O O10 0.743848 0.735520 0.591504
O O11 0.744569 0.860699 0.650012
O O12 0.500000 0.340451 0.541494
O O13 0.764183 0.326452 0.498634
O O14 0.709463 0.265157 0.588203
O O15 0.500000 0.671835 0.938536
O O16 0.250000 0.107514 0.250000
O O17 0.000000 0.101148 0.304908
O O18 0.208608 0.998425 0.315536
O O19 0.500000 0.162476 0.596380
O O20 0.747533 0.142528 0.649894
O O21 0.250000 0.110774 0.750000
O O22 0.500000 0.103604 0.804009
#
# Coordination Sequence:
#
# PCOD9415237 Si02
#       8
#     8   8   8   8   8   8   8   8
#     4   8  16  29  46  68  95 132 171 205 248 298
#     4  11  23  36  50  70  99 137 175 209 252 306
#     4  12  23  34  51  76 104 136 171 210 258 305
#     4  10  19  30  46  72 103 135 169 208 252 302
#     4  10  19  32  49  70 100 136 172 210 250 302
#     4  10  21  38  57  77 100 130 171 217 261 304
#     4  11  22  34  50  75 105 136 171 210 254 304
#     4  10  21  37  57  77  99 131 172 217 262 303
#
# _framework density 15.953412999999999
#
# number of rings (size 3 to 8) (size 9 to 14) (size 15 to 20)
#    0.000    1.750    1.250    4.875    0.000    9.750 
#    0.000    0.000    0.000    0.000    0.000    0.875 
#    0.000    2.000    0.000    0.000    0.000    0.000 
#
# Total GULP energy -357310.896442 kJ/mol
# GULP energy per Si atom -5582.982757 kJ/mol
# Density = 1.591710 g / cm^3
# Si number density = 15.953413 Si / 1000 Ang^3
#
#
#
# Elastic Constant Matrix: (Units=GPa)
#
#
# Indices 1 2 3 4 5 6 
#
# 1 102.0282 85.9842 61.8208 0.0000 0.0000 0.0000
# 2 85.9842 135.7606 81.2009 0.0000 0.0000 0.0000
# 3 61.8208 81.2009 105.1408 0.0000 0.0000 0.0000
# 4 0.0000 0.0000 0.0000 10.8613 0.0000 0.0000
# 5 0.0000 0.0000 0.0000 0.0000 26.6218 0.0000
# 6 0.0000 0.0000 0.0000 0.0000 0.0000 24.8933
#
#
#
# Elastic Compliance Matrix: (Units=1/GPa)
#
#
# Indices 1 2 3 4 5 6 
#
# 1 0.021901 -0.011464 -0.004023 0.000000 0.000000 0.000000
# 2 -0.011464 0.019691 -0.008467 0.000000 0.000000 0.000000
# 3 -0.004023 -0.008467 0.018415 0.000000 0.000000 0.000000
# 4 0.000000 0.000000 0.000000 0.092070 0.000000 0.000000
# 5 0.000000 0.000000 0.000000 0.000000 0.037563 0.000000
# 6 0.000000 0.000000 0.000000 0.000000 0.000000 0.040172
#
#
# Mechanical properties :
#
#
# Convention : Reuss Voigt Hill
#
# Bulk Modulus (GPa) = 82.65366 88.99349 85.82358
# Shear Modulus (GPa) = 17.74607 20.07018 18.90813
#
# Velocity S-wave (km/s) = 3.33884 3.55075 3.44642
# Velocity P-wave (km/s) = 8.17225 8.52730 8.35166
#
# Compressibility (1/GPa) = 0.01209868
#
# Stress axis : x y z
#
# Youngs Moduli (GPa) = 45.66104 50.78474 54.30279
#
# Poissons Ratio (x) = 0.58222 0.21846
# Poissons Ratio (y) = 0.52348 0.45976
# Poissons Ratio (z) = 0.18369 0.42997
#
# Static dielectric constant tensor:
#      x y z
#    x 1.531680 0.000000 0.000000 
#    y 0.000000 1.550490 0.000000 
#    z 0.000000 0.000000 1.492350 
# 
# From -- ./inp_files/34419.got.cif
#   From: 2010.05.17/outbox.cif.g08.bks.cpg/sg53_18_cif.got.tgz:34419.got - 2010.06.03 12:45:16.
