data_PCOD9415624
_publ_section_title
;
Structure prediction by ZEFSAII (Michael W. Deem and Ramdas Pophale) SiO2 
 PCOD9415624
Probable space group: P M N A
;
_chemical_formula_sum "Si O2"
_cell_formula_units_Z 48
_cell_length_a 7.986712
_cell_length_b 9.980524
_cell_length_c 31.831674
_cell_angle_alpha 90.000000
_cell_angle_beta 90.000000
_cell_angle_gamma 90.000000
_cell_volume 2537.352736
_symmetry_space_group_name_H-M "P M N A"
_symmetry_group_IT_number 53
_symmetry_cell_setting 'orthorhombic'
loop_
_space_group_symop_operation_xyz
x,y,z
1/2-x,-y,1/2+z
x,-y,-z
1/2-x,y,1/2-z
-x,-y,-z
1/2+x,y,1/2-z
-x,y,z
1/2+x,-y,1/2+z
loop_
_atom_site_type_symbol
_atom_site_label
_atom_site_fract_x
_atom_site_fract_y
_atom_site_fract_z
Si Si1 0.300891 0.691903 0.701763
Si Si2 0.800540 0.907772 0.864390
Si Si3 0.795037 0.148475 0.514755
Si Si4 0.697495 0.294690 0.065610
Si Si5 0.297460 0.805557 0.110532
Si Si6 0.201569 0.510977 0.368695
O O1 0.250000 0.689038 0.750000
O O2 0.500000 0.692846 0.700298
O O3 0.241388 0.823845 0.676217
O O4 0.241758 0.565501 0.674308
O O5 0.718514 0.835689 0.904726
O O6 0.000000 0.891155 0.868488
O O7 0.759372 0.063789 0.864313
O O8 0.735308 0.255789 0.480118
O O9 0.741613 0.178246 0.562098
O O10 0.000000 0.150144 0.514363
O O11 0.743849 0.000000 0.500000
O O12 0.500000 0.320753 0.060238
O O13 0.767587 0.418161 0.092854
O O14 0.500000 0.805663 0.110548
O O15 0.238183 0.663075 0.128204
O O16 0.000000 0.513692 0.372490
#
# Coordination Sequence:
#
# PCOD9415624 Si02
#       6
#     8   8   8   8   8   8
#     4  10  21  38  60  81 101 127 164 208 255 313
#     4  10  20  33  51  76 103 132 168 210 257 305
#     4   9  15  25  46  74 102 137 182 223 256 288
#     4   9  16  30  50  71 100 139 179 219 255 295
#     4  10  19  32  50  75 107 141 176 214 255 301
#     4   9  19  33  52  78 106 139 175 210 259 311
#
# _framework density 18.917352999999999
#
# number of rings (size 3 to 8) (size 9 to 14) (size 15 to 20)
#    0.000    2.500    1.667    1.000    0.000    3.333 
#    0.000    5.833    0.000    2.000    0.000    5.833 
#    0.000    0.000    0.000    0.000    0.000    0.000 
#
# Total GULP energy -267717.492949 kJ/mol
# GULP energy per Si atom -5577.447770 kJ/mol
# Density = 1.887430 g / cm^3
# Si number density = 18.917353 Si / 1000 Ang^3
#
#
#
# Elastic Constant Matrix: (Units=GPa)
#
#
# Indices 1 2 3 4 5 6 
#
# 1 16.0114 1.6570 5.6813 0.0000 0.0000 0.0000
# 2 1.6570 153.1633 75.2169 0.0000 0.0000 0.0000
# 3 5.6813 75.2169 128.4245 0.0000 0.0000 0.0000
# 4 0.0000 0.0000 0.0000 13.9038 0.0000 0.0000
# 5 0.0000 0.0000 0.0000 0.0000 7.0627 0.0000
# 6 0.0000 0.0000 0.0000 0.0000 0.0000 19.3360
#
#
#
# Elastic Compliance Matrix: (Units=1/GPa)
#
#
# Indices 1 2 3 4 5 6 
#
# 1 0.063555 0.000973 -0.003381 0.000000 0.000000 0.000000
# 2 0.000973 0.009180 -0.005420 0.000000 0.000000 0.000000
# 3 -0.003381 -0.005420 0.011111 0.000000 0.000000 0.000000
# 4 0.000000 0.000000 0.000000 0.071923 0.000000 0.000000
# 5 0.000000 0.000000 0.000000 0.000000 0.141590 0.000000
# 6 0.000000 0.000000 0.000000 0.000000 0.000000 0.051717
#
#
# Mechanical properties :
#
#
# Convention : Reuss Voigt Hill
#
# Bulk Modulus (GPa) = 14.66515 51.41216 33.03866
# Shear Modulus (GPa) = 12.90455 22.39677 17.65066
#
# Velocity S-wave (km/s) = 2.61464 3.44456 3.05789
# Velocity P-wave (km/s) = 4.10904 6.56172 5.47450
#
# Compressibility (1/GPa) = 0.06818887
#
# Stress axis : x y z
#
# Youngs Moduli (GPa) = 15.73452 108.93253 90.00491
#
# Poissons Ratio (x) = -0.10600 0.30435
# Poissons Ratio (y) = -0.01531 0.48780
# Poissons Ratio (z) = 0.05321 0.59038
#
# Static dielectric constant tensor:
#      x y z
#    x 1.684020 0.000000 0.000000 
#    y 0.000000 1.666270 0.000000 
#    z 0.000000 0.000000 1.763440 
# 
# From -- ./inp_files/37700.got.cif
#   From: 2010.05.17/outbox.cif.g08.bks.cpg/sg53_19_cif.got.tgz:37700.got - 2010.06.03 12:45:16.
