data_PCOD9415222
_publ_section_title
;
Structure prediction by ZEFSAII (Michael W. Deem and Ramdas Pophale) SiO2 
 PCOD9415222
Probable space group: P M N A
;
_chemical_formula_sum "Si O2"
_cell_formula_units_Z 64
_cell_length_a 8.674087
_cell_length_b 16.614725
_cell_length_c 24.900740
_cell_angle_alpha 90.000000
_cell_angle_beta 90.000000
_cell_angle_gamma 90.000000
_cell_volume 3588.634143
_symmetry_space_group_name_H-M "P M N A"
_symmetry_group_IT_number 53
_symmetry_cell_setting 'orthorhombic'
loop_
_space_group_symop_operation_xyz
x,y,z
1/2-x,-y,1/2+z
x,-y,-z
1/2-x,y,1/2-z
-x,-y,-z
1/2+x,y,1/2-z
-x,y,z
1/2+x,-y,1/2+z
loop_
_atom_site_type_symbol
_atom_site_label
_atom_site_fract_x
_atom_site_fract_y
_atom_site_fract_z
Si Si1 0.312846 0.050868 0.418578
Si Si2 0.814622 0.354201 0.694455
Si Si3 0.686759 0.135674 0.309672
Si Si4 0.174866 0.554890 0.051938
Si Si5 0.184609 0.714721 0.421875
Si Si6 0.820879 0.478354 0.348745
Si Si7 0.183225 0.680416 0.808662
Si Si8 0.186736 0.120641 0.967849
O O1 0.500000 0.052861 0.417551
O O2 0.260813 0.081254 0.360057
O O3 0.267478 0.106007 0.469740
O O4 0.269532 0.960007 0.434881
O O5 0.750000 0.320791 0.750000
O O6 0.772052 0.305820 0.640291
O O7 0.761026 0.447367 0.687693
O O8 0.000000 0.355542 0.696490
O O9 0.750000 0.115970 0.250000
O O10 0.500000 0.132090 0.306868
O O11 0.732362 0.228480 0.322542
O O12 0.231201 0.645732 0.043497
O O13 0.294259 0.515093 0.092792
O O14 0.000000 0.555884 0.074585
O O15 0.172392 0.500000 0.000000
O O16 0.238941 0.801304 0.441608
O O17 0.000000 0.707199 0.426185
O O18 0.737647 0.393389 0.344578
O O19 0.000000 0.465924 0.336648
O O20 0.250000 0.662870 0.750000
O O21 0.000000 0.680562 0.806634
O O22 0.000000 0.127282 0.966414
#
# Coordination Sequence:
#
# PCOD9415222 Si02
#       8
#     8   8   8   8   8   8   8   8
#     4   8  16  33  56  79 102 130 169 215 257 302
#     4   9  19  33  49  69  95 130 169 208 251 299
#     4   9  18  33  51  73 104 138 171 212 260 309
#     4  10  21  36  53  73  98 132 174 212 247 297
#     4  10  21  36  52  76 109 137 165 210 264 310
#     4  10  20  33  49  71 100 132 167 211 261 307
#     4  10  19  30  46  69  98 132 170 211 252 298
#     4   9  17  33  58  81 100 131 174 213 253 306
#
# _framework density 17.834083
#
# number of rings (size 3 to 8) (size 9 to 14) (size 15 to 20)
#    0.000    2.625    0.000    3.375    0.000    6.500 
#    0.000    5.625    0.000    3.000    0.000    0.000 
#    0.000    0.000    0.000    0.000    0.000    0.000 
#
# Total GULP energy -356570.102367 kJ/mol
# GULP energy per Si atom -5571.407849 kJ/mol
# Density = 1.779349 g / cm^3
# Si number density = 17.834083 Si / 1000 Ang^3
#
#
#
# Elastic Constant Matrix: (Units=GPa)
#
#
# Indices 1 2 3 4 5 6 
#
# 1 21.5899 25.1529 18.7511 0.0000 0.0000 0.0000
# 2 25.1529 110.5222 72.9855 0.0000 0.0000 0.0000
# 3 18.7511 72.9855 99.2064 0.0000 0.0000 0.0000
# 4 0.0000 0.0000 0.0000 18.3932 0.0000 0.0000
# 5 0.0000 0.0000 0.0000 0.0000 25.5540 0.0000
# 6 0.0000 0.0000 0.0000 0.0000 0.0000 24.2535
#
#
#
# Elastic Compliance Matrix: (Units=1/GPa)
#
#
# Indices 1 2 3 4 5 6 
#
# 1 0.063389 -0.012669 -0.002660 0.000000 0.000000 0.000000
# 2 -0.012669 0.020129 -0.012414 0.000000 0.000000 0.000000
# 3 -0.002660 -0.012414 0.019716 0.000000 0.000000 0.000000
# 4 0.000000 0.000000 0.000000 0.054368 0.000000 0.000000
# 5 0.000000 0.000000 0.000000 0.000000 0.039133 0.000000
# 6 0.000000 0.000000 0.000000 0.000000 0.000000 0.041231
#
#
# Mechanical properties :
#
#
# Convention : Reuss Voigt Hill
#
# Bulk Modulus (GPa) = 20.94427 51.67749 36.31088
# Shear Modulus (GPa) = 16.16192 21.26875 18.71534
#
# Velocity S-wave (km/s) = 3.01364 3.45714 3.24298
# Velocity P-wave (km/s) = 4.88660 6.70637 5.86747
#
# Compressibility (1/GPa) = 0.04774576
#
# Stress axis : x y z
#
# Youngs Moduli (GPa) = 15.77573 49.67879 50.72021
#
# Poissons Ratio (x) = 0.62939 0.13494
# Poissons Ratio (y) = 0.19987 0.62966
# Poissons Ratio (z) = 0.04197 0.61673
#
# Static dielectric constant tensor:
#      x y z
#    x 1.630250 0.000000 0.000000 
#    y 0.000000 1.614130 0.000000 
#    z 0.000000 0.000000 1.621880 
# 
# From -- ./inp_files/34313.got.cif
#   From: 2010.05.17/outbox.cif.g08.bks.cpg/sg53_18_cif.got.tgz:34313.got - 2010.06.03 12:45:16.
