data_PCOD9415906
_publ_section_title
;
Structure prediction by ZEFSAII (Michael W. Deem and Ramdas Pophale) SiO2 
 PCOD9415906
Probable space group: P M N A
;
_chemical_formula_sum "Si O2"
_cell_formula_units_Z 64
_cell_length_a 14.427928
_cell_length_b 15.240313
_cell_length_c 12.078212
_cell_angle_alpha 90.000000
_cell_angle_beta 90.000000
_cell_angle_gamma 90.000000
_cell_volume 2655.831399
_symmetry_space_group_name_H-M "P M N A"
_symmetry_group_IT_number 53
_symmetry_cell_setting 'orthorhombic'
loop_
_space_group_symop_operation_xyz
x,y,z
1/2-x,-y,1/2+z
x,-y,-z
1/2-x,y,1/2-z
-x,-y,-z
1/2+x,y,1/2-z
-x,y,z
1/2+x,-y,1/2+z
loop_
_atom_site_type_symbol
_atom_site_label
_atom_site_fract_x
_atom_site_fract_y
_atom_site_fract_z
Si Si1 0.855944 0.034370 0.740014
Si Si2 0.113108 0.688629 0.271134
Si Si3 0.607220 0.837588 0.060747
Si Si4 0.113703 0.714174 0.019604
Si Si5 0.113155 0.346752 0.209890
Si Si6 0.386802 0.501979 0.127091
Si Si7 0.104025 0.091715 0.972721
Si Si8 0.611745 0.160607 0.188376
O O1 0.750000 0.058865 0.750000
O O2 0.890414 0.069426 0.622744
O O3 0.903754 0.086030 0.839941
O O4 0.863725 0.929844 0.749054
O O5 0.146206 0.766353 0.352479
O O6 0.138446 0.595082 0.321133
O O7 0.000000 0.694084 0.268243
O O8 0.143916 0.693149 0.143807
O O9 0.500000 0.811608 0.045205
O O10 0.647130 0.841552 0.938000
O O11 0.142587 0.651368 0.918945
O O12 0.000000 0.715293 0.020397
O O13 0.142935 0.814621 0.995504
O O14 0.144295 0.422575 0.293575
O O15 0.140330 0.251254 0.255707
O O16 0.000000 0.350245 0.209715
O O17 0.500000 0.497384 0.124473
O O18 0.355009 0.500000 0.000000
O O19 0.000000 0.087456 0.022333
O O20 0.154187 0.000000 0.000000
O O21 0.500000 0.160839 0.187145
#
# Coordination Sequence:
#
# PCOD9415906 Si02
#       8
#     8   8   8   8   8   8   8   8
#     4  12  24  35  50  76 109 140 176 222 277 327
#     4   9  16  27  47  73 103 139 174 214 266 319
#     4  10  19  35  57  78 105 141 183 225 266 322
#     4   9  16  27  44  68 100 136 176 217 258 312
#     4   9  17  29  46  73 106 136 173 217 265 317
#     4   9  16  26  42  70 107 140 171 212 266 321
#     4  10  19  33  53  72  97 139 186 224 258 310
#     4  10  20  35  56  78 104 141 183 226 268 319
#
# _framework density 24.097916000000001
#
# number of rings (size 3 to 8) (size 9 to 14) (size 15 to 20)
#    0.000    2.250    1.250    3.000    0.000    7.500 
#    0.000    2.500    0.000    0.000    0.000    0.875 
#    0.000    0.250    0.000    0.000    0.000    0.000 
#
# Total GULP energy -357841.189989 kJ/mol
# GULP energy per Si atom -5591.268594 kJ/mol
# Density = 2.404307 g / cm^3
# Si number density = 24.097916 Si / 1000 Ang^3
#
#
#
# Elastic Constant Matrix: (Units=GPa)
#
#
# Indices 1 2 3 4 5 6 
#
# 1 72.3968 -2.8921 7.1671 0.0000 0.0000 0.0000
# 2 -2.8921 131.4725 44.3502 0.0000 0.0000 0.0000
# 3 7.1671 44.3502 119.8410 0.0000 0.0000 0.0000
# 4 0.0000 0.0000 0.0000 40.1332 0.0000 0.0000
# 5 0.0000 0.0000 0.0000 0.0000 -19.8912 0.0000
# 6 0.0000 0.0000 0.0000 0.0000 0.0000 -17.0853
#
#
#
# Elastic Compliance Matrix: (Units=1/GPa)
#
#
# Indices 1 2 3 4 5 6 
#
# 1 0.013947 0.000672 -0.001083 0.000000 0.000000 0.000000
# 2 0.000672 0.008724 -0.003269 0.000000 0.000000 0.000000
# 3 -0.001083 -0.003269 0.009619 0.000000 0.000000 0.000000
# 4 0.000000 0.000000 0.000000 0.024917 0.000000 0.000000
# 5 0.000000 0.000000 0.000000 0.000000 -0.050273 0.000000
# 6 0.000000 0.000000 0.000000 0.000000 0.000000 -0.058530
#
#
# Mechanical properties :
#
#
# Convention : Reuss Voigt Hill
#
# Bulk Modulus (GPa) = 40.11148 46.77340 43.44244
# Shear Modulus (GPa) = -139.16632 18.97033 -60.09799
#
# Velocity S-wave (km/s) = -7.60761 2.80879 -4.99932
# Velocity P-wave (km/s) = 7.77729 5.47457 3.90611
#
# Compressibility (1/GPa) = 0.02493052
#
# Stress axis : x y z
#
# Youngs Moduli (GPa) = 71.70099 114.63242 103.96352
#
# Poissons Ratio (x) = -0.07704 0.11257
# Poissons Ratio (y) = -0.04819 0.33981
# Poissons Ratio (z) = 0.07764 0.37468
#
# Static dielectric constant tensor:
#      x y z
#    x 1.944010 0.000000 0.000000 
#    y 0.000000 1.868570 0.000000 
#    z 0.000000 0.000000 1.934480 
# 
# From -- ./inp_files/17107.got.cif
#   From: 2010.05.17/outbox.cif.g08.bks.cpg/sg53_9_cif.got.tgz:17107.got - 2010.06.03 12:45:16.
