data_PCOD9415683
_publ_section_title
;
Structure prediction by ZEFSAII (Michael W. Deem and Ramdas Pophale) SiO2 
 PCOD9415683
Probable space group: P M N A
;
_chemical_formula_sum "Si O2"
_cell_formula_units_Z 52
_cell_length_a 16.019748
_cell_length_b 10.156999
_cell_length_c 13.906332
_cell_angle_alpha 90.000000
_cell_angle_beta 90.000000
_cell_angle_gamma 90.000000
_cell_volume 2262.734941
_symmetry_space_group_name_H-M "P M N A"
_symmetry_group_IT_number 53
_symmetry_cell_setting 'orthorhombic'
loop_
_space_group_symop_operation_xyz
x,y,z
1/2-x,-y,1/2+z
x,-y,-z
1/2-x,y,1/2-z
-x,-y,-z
1/2+x,y,1/2-z
-x,y,z
1/2+x,-y,1/2+z
loop_
_atom_site_type_symbol
_atom_site_label
_atom_site_fract_x
_atom_site_fract_y
_atom_site_fract_z
Si Si1 0.357254 0.781885 0.141038
Si Si2 0.500000 0.580364 0.124171
Si Si3 0.000000 0.282086 0.373450
Si Si4 0.500000 0.437253 0.317452
Si Si5 0.140100 0.630897 0.967621
Si Si6 0.670623 0.909990 0.630201
Si Si7 0.131333 0.926797 0.650335
Si Si8 0.160591 0.202773 0.871599
O O1 0.417359 0.666339 0.105565
O O2 0.352443 0.782986 0.257944
O O3 0.260160 0.771298 0.109126
O O4 0.394473 0.926717 0.118428
O O5 0.500000 0.429869 0.085113
O O6 0.500000 0.555331 0.240949
O O7 0.000000 0.315926 0.258982
O O8 0.920023 0.191851 0.395637
O O9 0.422988 0.424992 0.389140
O O10 0.108488 0.693430 0.067547
O O11 0.191783 0.500000 0.000000
O O12 0.166982 0.767763 0.918497
O O13 0.627041 0.905682 0.734629
O O14 0.770032 0.928657 0.635095
O O15 0.640656 0.054092 0.595014
#
# Coordination Sequence:
#
# PCOD9415683 Si02
#       8
#     8   4   4   4   8   8   8   8
#     4   9  18  35  54  80  98 140 188 235 278 315
#     4  10  19  32  54  76 117 138 177 230 267 326
#     4  10  19  32  51  79 108 144 172 218 270 324
#     4  10  23  36  48  80 120 154 182 210 268 336
#     4  12  22  35  51  75 116 153 181 213 268 332
#     4   9  18  35  53  78 100 138 186 234 270 315
#     4   9  17  33  58  75 103 133 185 235 271 322
#     4   9  20  34  55  74 106 140 188 232 272 324
#
# _framework density 22.98104
#
# number of rings (size 3 to 8) (size 9 to 14) (size 15 to 20)
#    0.462    1.846    1.538    3.923    0.000    1.846 
#    0.000    5.385    0.000    0.923    0.000    6.462 
#    0.000    0.000    0.000    0.000    0.000    0.000 
#
# Total GULP energy -289527.046146 kJ/mol
# GULP energy per Si atom -5567.827811 kJ/mol
# Density = 2.292873 g / cm^3
# Si number density = 22.981040 Si / 1000 Ang^3
#
#
#
# Elastic Constant Matrix: (Units=GPa)
#
#
# Indices 1 2 3 4 5 6 
#
# 1 42.1903 37.2136 -3.8006 0.0000 0.0000 0.0000
# 2 37.2136 216.9560 32.9412 0.0000 0.0000 0.0000
# 3 -3.8006 32.9412 67.4368 0.0000 0.0000 0.0000
# 4 0.0000 0.0000 0.0000 42.1297 0.0000 0.0000
# 5 0.0000 0.0000 0.0000 0.0000 2.7444 0.0000
# 6 0.0000 0.0000 0.0000 0.0000 0.0000 30.5230
#
#
#
# Elastic Compliance Matrix: (Units=1/GPa)
#
#
# Indices 1 2 3 4 5 6 
#
# 1 0.029090 -0.005658 0.004403 0.000000 0.000000 0.000000
# 2 -0.005658 0.006079 -0.003288 0.000000 0.000000 0.000000
# 3 0.004403 -0.003288 0.016683 0.000000 0.000000 0.000000
# 4 0.000000 0.000000 0.000000 0.023736 0.000000 0.000000
# 5 0.000000 0.000000 0.000000 0.000000 0.364374 0.000000
# 6 0.000000 0.000000 0.000000 0.000000 0.000000 0.032762
#
#
# Mechanical properties :
#
#
# Convention : Reuss Voigt Hill
#
# Bulk Modulus (GPa) = 23.38344 51.03239 37.20792
# Shear Modulus (GPa) = 10.07930 32.42803 21.25366
#
# Velocity S-wave (km/s) = 2.09653 3.76051 3.04441
# Velocity P-wave (km/s) = 4.00722 6.41169 5.34638
#
# Compressibility (1/GPa) = 0.04276530
#
# Stress axis : x y z
#
# Youngs Moduli (GPa) = 34.37662 164.49978 59.94076
#
# Poissons Ratio (x) = 0.93077 -0.26394
# Poissons Ratio (y) = 0.19451 0.19711
# Poissons Ratio (z) = -0.15137 0.54093
#
# Static dielectric constant tensor:
#      x y z
#    x 1.816510 0.000000 0.000000 
#    y 0.000000 1.885450 0.000000 
#    z 0.000000 0.000000 1.963290 
# 
# From -- ./inp_files/28992.got.cif
#   From: 2010.05.17/outbox.cif.g08.bks.cpg/sg53_15_cif.got.tgz:28992.got - 2010.06.03 12:45:16.
