data_PCOD9415608
_publ_section_title
;
Structure prediction by ZEFSAII (Michael W. Deem and Ramdas Pophale) SiO2 
 PCOD9415608
Probable space group: P M N A
;
_chemical_formula_sum "Si O2"
_cell_formula_units_Z 64
_cell_length_a 8.849491
_cell_length_b 19.364931
_cell_length_c 22.182852
_cell_angle_alpha 90.000000
_cell_angle_beta 90.000000
_cell_angle_gamma 90.000000
_cell_volume 3801.470525
_symmetry_space_group_name_H-M "P M N A"
_symmetry_group_IT_number 53
_symmetry_cell_setting 'orthorhombic'
loop_
_space_group_symop_operation_xyz
x,y,z
1/2-x,-y,1/2+z
x,-y,-z
1/2-x,y,1/2-z
-x,-y,-z
1/2+x,y,1/2-z
-x,y,z
1/2+x,-y,1/2+z
loop_
_atom_site_type_symbol
_atom_site_label
_atom_site_fract_x
_atom_site_fract_y
_atom_site_fract_z
Si Si1 0.677875 0.668872 0.014623
Si Si2 0.677770 0.293332 0.314772
Si Si3 0.182873 0.954343 0.440484
Si Si4 0.680263 0.178884 0.508363
Si Si5 0.680328 0.833513 0.880305
Si Si6 0.674732 0.592907 0.884655
Si Si7 0.319046 0.028483 0.185297
Si Si8 0.173295 0.463101 0.934127
O O1 0.500000 0.674398 0.027964
O O2 0.752642 0.744229 0.016829
O O3 0.690781 0.634819 0.947853
O O4 0.758363 0.612860 0.057400
O O5 0.750000 0.283494 0.250000
O O6 0.500000 0.279969 0.314995
O O7 0.763212 0.239996 0.357897
O O8 0.715905 0.369402 0.338257
O O9 0.254182 0.878625 0.446753
O O10 0.226372 0.987811 0.375967
O O11 0.000000 0.950027 0.441927
O O12 0.226184 0.000000 0.500000
O O13 0.500000 0.181721 0.510651
O O14 0.736850 0.153091 0.442968
O O15 0.500000 0.834057 0.890475
O O16 0.716998 0.891810 0.831084
O O17 0.500000 0.598232 0.866031
O O18 0.724064 0.514339 0.895196
O O19 0.250000 0.008869 0.250000
O O20 0.500000 0.022317 0.190085
O O21 0.000000 0.460666 0.913188
O O22 0.172110 0.500000 0.000000
#
# Coordination Sequence:
#
# PCOD9415608 Si02
#       8
#     8   8   8   8   8   8   8   8
#     4  10  19  32  51  73 103 139 174 212 260 322
#     4  12  24  36  50  72 103 142 186 230 272 319
#     4  10  20  39  59  77 107 147 186 224 275 337
#     4  12  23  33  52  82 111 142 180 229 279 325
#     4  11  21  37  55  75 105 146 186 223 270 329
#     4  10  19  32  50  71  99 137 178 216 262 315
#     4  10  22  38  59  81 106 142 182 229 277 329
#     4   9  17  29  47  72 102 131 166 211 255 302
#
# _framework density 16.835591000000001
#
# number of rings (size 3 to 8) (size 9 to 14) (size 15 to 20)
#    0.000    1.500    2.500    4.125    0.000    5.250 
#    0.000    0.000    0.000    0.000    0.000    0.875 
#    0.000    2.000    0.000    0.000    0.000    0.000 
#
# Total GULP energy -357165.145897 kJ/mol
# GULP energy per Si atom -5580.705405 kJ/mol
# Density = 1.679727 g / cm^3
# Si number density = 16.835591 Si / 1000 Ang^3
#
#
#
# Elastic Constant Matrix: (Units=GPa)
#
#
# Indices 1 2 3 4 5 6 
#
# 1 68.0966 40.0446 18.0716 0.0000 0.0000 0.0000
# 2 40.0446 97.9388 34.6622 0.0000 0.0000 0.0000
# 3 18.0716 34.6622 67.9321 0.0000 0.0000 0.0000
# 4 0.0000 0.0000 0.0000 13.1844 0.0000 0.0000
# 5 0.0000 0.0000 0.0000 0.0000 20.1721 0.0000
# 6 0.0000 0.0000 0.0000 0.0000 0.0000 19.7779
#
#
#
# Elastic Compliance Matrix: (Units=1/GPa)
#
#
# Indices 1 2 3 4 5 6 
#
# 1 0.019436 -0.007465 -0.001361 0.000000 0.000000 0.000000
# 2 -0.007465 0.015328 -0.005835 0.000000 0.000000 0.000000
# 3 -0.001361 -0.005835 0.018060 0.000000 0.000000 0.000000
# 4 0.000000 0.000000 0.000000 0.075847 0.000000 0.000000
# 5 0.000000 0.000000 0.000000 0.000000 0.049573 0.000000
# 6 0.000000 0.000000 0.000000 0.000000 0.000000 0.050562
#
#
# Mechanical properties :
#
#
# Convention : Reuss Voigt Hill
#
# Bulk Modulus (GPa) = 42.55163 46.61381 44.58272
# Shear Modulus (GPa) = 18.79956 20.03947 19.41951
#
# Velocity S-wave (km/s) = 3.34526 3.45382 3.39998
# Velocity P-wave (km/s) = 6.34435 6.60704 6.47702
#
# Compressibility (1/GPa) = 0.02350086
#
# Stress axis : x y z
#
# Youngs Moduli (GPa) = 51.45032 65.24052 55.37060
#
# Poissons Ratio (x) = 0.48703 0.07538
# Poissons Ratio (y) = 0.38408 0.32309
# Poissons Ratio (z) = 0.07005 0.38069
#
# Static dielectric constant tensor:
#      x y z
#    x 1.556600 0.000000 0.000000 
#    y 0.000000 1.579800 0.000000 
#    z 0.000000 0.000000 1.561830 
# 
# From -- ./inp_files/34459.got.cif
#   From: 2010.05.17/outbox.cif.g08.bks.cpg/sg53_18_cif.got.tgz:34459.got - 2010.06.03 12:45:16.
