data_PCOD9415852
_publ_section_title
;
Structure prediction by ZEFSAII (Michael W. Deem and Ramdas Pophale) SiO2 
 PCOD9415852
Probable space group: P M N A
;
_chemical_formula_sum "Si O2"
_cell_formula_units_Z 64
_cell_length_a 22.805604
_cell_length_b 14.524979
_cell_length_c 9.243747
_cell_angle_alpha 90.000000
_cell_angle_beta 90.000000
_cell_angle_gamma 90.000000
_cell_volume 3061.999690
_symmetry_space_group_name_H-M "P M N A"
_symmetry_group_IT_number 53
_symmetry_cell_setting 'orthorhombic'
loop_
_space_group_symop_operation_xyz
x,y,z
1/2-x,-y,1/2+z
x,-y,-z
1/2-x,y,1/2-z
-x,-y,-z
1/2+x,y,1/2-z
-x,y,z
1/2+x,-y,1/2+z
loop_
_atom_site_type_symbol
_atom_site_label
_atom_site_fract_x
_atom_site_fract_y
_atom_site_fract_z
Si Si1 0.311890 0.836611 0.669875
Si Si2 0.602710 0.300227 0.062344
Si Si3 0.149971 0.330561 0.019586
Si Si4 0.272899 0.596255 0.917586
Si Si5 0.374061 0.098175 0.068735
Si Si6 0.933192 0.657557 0.238798
Si Si7 0.563803 0.440525 0.300159
Si Si8 0.259508 0.097221 0.918640
O O1 0.250000 0.816107 0.750000
O O2 0.351479 0.748212 0.642656
O O3 0.343089 0.911879 0.772138
O O4 0.293602 0.858682 0.506243
O O5 0.583045 0.311822 0.898043
O O6 0.670603 0.336987 0.076290
O O7 0.589474 0.191596 0.092047
O O8 0.568892 0.372525 0.164008
O O9 0.114240 0.306629 0.876494
O O10 0.217641 0.357470 0.000636
O O11 0.115234 0.414318 0.091562
O O12 0.250000 0.583079 0.750000
O O13 0.286247 0.500000 0.000000
O O14 0.323040 0.135846 0.960551
O O15 0.394702 0.000000 0.000000
O O16 0.930587 0.546477 0.241093
O O17 0.000000 0.684722 0.201272
O O18 0.500000 0.425851 0.369868
O O19 0.250000 0.092758 0.750000
O O20 0.263083 0.000000 0.000000
#
# Coordination Sequence:
#
# PCOD9415852 Si02
#       8
#     8   8   8   8   8   8   8   8
#     4  10  20  38  57  89 130 169 210 256 314 385
#     4  12  24  41  65  94 131 166 211 266 326 381
#     4  12  23  39  63  92 133 171 208 259 317 383
#     4  12  24  38  60  95 138 177 205 249 318 396
#     4  10  20  38  61  88 122 160 208 265 318 377
#     4  11  26  44  64  94 126 164 220 275 311 366
#     4  11  22  42  68  89 118 172 223 264 313 369
#     4  10  19  32  56  87 123 166 209 254 310 376
#
# _framework density 20.901373
#
# number of rings (size 3 to 8) (size 9 to 14) (size 15 to 20)
#    0.000    1.000    2.500    6.750    3.500    2.000 
#    0.000    0.000    0.000    1.500    0.000    0.875 
#    0.000    0.000    0.000    0.000    0.000    0.000 
#
# Total GULP energy -356999.628983 kJ/mol
# GULP energy per Si atom -5578.119203 kJ/mol
# Density = 2.085380 g / cm^3
# Si number density = 20.901373 Si / 1000 Ang^3
#
#
#
# Elastic Constant Matrix: (Units=GPa)
#
#
# Indices 1 2 3 4 5 6 
#
# 1 75.4206 12.0922 12.4268 0.0000 0.0000 0.0000
# 2 12.0922 95.9021 24.4522 0.0000 0.0000 0.0000
# 3 12.4268 24.4522 134.8591 0.0000 0.0000 0.0000
# 4 0.0000 0.0000 0.0000 31.0286 0.0000 0.0000
# 5 0.0000 0.0000 0.0000 0.0000 0.4152 0.0000
# 6 0.0000 0.0000 0.0000 0.0000 0.0000 12.6119
#
#
#
# Elastic Compliance Matrix: (Units=1/GPa)
#
#
# Indices 1 2 3 4 5 6 
#
# 1 0.013658 -0.001469 -0.000992 0.000000 0.000000 0.000000
# 2 -0.001469 0.011091 -0.001876 0.000000 0.000000 0.000000
# 3 -0.000992 -0.001876 0.007847 0.000000 0.000000 0.000000
# 4 0.000000 0.000000 0.000000 0.032228 0.000000 0.000000
# 5 0.000000 0.000000 0.000000 0.000000 2.408362 0.000000
# 6 0.000000 0.000000 0.000000 0.000000 0.000000 0.079290
#
#
# Mechanical properties :
#
#
# Convention : Reuss Voigt Hill
#
# Bulk Modulus (GPa) = 41.80311 44.90267 43.35289
# Shear Modulus (GPa) = 1.94619 25.95851 13.95235
#
# Velocity S-wave (km/s) = 0.96600 3.52796 2.58647
# Velocity P-wave (km/s) = 4.61387 6.17455 5.45036
#
# Compressibility (1/GPa) = 0.02392167
#
# Stress axis : x y z
#
# Youngs Moduli (GPa) = 73.21716 90.16517 127.44305
#
# Poissons Ratio (x) = 0.13247 0.12644
# Poissons Ratio (y) = 0.10757 0.23903
# Poissons Ratio (z) = 0.07264 0.16911
#
# Static dielectric constant tensor:
#      x y z
#    x 1.865880 0.000000 0.000000 
#    y 0.000000 1.866950 0.000000 
#    z 0.000000 0.000000 1.800150 
# 
# From -- ./inp_files/11954.got.cif
#   From: 2010.05.17/outbox.cif.g08.bks.cpg/sg53_6_cif.got.tgz:11954.got - 2010.06.03 12:45:16.
