data_PCOD9415927
_publ_section_title
;
Structure prediction by ZEFSAII (Michael W. Deem and Ramdas Pophale) SiO2 
 PCOD9415927
Probable space group: P M N A
;
_chemical_formula_sum "Si O2"
_cell_formula_units_Z 64
_cell_length_a 8.665315
_cell_length_b 26.739075
_cell_length_c 14.240535
_cell_angle_alpha 90.000000
_cell_angle_beta 90.000000
_cell_angle_gamma 90.000000
_cell_volume 3299.567670
_symmetry_space_group_name_H-M "P M N A"
_symmetry_group_IT_number 53
_symmetry_cell_setting 'orthorhombic'
loop_
_space_group_symop_operation_xyz
x,y,z
1/2-x,-y,1/2+z
x,-y,-z
1/2-x,y,1/2-z
-x,-y,-z
1/2+x,y,1/2-z
-x,y,z
1/2+x,-y,1/2+z
loop_
_atom_site_type_symbol
_atom_site_label
_atom_site_fract_x
_atom_site_fract_y
_atom_site_fract_z
Si Si1 0.675261 0.012811 0.110762
Si Si2 0.184827 0.679931 0.532089
Si Si3 0.813887 0.523896 0.143848
Si Si4 0.186225 0.414768 0.143672
Si Si5 0.313285 0.118083 0.049078
Si Si6 0.814769 0.365223 0.854882
Si Si7 0.180908 0.090116 0.847383
Si Si8 0.186514 0.221458 0.354830
O O1 0.500000 0.009504 0.149178
O O2 0.781126 0.969274 0.150491
O O3 0.734800 0.069637 0.110872
O O4 0.664246 0.000000 0.000000
O O5 0.247424 0.632027 0.588313
O O6 0.248585 0.674717 0.427070
O O7 0.234779 0.730494 0.584353
O O8 0.000000 0.678517 0.530654
O O9 0.750000 0.522794 0.250000
O O10 0.769220 0.469785 0.102591
O O11 0.767577 0.578851 0.108667
O O12 0.000000 0.524016 0.145015
O O13 0.250000 0.412648 0.250000
O O14 0.000000 0.411917 0.144199
O O15 0.500000 0.115928 0.045907
O O16 0.254214 0.112099 0.942657
O O17 0.264157 0.169805 0.095986
O O18 0.750000 0.359524 0.750000
O O19 0.000000 0.363127 0.853032
O O20 0.250000 0.110341 0.750000
O O21 0.000000 0.098176 0.849307
O O22 0.250000 0.225013 0.250000
O O23 0.000000 0.221289 0.351105
#
# Coordination Sequence:
#
# PCOD9415927 Si02
#       8
#     8   8   8   8   8   8   8   8
#     4   8  15  30  52  77 109 146 182 223 270 318
#     4  11  23  38  56  81 110 144 185 228 275 326
#     4   8  16  30  50  76 107 141 177 217 266 323
#     4  10  19  33  53  79 111 146 182 224 273 326
#     4   9  19  38  59  81 111 147 187 233 281 326
#     4  10  20  37  59  82 109 142 179 223 273 329
#     4  11  21  33  53  83 119 156 190 226 270 324
#     4  10  23  42  63  84 110 142 180 229 279 326
#
# _framework density 19.396481000000001
#
# number of rings (size 3 to 8) (size 9 to 14) (size 15 to 20)
#    0.000    2.375    0.000    3.375    0.000    6.750 
#    0.000    4.375    0.000    0.000    0.000    0.000 
#    0.000    0.000    0.000    0.000    0.000    0.000 
#
# Total GULP energy -357079.205748 kJ/mol
# GULP energy per Si atom -5579.362590 kJ/mol
# Density = 1.935233 g / cm^3
# Si number density = 19.396481 Si / 1000 Ang^3
#
#
#
# Elastic Constant Matrix: (Units=GPa)
#
#
# Indices 1 2 3 4 5 6 
#
# 1 36.5789 28.0988 23.0249 0.0000 0.0000 0.0000
# 2 28.0988 148.1901 70.4359 0.0000 0.0000 0.0000
# 3 23.0249 70.4359 108.6148 0.0000 0.0000 0.0000
# 4 0.0000 0.0000 0.0000 27.1641 0.0000 0.0000
# 5 0.0000 0.0000 0.0000 0.0000 26.2667 0.0000
# 6 0.0000 0.0000 0.0000 0.0000 0.0000 23.4851
#
#
#
# Elastic Compliance Matrix: (Units=1/GPa)
#
#
# Indices 1 2 3 4 5 6 
#
# 1 0.033326 -0.004281 -0.004289 0.000000 0.000000 0.000000
# 2 -0.004281 0.010305 -0.005775 0.000000 0.000000 0.000000
# 3 -0.004289 -0.005775 0.013861 0.000000 0.000000 0.000000
# 4 0.000000 0.000000 0.000000 0.036813 0.000000 0.000000
# 5 0.000000 0.000000 0.000000 0.000000 0.038071 0.000000
# 6 0.000000 0.000000 0.000000 0.000000 0.000000 0.042580
#
#
# Mechanical properties :
#
#
# Convention : Reuss Voigt Hill
#
# Bulk Modulus (GPa) = 34.71863 59.61144 47.16504
# Shear Modulus (GPa) = 23.44708 26.83812 25.14260
#
# Velocity S-wave (km/s) = 3.48060 3.72379 3.60425
# Velocity P-wave (km/s) = 5.83875 7.02059 6.45677
#
# Compressibility (1/GPa) = 0.02880298
#
# Stress axis : x y z
#
# Youngs Moduli (GPa) = 30.00659 97.04320 72.14428
#
# Poissons Ratio (x) = 0.41540 0.30941
# Poissons Ratio (y) = 0.12845 0.41664
# Poissons Ratio (z) = 0.12869 0.56043
#
# Static dielectric constant tensor:
#      x y z
#    x 1.659320 0.000000 0.000000 
#    y 0.000000 1.701100 0.000000 
#    z 0.000000 0.000000 1.695700 
# 
# From -- ./inp_files/21005.got.cif
#   From: 2010.05.17/outbox.cif.g08.bks.cpg/sg53_11_cif.got.tgz:21005.got - 2010.06.03 12:45:16.
