data_PCOD9415731
_publ_section_title
;
Structure prediction by ZEFSAII (Michael W. Deem and Ramdas Pophale) SiO2 
 PCOD9415731
Probable space group: P M N A
;
_chemical_formula_sum "Si O2"
_cell_formula_units_Z 64
_cell_length_a 8.944005
_cell_length_b 21.175194
_cell_length_c 19.232512
_cell_angle_alpha 90.000000
_cell_angle_beta 90.000000
_cell_angle_gamma 90.000000
_cell_volume 3642.465469
_symmetry_space_group_name_H-M "P M N A"
_symmetry_group_IT_number 53
_symmetry_cell_setting 'orthorhombic'
loop_
_space_group_symop_operation_xyz
x,y,z
1/2-x,-y,1/2+z
x,-y,-z
1/2-x,y,1/2-z
-x,-y,-z
1/2+x,y,1/2-z
-x,y,z
1/2+x,-y,1/2+z
loop_
_atom_site_type_symbol
_atom_site_label
_atom_site_fract_x
_atom_site_fract_y
_atom_site_fract_z
Si Si1 0.820084 0.505055 0.919418
Si Si2 0.179716 0.937229 0.458474
Si Si3 0.178167 0.606842 0.677257
Si Si4 0.180405 0.615710 0.174030
Si Si5 0.679205 0.244736 0.177542
Si Si6 0.679609 0.804441 0.970612
Si Si7 0.679759 0.747288 0.396449
Si Si8 0.320921 0.119828 0.675011
O O1 0.744167 0.564837 0.883737
O O2 0.778589 0.442288 0.876286
O O3 0.000000 0.511792 0.915452
O O4 0.778325 0.500000 0.000000
O O5 0.215056 0.875270 0.504386
O O6 0.258550 0.926522 0.384562
O O7 0.000000 0.938885 0.447920
O O8 0.223702 0.000000 0.500000
O O9 0.250000 0.585266 0.750000
O O10 0.215224 0.680890 0.668680
O O11 0.000000 0.600576 0.680765
O O12 0.250000 0.607966 0.250000
O O13 0.227484 0.682480 0.140141
O O14 0.000000 0.616515 0.180105
O O15 0.750000 0.222862 0.250000
O O16 0.500000 0.239125 0.182928
O O17 0.729710 0.209452 0.107801
O O18 0.500000 0.796840 0.972761
O O19 0.750585 0.758011 0.027643
O O20 0.500000 0.746319 0.402895
O O21 0.720100 0.808991 0.350640
O O22 0.250000 0.107804 0.750000
O O23 0.500000 0.115911 0.678549
#
# Coordination Sequence:
#
# PCOD9415731 Si02
#       8
#     8   8   8   8   8   8   8   8
#     4  10  22  37  52  73 101 134 170 210 256 305
#     4   9  18  34  55  77 105 142 176 208 254 305
#     4  10  20  35  54  74  97 128 168 211 257 308
#     4  10  21  36  52  73 101 132 167 206 253 305
#     4   9  19  34  52  76 102 130 167 212 259 305
#     4   9  18  33  53  77 105 134 168 210 252 300
#     4   9  19  33  51  77 104 132 168 209 254 305
#     4  10  19  32  52  78 107 137 174 215 254 301
#
# _framework density 17.570516999999999
#
# number of rings (size 3 to 8) (size 9 to 14) (size 15 to 20)
#    0.000    2.500    0.000    1.500    1.750    4.000 
#    0.000    0.625    0.000    1.500    0.000    0.000 
#    0.000    0.000    0.000    0.000    0.000    0.000 
#
# Total GULP energy -357124.692596 kJ/mol
# GULP energy per Si atom -5580.073322 kJ/mol
# Density = 1.753053 g / cm^3
# Si number density = 17.570517 Si / 1000 Ang^3
#
#
#
# Elastic Constant Matrix: (Units=GPa)
#
#
# Indices 1 2 3 4 5 6 
#
# 1 16.5448 29.0245 48.4035 0.0000 0.0000 0.0000
# 2 29.0245 67.0442 72.9415 0.0000 0.0000 0.0000
# 3 48.4035 72.9415 196.9052 0.0000 0.0000 0.0000
# 4 0.0000 0.0000 0.0000 27.8322 0.0000 0.0000
# 5 0.0000 0.0000 0.0000 0.0000 33.9414 0.0000
# 6 0.0000 0.0000 0.0000 0.0000 0.0000 18.6935
#
#
#
# Elastic Compliance Matrix: (Units=1/GPa)
#
#
# Indices 1 2 3 4 5 6 
#
# 1 0.636470 -0.176418 -0.091106 0.000000 0.000000 0.000000
# 2 -0.176418 0.073885 0.015997 0.000000 0.000000 0.000000
# 3 -0.091106 0.015997 0.021548 0.000000 0.000000 0.000000
# 4 0.000000 0.000000 0.000000 0.035930 0.000000 0.000000
# 5 0.000000 0.000000 0.000000 0.000000 0.029463 0.000000
# 6 0.000000 0.000000 0.000000 0.000000 0.000000 0.053494
#
#
# Mechanical properties :
#
#
# Convention : Reuss Voigt Hill
#
# Bulk Modulus (GPa) = 4.36967 64.58147 34.47557
# Shear Modulus (GPa) = 3.49619 24.76841 14.13230
#
# Velocity S-wave (km/s) = 1.41214 3.75861 2.83913
# Velocity P-wave (km/s) = 2.26962 7.46134 5.51465
#
# Compressibility (1/GPa) = 0.22885043
#
# Stress axis : x y z
#
# Youngs Moduli (GPa) = 1.57117 13.53452 46.40740
#
# Poissons Ratio (x) = 2.38774 4.22799
# Poissons Ratio (y) = 0.27718 -0.74240
# Poissons Ratio (z) = 0.14314 -0.21652
#
# Static dielectric constant tensor:
#      x y z
#    x 1.588240 0.000000 0.000000 
#    y 0.000000 1.590760 0.000000 
#    z 0.000000 0.000000 1.590210 
# 
# From -- ./inp_files/26798.got.cif
#   From: 2010.05.17/outbox.cif.g08.bks.cpg/sg53_14_cif.got.tgz:26798.got - 2010.06.03 12:45:16.
