data_PCOD9415644
_publ_section_title
;
Structure prediction by ZEFSAII (Michael W. Deem and Ramdas Pophale) SiO2 
 PCOD9415644
Probable space group: P M N A
;
_chemical_formula_sum "Si O2"
_cell_formula_units_Z 32
_cell_length_a 37.943114
_cell_length_b 7.353156
_cell_length_c 5.201453
_cell_angle_alpha 90.000000
_cell_angle_beta 90.000000
_cell_angle_gamma 90.000000
_cell_volume 1451.213898
_symmetry_space_group_name_H-M "P M N A"
_symmetry_group_IT_number 53
_symmetry_cell_setting 'orthorhombic'
loop_
_space_group_symop_operation_xyz
x,y,z
1/2-x,-y,1/2+z
x,-y,-z
1/2-x,y,1/2-z
-x,-y,-z
1/2+x,y,1/2-z
-x,y,z
1/2+x,-y,1/2+z
loop_
_atom_site_type_symbol
_atom_site_label
_atom_site_fract_x
_atom_site_fract_y
_atom_site_fract_z
Si Si1 0.728514 0.778201 0.496273
Si Si2 0.891481 0.784965 0.524094
Si Si3 0.852573 0.777097 0.014758
Si Si4 0.461163 0.374438 0.250191
O O1 0.750000 0.722544 0.750000
O O2 0.687982 0.722950 0.457982
O O3 0.727949 0.000000 0.500000
O O4 0.750000 0.718024 0.250000
O O5 0.865081 0.710445 0.737694
O O6 0.929483 0.752583 0.656131
O O7 0.887399 0.000000 0.500000
O O8 0.879367 0.717895 0.242285
O O9 0.853607 0.000000 0.000000
O O10 0.453485 0.500000 0.500000
O O11 0.500000 0.288364 0.296970
O O12 0.464408 0.500000 0.000000
#
# Coordination Sequence:
#
# PCOD9415644 Si02
#       4
#     8   8   8   8
#     4   9  15  23  37  59  92 133 167 195 238 296
#     4  10  19  32  51  74 102 134 167 208 256 305
#     4   9  17  28  43  68 101 133 166 206 251 297
#     4  10  21  37  55  75 101 132 167 210 257 306
#
# _framework density 22.050504
#
# number of rings (size 3 to 8) (size 9 to 14) (size 15 to 20)
#    0.000    2.500    0.000    3.000    0.000    6.500 
#    0.000    0.000    0.000    9.000    0.000    0.000 
#    0.000   56.000    0.000    0.000    0.000    0.000 
#
# Total GULP energy -178361.767282 kJ/mol
# GULP energy per Si atom -5573.805228 kJ/mol
# Density = 2.200032 g / cm^3
# Si number density = 22.050504 Si / 1000 Ang^3
#
#
#
# Elastic Constant Matrix: (Units=GPa)
#
#
# Indices 1 2 3 4 5 6 
#
# 1 156.6022 3.5688 69.8777 0.0000 0.0000 0.0000
# 2 3.5688 52.7659 13.3134 0.0000 0.0000 0.0000
# 3 69.8777 13.3134 194.9816 0.0000 0.0000 0.0000
# 4 0.0000 0.0000 0.0000 0.8366 0.0000 0.0000
# 5 0.0000 0.0000 0.0000 0.0000 39.7925 0.0000
# 6 0.0000 0.0000 0.0000 0.0000 0.0000 56.9705
#
#
#
# Elastic Compliance Matrix: (Units=1/GPa)
#
#
# Indices 1 2 3 4 5 6 
#
# 1 0.007603 0.000176 -0.002737 0.000000 0.000000 0.000000
# 2 0.000176 0.019288 -0.001380 0.000000 0.000000 0.000000
# 3 -0.002737 -0.001380 0.006204 0.000000 0.000000 0.000000
# 4 0.000000 0.000000 0.000000 1.195376 0.000000 0.000000
# 5 0.000000 0.000000 0.000000 0.000000 0.025130 0.000000
# 6 0.000000 0.000000 0.000000 0.000000 0.000000 0.017553
#
#
# Mechanical properties :
#
#
# Convention : Reuss Voigt Hill
#
# Bulk Modulus (GPa) = 39.66175 64.20773 51.93474
# Shear Modulus (GPa) = 3.88368 40.69256 22.28812
#
# Velocity S-wave (km/s) = 1.32857 4.30050 3.18272
# Velocity P-wave (km/s) = 4.51434 7.33763 6.09180
#
# Compressibility (1/GPa) = 0.02521321
#
# Stress axis : x y z
#
# Youngs Moduli (GPa) = 131.53149 51.84588 161.19372
#
# Poissons Ratio (x) = -0.00914 0.44114
# Poissons Ratio (y) = -0.02319 0.22247
# Poissons Ratio (z) = 0.35996 0.07156
#
# Static dielectric constant tensor:
#      x y z
#    x 1.948380 0.000000 0.000000 
#    y 0.000000 1.870330 0.000000 
#    z 0.000000 0.000000 1.758410 
# 
# From -- ./inp_files/4934.got.cif
#   From: 2010.05.17/outbox.cif.g08.bks.cpg/sg53_3_cif.got.tgz:4934.got - 2010.06.03 12:45:16.
