data_PCOD9415666
_publ_section_title
;
Structure prediction by ZEFSAII (Michael W. Deem and Ramdas Pophale) SiO2 
 PCOD9415666
Probable space group: P M N A
;
_chemical_formula_sum "Si O2"
_cell_formula_units_Z 56
_cell_length_a 7.657880
_cell_length_b 19.688270
_cell_length_c 17.427569
_cell_angle_alpha 90.000000
_cell_angle_beta 90.000000
_cell_angle_gamma 90.000000
_cell_volume 2627.561707
_symmetry_space_group_name_H-M "P M N A"
_symmetry_group_IT_number 53
_symmetry_cell_setting 'orthorhombic'
loop_
_space_group_symop_operation_xyz
x,y,z
1/2-x,-y,1/2+z
x,-y,-z
1/2-x,y,1/2-z
-x,-y,-z
1/2+x,y,1/2-z
-x,y,z
1/2+x,-y,1/2+z
loop_
_atom_site_type_symbol
_atom_site_label
_atom_site_fract_x
_atom_site_fract_y
_atom_site_fract_z
Si Si1 0.210907 0.330841 0.162189
Si Si2 0.211672 0.282117 0.582234
Si Si3 0.203161 0.792521 0.926940
Si Si4 0.292966 0.147750 0.836600
Si Si5 0.298933 0.541902 0.571013
Si Si6 0.705525 0.924736 0.491833
Si Si7 0.208184 0.417183 0.663019
O O1 0.250000 0.347813 0.250000
O O2 0.278201 0.255930 0.139037
O O3 0.279075 0.388290 0.103217
O O4 0.000000 0.330446 0.154419
O O5 0.286058 0.254605 0.502768
O O6 0.262753 0.225295 0.645196
O O7 0.268960 0.356628 0.607297
O O8 0.000000 0.282711 0.576638
O O9 0.000000 0.804654 0.908364
O O10 0.280711 0.864804 0.953751
O O11 0.250000 0.128199 0.750000
O O12 0.500000 0.145221 0.845922
O O13 0.218196 0.101422 0.904445
O O14 0.217102 0.500000 0.500000
O O15 0.500000 0.556338 0.549257
O O16 0.293720 0.488058 0.640191
O O17 0.500000 0.929226 0.510939
O O18 0.781727 0.000000 0.500000
O O19 0.250000 0.398243 0.750000
O O20 0.000000 0.424287 0.654948
#
# Coordination Sequence:
#
# PCOD9415666 Si02
#       7
#     8   8   8   8   8   8   8
#     4  10  21  36  54  76 102 135 175 218 262 309
#     4   9  19  33  50  75 104 133 167 208 252 302
#     4   9  18  34  56  78 100 132 172 208 250 307
#     4  10  19  32  51  76 106 138 173 210 252 305
#     4  10  21  37  55  74  98 130 170 216 265 314
#     4   9  18  34  56  80 107 137 169 211 262 314
#     4  11  22  34  49  72 102 133 166 206 253 302
#
# _framework density 21.312532999999998
#
# number of rings (size 3 to 8) (size 9 to 14) (size 15 to 20)
#    0.000    2.286    0.000    2.571    0.000    5.714 
#    0.000    0.714    0.000    1.714    0.000    0.000 
#    0.000    0.000    0.000    0.000    0.000    0.000 
#
# Total GULP energy -312548.849181 kJ/mol
# GULP energy per Si atom -5581.229450 kJ/mol
# Density = 2.126402 g / cm^3
# Si number density = 21.312533 Si / 1000 Ang^3
#
#
#
# Elastic Constant Matrix: (Units=GPa)
#
#
# Indices 1 2 3 4 5 6 
#
# 1 47.5635 9.3283 -3.7773 0.0000 0.0000 0.0000
# 2 9.3283 150.6307 32.3337 0.0000 0.0000 0.0000
# 3 -3.7773 32.3337 63.9139 0.0000 0.0000 0.0000
# 4 0.0000 0.0000 0.0000 -1.9378 0.0000 0.0000
# 5 0.0000 0.0000 0.0000 0.0000 22.1194 0.0000
# 6 0.0000 0.0000 0.0000 0.0000 0.0000 10.5664
#
#
#
# Elastic Compliance Matrix: (Units=1/GPa)
#
#
# Indices 1 2 3 4 5 6 
#
# 1 0.021552 -0.001804 0.002186 0.000000 0.000000 0.000000
# 2 -0.001804 0.007599 -0.003951 0.000000 0.000000 0.000000
# 3 0.002186 -0.003951 0.017774 0.000000 0.000000 0.000000
# 4 0.000000 0.000000 0.000000 -0.516059 0.000000 0.000000
# 5 0.000000 0.000000 0.000000 0.000000 0.045209 0.000000
# 6 0.000000 0.000000 0.000000 0.000000 0.000000 0.094640
#
#
# Mechanical properties :
#
#
# Convention : Reuss Voigt Hill
#
# Bulk Modulus (GPa) = 25.13334 37.54194 31.33764
# Shear Modulus (GPa) = -16.18721 21.09782 2.45531
#
# Velocity S-wave (km/s) = -2.75892 3.14972 1.07450
# Velocity P-wave (km/s) = 1.29209 5.55706 4.03425
#
# Compressibility (1/GPa) = 0.03978778
#
# Stress axis : x y z
#
# Youngs Moduli (GPa) = 46.39943 131.60481 56.26233
#
# Poissons Ratio (x) = 0.23741 -0.12301
# Poissons Ratio (y) = 0.08370 0.22227
# Poissons Ratio (z) = -0.10145 0.51993
#
# Static dielectric constant tensor:
#      x y z
#    x 1.817180 0.000000 0.000000 
#    y 0.000000 1.803560 0.000000 
#    z 0.000000 0.000000 1.787350 
# 
# From -- ./inp_files/20470.got.cif
#   From: 2010.05.17/outbox.cif.g08.bks.cpg/sg53_11_cif.got.tgz:20470.got - 2010.06.03 12:45:16.
