data_PCOD9415212
_publ_section_title
;
Structure prediction by ZEFSAII (Michael W. Deem and Ramdas Pophale) SiO2 
 PCOD9415212
Probable space group: P M N A
;
_chemical_formula_sum "Si O2"
_cell_formula_units_Z 40
_cell_length_a 16.742943
_cell_length_b 5.053727
_cell_length_c 25.604067
_cell_angle_alpha 90.000000
_cell_angle_beta 90.000000
_cell_angle_gamma 90.000000
_cell_volume 2166.469262
_symmetry_space_group_name_H-M "P M N A"
_symmetry_group_IT_number 53
_symmetry_cell_setting 'orthorhombic'
loop_
_space_group_symop_operation_xyz
x,y,z
1/2-x,-y,1/2+z
x,-y,-z
1/2-x,y,1/2-z
-x,-y,-z
1/2+x,y,1/2-z
-x,y,z
1/2+x,-y,1/2+z
loop_
_atom_site_type_symbol
_atom_site_label
_atom_site_fract_x
_atom_site_fract_y
_atom_site_fract_z
Si Si1 0.193337 0.550691 0.200026
Si Si2 0.588475 0.752993 0.037029
Si Si3 0.741021 0.473799 0.911397
Si Si4 0.092942 0.068321 0.170255
Si Si5 0.838842 0.036345 0.057983
O O1 0.250000 0.562685 0.250000
O O2 0.247567 0.478243 0.149821
O O3 0.125959 0.324258 0.200396
O O4 0.148408 0.825230 0.188224
O O5 0.500000 0.811306 0.059454
O O6 0.655911 0.657968 0.076785
O O7 0.581614 0.500000 0.000000
O O8 0.610791 0.000000 0.000000
O O9 0.768070 0.741397 0.941314
O O10 0.803107 0.248830 0.928388
O O11 0.106033 0.110681 0.107519
O O12 0.000000 0.018875 0.179982
O O13 0.874132 0.000000 0.000000
#
# Coordination Sequence:
#
# PCOD9415212 Si02
#       5
#     8   8   8   8   8
#     4  10  21  38  59  79 104 142 184 224 269 318
#     4  10  19  30  46  69 100 134 165 207 261 309
#     4  10  19  32  51  74 102 136 179 219 255 313
#     4  10  21  37  57  83 112 140 176 222 271 321
#     4  10  19  31  52  79 106 141 175 208 256 317
#
# _framework density 18.463218999999999
#
# number of rings (size 3 to 8) (size 9 to 14) (size 15 to 20)
#    0.000    2.000    0.000    4.800    0.000    0.400 
#    0.000    2.000    0.000    9.600    0.000    0.000 
#    0.000    0.000    0.000    0.000    0.000    0.000 
#
# Total GULP energy -222947.988539 kJ/mol
# GULP energy per Si atom -5573.699713 kJ/mol
# Density = 1.842120 g / cm^3
# Si number density = 18.463219 Si / 1000 Ang^3
#
#
#
# Elastic Constant Matrix: (Units=GPa)
#
#
# Indices 1 2 3 4 5 6 
#
# 1 77.5470 -3.9020 38.4147 0.0000 0.0000 0.0000
# 2 -3.9020 97.3824 16.4191 0.0000 0.0000 0.0000
# 3 38.4147 16.4191 86.7730 0.0000 0.0000 0.0000
# 4 0.0000 0.0000 0.0000 17.5341 0.0000 0.0000
# 5 0.0000 0.0000 0.0000 0.0000 17.2665 0.0000
# 6 0.0000 0.0000 0.0000 0.0000 0.0000 18.9732
#
#
#
# Elastic Compliance Matrix: (Units=1/GPa)
#
#
# Indices 1 2 3 4 5 6 
#
# 1 0.016887 0.002001 -0.007855 0.000000 0.000000 0.000000
# 2 0.002001 0.010844 -0.002938 0.000000 0.000000 0.000000
# 3 -0.007855 -0.002938 0.015557 0.000000 0.000000 0.000000
# 4 0.000000 0.000000 0.000000 0.057032 0.000000 0.000000
# 5 0.000000 0.000000 0.000000 0.000000 0.057916 0.000000
# 6 0.000000 0.000000 0.000000 0.000000 0.000000 0.052706
#
#
# Mechanical properties :
#
#
# Convention : Reuss Voigt Hill
#
# Bulk Modulus (GPa) = 38.90143 40.39623 39.64883
# Shear Modulus (GPa) = 21.08873 24.80613 22.94743
#
# Velocity S-wave (km/s) = 3.38331 3.66941 3.52926
# Velocity P-wave (km/s) = 6.03141 6.31503 6.17485
#
# Compressibility (1/GPa) = 0.02570600
#
# Stress axis : x y z
#
# Youngs Moduli (GPa) = 59.21707 92.21436 64.27794
#
# Poissons Ratio (x) = -0.18452 0.50487
# Poissons Ratio (y) = -0.11849 0.18883
# Poissons Ratio (z) = 0.46512 0.27091
#
# Static dielectric constant tensor:
#      x y z
#    x 1.674860 0.000000 0.000000 
#    y 0.000000 1.643620 0.000000 
#    z 0.000000 0.000000 1.648610 
# 
# From -- ./inp_files/35145.got.cif
#   From: 2010.05.17/outbox.cif.g08.bks.cpg/sg53_18_cif.got.tgz:35145.got - 2010.06.03 12:45:16.
