data_PCOD9415617
_publ_section_title
;
Structure prediction by ZEFSAII (Michael W. Deem and Ramdas Pophale) SiO2 
 PCOD9415617
Probable space group: P M N A
;
_chemical_formula_sum "Si O2"
_cell_formula_units_Z 48
_cell_length_a 8.598211
_cell_length_b 32.709519
_cell_length_c 9.791333
_cell_angle_alpha 90.000000
_cell_angle_beta 90.000000
_cell_angle_gamma 90.000000
_cell_volume 2753.747255
_symmetry_space_group_name_H-M "P M N A"
_symmetry_group_IT_number 53
_symmetry_cell_setting 'orthorhombic'
loop_
_space_group_symop_operation_xyz
x,y,z
1/2-x,-y,1/2+z
x,-y,-z
1/2-x,y,1/2-z
-x,-y,-z
1/2+x,y,1/2-z
-x,y,z
1/2+x,-y,1/2+z
loop_
_atom_site_type_symbol
_atom_site_label
_atom_site_fract_x
_atom_site_fract_y
_atom_site_fract_z
Si Si1 0.686372 0.462351 0.595570
Si Si2 0.687718 0.036237 0.402189
Si Si3 0.812627 0.711324 0.404854
Si Si4 0.686942 0.376937 0.905699
Si Si5 0.813526 0.871608 0.902999
Si Si6 0.313175 0.199146 0.904504
O O1 0.734857 0.500000 0.500000
O O2 0.750000 0.466954 0.750000
O O3 0.500000 0.461252 0.602695
O O4 0.745431 0.418950 0.536365
O O5 0.750000 0.030123 0.250000
O O6 0.500000 0.035100 0.398831
O O7 0.733209 0.082210 0.446556
O O8 0.743154 0.000000 0.500000
O O9 0.750000 0.711284 0.250000
O O10 0.765939 0.667337 0.467298
O O11 0.765294 0.755712 0.461274
O O12 0.000000 0.711016 0.400311
O O13 0.750000 0.376171 0.750000
O O14 0.500000 0.379622 0.903752
O O15 0.750000 0.865464 0.750000
O O16 0.000000 0.869724 0.900273
O O17 0.749748 0.837206 0.003129
O O18 0.250000 0.195658 0.750000
O O19 0.500000 0.197539 0.900594
#
# Coordination Sequence:
#
# PCOD9415617 Si02
#       6
#     8   8   8   8   8   8
#     4  10  20  32  47  69  95 123 157 194 234 282
#     4   9  19  35  53  74  99 127 161 200 241 287
#     4   8  15  26  42  66  94 122 153 192 235 279
#     4   9  15  25  43  66  91 120 154 191 233 279
#     4  10  20  35  53  73  99 132 168 202 241 290
#     4  10  19  32  50  74 103 131 162 201 244 287
#
# _framework density 17.430793999999999
#
# number of rings (size 3 to 8) (size 9 to 14) (size 15 to 20)
#    0.000    2.667    0.000    3.000    0.000    4.333 
#    0.000    1.667    0.000    1.000    0.000    2.333 
#    0.000    0.000    0.000    0.000    0.000    0.000 
#
# Total GULP energy -267271.644608 kJ/mol
# GULP energy per Si atom -5568.159263 kJ/mol
# Density = 1.739112 g / cm^3
# Si number density = 17.430794 Si / 1000 Ang^3
#
#
#
# Elastic Constant Matrix: (Units=GPa)
#
#
# Indices 1 2 3 4 5 6 
#
# 1 36.7989 45.9012 18.3457 0.0000 0.0000 0.0000
# 2 45.9012 231.1943 79.5289 0.0000 0.0000 0.0000
# 3 18.3457 79.5289 43.7091 0.0000 0.0000 0.0000
# 4 0.0000 0.0000 0.0000 26.0056 0.0000 0.0000
# 5 0.0000 0.0000 0.0000 0.0000 20.5749 0.0000
# 6 0.0000 0.0000 0.0000 0.0000 0.0000 28.0473
#
#
#
# Elastic Compliance Matrix: (Units=1/GPa)
#
#
# Indices 1 2 3 4 5 6 
#
# 1 0.036649 -0.005306 -0.005729 0.000000 0.000000 0.000000
# 2 -0.005306 0.012330 -0.020208 0.000000 0.000000 0.000000
# 3 -0.005729 -0.020208 0.062051 0.000000 0.000000 0.000000
# 4 0.000000 0.000000 0.000000 0.038453 0.000000 0.000000
# 5 0.000000 0.000000 0.000000 0.000000 0.048603 0.000000
# 6 0.000000 0.000000 0.000000 0.000000 0.000000 0.035654
#
#
# Mechanical properties :
#
#
# Convention : Reuss Voigt Hill
#
# Bulk Modulus (GPa) = 20.59913 66.58376 43.59144
# Shear Modulus (GPa) = 16.00482 26.12064 21.06273
#
# Velocity S-wave (km/s) = 3.03346 3.87529 3.47992
# Velocity P-wave (km/s) = 4.91044 7.63582 6.41943
#
# Compressibility (1/GPa) = 0.04854575
#
# Stress axis : x y z
#
# Youngs Moduli (GPa) = 27.28612 81.10298 16.11577
#
# Poissons Ratio (x) = 0.43030 0.09232
# Poissons Ratio (y) = 0.14477 0.32566
# Poissons Ratio (z) = 0.15632 1.63890
#
# Static dielectric constant tensor:
#      x y z
#    x 1.592170 0.000000 0.000000 
#    y 0.000000 1.665750 0.000000 
#    z 0.000000 0.000000 1.546950 
# 
# From -- ./inp_files/6686.got.cif
#   From: 2010.05.17/outbox.cif.g08.bks.cpg/sg53_4_cif.got.tgz:6686.got - 2010.06.03 12:45:16.
