data_PCOD9415484
_publ_section_title
;
Structure prediction by ZEFSAII (Michael W. Deem and Ramdas Pophale) SiO2 
 PCOD9415484
Probable space group: P M N A
;
_chemical_formula_sum "Si O2"
_cell_formula_units_Z 48
_cell_length_a 8.705389
_cell_length_b 13.614219
_cell_length_c 18.112392
_cell_angle_alpha 90.000000
_cell_angle_beta 90.000000
_cell_angle_gamma 90.000000
_cell_volume 2146.627673
_symmetry_space_group_name_H-M "P M N A"
_symmetry_group_IT_number 53
_symmetry_cell_setting 'orthorhombic'
loop_
_space_group_symop_operation_xyz
x,y,z
1/2-x,-y,1/2+z
x,-y,-z
1/2-x,y,1/2-z
-x,-y,-z
1/2+x,y,1/2-z
-x,y,z
1/2+x,-y,1/2+z
loop_
_atom_site_type_symbol
_atom_site_label
_atom_site_fract_x
_atom_site_fract_y
_atom_site_fract_z
Si Si1 0.173974 0.887030 0.472460
Si Si2 0.681471 0.051649 0.674618
Si Si3 0.687278 0.159043 0.130955
Si Si4 0.678893 0.629658 0.858794
Si Si5 0.317232 0.418647 0.673287
Si Si6 0.825712 0.383016 0.988942
O O1 0.242086 0.838044 0.545416
O O2 0.000000 0.852515 0.458617
O O3 0.163878 0.000000 0.500000
O O4 0.268543 0.888036 0.397610
O O5 0.750000 0.093359 0.750000
O O6 0.500000 0.046078 0.679357
O O7 0.748244 0.940856 0.664973
O O8 0.500000 0.152611 0.129810
O O9 0.730378 0.262391 0.167722
O O10 0.500000 0.615375 0.841467
O O11 0.769476 0.533838 0.832770
O O12 0.704694 0.638567 0.946991
O O13 0.250000 0.379376 0.750000
O O14 0.500000 0.412888 0.675486
O O15 0.270383 0.368472 0.595383
O O16 0.000000 0.341791 0.999144
O O17 0.844106 0.500000 0.000000
#
# Coordination Sequence:
#
# PCOD9415484 Si02
#       6
#     8   8   8   8   8   8
#     4   8  15  31  51  68  92 124 157 194 233 275
#     4  11  21  32  49  72  97 126 160 196 235 280
#     4   9  19  34  50  71  99 128 156 191 236 282
#     4  10  19  31  50  74  98 126 159 192 232 284
#     4  10  20  33  49  70  97 128 160 197 239 281
#     4   8  16  31  48  67  93 124 159 197 235 275
#
# _framework density 22.360654
#
# number of rings (size 3 to 8) (size 9 to 14) (size 15 to 20)
#    0.000    2.667    0.000    4.500    0.000    8.667 
#    0.000    0.000    0.000    1.000    0.000    2.333 
#    0.000    0.000    0.000    0.000    0.000    0.000 
#
# Total GULP energy -267760.708780 kJ/mol
# GULP energy per Si atom -5578.348100 kJ/mol
# Density = 2.230976 g / cm^3
# Si number density = 22.360654 Si / 1000 Ang^3
#
#
#
# Elastic Constant Matrix: (Units=GPa)
#
#
# Indices 1 2 3 4 5 6 
#
# 1 43.7937 -5.4909 27.7645 0.0000 0.0000 0.0000
# 2 -5.4909 28.1166 -13.8137 0.0000 0.0000 0.0000
# 3 27.7645 -13.8137 159.4466 0.0000 0.0000 0.0000
# 4 0.0000 0.0000 0.0000 -2.3272 0.0000 0.0000
# 5 0.0000 0.0000 0.0000 0.0000 33.3356 0.0000
# 6 0.0000 0.0000 0.0000 0.0000 0.0000 16.0515
#
#
#
# Elastic Compliance Matrix: (Units=1/GPa)
#
#
# Indices 1 2 3 4 5 6 
#
# 1 0.025903 0.002969 -0.004253 0.000000 0.000000 0.000000
# 2 0.002969 0.037488 0.002731 0.000000 0.000000 0.000000
# 3 -0.004253 0.002731 0.007249 0.000000 0.000000 0.000000
# 4 0.000000 0.000000 0.000000 -0.429710 0.000000 0.000000
# 5 0.000000 0.000000 0.000000 0.000000 0.029998 0.000000
# 6 0.000000 0.000000 0.000000 0.000000 0.000000 0.062299
#
#
# Mechanical properties :
#
#
# Convention : Reuss Voigt Hill
#
# Bulk Modulus (GPa) = 13.59944 27.58630 20.59287
# Shear Modulus (GPa) = -20.39525 24.27181 1.93828
#
# Velocity S-wave (km/s) = -3.02338 3.29822 0.93205
# Velocity P-wave (km/s) = 2.46834 5.18345 3.22299
#
# Compressibility (1/GPa) = 0.07353244
#
# Stress axis : x y z
#
# Youngs Moduli (GPa) = 38.60537 26.67552 137.95195
#
# Poissons Ratio (x) = -0.07920 0.58675
# Poissons Ratio (y) = -0.11462 -0.37671
# Poissons Ratio (z) = 0.16420 -0.07284
#
# Static dielectric constant tensor:
#      x y z
#    x 1.761570 0.000000 0.000000 
#    y 0.000000 1.897390 0.000000 
#    z 0.000000 0.000000 1.869850 
# 
# From -- ./inp_files/26415.got.cif
#   From: 2010.05.17/outbox.cif.g08.bks.cpg/sg53_14_cif.got.tgz:26415.got - 2010.06.03 12:45:16.
