data_PCOD9415429
_publ_section_title
;
Structure prediction by ZEFSAII (Michael W. Deem and Ramdas Pophale) SiO2 
 PCOD9415429
Probable space group: P M N A
;
_chemical_formula_sum "Si O2"
_cell_formula_units_Z 48
_cell_length_a 9.048930
_cell_length_b 18.838089
_cell_length_c 16.510212
_cell_angle_alpha 90.000000
_cell_angle_beta 90.000000
_cell_angle_gamma 90.000000
_cell_volume 2814.405837
_symmetry_space_group_name_H-M "P M N A"
_symmetry_group_IT_number 53
_symmetry_cell_setting 'orthorhombic'
loop_
_space_group_symop_operation_xyz
x,y,z
1/2-x,-y,1/2+z
x,-y,-z
1/2-x,y,1/2-z
-x,-y,-z
1/2+x,y,1/2-z
-x,y,z
1/2+x,-y,1/2+z
loop_
_atom_site_type_symbol
_atom_site_label
_atom_site_fract_x
_atom_site_fract_y
_atom_site_fract_z
Si Si1 0.831659 0.789625 0.587144
Si Si2 0.176751 0.163995 0.834938
Si Si3 0.677333 0.417265 0.497854
Si Si4 0.677667 0.082202 0.983782
Si Si5 0.669630 0.293559 0.914765
Si Si6 0.674859 0.335546 0.332605
O O1 0.784830 0.868574 0.561434
O O2 0.831924 0.747997 0.501038
O O3 0.730053 0.743633 0.645393
O O4 0.000000 0.790201 0.618048
O O5 0.250000 0.143062 0.750000
O O6 0.236751 0.113299 0.906592
O O7 0.234492 0.243193 0.857106
O O8 0.000000 0.162441 0.831161
O O9 0.716079 0.500000 0.500000
O O10 0.500000 0.663802 0.676541
O O11 0.759147 0.369342 0.564604
O O12 0.713982 0.384594 0.409650
O O13 0.500000 0.091187 0.970582
O O14 0.707875 0.000000 0.000000
O O15 0.500000 0.298909 0.886778
O O16 0.750000 0.359606 0.250000
O O17 0.500000 0.410207 0.508877
#
# Coordination Sequence:
#
# PCOD9415429 Si02
#       6
#     8   8   8   8   8   8
#     4   8  15  29  49  71  95 124 159 197 237 287
#     4  11  21  34  53  76 103 134 172 215 258 304
#     4   9  18  33  52  74 101 134 169 206 252 305
#     4   9  18  34  55  78 105 135 166 204 252 304
#     4   9  17  31  51  74  98 127 165 205 248 298
#     4  10  19  31  49  71  96 127 164 206 249 293
#
# _framework density 17.055109999999999
#
# number of rings (size 3 to 8) (size 9 to 14) (size 15 to 20)
#    0.000    2.667    0.000    3.500    0.000    5.333 
#    0.000    1.667    0.000    2.000    0.000    0.000 
#    0.000    0.000    0.000    0.000    0.000    0.000 
#
# Total GULP energy -267532.284137 kJ/mol
# GULP energy per Si atom -5573.589253 kJ/mol
# Density = 1.701629 g / cm^3
# Si number density = 17.055110 Si / 1000 Ang^3
#
#
#
# Elastic Constant Matrix: (Units=GPa)
#
#
# Indices 1 2 3 4 5 6 
#
# 1 85.6577 49.0931 48.7919 0.0000 0.0000 0.0000
# 2 49.0931 132.9987 31.6484 0.0000 0.0000 0.0000
# 3 48.7919 31.6484 65.9961 0.0000 0.0000 0.0000
# 4 0.0000 0.0000 0.0000 13.4313 0.0000 0.0000
# 5 0.0000 0.0000 0.0000 0.0000 25.8534 0.0000
# 6 0.0000 0.0000 0.0000 0.0000 0.0000 23.6989
#
#
#
# Elastic Compliance Matrix: (Units=1/GPa)
#
#
# Indices 1 2 3 4 5 6 
#
# 1 0.022737 -0.004959 -0.014432 0.000000 0.000000 0.000000
# 2 -0.004959 0.009569 -0.000923 0.000000 0.000000 0.000000
# 3 -0.014432 -0.000923 0.026265 0.000000 0.000000 0.000000
# 4 0.000000 0.000000 0.000000 0.074453 0.000000 0.000000
# 5 0.000000 0.000000 0.000000 0.000000 0.038680 0.000000
# 6 0.000000 0.000000 0.000000 0.000000 0.000000 0.042196
#
#
# Mechanical properties :
#
#
# Convention : Reuss Voigt Hill
#
# Bulk Modulus (GPa) = 55.72916 60.41325 58.07121
# Shear Modulus (GPa) = 19.19338 22.93800 21.06569
#
# Velocity S-wave (km/s) = 3.35830 3.67131 3.51829
# Velocity P-wave (km/s) = 6.91263 7.31236 7.11530
#
# Compressibility (1/GPa) = 0.01794393
#
# Stress axis : x y z
#
# Youngs Moduli (GPa) = 43.98150 104.50668 38.07410
#
# Poissons Ratio (x) = 0.51820 0.54948
# Poissons Ratio (y) = 0.21808 0.03513
# Poissons Ratio (z) = 0.63473 0.09644
#
# Static dielectric constant tensor:
#      x y z
#    x 1.573560 0.000000 0.000000 
#    y 0.000000 1.581890 0.000000 
#    z 0.000000 0.000000 1.575880 
# 
# From -- ./inp_files/20123.got.cif
#   From: 2010.05.17/outbox.cif.g08.bks.cpg/sg53_11_cif.got.tgz:20123.got - 2010.06.03 12:45:16.
