data_PCOD9415081
_publ_section_title
;
Structure prediction by ZEFSAII (Michael W. Deem and Ramdas Pophale) SiO2 
 PCOD9415081
Probable space group: P M N A
;
_chemical_formula_sum "Si O2"
_cell_formula_units_Z 56
_cell_length_a 20.371364
_cell_length_b 12.859193
_cell_length_c 12.596337
_cell_angle_alpha 90.000000
_cell_angle_beta 90.000000
_cell_angle_gamma 90.000000
_cell_volume 3299.727640
_symmetry_space_group_name_H-M "P M N A"
_symmetry_group_IT_number 53
_symmetry_cell_setting 'orthorhombic'
loop_
_space_group_symop_operation_xyz
x,y,z
1/2-x,-y,1/2+z
x,-y,-z
1/2-x,y,1/2-z
-x,-y,-z
1/2+x,y,1/2-z
-x,y,z
1/2+x,-y,1/2+z
loop_
_atom_site_type_symbol
_atom_site_label
_atom_site_fract_x
_atom_site_fract_y
_atom_site_fract_z
Si Si1 0.079645 0.615293 0.870672
Si Si2 0.227178 0.141137 0.593023
Si Si3 0.424784 0.995740 0.383926
Si Si4 0.578896 0.620931 0.387242
Si Si5 0.576541 0.810754 0.764649
Si Si6 0.144515 0.191489 0.774177
Si Si7 0.791626 0.895259 0.643599
O O1 0.100312 0.495624 0.855145
O O2 0.098210 0.699114 0.781928
O O3 0.000000 0.617027 0.870928
O O4 0.100163 0.643692 0.991020
O O5 0.165731 0.194280 0.651904
O O6 0.290880 0.183988 0.652359
O O7 0.231719 0.154168 0.467277
O O8 0.217878 0.018983 0.623532
O O9 0.500000 0.960420 0.398306
O O10 0.392413 0.914923 0.304204
O O11 0.392234 0.000000 0.500000
O O12 0.424456 0.109731 0.334615
O O13 0.500000 0.620810 0.387821
O O14 0.604194 0.709371 0.310308
O O15 0.500000 0.806659 0.803741
O O16 0.632938 0.859246 0.839075
O O17 0.750000 0.869590 0.750000
#
# Coordination Sequence:
#
# PCOD9415081 Si02
#       7
#     8   8   8   8   8   8   8
#     4   8  16  31  51  82 112 138 176 221 271 326
#     4  10  23  35  51  74 105 146 184 216 260 332
#     4  10  19  27  44  79 110 130 164 218 276 322
#     4   9  17  30  54  81 109 142 176 219 277 327
#     4  10  19  33  53  78 107 137 177 227 265 310
#     4  11  19  34  52  75 106 143 175 221 267 320
#     4  11  21  38  55  76 107 147 184 213 272 330
#
# _framework density 16.971095999999999
#
# number of rings (size 3 to 8) (size 9 to 14) (size 15 to 20)
#    0.000    2.143    2.857    2.143    6.000    2.286 
#    0.000    2.857    3.143    0.857    0.000    3.000 
#    0.000    0.000    0.000    0.000    0.000    0.000 
#
# Total GULP energy -311924.454842 kJ/mol
# GULP energy per Si atom -5570.079551 kJ/mol
# Density = 1.693247 g / cm^3
# Si number density = 16.971096 Si / 1000 Ang^3
#
#
#
# Elastic Constant Matrix: (Units=GPa)
#
#
# Indices 1 2 3 4 5 6 
#
# 1 44.5355 6.8253 18.9261 0.0000 0.0000 0.0000
# 2 6.8253 57.4791 12.0935 0.0000 0.0000 0.0000
# 3 18.9261 12.0935 85.2346 0.0000 0.0000 0.0000
# 4 0.0000 0.0000 0.0000 16.3225 0.0000 0.0000
# 5 0.0000 0.0000 0.0000 0.0000 8.1444 0.0000
# 6 0.0000 0.0000 0.0000 0.0000 0.0000 -78.1016
#
#
#
# Elastic Compliance Matrix: (Units=1/GPa)
#
#
# Indices 1 2 3 4 5 6 
#
# 1 0.024984 -0.001855 -0.005284 0.000000 0.000000 0.000000
# 2 -0.001855 0.018071 -0.002152 0.000000 0.000000 0.000000
# 3 -0.005284 -0.002152 0.013211 0.000000 0.000000 0.000000
# 4 0.000000 0.000000 0.000000 0.061265 0.000000 0.000000
# 5 0.000000 0.000000 0.000000 0.000000 0.122784 0.000000
# 6 0.000000 0.000000 0.000000 0.000000 0.000000 -0.012804
#
#
# Mechanical properties :
#
#
# Convention : Reuss Voigt Hill
#
# Bulk Modulus (GPa) = 26.53722 29.21546 27.87634
# Shear Modulus (GPa) = 19.33077 -0.76667 9.28205
#
# Velocity S-wave (km/s) = 3.37863 -0.67286 2.34120
# Velocity P-wave (km/s) = 5.55795 4.08026 4.87542
#
# Compressibility (1/GPa) = 0.03768292
#
# Stress axis : x y z
#
# Youngs Moduli (GPa) = 40.02567 55.33824 75.69409
#
# Poissons Ratio (x) = 0.10264 0.40000
# Poissons Ratio (y) = 0.07424 0.16290
# Poissons Ratio (z) = 0.21151 0.11909
#
# Static dielectric constant tensor:
#      x y z
#    x 1.618730 0.000000 0.000000 
#    y 0.000000 1.567770 0.000000 
#    z 0.000000 0.000000 1.594490 
# 
# From -- ./inp_files/18438.got.cif
#   From: 2010.05.17/outbox.cif.g08.bks.cpg/sg53_10_cif.got.tgz:18438.got - 2010.06.03 12:45:16.
