data_PCOD9415134
_publ_section_title
;
Structure prediction by ZEFSAII (Michael W. Deem and Ramdas Pophale) SiO2 
 PCOD9415134
Probable space group: P M N A
;
_chemical_formula_sum "Si O2"
_cell_formula_units_Z 64
_cell_length_a 7.347105
_cell_length_b 20.971917
_cell_length_c 18.865767
_cell_angle_alpha 90.000000
_cell_angle_beta 90.000000
_cell_angle_gamma 90.000000
_cell_volume 2906.891642
_symmetry_space_group_name_H-M "P M N A"
_symmetry_group_IT_number 53
_symmetry_cell_setting 'orthorhombic'
loop_
_space_group_symop_operation_xyz
x,y,z
1/2-x,-y,1/2+z
x,-y,-z
1/2-x,y,1/2-z
-x,-y,-z
1/2+x,y,1/2-z
-x,y,z
1/2+x,-y,1/2+z
loop_
_atom_site_type_symbol
_atom_site_label
_atom_site_fract_x
_atom_site_fract_y
_atom_site_fract_z
Si Si1 0.222506 0.793615 0.575758
Si Si2 0.221996 0.030259 0.575891
Si Si3 0.721791 0.175978 0.916502
Si Si4 0.221363 0.443316 0.409451
Si Si5 0.282752 0.297355 0.832906
Si Si6 0.221772 0.414278 0.569983
Si Si7 0.783271 0.086079 0.332771
Si Si8 0.716793 0.676927 0.830871
O O1 0.274918 0.798808 0.494191
O O2 0.284368 0.855226 0.619962
O O3 0.285872 0.730342 0.615411
O O4 0.000000 0.793471 0.576650
O O5 0.283004 0.102644 0.588726
O O6 0.000000 0.032234 0.574814
O O7 0.275612 0.000000 0.500000
O O8 0.282732 0.981109 0.636336
O O9 0.500000 0.174061 0.914221
O O10 0.783480 0.227947 0.859080
O O11 0.273313 0.415964 0.486973
O O12 0.280336 0.516364 0.401136
O O13 0.284596 0.393277 0.350943
O O14 0.000000 0.445648 0.409202
O O15 0.250000 0.308519 0.750000
O O16 0.500000 0.296515 0.842749
O O17 0.214529 0.354661 0.883382
O O18 0.000000 0.412734 0.570941
O O19 0.750000 0.094836 0.250000
O O20 0.000000 0.085622 0.342787
O O21 0.750000 0.694618 0.750000
O O22 0.500000 0.675236 0.840556
#
# Coordination Sequence:
#
# PCOD9415134 Si02
#       8
#     8   8   8   8   8   8   8   8
#     4   9  16  28  47  69  90 115 154 196 225 258
#     4   9  15  27  47  71  93 115 152 198 233 262
#     4   9  16  28  49  72  90 115 157 201 229 259
#     4   8  14  26  46  69  90 114 154 199 232 262
#     4  10  20  32  48  71  98 125 155 192 237 283
#     4   8  14  27  47  69  90 116 153 198 234 264
#     4  10  19  30  47  71  96 121 148 185 232 278
#     4  10  19  29  43  66  94 121 147 181 225 271
#
# _framework density 22.016646000000001
#
# number of rings (size 3 to 8) (size 9 to 14) (size 15 to 20)
#    0.000    2.875    1.250    1.875    0.000    4.000 
#    0.000    0.000    0.000    4.125    0.000    1.750 
#    0.000    0.000    0.000    0.000    0.000    0.000 
#
# Total GULP energy -357371.900581 kJ/mol
# GULP energy per Si atom -5583.935947 kJ/mol
# Density = 2.196654 g / cm^3
# Si number density = 22.016646 Si / 1000 Ang^3
#
#
#
# Elastic Constant Matrix: (Units=GPa)
#
#
# Indices 1 2 3 4 5 6 
#
# 1 81.5566 7.4544 -5.3821 0.0000 0.0000 0.0000
# 2 7.4544 130.1203 26.8591 0.0000 0.0000 0.0000
# 3 -5.3821 26.8591 54.5569 0.0000 0.0000 0.0000
# 4 0.0000 0.0000 0.0000 24.8679 0.0000 0.0000
# 5 0.0000 0.0000 0.0000 0.0000 13.0965 0.0000
# 6 0.0000 0.0000 0.0000 0.0000 0.0000 -16.5896
#
#
#
# Elastic Compliance Matrix: (Units=1/GPa)
#
#
# Indices 1 2 3 4 5 6 
#
# 1 0.012476 -0.001078 0.001762 0.000000 0.000000 0.000000
# 2 -0.001078 0.008648 -0.004364 0.000000 0.000000 0.000000
# 3 0.001762 -0.004364 0.020652 0.000000 0.000000 0.000000
# 4 0.000000 0.000000 0.000000 0.040212 0.000000 0.000000
# 5 0.000000 0.000000 0.000000 0.000000 0.076356 0.000000
# 6 0.000000 0.000000 0.000000 0.000000 0.000000 -0.060279
#
#
# Mechanical properties :
#
#
# Convention : Reuss Voigt Hill
#
# Bulk Modulus (GPa) = 29.05740 36.01075 32.53407
# Shear Modulus (GPa) = 42.77238 20.09514 31.43376
#
# Velocity S-wave (km/s) = 4.41242 3.02441 3.78263
# Velocity P-wave (km/s) = 6.25986 5.34675 5.82124
#
# Compressibility (1/GPa) = 0.03441464
#
# Stress axis : x y z
#
# Youngs Moduli (GPa) = 80.15232 115.63723 48.42237
#
# Poissons Ratio (x) = 0.12470 -0.08531
# Poissons Ratio (y) = 0.08644 0.21130
# Poissons Ratio (z) = -0.14120 0.50462
#
# Static dielectric constant tensor:
#      x y z
#    x 1.903980 0.000000 0.000000 
#    y 0.000000 1.800640 0.000000 
#    z 0.000000 0.000000 1.758530 
# 
# From -- ./inp_files/26809.got.cif
#   From: 2010.05.17/outbox.cif.g08.bks.cpg/sg53_14_cif.got.tgz:26809.got - 2010.06.03 12:45:16.
