data_PCOD9415782
_publ_section_title
;
Structure prediction by ZEFSAII (Michael W. Deem and Ramdas Pophale) SiO2 
 PCOD9415782
Probable space group: P M N A
;
_chemical_formula_sum "Si O2"
_cell_formula_units_Z 64
_cell_length_a 9.653600
_cell_length_b 17.403258
_cell_length_c 19.611806
_cell_angle_alpha 90.000000
_cell_angle_beta 90.000000
_cell_angle_gamma 90.000000
_cell_volume 3294.863648
_symmetry_space_group_name_H-M "P M N A"
_symmetry_group_IT_number 53
_symmetry_cell_setting 'orthorhombic'
loop_
_space_group_symop_operation_xyz
x,y,z
1/2-x,-y,1/2+z
x,-y,-z
1/2-x,y,1/2-z
-x,-y,-z
1/2+x,y,1/2-z
-x,y,z
1/2+x,-y,1/2+z
loop_
_atom_site_type_symbol
_atom_site_label
_atom_site_fract_x
_atom_site_fract_y
_atom_site_fract_z
Si Si1 0.161805 0.880499 0.815192
Si Si2 0.161512 0.086403 0.028158
Si Si3 0.845367 0.292960 0.142598
Si Si4 0.158866 0.807742 0.427654
Si Si5 0.846190 0.341955 0.478282
Si Si6 0.656959 0.538372 0.689705
Si Si7 0.335539 0.721382 0.319823
Si Si8 0.160317 0.425632 0.921236
O O1 0.250000 0.907237 0.750000
O O2 0.201664 0.909065 0.891504
O O3 0.173236 0.787622 0.820035
O O4 0.000000 0.899941 0.805176
O O5 0.000000 0.113904 0.024244
O O6 0.261457 0.136070 0.979899
O O7 0.164822 0.000000 0.000000
O O8 0.841851 0.369563 0.187707
O O9 0.000000 0.290758 0.110564
O O10 0.730502 0.306208 0.086191
O O11 0.145682 0.727405 0.467686
O O12 0.256768 0.787949 0.363148
O O13 0.000000 0.832616 0.411074
O O14 0.754677 0.405386 0.515381
O O15 0.000000 0.368679 0.460948
O O16 0.750000 0.508856 0.750000
O O17 0.500000 0.512125 0.699880
O O18 0.702275 0.502622 0.618290
O O19 0.250000 0.710837 0.250000
O O20 0.500000 0.737623 0.308773
O O21 0.329481 0.643754 0.365782
O O22 0.000000 0.430601 0.942588
#
# Coordination Sequence:
#
# PCOD9415782 Si02
#       8
#     8   8   8   8   8   8   8   8
#     4  10  21  37  60  88 117 151 189 231 280 335
#     4  10  21  39  63  89 117 152 190 227 277 342
#     4  10  20  35  55  78 108 145 186 230 283 342
#     4  10  20  35  56  83 113 145 186 233 281 335
#     4  10  20  33  53  80 106 139 184 233 281 332
#     4  10  21  35  51  73 102 141 186 234 288 345
#     4  10  19  32  53  79 109 147 191 239 288 340
#     4   9  19  34  51  72 104 146 187 232 289 344
#
# _framework density 19.424171999999999
#
# number of rings (size 3 to 8) (size 9 to 14) (size 15 to 20)
#    0.000    2.125    1.250    1.875    0.000    4.250 
#    0.000    3.125    0.000    1.500    0.000    0.000 
#    0.000    0.000    0.000    0.000    0.000    0.000 
#
# Total GULP energy -357045.569793 kJ/mol
# GULP energy per Si atom -5578.837028 kJ/mol
# Density = 1.937996 g / cm^3
# Si number density = 19.424172 Si / 1000 Ang^3
#
#
#
# Elastic Constant Matrix: (Units=GPa)
#
#
# Indices 1 2 3 4 5 6 
#
# 1 116.6053 20.7560 73.5778 0.0000 0.0000 0.0000
# 2 20.7560 54.5969 22.0403 0.0000 0.0000 0.0000
# 3 73.5778 22.0403 99.1463 0.0000 0.0000 0.0000
# 4 0.0000 0.0000 0.0000 6.7371 0.0000 0.0000
# 5 0.0000 0.0000 0.0000 0.0000 31.1777 0.0000
# 6 0.0000 0.0000 0.0000 0.0000 0.0000 24.1940
#
#
#
# Elastic Compliance Matrix: (Units=1/GPa)
#
#
# Indices 1 2 3 4 5 6 
#
# 1 0.016230 -0.001437 -0.011725 0.000000 0.000000 0.000000
# 2 -0.001437 0.020249 -0.003435 0.000000 0.000000 0.000000
# 3 -0.011725 -0.003435 0.019551 0.000000 0.000000 0.000000
# 4 0.000000 0.000000 0.000000 0.148432 0.000000 0.000000
# 5 0.000000 0.000000 0.000000 0.000000 0.032074 0.000000
# 6 0.000000 0.000000 0.000000 0.000000 0.000000 0.041333
#
#
# Mechanical properties :
#
#
# Convention : Reuss Voigt Hill
#
# Bulk Modulus (GPa) = 43.79029 55.89963 49.84496
# Shear Modulus (GPa) = 15.68989 22.68671 19.18830
#
# Velocity S-wave (km/s) = 2.84518 3.42125 3.14643
# Velocity P-wave (km/s) = 5.77811 6.66690 6.23835
#
# Compressibility (1/GPa) = 0.02283611
#
# Stress axis : x y z
#
# Youngs Moduli (GPa) = 61.61276 49.38510 51.14747
#
# Poissons Ratio (x) = 0.07096 0.59972
# Poissons Ratio (y) = 0.08853 0.17570
# Poissons Ratio (z) = 0.72243 0.16964
#
# Static dielectric constant tensor:
#      x y z
#    x 1.690480 0.000000 0.000000 
#    y 0.000000 1.686860 0.000000 
#    z 0.000000 0.000000 1.676110 
# 
# From -- ./inp_files/31248.got.cif
#   From: 2010.05.17/outbox.cif.g08.bks.cpg/sg53_16_cif.got.tgz:31248.got - 2010.06.03 12:45:16.
