data_PCOD9415152
_publ_section_title
;
Structure prediction by ZEFSAII (Michael W. Deem and Ramdas Pophale) SiO2 
 PCOD9415152
Probable space group: P M N A
;
_chemical_formula_sum "Si O2"
_cell_formula_units_Z 64
_cell_length_a 9.489236
_cell_length_b 20.791313
_cell_length_c 20.549850
_cell_angle_alpha 90.000000
_cell_angle_beta 90.000000
_cell_angle_gamma 90.000000
_cell_volume 4054.355444
_symmetry_space_group_name_H-M "P M N A"
_symmetry_group_IT_number 53
_symmetry_cell_setting 'orthorhombic'
loop_
_space_group_symop_operation_xyz
x,y,z
1/2-x,-y,1/2+z
x,-y,-z
1/2-x,y,1/2-z
-x,-y,-z
1/2+x,y,1/2-z
-x,y,z
1/2+x,-y,1/2+z
loop_
_atom_site_type_symbol
_atom_site_label
_atom_site_fract_x
_atom_site_fract_y
_atom_site_fract_z
Si Si1 0.166261 0.947379 0.554871
Si Si2 0.836249 0.174186 0.009023
Si Si3 0.662752 0.153014 0.647406
Si Si4 0.155278 0.729696 0.336596
Si Si5 0.167118 0.026494 0.686870
Si Si6 0.664764 0.579904 0.188349
Si Si7 0.339203 0.296689 0.991702
Si Si8 0.328078 0.437764 0.959296
O O1 0.256203 0.883624 0.544423
O O2 0.000000 0.932776 0.545676
O O3 0.205424 0.000000 0.500000
O O4 0.185456 0.980095 0.624899
O O5 0.000000 0.176839 0.026775
O O6 0.828881 0.159665 0.931175
O O7 0.759521 0.242118 0.021412
O O8 0.500000 0.141958 0.665118
O O9 0.722714 0.219429 0.676530
O O10 0.761895 0.094803 0.669265
O O11 0.173296 0.657788 0.310663
O O12 0.152974 0.719915 0.414778
O O13 0.000000 0.754285 0.317177
O O14 0.250000 0.001873 0.750000
O O15 0.000000 0.033721 0.698696
O O16 0.750000 0.554436 0.250000
O O17 0.500000 0.562812 0.193555
O O18 0.716906 0.559981 0.116353
O O19 0.500000 0.293648 0.017068
O O20 0.285481 0.370198 0.992408
O O21 0.500000 0.435330 0.957621
O O22 0.285048 0.500000 0.000000
#
# Coordination Sequence:
#
# PCOD9415152 Si02
#       8
#     8   8   8   8   8   8   8   8
#     4  10  20  35  54  73  92 121 161 200 240 286
#     4  10  19  29  47  73  99 124 154 199 242 279
#     4  10  19  30  45  67  93 123 158 193 232 274
#     4   8  15  27  41  58  85 122 159 190 224 265
#     4  11  23  37  51  67  92 123 155 196 243 292
#     4   9  17  28  43  64  90 122 157 193 230 271
#     4   8  14  26  45  67  92 121 155 195 235 278
#     4   8  14  27  48  72  95 123 161 200 234 273
#
# _framework density 15.785493000000001
#
# number of rings (size 3 to 8) (size 9 to 14) (size 15 to 20)
#    0.000    2.750    1.250    2.625    0.000    3.250 
#    0.000    3.125    0.000    1.500    0.000    0.875 
#    0.000    2.000    0.000    0.000    0.000    0.000 
#
# Total GULP energy -356670.324071 kJ/mol
# GULP energy per Si atom -5572.973814 kJ/mol
# Density = 1.574956 g / cm^3
# Si number density = 15.785493 Si / 1000 Ang^3
#
#
#
# Elastic Constant Matrix: (Units=GPa)
#
#
# Indices 1 2 3 4 5 6 
#
# 1 84.2918 59.4612 43.5445 0.0000 0.0000 0.0000
# 2 59.4612 105.0019 41.3446 0.0000 0.0000 0.0000
# 3 43.5445 41.3446 60.8791 0.0000 0.0000 0.0000
# 4 0.0000 0.0000 0.0000 11.6268 0.0000 0.0000
# 5 0.0000 0.0000 0.0000 0.0000 20.8787 0.0000
# 6 0.0000 0.0000 0.0000 0.0000 0.0000 9.3585
#
#
#
# Elastic Compliance Matrix: (Units=1/GPa)
#
#
# Indices 1 2 3 4 5 6 
#
# 1 0.024077 -0.009355 -0.010868 0.000000 0.000000 0.000000
# 2 -0.009355 0.016635 -0.004606 0.000000 0.000000 0.000000
# 3 -0.010868 -0.004606 0.027327 0.000000 0.000000 0.000000
# 4 0.000000 0.000000 0.000000 0.086008 0.000000 0.000000
# 5 0.000000 0.000000 0.000000 0.000000 0.047896 0.000000
# 6 0.000000 0.000000 0.000000 0.000000 0.000000 0.106855
#
#
# Mechanical properties :
#
#
# Convention : Reuss Voigt Hill
#
# Bulk Modulus (GPa) = 54.40306 59.87482 57.13894
# Shear Modulus (GPa) = 13.71426 15.42764 14.57095
#
# Velocity S-wave (km/s) = 2.95072 3.12962 3.04149
# Velocity P-wave (km/s) = 6.79322 7.14647 6.97208
#
# Compressibility (1/GPa) = 0.01838132
#
# Stress axis : x y z
#
# Youngs Moduli (GPa) = 41.53260 60.11428 36.59326
#
# Poissons Ratio (x) = 0.56239 0.39770
# Poissons Ratio (y) = 0.38855 0.16854
# Poissons Ratio (z) = 0.45138 0.27687
#
# Static dielectric constant tensor:
#      x y z
#    x 1.536040 0.000000 0.000000 
#    y 0.000000 1.515570 0.000000 
#    z 0.000000 0.000000 1.540860 
# 
# From -- ./inp_files/31392.got.cif
#   From: 2010.05.17/outbox.cif.g08.bks.cpg/sg53_16_cif.got.tgz:31392.got - 2010.06.03 12:45:16.
