data_PCOD9415062
_publ_section_title
;
Structure prediction by ZEFSAII (Michael W. Deem and Ramdas Pophale) SiO2 
 PCOD9415062
Probable space group: P M N A
;
_chemical_formula_sum "Si O2"
_cell_formula_units_Z 48
_cell_length_a 16.153925
_cell_length_b 18.975374
_cell_length_c 8.404500
_cell_angle_alpha 90.000000
_cell_angle_beta 90.000000
_cell_angle_gamma 90.000000
_cell_volume 2576.204225
_symmetry_space_group_name_H-M "P M N A"
_symmetry_group_IT_number 53
_symmetry_cell_setting 'orthorhombic'
loop_
_space_group_symop_operation_xyz
x,y,z
1/2-x,-y,1/2+z
x,-y,-z
1/2-x,y,1/2-z
-x,-y,-z
1/2+x,y,1/2-z
-x,y,z
1/2+x,-y,1/2+z
loop_
_atom_site_type_symbol
_atom_site_label
_atom_site_fract_x
_atom_site_fract_y
_atom_site_fract_z
Si Si1 0.159586 0.214649 0.671227
Si Si2 0.500000 0.575618 0.912712
Si Si3 0.165430 0.055449 0.644161
Si Si4 0.165658 0.628755 0.432672
Si Si5 0.000000 0.948146 0.145762
Si Si6 0.157915 0.578141 0.068549
Si Si7 0.000000 0.350705 0.073884
Si Si8 0.500000 0.213119 0.598506
O O1 0.250000 0.213410 0.750000
O O2 0.153424 0.137568 0.590626
O O3 0.161749 0.286896 0.574788
O O4 0.082800 0.223915 0.793862
O O5 0.500000 0.599717 0.729467
O O6 0.500000 0.500000 0.000000
O O7 0.414091 0.606740 0.972579
O O8 0.250000 0.051030 0.750000
O O9 0.083180 0.041935 0.749685
O O10 0.170256 0.000000 0.500000
O O11 0.160579 0.590335 0.259313
O O12 0.254112 0.604510 0.498280
O O13 0.000000 0.870026 0.069891
O O14 0.000000 0.000000 0.000000
O O15 0.144317 0.500000 0.000000
O O16 0.082443 0.625962 0.015551
O O17 0.000000 0.265382 0.053351
#
# Coordination Sequence:
#
# PCOD9415062 Si02
#       8
#     8   4   8   8   4   8   4   4
#     4  10  18  37  63  87 113 154 205 246 287 362
#     4  12  26  39  55  83 123 155 190 257 315 357
#     4  10  21  37  63  92 124 160 203 249 303 366
#     4  11  21  40  61  84 114 154 202 242 304 358
#     4  10  21  38  60  89 127 160 200 250 304 367
#     4  11  22  37  63  85 109 151 200 249 291 363
#     4  12  22  39  57  85 120 150 202 243 304 357
#     4  10  19  36  61  87 114 156 200 246 290 358
#
# _framework density 18.632062000000001
#
# number of rings (size 3 to 8) (size 9 to 14) (size 15 to 20)
#    0.000    1.333    3.333    3.500    0.000    2.000 
#    3.000    0.000    0.000    0.000    0.000    0.000 
#    0.000    0.000    0.000    0.000    0.000    0.000 
#
# Total GULP energy -267349.393961 kJ/mol
# GULP energy per Si atom -5569.779041 kJ/mol
# Density = 1.858966 g / cm^3
# Si number density = 18.632062 Si / 1000 Ang^3
#
#
#
# Elastic Constant Matrix: (Units=GPa)
#
#
# Indices 1 2 3 4 5 6 
#
# 1 145.2014 22.7152 26.4275 0.0000 0.0000 0.0000
# 2 22.7152 152.8546 42.2731 0.0000 0.0000 0.0000
# 3 26.4275 42.2731 47.4553 0.0000 0.0000 0.0000
# 4 0.0000 0.0000 0.0000 26.0359 0.0000 0.0000
# 5 0.0000 0.0000 0.0000 0.0000 29.3445 0.0000
# 6 0.0000 0.0000 0.0000 0.0000 0.0000 32.5802
#
#
#
# Elastic Compliance Matrix: (Units=1/GPa)
#
#
# Indices 1 2 3 4 5 6 
#
# 1 0.007664 0.000055 -0.004317 0.000000 0.000000 0.000000
# 2 0.000055 0.008681 -0.007764 0.000000 0.000000 0.000000
# 3 -0.004317 -0.007764 0.030393 0.000000 0.000000 0.000000
# 4 0.000000 0.000000 0.000000 0.038409 0.000000 0.000000
# 5 0.000000 0.000000 0.000000 0.000000 0.034078 0.000000
# 6 0.000000 0.000000 0.000000 0.000000 0.000000 0.030694
#
#
# Mechanical properties :
#
#
# Convention : Reuss Voigt Hill
#
# Bulk Modulus (GPa) = 44.07985 58.70475 51.39230
# Shear Modulus (GPa) = 27.54345 34.53182 31.03764
#
# Velocity S-wave (km/s) = 3.84902 4.30973 4.08587
# Velocity P-wave (km/s) = 6.59262 7.50605 7.06412
#
# Compressibility (1/GPa) = 0.02268610
#
# Stress axis : x y z
#
# Youngs Moduli (GPa) = 130.47817 115.19261 32.90285
#
# Poissons Ratio (x) = -0.00633 0.14204
# Poissons Ratio (y) = -0.00717 0.25545
# Poissons Ratio (z) = 0.56328 0.89432
#
# Static dielectric constant tensor:
#      x y z
#    x 1.608800 0.000000 0.000000 
#    y 0.000000 1.686470 0.000000 
#    z 0.000000 0.000000 1.781190 
# 
# From -- ./inp_files/8771.got.cif
#   From: 2010.05.17/outbox.cif.g08.bks.cpg/sg53_5_cif.got.tgz:8771.got - 2010.06.03 12:45:16.
