data_PCOD9415949
_publ_section_title
;
Structure prediction by ZEFSAII (Michael W. Deem and Ramdas Pophale) SiO2 
 PCOD9415949
Probable space group: P M N A
;
_chemical_formula_sum "Si O2"
_cell_formula_units_Z 64
_cell_length_a 13.730760
_cell_length_b 24.424707
_cell_length_c 9.090561
_cell_angle_alpha 90.000000
_cell_angle_beta 90.000000
_cell_angle_gamma 90.000000
_cell_volume 3048.699533
_symmetry_space_group_name_H-M "P M N A"
_symmetry_group_IT_number 53
_symmetry_cell_setting 'orthorhombic'
loop_
_space_group_symop_operation_xyz
x,y,z
1/2-x,-y,1/2+z
x,-y,-z
1/2-x,y,1/2-z
-x,-y,-z
1/2+x,y,1/2-z
-x,y,z
1/2+x,-y,1/2+z
loop_
_atom_site_type_symbol
_atom_site_label
_atom_site_fract_x
_atom_site_fract_y
_atom_site_fract_z
Si Si1 0.825708 0.560470 0.955992
Si Si2 0.111276 0.416237 0.380239
Si Si3 0.611725 0.866313 0.449497
Si Si4 0.607556 0.291073 0.190495
Si Si5 0.257183 0.942418 0.924464
Si Si6 0.752316 0.766050 0.474710
Si Si7 0.386409 0.142226 0.891863
Si Si8 0.110278 0.677187 0.037304
O O1 0.864188 0.569593 0.789735
O O2 0.866422 0.612673 0.045078
O O3 0.857931 0.500000 0.000000
O O4 0.707394 0.562983 0.964055
O O5 0.113352 0.350257 0.388376
O O6 0.000000 0.433935 0.416795
O O7 0.500000 0.855424 0.477941
O O8 0.652434 0.919409 0.528103
O O9 0.672064 0.813152 0.500500
O O10 0.625920 0.877342 0.275767
O O11 0.500000 0.267168 0.165760
O O12 0.614405 0.305667 0.363294
O O13 0.690339 0.254679 0.118498
O O14 0.250000 0.946666 0.750000
O O15 0.331759 0.897214 0.992403
O O16 0.279580 0.000000 0.000000
O O17 0.835938 0.798339 0.388123
O O18 0.694762 0.715820 0.400999
O O19 0.500000 0.145463 0.926225
O O20 0.000000 0.687848 0.089617
#
# Coordination Sequence:
#
# PCOD9415949 Si02
#       8
#     8   8   8   8   8   8   8   8
#     4  10  19  33  54  77 104 145 186 237 303 369
#     4   9  18  33  52  75 104 138 182 233 295 365
#     4  10  23  43  64  89 126 173 216 258 313 371
#     4   9  17  30  50  78 112 146 180 230 299 369
#     4  11  23  41  67  98 133 171 214 264 316 369
#     4  11  18  32  57  86 113 148 197 247 298 357
#     4  10  23  43  65  90 126 173 217 259 311 373
#     4  10  20  32  49  79 115 149 187 239 307 376
#
# _framework density 20.992557000000001
#
# number of rings (size 3 to 8) (size 9 to 14) (size 15 to 20)
#    0.000    2.000    1.250    4.500    0.000    6.250 
#    0.000    0.000    5.500    0.000    0.000    0.000 
#    0.000    0.000    0.000    0.000    0.000    0.000 
#
# Total GULP energy -357098.517644 kJ/mol
# GULP energy per Si atom -5579.664338 kJ/mol
# Density = 2.094478 g / cm^3
# Si number density = 20.992557 Si / 1000 Ang^3
#
#
#
# Elastic Constant Matrix: (Units=GPa)
#
#
# Indices 1 2 3 4 5 6 
#
# 1 143.0889 45.6364 48.7305 0.0000 0.0000 0.0000
# 2 45.6364 103.4413 41.3575 0.0000 0.0000 0.0000
# 3 48.7305 41.3575 63.8942 0.0000 0.0000 0.0000
# 4 0.0000 0.0000 0.0000 20.6802 0.0000 0.0000
# 5 0.0000 0.0000 0.0000 0.0000 23.4182 0.0000
# 6 0.0000 0.0000 0.0000 0.0000 0.0000 14.0074
#
#
#
# Elastic Compliance Matrix: (Units=1/GPa)
#
#
# Indices 1 2 3 4 5 6 
#
# 1 0.009677 -0.001779 -0.006229 0.000000 0.000000 0.000000
# 2 -0.001779 0.013370 -0.007297 0.000000 0.000000 0.000000
# 3 -0.006229 -0.007297 0.025125 0.000000 0.000000 0.000000
# 4 0.000000 0.000000 0.000000 0.048355 0.000000 0.000000
# 5 0.000000 0.000000 0.000000 0.000000 0.042702 0.000000
# 6 0.000000 0.000000 0.000000 0.000000 0.000000 0.071391
#
#
# Mechanical properties :
#
#
# Convention : Reuss Voigt Hill
#
# Bulk Modulus (GPa) = 56.94295 64.65260 60.79778
# Shear Modulus (GPa) = 20.23595 23.26783 21.75189
#
# Velocity S-wave (km/s) = 3.10814 3.33285 3.22245
# Velocity P-wave (km/s) = 6.32968 6.75835 6.54752
#
# Compressibility (1/GPa) = 0.01756144
#
# Stress axis : x y z
#
# Youngs Moduli (GPa) = 103.33253 74.79599 39.80078
#
# Poissons Ratio (x) = 0.13306 0.24793
# Poissons Ratio (y) = 0.18382 0.29043
# Poissons Ratio (z) = 0.64369 0.54580
#
# Static dielectric constant tensor:
#      x y z
#    x 1.786720 0.000000 0.000000 
#    y 0.000000 1.750590 0.000000 
#    z 0.000000 0.000000 1.768650 
# 
# From -- ./inp_files/8925.got.cif
#   From: 2010.05.17/outbox.cif.g08.bks.cpg/sg53_5_cif.got.tgz:8925.got - 2010.06.03 12:45:16.
