data_PCOD9415492
_publ_section_title
;
Structure prediction by ZEFSAII (Michael W. Deem and Ramdas Pophale) SiO2 
 PCOD9415492
Probable space group: P M N A
;
_chemical_formula_sum "Si O2"
_cell_formula_units_Z 56
_cell_length_a 8.528603
_cell_length_b 19.813320
_cell_length_c 18.830441
_cell_angle_alpha 90.000000
_cell_angle_beta 90.000000
_cell_angle_gamma 90.000000
_cell_volume 3181.966798
_symmetry_space_group_name_H-M "P M N A"
_symmetry_group_IT_number 53
_symmetry_cell_setting 'orthorhombic'
loop_
_space_group_symop_operation_xyz
x,y,z
1/2-x,-y,1/2+z
x,-y,-z
1/2-x,y,1/2-z
-x,-y,-z
1/2+x,y,1/2-z
-x,y,z
1/2+x,-y,1/2+z
loop_
_atom_site_type_symbol
_atom_site_label
_atom_site_fract_x
_atom_site_fract_y
_atom_site_fract_z
Si Si1 0.688095 0.438713 0.168986
Si Si2 0.312465 0.297179 0.330016
Si Si3 0.688957 0.208383 0.457452
Si Si4 0.689436 0.723517 0.096651
Si Si5 0.687572 0.861734 0.171807
Si Si6 0.310529 0.413586 0.830582
Si Si7 0.689794 0.928287 0.468917
O O1 0.750000 0.440073 0.250000
O O2 0.500000 0.433657 0.168942
O O3 0.757098 0.369513 0.138888
O O4 0.734018 0.512362 0.139337
O O5 0.250000 0.290099 0.250000
O O6 0.500000 0.297696 0.326848
O O7 0.257868 0.237667 0.382109
O O8 0.500000 0.207731 0.456826
O O9 0.745102 0.257737 0.519861
O O10 0.741611 0.133583 0.480286
O O11 0.500000 0.722942 0.093451
O O12 0.736028 0.785522 0.148441
O O13 0.743751 0.651278 0.125530
O O14 0.750000 0.877289 0.250000
O O15 0.500000 0.864212 0.172220
O O16 0.749927 0.910562 0.109731
O O17 0.250000 0.408252 0.750000
O O18 0.500000 0.412106 0.828252
O O19 0.500000 0.928270 0.466622
O O20 0.741767 0.000000 0.500000
#
# Coordination Sequence:
#
# PCOD9415492 Si02
#       7
#     8   8   8   8   8   8   8
#     4   9  16  27  44  65  90 121 157 196 238 280
#     4  10  19  32  50  70  92 118 154 198 239 282
#     4   9  19  34  51  72  95 121 155 192 234 287
#     4   9  18  31  47  69  97 128 161 196 235 279
#     4  10  19  31  50  76 104 133 166 201 235 279
#     4   9  17  28  43  66  94 124 160 199 236 277
#     4   9  18  35  57  76  99 131 161 194 241 291
#
# _framework density 17.599178999999999
#
# number of rings (size 3 to 8) (size 9 to 14) (size 15 to 20)
#    0.000    2.714    0.000    2.571    0.000    3.143 
#    0.000    1.429    0.000    6.000    0.000    0.000 
#    0.000    0.000    0.000    0.000    0.000    0.000 
#
# Total GULP energy -312037.597601 kJ/mol
# GULP energy per Si atom -5572.099957 kJ/mol
# Density = 1.755912 g / cm^3
# Si number density = 17.599179 Si / 1000 Ang^3
#
#
#
# Elastic Constant Matrix: (Units=GPa)
#
#
# Indices 1 2 3 4 5 6 
#
# 1 19.1017 27.2418 20.3272 0.0000 0.0000 0.0000
# 2 27.2418 143.3652 90.1457 0.0000 0.0000 0.0000
# 3 20.3272 90.1457 104.3106 0.0000 0.0000 0.0000
# 4 0.0000 0.0000 0.0000 23.8655 0.0000 0.0000
# 5 0.0000 0.0000 0.0000 0.0000 21.9867 0.0000
# 6 0.0000 0.0000 0.0000 0.0000 0.0000 21.1451
#
#
#
# Elastic Compliance Matrix: (Units=1/GPa)
#
#
# Indices 1 2 3 4 5 6 
#
# 1 0.072937 -0.010780 -0.004897 0.000000 0.000000 0.000000
# 2 -0.010780 0.016870 -0.012478 0.000000 0.000000 0.000000
# 3 -0.004897 -0.012478 0.021325 0.000000 0.000000 0.000000
# 4 0.000000 0.000000 0.000000 0.041901 0.000000 0.000000
# 5 0.000000 0.000000 0.000000 0.000000 0.045482 0.000000
# 6 0.000000 0.000000 0.000000 0.000000 0.000000 0.047292
#
#
# Mechanical properties :
#
#
# Convention : Reuss Voigt Hill
#
# Bulk Modulus (GPa) = 18.24140 60.24522 39.24331
# Shear Modulus (GPa) = 15.60598 22.00367 18.80482
#
# Velocity S-wave (km/s) = 2.98106 3.53975 3.27235
# Velocity P-wave (km/s) = 4.71554 7.14231 6.05181
#
# Compressibility (1/GPa) = 0.05482037
#
# Stress axis : x y z
#
# Youngs Moduli (GPa) = 13.71055 59.27855 46.89406
#
# Poissons Ratio (x) = 0.63901 0.22966
# Poissons Ratio (y) = 0.14780 0.58514
# Poissons Ratio (z) = 0.06715 0.73968
#
# Static dielectric constant tensor:
#      x y z
#    x 1.604850 0.000000 0.000000 
#    y 0.000000 1.634000 0.000000 
#    z 0.000000 0.000000 1.565770 
# 
# From -- ./inp_files/26669.got.cif
#   From: 2010.05.17/outbox.cif.g08.bks.cpg/sg53_14_cif.got.tgz:26669.got - 2010.06.03 12:45:16.
