data_PCOD9415092
_publ_section_title
;
Structure prediction by ZEFSAII (Michael W. Deem and Ramdas Pophale) SiO2 
 PCOD9415092
Probable space group: P M N A
;
_chemical_formula_sum "Si O2"
_cell_formula_units_Z 48
_cell_length_a 9.378753
_cell_length_b 15.564385
_cell_length_c 19.733664
_cell_angle_alpha 90.000000
_cell_angle_beta 90.000000
_cell_angle_gamma 90.000000
_cell_volume 2880.612180
_symmetry_space_group_name_H-M "P M N A"
_symmetry_group_IT_number 53
_symmetry_cell_setting 'orthorhombic'
loop_
_space_group_symop_operation_xyz
x,y,z
1/2-x,-y,1/2+z
x,-y,-z
1/2-x,y,1/2-z
-x,-y,-z
1/2+x,y,1/2-z
-x,y,z
1/2+x,-y,1/2+z
loop_
_atom_site_type_symbol
_atom_site_label
_atom_site_fract_x
_atom_site_fract_y
_atom_site_fract_z
Si Si1 0.666780 0.249650 0.892452
Si Si2 0.834299 0.917735 0.091338
Si Si3 0.831744 0.449879 0.068140
Si Si4 0.665150 0.108449 0.427921
Si Si5 0.334006 0.724415 0.944602
Si Si6 0.168882 0.403864 0.819750
O O1 0.500000 0.253866 0.873917
O O2 0.733240 0.155641 0.879247
O O3 0.758857 0.321236 0.854541
O O4 0.677668 0.267198 0.973378
O O5 0.000000 0.906254 0.111774
O O6 0.791367 0.016706 0.103671
O O7 0.830904 0.905142 0.009577
O O8 0.745822 0.362291 0.076075
O O9 0.814243 0.515440 0.129953
O O10 0.000000 0.429663 0.060268
O O11 0.785667 0.500000 0.000000
O O12 0.500000 0.124731 0.410171
O O13 0.761333 0.190700 0.413625
O O14 0.500000 0.720615 0.927363
O O15 0.250000 0.420313 0.750000
O O16 0.000000 0.389524 0.809640
#
# Coordination Sequence:
#
# PCOD9415092 Si02
#       6
#     8   8   8   8   8   8
#     4  10  19  30  46  71 101 133 166 204 252 303
#     4   8  14  25  42  64  92 130 168 201 240 288
#     4  10  20  35  54  74  97 132 174 212 255 310
#     4   8  14  25  41  63  95 131 166 202 242 293
#     4  10  19  28  45  73 103 132 165 210 257 300
#     4  11  23  38  55  74 100 133 170 214 258 308
#
# _framework density 16.663124
#
# number of rings (size 3 to 8) (size 9 to 14) (size 15 to 20)
#    0.000    2.500    1.667    2.500    0.000    3.667 
#    0.000    3.333    0.000    0.000    0.000    1.167 
#    0.000    5.333    0.000    0.000    0.000    0.000 
#
# Total GULP energy -267576.964575 kJ/mol
# GULP energy per Si atom -5574.520095 kJ/mol
# Density = 1.662520 g / cm^3
# Si number density = 16.663124 Si / 1000 Ang^3
#
#
#
# Elastic Constant Matrix: (Units=GPa)
#
#
# Indices 1 2 3 4 5 6 
#
# 1 124.1308 105.7523 36.7674 0.0000 0.0000 0.0000
# 2 105.7523 163.2882 25.6881 0.0000 0.0000 0.0000
# 3 36.7674 25.6881 28.8022 0.0000 0.0000 0.0000
# 4 0.0000 0.0000 0.0000 7.4955 0.0000 0.0000
# 5 0.0000 0.0000 0.0000 0.0000 18.3000 0.0000
# 6 0.0000 0.0000 0.0000 0.0000 0.0000 10.4283
#
#
#
# Elastic Compliance Matrix: (Units=1/GPa)
#
#
# Indices 1 2 3 4 5 6 
#
# 1 0.025462 -0.013233 -0.020700 0.000000 0.000000 0.000000
# 2 -0.013233 0.014002 0.004405 0.000000 0.000000 0.000000
# 3 -0.020700 0.004405 0.057215 0.000000 0.000000 0.000000
# 4 0.000000 0.000000 0.000000 0.133414 0.000000 0.000000
# 5 0.000000 0.000000 0.000000 0.000000 0.054645 0.000000
# 6 0.000000 0.000000 0.000000 0.000000 0.000000 0.095893
#
#
# Mechanical properties :
#
#
# Convention : Reuss Voigt Hill
#
# Bulk Modulus (GPa) = 26.58023 72.51519 49.54771
# Shear Modulus (GPa) = 11.05637 17.11230 14.08434
#
# Velocity S-wave (km/s) = 2.57869 3.20809 2.91045
# Velocity P-wave (km/s) = 4.98521 7.57201 6.41045
#
# Compressibility (1/GPa) = 0.03762194
#
# Stress axis : x y z
#
# Youngs Moduli (GPa) = 39.27486 71.42013 17.47779
#
# Poissons Ratio (x) = 0.94514 0.36180
# Poissons Ratio (y) = 0.51974 -0.07700
# Poissons Ratio (z) = 0.81300 -0.31463
#
# Static dielectric constant tensor:
#      x y z
#    x 1.553270 0.000000 0.000000 
#    y 0.000000 1.563840 0.000000 
#    z 0.000000 0.000000 1.559100 
# 
# From -- ./inp_files/26257.got.cif
#   From: 2010.05.17/outbox.cif.g08.bks.cpg/sg53_14_cif.got.tgz:26257.got - 2010.06.03 12:45:16.
