data_PCOD9415531
_publ_section_title
;
Structure prediction by ZEFSAII (Michael W. Deem and Ramdas Pophale) SiO2 
 PCOD9415531
Probable space group: P M N A
;
_chemical_formula_sum "Si O2"
_cell_formula_units_Z 64
_cell_length_a 9.232539
_cell_length_b 15.359226
_cell_length_c 22.229874
_cell_angle_alpha 90.000000
_cell_angle_beta 90.000000
_cell_angle_gamma 90.000000
_cell_volume 3152.299570
_symmetry_space_group_name_H-M "P M N A"
_symmetry_group_IT_number 53
_symmetry_cell_setting 'orthorhombic'
loop_
_space_group_symop_operation_xyz
x,y,z
1/2-x,-y,1/2+z
x,-y,-z
1/2-x,y,1/2-z
-x,-y,-z
1/2+x,y,1/2-z
-x,y,z
1/2+x,-y,1/2+z
loop_
_atom_site_type_symbol
_atom_site_label
_atom_site_fract_x
_atom_site_fract_y
_atom_site_fract_z
Si Si1 0.830450 0.215476 0.355137
Si Si2 0.832670 0.165819 0.490011
Si Si3 0.328812 0.087712 0.597002
Si Si4 0.169114 0.027749 0.309472
Si Si5 0.172268 0.616719 0.875627
Si Si6 0.671855 0.247563 0.687990
Si Si7 0.173546 0.424128 0.877540
Si Si8 0.331667 0.367763 0.996272
O O1 0.785792 0.179596 0.421144
O O2 0.819104 0.132366 0.312707
O O3 0.739576 0.301278 0.340783
O O4 0.000000 0.240440 0.360595
O O5 0.734336 0.105607 0.531129
O O6 0.828195 0.264035 0.516162
O O7 0.000000 0.135742 0.490338
O O8 0.500000 0.070828 0.595324
O O9 0.302983 0.174581 0.637275
O O10 0.243944 0.012876 0.632171
O O11 0.250000 0.995579 0.250000
O O12 0.000000 0.004531 0.308087
O O13 0.201364 0.519895 0.850719
O O14 0.000000 0.627757 0.881203
O O15 0.245843 0.618794 0.941674
O O16 0.750000 0.226315 0.750000
O O17 0.500000 0.250298 0.698754
O O18 0.717464 0.342600 0.663549
O O19 0.255563 0.415247 0.940931
O O20 0.000000 0.416997 0.888374
O O21 0.500000 0.392637 0.003138
#
# Coordination Sequence:
#
# PCOD9415531 Si02
#       8
#     8   8   8   8   8   8   8   8
#     4   9  21  41  61  84 117 153 190 238 291 342
#     4   9  18  34  56  84 117 153 189 228 284 345
#     4  11  22  37  60  88 117 151 188 233 287 345
#     4  11  24  43  65  87 114 148 191 242 290 343
#     4  10  20  33  55  82 113 150 188 235 287 337
#     4  10  22  38  55  77 111 150 191 236 284 340
#     4  10  20  35  52  77 112 150 191 235 284 334
#     4  10  19  31  51  81 116 153 191 231 275 333
#
# _framework density 20.302638999999999
#
# number of rings (size 3 to 8) (size 9 to 14) (size 15 to 20)
#    0.000    2.000    1.250    3.000    0.000    8.500 
#    0.000    3.125    0.000    3.000    0.000    0.000 
#    0.000    0.000    0.000    0.000    0.000    0.000 
#
# Total GULP energy -357496.418974 kJ/mol
# GULP energy per Si atom -5585.881546 kJ/mol
# Density = 2.025643 g / cm^3
# Si number density = 20.302639 Si / 1000 Ang^3
#
#
#
# Elastic Constant Matrix: (Units=GPa)
#
#
# Indices 1 2 3 4 5 6 
#
# 1 62.4722 39.2617 12.7611 0.0000 0.0000 0.0000
# 2 39.2617 79.0968 -1.8973 0.0000 0.0000 0.0000
# 3 12.7611 -1.8973 14.5814 0.0000 0.0000 0.0000
# 4 0.0000 0.0000 0.0000 2.0702 0.0000 0.0000
# 5 0.0000 0.0000 0.0000 0.0000 17.1125 0.0000
# 6 0.0000 0.0000 0.0000 0.0000 0.0000 27.8846
#
#
#
# Elastic Compliance Matrix: (Units=1/GPa)
#
#
# Indices 1 2 3 4 5 6 
#
# 1 0.033260 -0.017261 -0.031354 0.000000 0.000000 0.000000
# 2 -0.017261 0.021641 0.017922 0.000000 0.000000 0.000000
# 3 -0.031354 0.017922 0.098352 0.000000 0.000000 0.000000
# 4 0.000000 0.000000 0.000000 0.483050 0.000000 0.000000
# 5 0.000000 0.000000 0.000000 0.000000 0.058437 0.000000
# 6 0.000000 0.000000 0.000000 0.000000 0.000000 0.035862
#
#
# Mechanical properties :
#
#
# Convention : Reuss Voigt Hill
#
# Bulk Modulus (GPa) = 10.88530 28.48905 19.68717
# Shear Modulus (GPa) = 6.07822 16.48179 11.28000
#
# Velocity S-wave (km/s) = 1.73214 2.85231 2.35966
# Velocity P-wave (km/s) = 3.06163 4.99101 4.14028
#
# Compressibility (1/GPa) = 0.09186705
#
# Stress axis : x y z
#
# Youngs Moduli (GPa) = 30.06622 46.20908 10.16755
#
# Poissons Ratio (x) = 0.79764 0.31879
# Poissons Ratio (y) = 0.51899 -0.18223
# Poissons Ratio (z) = 0.94269 -0.82817
#
# Static dielectric constant tensor:
#      x y z
#    x 1.680480 0.000000 0.000000 
#    y 0.000000 1.771470 0.000000 
#    z 0.000000 0.000000 1.691910 
# 
# From -- ./inp_files/34325.got.cif
#   From: 2010.05.17/outbox.cif.g08.bks.cpg/sg53_18_cif.got.tgz:34325.got - 2010.06.03 12:45:16.
