data_PCOD9415029
_publ_section_title
;
Structure prediction by ZEFSAII (Michael W. Deem and Ramdas Pophale) SiO2 
 PCOD9415029
Probable space group: P M N A
;
_chemical_formula_sum "Si O2"
_cell_formula_units_Z 32
_cell_length_a 22.318472
_cell_length_b 7.529809
_cell_length_c 7.917200
_cell_angle_alpha 90.000000
_cell_angle_beta 90.000000
_cell_angle_gamma 90.000000
_cell_volume 1330.515793
_symmetry_space_group_name_H-M "P M N A"
_symmetry_group_IT_number 53
_symmetry_cell_setting 'orthorhombic'
loop_
_space_group_symop_operation_xyz
x,y,z
1/2-x,-y,1/2+z
x,-y,-z
1/2-x,y,1/2-z
-x,-y,-z
1/2+x,y,1/2-z
-x,y,z
1/2+x,-y,1/2+z
loop_
_atom_site_type_symbol
_atom_site_label
_atom_site_fract_x
_atom_site_fract_y
_atom_site_fract_z
Si Si1 0.153613 0.233221 0.657460
Si Si2 0.930735 0.526270 0.799475
Si Si3 0.378538 0.900470 0.675825
Si Si4 0.227636 0.286862 0.999184
O O1 0.110674 0.401358 0.684313
O O2 0.194789 0.234732 0.826314
O O3 0.202234 0.240933 0.509432
O O4 0.119948 0.049520 0.682086
O O5 0.918642 0.733582 0.773606
O O6 0.000000 0.480446 0.774814
O O7 0.916076 0.500000 0.000000
O O8 0.312829 0.813889 0.636125
O O9 0.397411 0.000000 0.500000
O O10 0.224508 0.500000 0.000000
#
# Coordination Sequence:
#
# PCOD9415029 Si02
#       4
#     8   8   8   8
#     4  10  20  35  53  81 112 146 182 221 276 333
#     4  11  20  34  55  80 113 149 184 227 279 332
#     4  10  18  35  49  79 113 140 179 220 280 331
#     4  10  18  36  54  78 116 144 179 224 279 334
#
# _framework density 24.050822
#
# number of rings (size 3 to 8) (size 9 to 14) (size 15 to 20)
#    0.000    1.750    7.500    0.000    0.000    1.500 
#   22.500    0.000    0.000    0.750    0.000    1.750 
#    0.000    0.000    0.000    0.000    0.000    0.000 
#
# Total GULP energy -179021.520312 kJ/mol
# GULP energy per Si atom -5594.422510 kJ/mol
# Density = 2.399608 g / cm^3
# Si number density = 24.050822 Si / 1000 Ang^3
#
#
#
# Elastic Constant Matrix: (Units=GPa)
#
#
# Indices 1 2 3 4 5 6 
#
# 1 90.1326 -1.5135 15.8889 0.0000 0.0000 0.0000
# 2 -1.5135 145.9968 11.7882 0.0000 0.0000 0.0000
# 3 15.8889 11.7882 89.5441 0.0000 0.0000 0.0000
# 4 0.0000 0.0000 0.0000 0.3512 0.0000 0.0000
# 5 0.0000 0.0000 0.0000 0.0000 10.2849 0.0000
# 6 0.0000 0.0000 0.0000 0.0000 0.0000 -150.6359
#
#
#
# Elastic Compliance Matrix: (Units=1/GPa)
#
#
# Indices 1 2 3 4 5 6 
#
# 1 0.011465 0.000286 -0.002072 0.000000 0.000000 0.000000
# 2 0.000286 0.006930 -0.000963 0.000000 0.000000 0.000000
# 3 -0.002072 -0.000963 0.011662 0.000000 0.000000 0.000000
# 4 0.000000 0.000000 0.000000 2.847550 0.000000 0.000000
# 5 0.000000 0.000000 0.000000 0.000000 0.097230 0.000000
# 6 0.000000 0.000000 0.000000 0.000000 0.000000 -0.006639
#
#
# Mechanical properties :
#
#
# Convention : Reuss Voigt Hill
#
# Bulk Modulus (GPa) = 40.71792 42.00008 41.35900
# Shear Modulus (GPa) = 1.67679 -8.03263 -3.17792
#
# Velocity S-wave (km/s) = 0.83588 -1.82951 -1.15074
# Velocity P-wave (km/s) = 4.23064 3.61084 3.93297
#
# Compressibility (1/GPa) = 0.02455921
#
# Stress axis : x y z
#
# Youngs Moduli (GPa) = 87.22325 144.29602 85.74763
#
# Poissons Ratio (x) = -0.04129 0.17767
# Poissons Ratio (y) = -0.02496 0.08259
# Poissons Ratio (z) = 0.18073 0.13897
#
# Static dielectric constant tensor:
#      x y z
#    x 1.924410 0.000000 0.000000 
#    y 0.000000 1.986300 0.000000 
#    z 0.000000 0.000000 2.184030 
# 
# From -- ./inp_files/24029.got.cif
#   From: 2010.05.17/outbox.cif.g08.bks.cpg/sg53_13_cif.got.tgz:24029.got - 2010.06.03 12:45:16.
