data_PCOD9415388
_publ_section_title
;
Structure prediction by ZEFSAII (Michael W. Deem and Ramdas Pophale) SiO2 
 PCOD9415388
Probable space group: P M N A
;
_chemical_formula_sum "Si O2"
_cell_formula_units_Z 64
_cell_length_a 8.626064
_cell_length_b 15.161639
_cell_length_c 30.534690
_cell_angle_alpha 90.000000
_cell_angle_beta 90.000000
_cell_angle_gamma 90.000000
_cell_volume 3993.487626
_symmetry_space_group_name_H-M "P M N A"
_symmetry_group_IT_number 53
_symmetry_cell_setting 'orthorhombic'
loop_
_space_group_symop_operation_xyz
x,y,z
1/2-x,-y,1/2+z
x,-y,-z
1/2-x,y,1/2-z
-x,-y,-z
1/2+x,y,1/2-z
-x,y,z
1/2+x,-y,1/2+z
loop_
_atom_site_type_symbol
_atom_site_label
_atom_site_fract_x
_atom_site_fract_y
_atom_site_fract_z
Si Si1 0.687280 0.538852 0.110580
Si Si2 0.685764 0.496321 0.296984
Si Si3 0.183524 0.874006 0.026000
Si Si4 0.683392 0.956373 0.937072
Si Si5 0.313087 0.680710 0.038470
Si Si6 0.686331 0.291302 0.296224
Si Si7 0.814288 0.801678 0.884968
Si Si8 0.186852 0.360318 0.439887
O O1 0.500000 0.538216 0.112848
O O2 0.753457 0.543749 0.159481
O O3 0.734398 0.618440 0.078597
O O4 0.735225 0.447066 0.087050
O O5 0.750000 0.527747 0.250000
O O6 0.500000 0.499137 0.295951
O O7 0.736733 0.393393 0.301671
O O8 0.237545 0.776951 0.039204
O O9 0.000000 0.876240 0.018518
O O10 0.231803 0.949647 0.060345
O O11 0.268054 0.903743 0.981218
O O12 0.500000 0.969509 0.937026
O O13 0.737333 0.893467 0.898097
O O14 0.500000 0.690635 0.039916
O O15 0.276119 0.635971 0.991500
O O16 0.750000 0.259024 0.250000
O O17 0.500000 0.291533 0.295069
O O18 0.735806 0.233946 0.337559
O O19 0.763630 0.726091 0.919167
O O20 0.000000 0.810245 0.886196
O O21 0.000000 0.352195 0.436128
#
# Coordination Sequence:
#
# PCOD9415388 Si02
#       8
#     8   8   8   8   8   8   8   8
#     4  10  20  33  50  73 101 137 175 210 249 298
#     4  10  19  33  50  71  97 129 168 212 258 301
#     4  11  21  34  51  73  99 129 165 210 254 291
#     4  11  21  34  52  73  97 130 167 204 248 300
#     4  10  20  34  50  71 102 138 176 212 248 294
#     4   9  19  32  48  70  99 131 165 206 251 298
#     4  11  20  32  49  74 104 133 167 209 252 296
#     4  10  19  31  48  70 100 139 176 207 241 292
#
# _framework density 16.026091000000001
#
# number of rings (size 3 to 8) (size 9 to 14) (size 15 to 20)
#    0.000    1.750    2.500    4.125    0.000    3.500 
#    0.000    0.000    0.000    2.250    0.000    0.875 
#    0.000    2.000    0.000    0.000    0.000    0.000 
#
# Total GULP energy -357251.732203 kJ/mol
# GULP energy per Si atom -5582.058316 kJ/mol
# Density = 1.598962 g / cm^3
# Si number density = 16.026091 Si / 1000 Ang^3
#
#
#
# Elastic Constant Matrix: (Units=GPa)
#
#
# Indices 1 2 3 4 5 6 
#
# 1 26.5857 9.3162 18.9332 0.0000 0.0000 0.0000
# 2 9.3162 61.0919 34.5477 0.0000 0.0000 0.0000
# 3 18.9332 34.5477 120.3015 0.0000 0.0000 0.0000
# 4 0.0000 0.0000 0.0000 22.2614 0.0000 0.0000
# 5 0.0000 0.0000 0.0000 0.0000 23.7878 0.0000
# 6 0.0000 0.0000 0.0000 0.0000 0.0000 28.4787
#
#
#
# Elastic Compliance Matrix: (Units=1/GPa)
#
#
# Indices 1 2 3 4 5 6 
#
# 1 0.042896 -0.003252 -0.005817 0.000000 0.000000 0.000000
# 2 -0.003252 0.019789 -0.005171 0.000000 0.000000 0.000000
# 3 -0.005817 -0.005171 0.010713 0.000000 0.000000 0.000000
# 4 0.000000 0.000000 0.000000 0.044921 0.000000 0.000000
# 5 0.000000 0.000000 0.000000 0.000000 0.042038 0.000000
# 6 0.000000 0.000000 0.000000 0.000000 0.000000 0.035114
#
#
# Mechanical properties :
#
#
# Convention : Reuss Voigt Hill
#
# Bulk Modulus (GPa) = 22.26276 37.06370 29.66323
# Shear Modulus (GPa) = 20.92710 24.58438 22.75574
#
# Velocity S-wave (km/s) = 3.61753 3.92091 3.77227
# Velocity P-wave (km/s) = 5.60093 6.60873 6.12559
#
# Compressibility (1/GPa) = 0.04491806
#
# Stress axis : x y z
#
# Youngs Moduli (GPa) = 23.31193 50.53323 93.34442
#
# Poissons Ratio (x) = 0.16432 0.54301
# Poissons Ratio (y) = 0.07581 0.48270
# Poissons Ratio (z) = 0.13561 0.26131
#
# Static dielectric constant tensor:
#      x y z
#    x 1.539570 0.000000 0.000000 
#    y 0.000000 1.525020 0.000000 
#    z 0.000000 0.000000 1.537780 
# 
# From -- ./inp_files/38408.got.cif
#   From: 2010.05.17/outbox.cif.g08.bks.cpg/sg53_20_cif.got.tgz:38408.got - 2010.06.03 12:45:16.
