data_PCOD9415431
_publ_section_title
;
Structure prediction by ZEFSAII (Michael W. Deem and Ramdas Pophale) SiO2 
 PCOD9415431
Probable space group: P M N A
;
_chemical_formula_sum "Si O2"
_cell_formula_units_Z 64
_cell_length_a 9.732770
_cell_length_b 17.060970
_cell_length_c 21.891487
_cell_angle_alpha 90.000000
_cell_angle_beta 90.000000
_cell_angle_gamma 90.000000
_cell_volume 3635.092296
_symmetry_space_group_name_H-M "P M N A"
_symmetry_group_IT_number 53
_symmetry_cell_setting 'orthorhombic'
loop_
_space_group_symop_operation_xyz
x,y,z
1/2-x,-y,1/2+z
x,-y,-z
1/2-x,y,1/2-z
-x,-y,-z
1/2+x,y,1/2-z
-x,y,z
1/2+x,-y,1/2+z
loop_
_atom_site_type_symbol
_atom_site_label
_atom_site_fract_x
_atom_site_fract_y
_atom_site_fract_z
Si Si1 0.852142 0.780612 0.614373
Si Si2 0.158235 0.620207 0.690401
Si Si3 0.340869 0.371324 0.531496
Si Si4 0.659141 0.538783 0.595224
Si Si5 0.665772 0.067445 0.551421
Si Si6 0.848756 0.148166 0.196973
Si Si7 0.846148 0.961636 0.194365
Si Si8 0.157884 0.775536 0.470110
O O1 0.841489 0.700189 0.651318
O O2 0.724600 0.833041 0.633780
O O3 0.850658 0.765825 0.543110
O O4 0.000000 0.818432 0.630934
O O5 0.250000 0.630109 0.750000
O O6 0.233301 0.557172 0.647661
O O7 0.000000 0.600887 0.704460
O O8 0.500000 0.344542 0.534074
O O9 0.315894 0.403178 0.462470
O O10 0.328196 0.449863 0.571705
O O11 0.239847 0.301834 0.550993
O O12 0.500000 0.551386 0.614346
O O13 0.500000 0.080323 0.546752
O O14 0.695658 0.046786 0.622970
O O15 0.753984 0.145784 0.540136
O O16 0.698352 0.000000 0.500000
O O17 0.750000 0.178775 0.250000
O O18 0.000000 0.183087 0.200920
O O19 0.856884 0.055186 0.203863
O O20 0.750000 0.932174 0.250000
O O21 0.000000 0.927933 0.200463
O O22 0.000000 0.781174 0.447099
#
# Coordination Sequence:
#
# PCOD9415431 Si02
#       8
#     8   8   8   8   8   8   8   8
#     4  10  21  34  46  69 105 142 180 219 261 317
#     4  11  22  35  50  73 108 148 185 222 265 321
#     4   9  18  34  57  82 107 137 175 220 270 324
#     4   9  18  34  56  81 106 136 178 222 265 318
#     4  10  21  38  58  82 113 150 192 237 288 345
#     4  10  19  31  49  71  96 133 177 222 268 319
#     4   9  19  35  55  78 104 137 182 230 280 340
#     4  11  22  35  53  81 113 142 180 228 279 330
#
# _framework density 17.606155999999999
#
# number of rings (size 3 to 8) (size 9 to 14) (size 15 to 20)
#    0.000    2.125    1.250    3.000    0.000    5.750 
#    0.000    1.250    0.000    0.750    0.000    3.500 
#    0.000    0.000    0.000    0.000    0.000    0.000 
#
# Total GULP energy -356640.403708 kJ/mol
# GULP energy per Si atom -5572.506308 kJ/mol
# Density = 1.756608 g / cm^3
# Si number density = 17.606156 Si / 1000 Ang^3
#
#
#
# Elastic Constant Matrix: (Units=GPa)
#
#
# Indices 1 2 3 4 5 6 
#
# 1 123.4816 52.4064 50.0351 0.0000 0.0000 0.0000
# 2 52.4064 69.7000 17.2587 0.0000 0.0000 0.0000
# 3 50.0351 17.2587 89.4858 0.0000 0.0000 0.0000
# 4 0.0000 0.0000 0.0000 24.9524 0.0000 0.0000
# 5 0.0000 0.0000 0.0000 0.0000 27.7019 0.0000
# 6 0.0000 0.0000 0.0000 0.0000 0.0000 20.5540
#
#
#
# Elastic Compliance Matrix: (Units=1/GPa)
#
#
# Indices 1 2 3 4 5 6 
#
# 1 0.014714 -0.009479 -0.006399 0.000000 0.000000 0.000000
# 2 -0.009479 0.021173 0.001216 0.000000 0.000000 0.000000
# 3 -0.006399 0.001216 0.014518 0.000000 0.000000 0.000000
# 4 0.000000 0.000000 0.000000 0.040076 0.000000 0.000000
# 5 0.000000 0.000000 0.000000 0.000000 0.036099 0.000000
# 6 0.000000 0.000000 0.000000 0.000000 0.000000 0.048652
#
#
# Mechanical properties :
#
#
# Convention : Reuss Voigt Hill
#
# Bulk Modulus (GPa) = 47.43274 58.00753 52.72014
# Shear Modulus (GPa) = 23.63134 25.50615 24.56874
#
# Velocity S-wave (km/s) = 3.66761 3.81032 3.73964
# Velocity P-wave (km/s) = 6.70333 7.23718 6.97537
#
# Compressibility (1/GPa) = 0.02108248
#
# Stress axis : x y z
#
# Youngs Moduli (GPa) = 67.96139 47.22989 68.87824
#
# Poissons Ratio (x) = 0.44769 0.44076
# Poissons Ratio (y) = 0.64420 -0.08379
# Poissons Ratio (z) = 0.43490 -0.05745
#
# Static dielectric constant tensor:
#      x y z
#    x 1.643880 0.000000 0.000000 
#    y 0.000000 1.586390 0.000000 
#    z 0.000000 0.000000 1.619550 
# 
# From -- ./inp_files/31161.got.cif
#   From: 2010.05.17/outbox.cif.g08.bks.cpg/sg53_16_cif.got.tgz:31161.got - 2010.06.03 12:45:16.
