data_PCOD9415314
_publ_section_title
;
Structure prediction by ZEFSAII (Michael W. Deem and Ramdas Pophale) SiO2 
 PCOD9415314
Probable space group: P M N A
;
_chemical_formula_sum "Si O2"
_cell_formula_units_Z 56
_cell_length_a 8.668177
_cell_length_b 16.730930
_cell_length_c 25.498655
_cell_angle_alpha 90.000000
_cell_angle_beta 90.000000
_cell_angle_gamma 90.000000
_cell_volume 3697.984836
_symmetry_space_group_name_H-M "P M N A"
_symmetry_group_IT_number 53
_symmetry_cell_setting 'orthorhombic'
loop_
_space_group_symop_operation_xyz
x,y,z
1/2-x,-y,1/2+z
x,-y,-z
1/2-x,y,1/2-z
-x,-y,-z
1/2+x,y,1/2-z
-x,y,z
1/2+x,-y,1/2+z
loop_
_atom_site_type_symbol
_atom_site_label
_atom_site_fract_x
_atom_site_fract_y
_atom_site_fract_z
Si Si1 0.311912 0.477024 0.416023
Si Si2 0.812130 0.626002 0.015751
Si Si3 0.817614 0.875865 0.596308
Si Si4 0.684697 0.779657 0.693496
Si Si5 0.814071 0.592985 0.806511
Si Si6 0.812779 0.807135 0.012119
Si Si7 0.178386 0.966583 0.059849
O O1 0.500000 0.373555 0.516052
O O2 0.263141 0.562174 0.440165
O O3 0.266292 0.410135 0.459081
O O4 0.259972 0.455997 0.357490
O O5 0.000000 0.476772 0.084749
O O6 0.761470 0.716932 0.023576
O O7 0.750793 0.833618 0.647451
O O8 0.745206 0.833536 0.545060
O O9 0.000000 0.867277 0.594407
O O10 0.772428 0.969370 0.593004
O O11 0.750000 0.803829 0.750000
O O12 0.500000 0.784101 0.693558
O O13 0.728531 0.686313 0.685427
O O14 0.750000 0.567249 0.750000
O O15 0.000000 0.588920 0.804467
O O16 0.000000 0.809359 0.011032
O O17 0.764147 0.875701 0.053446
O O18 0.000000 0.966863 0.077224
O O19 0.180384 0.000000 0.000000
#
# Coordination Sequence:
#
# PCOD9415314 Si02
#       7
#     8   8   8   8   8   8   8
#     4   8  13  22  38  62  87 108 135 172 210 247
#     4   8  13  22  39  62  85 108 137 174 212 250
#     4  11  20  28  41  61  85 113 141 170 208 250
#     4  10  19  31  45  62  85 111 141 173 205 244
#     4   9  17  28  43  62  84 111 140 170 204 243
#     4   9  16  27  43  62  84 111 142 174 209 247
#     4   8  15  27  41  58  81 108 138 171 206 244
#
# _framework density 15.143383
#
# number of rings (size 3 to 8) (size 9 to 14) (size 15 to 20)
#    0.000    3.000    0.000    4.286    0.000    5.429 
#    0.000    0.000    0.000    0.857    0.000    4.000 
#    0.000    2.286    0.000    0.000    0.000    0.000 
#
# Total GULP energy -311841.290144 kJ/mol
# GULP energy per Si atom -5568.594467 kJ/mol
# Density = 1.510892 g / cm^3
# Si number density = 15.143383 Si / 1000 Ang^3
#
#
#
# Elastic Constant Matrix: (Units=GPa)
#
#
# Indices 1 2 3 4 5 6 
#
# 1 14.2187 16.6592 18.3450 0.0000 0.0000 0.0000
# 2 16.6592 121.8642 60.7809 0.0000 0.0000 0.0000
# 3 18.3450 60.7809 110.0054 0.0000 0.0000 0.0000
# 4 0.0000 0.0000 0.0000 6.8326 0.0000 0.0000
# 5 0.0000 0.0000 0.0000 0.0000 19.9695 0.0000
# 6 0.0000 0.0000 0.0000 0.0000 0.0000 9.7219
#
#
#
# Elastic Compliance Matrix: (Units=1/GPa)
#
#
# Indices 1 2 3 4 5 6 
#
# 1 0.093655 -0.006920 -0.011795 0.000000 0.000000 0.000000
# 2 -0.006920 0.011839 -0.005387 0.000000 0.000000 0.000000
# 3 -0.011795 -0.005387 0.014034 0.000000 0.000000 0.000000
# 4 0.000000 0.000000 0.000000 0.146357 0.000000 0.000000
# 5 0.000000 0.000000 0.000000 0.000000 0.050076 0.000000
# 6 0.000000 0.000000 0.000000 0.000000 0.000000 0.102861
#
#
# Mechanical properties :
#
#
# Convention : Reuss Voigt Hill
#
# Bulk Modulus (GPa) = 14.02057 48.62872 31.32465
# Shear Modulus (GPa) = 10.18741 17.32500 13.75620
#
# Velocity S-wave (km/s) = 2.59652 3.38607 3.01723
# Velocity P-wave (km/s) = 4.27409 6.88979 5.73311
#
# Compressibility (1/GPa) = 0.07132379
#
# Stress axis : x y z
#
# Youngs Moduli (GPa) = 10.67744 84.46810 71.25555
#
# Poissons Ratio (x) = 0.58454 0.84044
# Poissons Ratio (y) = 0.07389 0.38387
# Poissons Ratio (z) = 0.12594 0.45505
#
# Static dielectric constant tensor:
#      x y z
#    x 1.509760 0.000000 0.000000 
#    y 0.000000 1.526480 0.000000 
#    z 0.000000 0.000000 1.482450 
# 
# From -- ./inp_files/34362.got.cif
#   From: 2010.05.17/outbox.cif.g08.bks.cpg/sg53_18_cif.got.tgz:34362.got - 2010.06.03 12:45:16.
