data_PCOD9415309
_publ_section_title
;
Structure prediction by ZEFSAII (Michael W. Deem and Ramdas Pophale) SiO2 
 PCOD9415309
Probable space group: P M N A
;
_chemical_formula_sum "Si O2"
_cell_formula_units_Z 64
_cell_length_a 7.771703
_cell_length_b 20.468767
_cell_length_c 21.200662
_cell_angle_alpha 90.000000
_cell_angle_beta 90.000000
_cell_angle_gamma 90.000000
_cell_volume 3372.541481
_symmetry_space_group_name_H-M "P M N A"
_symmetry_group_IT_number 53
_symmetry_cell_setting 'orthorhombic'
loop_
_space_group_symop_operation_xyz
x,y,z
1/2-x,-y,1/2+z
x,-y,-z
1/2-x,y,1/2-z
-x,-y,-z
1/2+x,y,1/2-z
-x,y,z
1/2+x,-y,1/2+z
loop_
_atom_site_type_symbol
_atom_site_label
_atom_site_fract_x
_atom_site_fract_y
_atom_site_fract_z
Si Si1 0.792817 0.538835 0.819437
Si Si2 0.799133 0.322265 0.140381
Si Si3 0.706091 0.957246 0.058894
Si Si4 0.207757 0.541819 0.060309
Si Si5 0.294479 0.820432 0.015683
Si Si6 0.704847 0.322633 0.995566
Si Si7 0.204107 0.041004 0.180245
Si Si8 0.791360 0.178388 0.131894
O O1 0.750000 0.514560 0.750000
O O2 0.723286 0.612884 0.828188
O O3 0.730132 0.492451 0.875769
O O4 0.000000 0.542303 0.825663
O O5 0.725689 0.249883 0.153351
O O6 0.000000 0.319533 0.158028
O O7 0.786680 0.332829 0.064726
O O8 0.500000 0.953575 0.050992
O O9 0.774267 0.883258 0.052862
O O10 0.738312 0.993694 0.124239
O O11 0.773760 0.000000 0.000000
O O12 0.259225 0.616380 0.049002
O O13 0.000000 0.539574 0.060296
O O14 0.268386 0.500000 0.000000
O O15 0.500000 0.818979 0.025010
O O16 0.230903 0.747317 0.030199
O O17 0.258692 0.830594 0.941329
O O18 0.500000 0.318141 0.006113
O O19 0.250000 0.018003 0.250000
O O20 0.273000 0.114797 0.168854
O O21 0.000000 0.045304 0.175692
O O22 0.000000 0.180496 0.134726
#
# Coordination Sequence:
#
# PCOD9415309 Si02
#       8
#     8   8   8   8   8   8   8   8
#     4  10  21  35  52  73 101 136 172 211 253 300
#     4   9  17  33  51  70 102 143 176 203 247 307
#     4  10  19  34  57  79 103 139 175 214 264 315
#     4  10  19  35  55  74 100 138 176 210 253 307
#     4   9  18  32  51  78 108 134 165 208 263 312
#     4  10  19  30  50  81 108 130 165 217 260 297
#     4  11  23  36  51  76 108 142 180 221 262 310
#     4   9  18  31  50  74 102 138 178 212 245 297
#
# _framework density 18.976787000000002
#
# number of rings (size 3 to 8) (size 9 to 14) (size 15 to 20)
#    0.000    2.250    2.500    0.750    0.000    3.500 
#    0.000    0.000    0.000    0.750    0.000    1.750 
#    0.000    0.000    0.000    0.000    0.000    0.000 
#
# Total GULP energy -357049.295829 kJ/mol
# GULP energy per Si atom -5578.895247 kJ/mol
# Density = 1.893360 g / cm^3
# Si number density = 18.976787 Si / 1000 Ang^3
#
#
#
# Elastic Constant Matrix: (Units=GPa)
#
#
# Indices 1 2 3 4 5 6 
#
# 1 13.5147 8.5673 -14.3931 0.0000 0.0000 0.0000
# 2 8.5673 137.3208 76.3522 0.0000 0.0000 0.0000
# 3 -14.3931 76.3522 104.1537 0.0000 0.0000 0.0000
# 4 0.0000 0.0000 0.0000 27.8811 0.0000 0.0000
# 5 0.0000 0.0000 0.0000 0.0000 16.5091 0.0000
# 6 0.0000 0.0000 0.0000 0.0000 0.0000 10.6877
#
#
#
# Elastic Compliance Matrix: (Units=1/GPa)
#
#
# Indices 1 2 3 4 5 6 
#
# 1 0.142197 -0.033419 0.044149 0.000000 0.000000 0.000000
# 2 -0.033419 0.020147 -0.019387 0.000000 0.000000 0.000000
# 3 0.044149 -0.019387 0.029914 0.000000 0.000000 0.000000
# 4 0.000000 0.000000 0.000000 0.035867 0.000000 0.000000
# 5 0.000000 0.000000 0.000000 0.000000 0.060573 0.000000
# 6 0.000000 0.000000 0.000000 0.000000 0.000000 0.093565
#
#
# Mechanical properties :
#
#
# Convention : Reuss Voigt Hill
#
# Bulk Modulus (GPa) = 5.71614 44.00468 24.86041
# Shear Modulus (GPa) = 10.91962 23.31310 17.11636
#
# Velocity S-wave (km/s) = 2.40139 3.50881 3.00653
# Velocity P-wave (km/s) = 3.27225 6.29720 5.01808
#
# Compressibility (1/GPa) = 0.17494322
#
# Stress axis : x y z
#
# Youngs Moduli (GPa) = 7.03251 49.63591 33.42877
#
# Poissons Ratio (x) = 1.65877 -1.47584
# Poissons Ratio (y) = 0.23502 0.64809
# Poissons Ratio (z) = -0.31048 0.96230
#
# Static dielectric constant tensor:
#      x y z
#    x 1.701090 0.000000 0.000000 
#    y 0.000000 1.709020 0.000000 
#    z 0.000000 0.000000 1.606890 
# 
# From -- ./inp_files/26897.got.cif
#   From: 2010.05.17/outbox.cif.g08.bks.cpg/sg53_14_cif.got.tgz:26897.got - 2010.06.03 12:45:16.
