data_PCOD9415380
_publ_section_title
;
Structure prediction by ZEFSAII (Michael W. Deem and Ramdas Pophale) SiO2 
 PCOD9415380
Probable space group: P M N A
;
_chemical_formula_sum "Si O2"
_cell_formula_units_Z 56
_cell_length_a 14.281932
_cell_length_b 31.428773
_cell_length_c 5.368228
_cell_angle_alpha 90.000000
_cell_angle_beta 90.000000
_cell_angle_gamma 90.000000
_cell_volume 2409.602139
_symmetry_space_group_name_H-M "P M N A"
_symmetry_group_IT_number 53
_symmetry_cell_setting 'orthorhombic'
loop_
_space_group_symop_operation_xyz
x,y,z
1/2-x,-y,1/2+z
x,-y,-z
1/2-x,y,1/2-z
-x,-y,-z
1/2+x,y,1/2-z
-x,y,z
1/2+x,-y,1/2+z
loop_
_atom_site_type_symbol
_atom_site_label
_atom_site_fract_x
_atom_site_fract_y
_atom_site_fract_z
Si Si1 0.113398 0.241385 0.111971
Si Si2 0.857428 0.339459 0.225839
Si Si3 0.885539 0.095014 0.589880
Si Si4 0.614501 0.953264 0.588537
Si Si5 0.885374 0.192822 0.609935
Si Si6 0.142374 0.623719 0.268240
Si Si7 0.887163 0.475916 0.748276
O O1 0.141234 0.290243 0.148558
O O2 0.143364 0.217444 0.362090
O O3 0.000000 0.240748 0.104815
O O4 0.144998 0.217158 0.861414
O O5 0.750000 0.354078 0.250000
O O6 0.898373 0.351878 0.493478
O O7 0.900894 0.364142 0.995410
O O8 0.855063 0.065550 0.356331
O O9 0.855063 0.143956 0.580454
O O10 0.000000 0.094701 0.580537
O O11 0.859240 0.077125 0.859873
O O12 0.500000 0.954935 0.600871
O O13 0.646048 0.000000 0.500000
O O14 0.000000 0.192276 0.616984
O O15 0.250000 0.638617 0.250000
O O16 0.140674 0.573062 0.284413
O O17 0.856607 0.500000 0.500000
O O18 0.000000 0.476397 0.754804
O O19 0.855858 0.500000 0.000000
#
# Coordination Sequence:
#
# PCOD9415380 Si02
#       7
#     8   8   8   8   8   8   8
#     4  10  19  31  48  69  91 118 156 196 233 281
#     4  10  21  36  52  73 100 127 158 197 240 284
#     4   9  15  23  34  48  72 105 140 185 232 266
#     4   9  15  21  30  46  69 102 146 187 222 268
#     4   9  17  28  42  62  86 113 151 196 237 279
#     4  10  21  36  54  75  99 129 163 196 232 280
#     4  10  21  36  54  78 106 133 162 198 238 278
#
# _framework density 23.240352000000001
#
# number of rings (size 3 to 8) (size 9 to 14) (size 15 to 20)
#    0.000    2.429    0.000    3.000    0.000    6.857 
#    0.000    0.000    0.000    0.000    0.000    0.000 
#    0.000    0.000    0.000    0.000    0.000   40.000 
#
# Total GULP energy -312985.242134 kJ/mol
# GULP energy per Si atom -5589.022181 kJ/mol
# Density = 2.318746 g / cm^3
# Si number density = 23.240352 Si / 1000 Ang^3
#
#
#
# Elastic Constant Matrix: (Units=GPa)
#
#
# Indices 1 2 3 4 5 6 
#
# 1 79.3037 -26.8794 9.0877 0.0000 0.0000 0.0000
# 2 -26.8794 127.4765 72.6178 0.0000 0.0000 0.0000
# 3 9.0877 72.6178 221.4576 0.0000 0.0000 0.0000
# 4 0.0000 0.0000 0.0000 51.1963 0.0000 0.0000
# 5 0.0000 0.0000 0.0000 0.0000 -8.8555 0.0000
# 6 0.0000 0.0000 0.0000 0.0000 0.0000 22.2721
#
#
#
# Elastic Compliance Matrix: (Units=1/GPa)
#
#
# Indices 1 2 3 4 5 6 
#
# 1 0.014219 0.004096 -0.001926 0.000000 0.000000 0.000000
# 2 0.004096 0.010826 -0.003718 0.000000 0.000000 0.000000
# 3 -0.001926 -0.003718 0.005814 0.000000 0.000000 0.000000
# 4 0.000000 0.000000 0.000000 0.019533 0.000000 0.000000
# 5 0.000000 0.000000 0.000000 0.000000 -0.112924 0.000000
# 6 0.000000 0.000000 0.000000 0.000000 0.000000 0.044899
#
#
# Mechanical properties :
#
#
# Convention : Reuss Voigt Hill
#
# Bulk Modulus (GPa) = 36.02223 59.76558 47.89390
# Shear Modulus (GPa) = -946.65688 37.81670 -454.42009
#
# Velocity S-wave (km/s) = -20.20439 4.03823 -13.99840
# Velocity P-wave (km/s) = 22.99471 6.89313 15.51195
#
# Compressibility (1/GPa) = 0.02776063
#
# Stress axis : x y z
#
# Youngs Moduli (GPa) = 70.33020 92.36883 172.00539
#
# Poissons Ratio (x) = -0.37830 0.33136
# Poissons Ratio (y) = -0.28804 0.63953
# Poissons Ratio (z) = 0.13549 0.34343
#
# Static dielectric constant tensor:
#      x y z
#    x 1.902610 0.000000 0.000000 
#    y 0.000000 1.833970 0.000000 
#    z 0.000000 0.000000 1.880570 
# 
# From -- ./inp_files/3049.got.cif
#   From: 2010.05.17/outbox.cif.g08.bks.cpg/sg53_2_cif.got.tgz:3049.got - 2010.06.03 12:45:16.
