data_PCOD9415678
_publ_section_title
;
Structure prediction by ZEFSAII (Michael W. Deem and Ramdas Pophale) SiO2 
 PCOD9415678
Probable space group: P M N A
;
_chemical_formula_sum "Si O2"
_cell_formula_units_Z 64
_cell_length_a 8.866986
_cell_length_b 18.030993
_cell_length_c 20.246351
_cell_angle_alpha 90.000000
_cell_angle_beta 90.000000
_cell_angle_gamma 90.000000
_cell_volume 3236.997986
_symmetry_space_group_name_H-M "P M N A"
_symmetry_group_IT_number 53
_symmetry_cell_setting 'orthorhombic'
loop_
_space_group_symop_operation_xyz
x,y,z
1/2-x,-y,1/2+z
x,-y,-z
1/2-x,y,1/2-z
-x,-y,-z
1/2+x,y,1/2-z
-x,y,z
1/2+x,-y,1/2+z
loop_
_atom_site_type_symbol
_atom_site_label
_atom_site_fract_x
_atom_site_fract_y
_atom_site_fract_z
Si Si1 0.319101 0.875192 0.821141
Si Si2 0.182021 0.076392 0.039301
Si Si3 0.670466 0.299074 0.160452
Si Si4 0.324799 0.798402 0.439727
Si Si5 0.832121 0.329794 0.494013
Si Si6 0.674513 0.553505 0.684372
Si Si7 0.317044 0.702643 0.322652
Si Si8 0.323561 0.438039 0.899844
O O1 0.250000 0.898860 0.750000
O O2 0.500000 0.884486 0.819877
O O3 0.253731 0.913765 0.887704
O O4 0.288047 0.786471 0.828479
O O5 0.000000 0.084248 0.047699
O O6 0.241204 0.139419 0.988263
O O7 0.209604 0.000000 0.000000
O O8 0.500000 0.311655 0.187095
O O9 0.788749 0.359440 0.184593
O O10 0.662886 0.317315 0.083041
O O11 0.500000 0.817546 0.432401
O O12 0.298898 0.722255 0.478935
O O13 0.269829 0.774386 0.367099
O O14 0.810035 0.410877 0.524590
O O15 0.000000 0.306006 0.519801
O O16 0.750000 0.520542 0.750000
O O17 0.500000 0.539391 0.686080
O O18 0.745778 0.513460 0.621524
O O19 0.250000 0.708073 0.250000
O O20 0.500000 0.698479 0.322164
O O21 0.250464 0.629011 0.357578
O O22 0.500000 0.444261 0.883918
#
# Coordination Sequence:
#
# PCOD9415678 Si02
#       8
#     8   8   8   8   8   8   8   8
#     4  11  23  40  65  94 126 161 202 248 294 353
#     4  10  21  39  64  93 125 161 197 238 291 352
#     4  10  21  38  59  85 115 148 191 242 295 350
#     4   9  18  33  55  82 114 150 190 236 285 341
#     4   9  18  34  57  83 110 144 186 234 287 346
#     4  12  25  39  54  74 105 146 193 244 298 355
#     4  10  19  32  51  78 109 145 192 242 293 347
#     4  10  20  35  55  77 107 147 189 238 295 350
#
# _framework density 19.771405000000001
#
# number of rings (size 3 to 8) (size 9 to 14) (size 15 to 20)
#    0.000    1.875    1.250    3.000    0.000    4.250 
#    0.000    3.125    0.000    1.500    0.000    0.000 
#    0.000    0.000    0.000    0.000    0.000    0.000 
#
# Total GULP energy -356811.570026 kJ/mol
# GULP energy per Si atom -5575.180782 kJ/mol
# Density = 1.972640 g / cm^3
# Si number density = 19.771405 Si / 1000 Ang^3
#
#
#
# Elastic Constant Matrix: (Units=GPa)
#
#
# Indices 1 2 3 4 5 6 
#
# 1 74.0036 29.4853 42.7685 0.0000 0.0000 0.0000
# 2 29.4853 70.1390 36.9567 0.0000 0.0000 0.0000
# 3 42.7685 36.9567 131.6879 0.0000 0.0000 0.0000
# 4 0.0000 0.0000 0.0000 15.3552 0.0000 0.0000
# 5 0.0000 0.0000 0.0000 0.0000 23.8424 0.0000
# 6 0.0000 0.0000 0.0000 0.0000 0.0000 20.0199
#
#
#
# Elastic Compliance Matrix: (Units=1/GPa)
#
#
# Indices 1 2 3 4 5 6 
#
# 1 0.018182 -0.005318 -0.004412 0.000000 0.000000 0.000000
# 2 -0.005318 0.018287 -0.003405 0.000000 0.000000 0.000000
# 3 -0.004412 -0.003405 0.009982 0.000000 0.000000 0.000000
# 4 0.000000 0.000000 0.000000 0.065125 0.000000 0.000000
# 5 0.000000 0.000000 0.000000 0.000000 0.041942 0.000000
# 6 0.000000 0.000000 0.000000 0.000000 0.000000 0.049950
#
#
# Mechanical properties :
#
#
# Convention : Reuss Voigt Hill
#
# Bulk Modulus (GPa) = 49.55392 54.91684 52.23538
# Shear Modulus (GPa) = 21.14465 22.95149 22.04807
#
# Velocity S-wave (km/s) = 3.27380 3.41081 3.34301
# Velocity P-wave (km/s) = 6.27760 6.58390 6.43257
#
# Compressibility (1/GPa) = 0.02018004
#
# Stress axis : x y z
#
# Youngs Moduli (GPa) = 54.99964 54.68296 100.17765
#
# Poissons Ratio (x) = 0.29083 0.44203
# Poissons Ratio (y) = 0.29251 0.34109
# Poissons Ratio (z) = 0.24268 0.18619
#
# Static dielectric constant tensor:
#      x y z
#    x 1.705450 0.000000 0.000000 
#    y 0.000000 1.704580 0.000000 
#    z 0.000000 0.000000 1.746720 
# 
# From -- ./inp_files/31247.got.cif
#   From: 2010.05.17/outbox.cif.g08.bks.cpg/sg53_16_cif.got.tgz:31247.got - 2010.06.03 12:45:16.
