data_PCOD9415284
_publ_section_title
;
Structure prediction by ZEFSAII (Michael W. Deem and Ramdas Pophale) SiO2 
 PCOD9415284
Probable space group: P M N A
;
_chemical_formula_sum "Si O2"
_cell_formula_units_Z 64
_cell_length_a 9.137858
_cell_length_b 20.558044
_cell_length_c 19.552751
_cell_angle_alpha 90.000000
_cell_angle_beta 90.000000
_cell_angle_gamma 90.000000
_cell_volume 3673.111111
_symmetry_space_group_name_H-M "P M N A"
_symmetry_group_IT_number 53
_symmetry_cell_setting 'orthorhombic'
loop_
_space_group_symop_operation_xyz
x,y,z
1/2-x,-y,1/2+z
x,-y,-z
1/2-x,y,1/2-z
-x,-y,-z
1/2+x,y,1/2-z
-x,y,z
1/2+x,-y,1/2+z
loop_
_atom_site_type_symbol
_atom_site_label
_atom_site_fract_x
_atom_site_fract_y
_atom_site_fract_z
Si Si1 0.176620 0.349167 0.046340
Si Si2 0.673931 0.255408 0.821708
Si Si3 0.325368 0.203317 0.417975
Si Si4 0.675014 0.098973 0.176514
Si Si5 0.827035 0.977146 0.421981
Si Si6 0.331602 0.488234 0.417593
Si Si7 0.173059 0.617036 0.402856
Si Si8 0.673867 0.158403 0.573336
O O1 0.213443 0.279770 0.078909
O O2 0.216545 0.413367 0.090022
O O3 0.000000 0.351252 0.036740
O O4 0.250264 0.357224 0.972246
O O5 0.750000 0.241519 0.750000
O O6 0.500000 0.245214 0.817588
O O7 0.701034 0.329786 0.844680
O O8 0.742366 0.209653 0.879619
O O9 0.500000 0.197873 0.405294
O O10 0.237847 0.161607 0.363013
O O11 0.296427 0.174452 0.493682
O O12 0.750000 0.092575 0.250000
O O13 0.500000 0.103801 0.183393
O O14 0.707537 0.035963 0.129368
O O15 0.731543 0.913358 0.409768
O O16 0.000000 0.961390 0.415006
O O17 0.802966 0.000000 0.500000
O O18 0.328377 0.500000 0.500000
O O19 0.500000 0.495014 0.395524
O O20 0.235666 0.545732 0.386815
O O21 0.000000 0.613058 0.415017
O O22 0.500000 0.163821 0.583959
#
# Coordination Sequence:
#
# PCOD9415284 Si02
#       8
#     8   8   8   8   8   8   8   8
#     4   9  17  31  51  78 110 144 182 224 274 331
#     4  11  24  39  55  77 110 151 193 237 287 344
#     4  10  20  35  58  86 116 149 188 232 278 334
#     4  11  24  41  62  86 116 151 187 230 281 336
#     4  10  21  39  61  85 116 152 189 232 278 329
#     4   8  15  27  46  72 104 141 177 218 270 327
#     4  10  19  30  48  75 107 141 181 233 282 329
#     4  11  22  36  60  88 114 147 187 236 284 336
#
# _framework density 17.423921
#
# number of rings (size 3 to 8) (size 9 to 14) (size 15 to 20)
#    0.000    2.000    2.500    2.250    0.000    6.500 
#    0.000    1.250    0.000    0.750    0.000    1.750 
#    0.000    0.000    0.000    0.000    0.000    0.000 
#
# Total GULP energy -357162.361119 kJ/mol
# GULP energy per Si atom -5580.661892 kJ/mol
# Density = 1.738426 g / cm^3
# Si number density = 17.423921 Si / 1000 Ang^3
#
#
#
# Elastic Constant Matrix: (Units=GPa)
#
#
# Indices 1 2 3 4 5 6 
#
# 1 55.2538 57.1364 50.3298 0.0000 0.0000 0.0000
# 2 57.1364 141.8669 50.7755 0.0000 0.0000 0.0000
# 3 50.3298 50.7755 91.5415 0.0000 0.0000 0.0000
# 4 0.0000 0.0000 0.0000 14.7294 0.0000 0.0000
# 5 0.0000 0.0000 0.0000 0.0000 12.1537 0.0000
# 6 0.0000 0.0000 0.0000 0.0000 0.0000 32.2137
#
#
#
# Elastic Compliance Matrix: (Units=1/GPa)
#
#
# Indices 1 2 3 4 5 6 
#
# 1 0.049818 -0.012802 -0.020289 0.000000 0.000000 0.000000
# 2 -0.012802 0.012085 0.000336 0.000000 0.000000 0.000000
# 3 -0.020289 0.000336 0.021893 0.000000 0.000000 0.000000
# 4 0.000000 0.000000 0.000000 0.067892 0.000000 0.000000
# 5 0.000000 0.000000 0.000000 0.000000 0.082280 0.000000
# 6 0.000000 0.000000 0.000000 0.000000 0.000000 0.031043
#
#
# Mechanical properties :
#
#
# Convention : Reuss Voigt Hill
#
# Bulk Modulus (GPa) = 54.69212 67.23842 60.96527
# Shear Modulus (GPa) = 14.85378 20.51405 17.68392
#
# Velocity S-wave (km/s) = 2.92292 3.43498 3.18924
# Velocity P-wave (km/s) = 6.54588 7.37601 6.97331
#
# Compressibility (1/GPa) = 0.01828417
#
# Stress axis : x y z
#
# Youngs Moduli (GPa) = 20.07323 82.74839 45.67741
#
# Poissons Ratio (x) = 1.05937 0.92674
# Poissons Ratio (y) = 0.25698 -0.01533
# Poissons Ratio (z) = 0.40726 -0.02777
#
# Static dielectric constant tensor:
#      x y z
#    x 1.579580 0.000000 0.000000 
#    y 0.000000 1.609280 0.000000 
#    z 0.000000 0.000000 1.562690 
# 
# From -- ./inp_files/26887.got.cif
#   From: 2010.05.17/outbox.cif.g08.bks.cpg/sg53_14_cif.got.tgz:26887.got - 2010.06.03 12:45:16.
