data_PCOD9415360
_publ_section_title
;
Structure prediction by ZEFSAII (Michael W. Deem and Ramdas Pophale) SiO2 
 PCOD9415360
Probable space group: P M N A
;
_chemical_formula_sum "Si O2"
_cell_formula_units_Z 64
_cell_length_a 9.176726
_cell_length_b 21.082062
_cell_length_c 20.562612
_cell_angle_alpha 90.000000
_cell_angle_beta 90.000000
_cell_angle_gamma 90.000000
_cell_volume 3978.131470
_symmetry_space_group_name_H-M "P M N A"
_symmetry_group_IT_number 53
_symmetry_cell_setting 'orthorhombic'
loop_
_space_group_symop_operation_xyz
x,y,z
1/2-x,-y,1/2+z
x,-y,-z
1/2-x,y,1/2-z
-x,-y,-z
1/2+x,y,1/2-z
-x,y,z
1/2+x,-y,1/2+z
loop_
_atom_site_type_symbol
_atom_site_label
_atom_site_fract_x
_atom_site_fract_y
_atom_site_fract_z
Si Si1 0.332703 0.353711 0.150347
Si Si2 0.675711 0.940979 0.546464
Si Si3 0.827157 0.478975 0.184387
Si Si4 0.331330 0.072581 0.185361
Si Si5 0.671620 0.323432 0.996532
Si Si6 0.825548 0.455658 0.563089
Si Si7 0.328909 0.198510 0.480867
Si Si8 0.664586 0.785271 0.850684
O O1 0.500000 0.376471 0.159696
O O2 0.221495 0.405709 0.175050
O O3 0.310820 0.342702 0.072771
O O4 0.319867 0.283600 0.180933
O O5 0.500000 0.939171 0.556793
O O6 0.753493 0.943918 0.616857
O O7 0.717209 0.874813 0.510490
O O8 0.710200 0.000000 0.500000
O O9 0.750000 0.502092 0.250000
O O10 0.762161 0.516199 0.123047
O O11 0.000000 0.484267 0.188210
O O12 0.250000 0.048773 0.250000
O O13 0.500000 0.052410 0.184085
O O14 0.331171 0.149813 0.188546
O O15 0.500000 0.315101 0.986100
O O16 0.749991 0.256734 0.983794
O O17 0.719600 0.384039 0.954890
O O18 0.802313 0.500000 0.500000
O O19 0.000000 0.456793 0.576159
O O20 0.500000 0.203218 0.491925
O O21 0.287391 0.209275 0.405320
O O22 0.500000 0.783643 0.881393
#
# Coordination Sequence:
#
# PCOD9415360 Si02
#       8
#     8   8   8   8   8   8   8   8
#     4   9  16  31  49  67  93 128 165 198 240 287
#     4   9  18  33  51  72 101 137 171 204 245 291
#     4  12  25  37  49  68  96 128 164 208 254 302
#     4  10  19  31  47  69  97 130 169 208 245 288
#     4   9  17  30  51  73  97 128 158 197 247 295
#     4  10  19  36  57  74  95 127 164 203 250 300
#     4   9  16  26  44  71 100 126 158 201 241 282
#     4   8  16  29  44  62  90 128 164 197 235 282
#
# _framework density 16.087955000000001
#
# number of rings (size 3 to 8) (size 9 to 14) (size 15 to 20)
#    0.000    2.500    1.250    2.625    0.000    4.500 
#    0.000    1.250    0.000    0.000    0.000    0.875 
#    0.000    6.000    0.000    0.000    0.000    0.000 
#
# Total GULP energy -356509.075109 kJ/mol
# GULP energy per Si atom -5570.454299 kJ/mol
# Density = 1.605134 g / cm^3
# Si number density = 16.087955 Si / 1000 Ang^3
#
#
#
# Elastic Constant Matrix: (Units=GPa)
#
#
# Indices 1 2 3 4 5 6 
#
# 1 73.1500 51.1135 54.6598 0.0000 0.0000 0.0000
# 2 51.1135 105.5865 46.5042 0.0000 0.0000 0.0000
# 3 54.6598 46.5042 78.9449 0.0000 0.0000 0.0000
# 4 0.0000 0.0000 0.0000 8.3625 0.0000 0.0000
# 5 0.0000 0.0000 0.0000 0.0000 17.0900 0.0000
# 6 0.0000 0.0000 0.0000 0.0000 0.0000 22.4147
#
#
#
# Elastic Compliance Matrix: (Units=1/GPa)
#
#
# Indices 1 2 3 4 5 6 
#
# 1 0.032542 -0.007872 -0.017894 0.000000 0.000000 0.000000
# 2 -0.007872 0.014693 -0.003205 0.000000 0.000000 0.000000
# 3 -0.017894 -0.003205 0.026945 0.000000 0.000000 0.000000
# 4 0.000000 0.000000 0.000000 0.119582 0.000000 0.000000
# 5 0.000000 0.000000 0.000000 0.000000 0.058514 0.000000
# 6 0.000000 0.000000 0.000000 0.000000 0.000000 0.044614
#
#
# Mechanical properties :
#
#
# Convention : Reuss Voigt Hill
#
# Bulk Modulus (GPa) = 61.58590 62.47071 62.02830
# Shear Modulus (GPa) = 13.87943 16.60036 15.23990
#
# Velocity S-wave (km/s) = 2.94040 3.21573 3.08114
# Velocity P-wave (km/s) = 7.06341 7.25968 7.16222
#
# Compressibility (1/GPa) = 0.01623748
#
# Stress axis : x y z
#
# Youngs Moduli (GPa) = 30.72915 68.05830 37.11305
#
# Poissons Ratio (x) = 0.53576 0.66412
# Poissons Ratio (y) = 0.24190 0.11894
# Poissons Ratio (z) = 0.54988 0.21812
#
# Static dielectric constant tensor:
#      x y z
#    x 1.548010 0.000000 0.000000 
#    y 0.000000 1.567710 0.000000 
#    z 0.000000 0.000000 1.552380 
# 
# From -- ./inp_files/31352.got.cif
#   From: 2010.05.17/outbox.cif.g08.bks.cpg/sg53_16_cif.got.tgz:31352.got - 2010.06.03 12:45:16.
