data_PCOD9415631
_publ_section_title
;
Structure prediction by ZEFSAII (Michael W. Deem and Ramdas Pophale) SiO2 
 PCOD9415631
Probable space group: P M N A
;
_chemical_formula_sum "Si O2"
_cell_formula_units_Z 40
_cell_length_a 8.341506
_cell_length_b 12.013049
_cell_length_c 22.303118
_cell_angle_alpha 90.000000
_cell_angle_beta 90.000000
_cell_angle_gamma 90.000000
_cell_volume 2234.926768
_symmetry_space_group_name_H-M "P M N A"
_symmetry_group_IT_number 53
_symmetry_cell_setting 'orthorhombic'
loop_
_space_group_symop_operation_xyz
x,y,z
1/2-x,-y,1/2+z
x,-y,-z
1/2-x,y,1/2-z
-x,-y,-z
1/2+x,y,1/2-z
-x,y,z
1/2+x,-y,1/2+z
loop_
_atom_site_type_symbol
_atom_site_label
_atom_site_fract_x
_atom_site_fract_y
_atom_site_fract_z
Si Si1 0.188985 0.029846 0.817871
Si Si2 0.187285 0.724955 0.314633
Si Si3 0.196603 0.077024 0.056945
Si Si4 0.693790 0.443175 0.588933
Si Si5 0.194095 0.669953 0.961829
O O1 0.250000 0.004570 0.750000
O O2 0.223575 0.160022 0.830014
O O3 0.000000 0.011026 0.815755
O O4 0.250788 0.965809 0.877294
O O5 0.250000 0.690395 0.250000
O O6 0.224642 0.626712 0.359693
O O7 0.000000 0.750733 0.312066
O O8 0.250706 0.204592 0.047698
O O9 0.000000 0.074979 0.057083
O O10 0.245284 0.000000 0.000000
O O11 0.500000 0.440126 0.595656
O O12 0.745044 0.571981 0.583463
O O13 0.732802 0.379116 0.527126
O O14 0.000000 0.673772 0.958641
#
# Coordination Sequence:
#
# PCOD9415631 Si02
#       5
#     8   8   8   8   8
#     4  10  19  32  51  72  98 130 162 201 246 295
#     4  11  21  33  50  71  96 125 161 203 245 290
#     4   9  16  27  48  77 102 126 164 207 241 281
#     4   9  16  30  52  74  98 127 161 199 239 285
#     4   8  15  28  49  76 101 128 161 197 238 286
#
# _framework density 17.897679
#
# number of rings (size 3 to 8) (size 9 to 14) (size 15 to 20)
#    0.000    2.600    0.000    6.000    0.000    3.200 
#    0.000    3.000    0.000   15.600    0.000    0.000 
#    0.000    0.000    0.000    0.000    0.000    0.000 
#
# Total GULP energy -222859.445102 kJ/mol
# GULP energy per Si atom -5571.486128 kJ/mol
# Density = 1.785694 g / cm^3
# Si number density = 17.897679 Si / 1000 Ang^3
#
#
#
# Elastic Constant Matrix: (Units=GPa)
#
#
# Indices 1 2 3 4 5 6 
#
# 1 8.2788 4.6855 8.2102 0.0000 0.0000 0.0000
# 2 4.6855 136.0728 93.6712 0.0000 0.0000 0.0000
# 3 8.2102 93.6712 97.1888 0.0000 0.0000 0.0000
# 4 0.0000 0.0000 0.0000 33.4568 0.0000 0.0000
# 5 0.0000 0.0000 0.0000 0.0000 20.7838 0.0000
# 6 0.0000 0.0000 0.0000 0.0000 0.0000 13.8634
#
#
#
# Elastic Compliance Matrix: (Units=1/GPa)
#
#
# Indices 1 2 3 4 5 6 
#
# 1 0.135911 0.009579 -0.020714 0.000000 0.000000 0.000000
# 2 0.009579 0.022513 -0.022508 0.000000 0.000000 0.000000
# 3 -0.020714 -0.022508 0.033732 0.000000 0.000000 0.000000
# 4 0.000000 0.000000 0.000000 0.029889 0.000000 0.000000
# 5 0.000000 0.000000 0.000000 0.000000 0.048114 0.000000
# 6 0.000000 0.000000 0.000000 0.000000 0.000000 0.072132
#
#
# Mechanical properties :
#
#
# Convention : Reuss Voigt Hill
#
# Bulk Modulus (GPa) = 8.00819 50.51935 29.26377
# Shear Modulus (GPa) = 11.08155 22.61906 16.85030
#
# Velocity S-wave (km/s) = 2.49099 3.55885 3.07168
# Velocity P-wave (km/s) = 3.57177 6.72125 5.38204
#
# Compressibility (1/GPa) = 0.12487213
#
# Stress axis : x y z
#
# Youngs Moduli (GPa) = 7.35774 44.41858 29.64545
#
# Poissons Ratio (x) = -0.42551 0.61408
# Poissons Ratio (y) = -0.07048 0.66725
# Poissons Ratio (z) = 0.15241 0.99975
#
# Static dielectric constant tensor:
#      x y z
#    x 1.625090 0.000000 0.000000 
#    y 0.000000 1.607920 0.000000 
#    z 0.000000 0.000000 1.628070 
# 
# From -- ./inp_files/30358.got.cif
#   From: 2010.05.17/outbox.cif.g08.bks.cpg/sg53_16_cif.got.tgz:30358.got - 2010.06.03 12:45:16.
