data_PCOD9415144
_publ_section_title
;
Structure prediction by ZEFSAII (Michael W. Deem and Ramdas Pophale) SiO2 
 PCOD9415144
Probable space group: P M N A
;
_chemical_formula_sum "Si O2"
_cell_formula_units_Z 48
_cell_length_a 7.826367
_cell_length_b 12.430268
_cell_length_c 27.042827
_cell_angle_alpha 90.000000
_cell_angle_beta 90.000000
_cell_angle_gamma 90.000000
_cell_volume 2630.830035
_symmetry_space_group_name_H-M "P M N A"
_symmetry_group_IT_number 53
_symmetry_cell_setting 'orthorhombic'
loop_
_space_group_symop_operation_xyz
x,y,z
1/2-x,-y,1/2+z
x,-y,-z
1/2-x,y,1/2-z
-x,-y,-z
1/2+x,y,1/2-z
-x,y,z
1/2+x,-y,1/2+z
loop_
_atom_site_type_symbol
_atom_site_label
_atom_site_fract_x
_atom_site_fract_y
_atom_site_fract_z
Si Si1 0.292674 0.661757 0.959166
Si Si2 0.297035 0.337269 0.307162
Si Si3 0.704871 0.482272 0.883302
Si Si4 0.206133 0.274549 0.569138
Si Si5 0.203485 0.971058 0.055154
Si Si6 0.698511 0.161516 0.381826
O O1 0.500000 0.669392 0.955414
O O2 0.238936 0.554375 0.930334
O O3 0.211408 0.759784 0.929051
O O4 0.248545 0.672741 0.016238
O O5 0.250000 0.336904 0.250000
O O6 0.500000 0.330651 0.311330
O O7 0.246921 0.446880 0.335417
O O8 0.224521 0.234130 0.337613
O O9 0.500000 0.476986 0.885892
O O10 0.767271 0.360078 0.889712
O O11 0.270833 0.153039 0.568643
O O12 0.000000 0.267362 0.571463
O O13 0.000000 0.992017 0.052999
O O14 0.274763 0.050332 0.097695
O O15 0.271808 0.000000 0.000000
O O16 0.500000 0.141546 0.368911
#
# Coordination Sequence:
#
# PCOD9415144 Si02
#       6
#     8   8   8   8   8   8
#     4   9  16  27  45  68  97 132 165 199 238 282
#     4  10  20  35  56  77  96 120 157 205 255 301
#     4   9  18  32  48  70 100 130 162 201 246 292
#     4  10  19  29  45  70 101 135 169 201 235 283
#     4  10  19  31  47  67  99 139 172 202 239 287
#     4   9  18  32  48  70  98 129 165 203 243 289
#
# _framework density 18.245190999999998
#
# number of rings (size 3 to 8) (size 9 to 14) (size 15 to 20)
#    0.000    2.500    1.667    1.000    0.000    4.333 
#    0.000    0.000    0.000    6.000    0.000    4.667 
#    0.000    0.000    0.000    0.000    0.000    0.000 
#
# Total GULP energy -267432.826700 kJ/mol
# GULP energy per Si atom -5571.517223 kJ/mol
# Density = 1.820366 g / cm^3
# Si number density = 18.245191 Si / 1000 Ang^3
#
#
#
# Elastic Constant Matrix: (Units=GPa)
#
#
# Indices 1 2 3 4 5 6 
#
# 1 13.3529 3.9611 -4.2334 0.0000 0.0000 0.0000
# 2 3.9611 149.6677 68.4616 0.0000 0.0000 0.0000
# 3 -4.2334 68.4616 95.2511 0.0000 0.0000 0.0000
# 4 0.0000 0.0000 0.0000 8.3779 0.0000 0.0000
# 5 0.0000 0.0000 0.0000 0.0000 17.1773 0.0000
# 6 0.0000 0.0000 0.0000 0.0000 0.0000 18.2696
#
#
#
# Elastic Compliance Matrix: (Units=1/GPa)
#
#
# Indices 1 2 3 4 5 6 
#
# 1 0.078886 -0.005500 0.007459 0.000000 0.000000 0.000000
# 2 -0.005500 0.010338 -0.007675 0.000000 0.000000 0.000000
# 3 0.007459 -0.007675 0.016346 0.000000 0.000000 0.000000
# 4 0.000000 0.000000 0.000000 0.119362 0.000000 0.000000
# 5 0.000000 0.000000 0.000000 0.000000 0.058216 0.000000
# 6 0.000000 0.000000 0.000000 0.000000 0.000000 0.054736
#
#
# Mechanical properties :
#
#
# Convention : Reuss Voigt Hill
#
# Bulk Modulus (GPa) = 10.62254 43.85002 27.23628
# Shear Modulus (GPa) = 13.13391 21.43712 17.28551
#
# Velocity S-wave (km/s) = 2.68592 3.43147 3.08133
# Velocity P-wave (km/s) = 3.93111 6.30760 5.25545
#
# Compressibility (1/GPa) = 0.09413944
#
# Stress axis : x y z
#
# Youngs Moduli (GPa) = 12.67648 96.73492 61.17657
#
# Poissons Ratio (x) = 0.53201 -0.45632
# Poissons Ratio (y) = 0.06972 0.46950
# Poissons Ratio (z) = -0.09455 0.74239
#
# Static dielectric constant tensor:
#      x y z
#    x 1.677700 0.000000 0.000000 
#    y 0.000000 1.664280 0.000000 
#    z 0.000000 0.000000 1.552570 
# 
# From -- ./inp_files/33837.got.cif
#   From: 2010.05.17/outbox.cif.g08.bks.cpg/sg53_17_cif.got.tgz:33837.got - 2010.06.03 12:45:16.
