data_PCOD9415205
_publ_section_title
;
Structure prediction by ZEFSAII (Michael W. Deem and Ramdas Pophale) SiO2 
 PCOD9415205
Probable space group: P M N A
;
_chemical_formula_sum "Si O2"
_cell_formula_units_Z 64
_cell_length_a 8.401704
_cell_length_b 16.230376
_cell_length_c 29.529498
_cell_angle_alpha 90.000000
_cell_angle_beta 90.000000
_cell_angle_gamma 90.000000
_cell_volume 4026.725472
_symmetry_space_group_name_H-M "P M N A"
_symmetry_group_IT_number 53
_symmetry_cell_setting 'orthorhombic'
loop_
_space_group_symop_operation_xyz
x,y,z
1/2-x,-y,1/2+z
x,-y,-z
1/2-x,y,1/2-z
-x,-y,-z
1/2+x,y,1/2-z
-x,y,z
1/2+x,-y,1/2+z
loop_
_atom_site_type_symbol
_atom_site_label
_atom_site_fract_x
_atom_site_fract_y
_atom_site_fract_z
Si Si1 0.808101 0.001063 0.301812
Si Si2 0.807180 0.818849 0.698143
Si Si3 0.192214 0.401646 0.050086
Si Si4 0.807554 0.661776 0.145749
Si Si5 0.806334 0.406320 0.948853
Si Si6 0.309817 0.340152 0.142926
Si Si7 0.690631 0.497765 0.301274
Si Si8 0.809131 0.820906 0.301826
O O1 0.750000 0.001251 0.250000
O O2 0.755620 0.090543 0.319818
O O3 0.000000 0.000966 0.302850
O O4 0.755647 0.911540 0.319703
O O5 0.750000 0.809263 0.750000
O O6 0.751422 0.742885 0.667598
O O7 0.000000 0.817717 0.698848
O O8 0.238723 0.497651 0.057437
O O9 0.258269 0.348057 0.090898
O O10 0.000000 0.398808 0.051643
O O11 0.244393 0.379121 0.999081
O O12 0.752736 0.646160 0.094170
O O13 0.754445 0.583014 0.175504
O O14 0.750692 0.746018 0.167916
O O15 0.000000 0.661593 0.145801
O O16 0.000000 0.405400 0.949041
O O17 0.500000 0.340978 0.145377
O O18 0.246737 0.419816 0.169681
O O19 0.750000 0.491924 0.250000
O O20 0.500000 0.498128 0.301378
O O21 0.750000 0.811421 0.250000
O O22 0.000000 0.819461 0.300851
#
# Coordination Sequence:
#
# PCOD9415205 Si02
#       8
#     8   8   8   8   8   8   8   8
#     4   8  15  29  46  63  86 115 149 185 225 265
#     4   9  18  31  46  65  90 121 152 186 223 266
#     4   9  16  31  52  68  86 115 153 190 227 272
#     4  10  19  32  48  67  90 119 152 185 223 268
#     4   8  15  30  51  69  85 114 153 189 226 272
#     4  11  21  31  45  68  95 121 152 187 227 268
#     4  11  22  34  46  61  89 127 160 186 217 261
#     4  10  19  30  46  68  92 120 151 187 225 266
#
# _framework density 15.893808
#
# number of rings (size 3 to 8) (size 9 to 14) (size 15 to 20)
#    0.000    2.500    1.250    2.625    0.000    4.500 
#    0.000    1.875    0.000    0.000    0.000    0.875 
#    0.000    7.000    0.000    0.000    0.000    0.000 
#
# Total GULP energy -356595.514075 kJ/mol
# GULP energy per Si atom -5571.804907 kJ/mol
# Density = 1.585763 g / cm^3
# Si number density = 15.893808 Si / 1000 Ang^3
#
#
#
# Elastic Constant Matrix: (Units=GPa)
#
#
# Indices 1 2 3 4 5 6 
#
# 1 14.3043 18.3901 15.4513 0.0000 0.0000 0.0000
# 2 18.3901 146.3260 70.4598 0.0000 0.0000 0.0000
# 3 15.4513 70.4598 112.7132 0.0000 0.0000 0.0000
# 4 0.0000 0.0000 0.0000 -34.1834 0.0000 0.0000
# 5 0.0000 0.0000 0.0000 0.0000 19.9379 0.0000
# 6 0.0000 0.0000 0.0000 0.0000 0.0000 9.4759
#
#
#
# Elastic Compliance Matrix: (Units=1/GPa)
#
#
# Indices 1 2 3 4 5 6 
#
# 1 0.087406 -0.007461 -0.007318 0.000000 0.000000 0.000000
# 2 -0.007461 0.010414 -0.005487 0.000000 0.000000 0.000000
# 3 -0.007318 -0.005487 0.013305 0.000000 0.000000 0.000000
# 4 0.000000 0.000000 0.000000 -0.029254 0.000000 0.000000
# 5 0.000000 0.000000 0.000000 0.000000 0.050156 0.000000
# 6 0.000000 0.000000 0.000000 0.000000 0.000000 0.105531
#
#
# Mechanical properties :
#
#
# Convention : Reuss Voigt Hill
#
# Bulk Modulus (GPa) = 14.16570 53.54952 33.85761
# Shear Modulus (GPa) = 16.57700 10.31556 13.44628
#
# Velocity S-wave (km/s) = 3.23303 2.55037 2.91178
# Velocity P-wave (km/s) = 4.78212 6.51442 5.71430
#
# Compressibility (1/GPa) = 0.07059305
#
# Stress axis : x y z
#
# Youngs Moduli (GPa) = 11.44081 96.02422 75.15728
#
# Poissons Ratio (x) = 0.71648 0.54998
# Poissons Ratio (y) = 0.08536 0.41240
# Poissons Ratio (z) = 0.08372 0.52691
#
# Static dielectric constant tensor:
#      x y z
#    x 1.550890 0.000000 0.000000 
#    y 0.000000 1.554010 0.000000 
#    z 0.000000 0.000000 1.524580 
# 
# From -- ./inp_files/38440.got.cif
#   From: 2010.05.17/outbox.cif.g08.bks.cpg/sg53_20_cif.got.tgz:38440.got - 2010.06.03 12:45:16.
