data_PCOD9415541
_publ_section_title
;
Structure prediction by ZEFSAII (Michael W. Deem and Ramdas Pophale) SiO2 
 PCOD9415541
Probable space group: P M N A
;
_chemical_formula_sum "Si O2"
_cell_formula_units_Z 60
_cell_length_a 14.375162
_cell_length_b 14.951126
_cell_length_c 12.230624
_cell_angle_alpha 90.000000
_cell_angle_beta 90.000000
_cell_angle_gamma 90.000000
_cell_volume 2628.665131
_symmetry_space_group_name_H-M "P M N A"
_symmetry_group_IT_number 53
_symmetry_cell_setting 'orthorhombic'
loop_
_space_group_symop_operation_xyz
x,y,z
1/2-x,-y,1/2+z
x,-y,-z
1/2-x,y,1/2-z
-x,-y,-z
1/2+x,y,1/2-z
-x,y,z
1/2+x,-y,1/2+z
loop_
_atom_site_type_symbol
_atom_site_label
_atom_site_fract_x
_atom_site_fract_y
_atom_site_fract_z
Si Si1 0.891149 0.494826 0.275070
Si Si2 0.599925 0.759512 0.224260
Si Si3 0.109192 0.308498 0.336113
Si Si4 0.107774 0.892853 0.651945
Si Si5 0.193759 0.360236 0.561293
Si Si6 0.752819 0.000000 0.000000
Si Si7 0.897740 0.625411 0.075011
Si Si8 0.648323 0.949833 0.299976
O O1 0.857092 0.393387 0.267405
O O2 0.835456 0.555019 0.363379
O O3 0.889727 0.541425 0.157255
O O4 0.000000 0.495762 0.310214
O O5 0.500000 0.734189 0.172933
O O6 0.679427 0.723286 0.144505
O O7 0.603177 0.707866 0.339113
O O8 0.601096 0.863742 0.248702
O O9 0.142939 0.207140 0.322665
O O10 0.127818 0.341133 0.459663
O O11 0.000000 0.301122 0.313571
O O12 0.000000 0.889620 0.609075
O O13 0.181725 0.937530 0.568604
O O14 0.106108 0.957201 0.758066
O O15 0.298728 0.368976 0.516832
O O16 0.825415 0.055513 0.926214
O O17 0.000000 0.623404 0.020073
O O18 0.750000 0.948916 0.250000
#
# Coordination Sequence:
#
# PCOD9415541 Si02
#       8
#     8   8   8   8   8   4   8   8
#     4   9  17  33  53  81 119 149 186 244 301 358
#     4  10  19  31  52  84 117 151 190 245 308 361
#     4  10  21  34  56  90 122 153 194 248 314 375
#     4  10  22  39  60  91 124 160 207 263 320 373
#     4  11  19  31  54  87 119 151 195 243 304 368
#     4  10  23  40  61  86 122 166 216 258 312 374
#     4   9  19  33  52  81 114 150 194 241 295 355
#     4  10  21  38  58  84 123 164 205 255 312 370
#
# _framework density 22.825274
#
# number of rings (size 3 to 8) (size 9 to 14) (size 15 to 20)
#    0.000    2.133    0.000    5.400    5.600    1.067 
#    0.000    5.333    0.000    1.600    0.000    0.933 
#    0.000    0.000    0.000    0.000    0.000    0.000 
#
# Total GULP energy -334734.753233 kJ/mol
# GULP energy per Si atom -5578.912554 kJ/mol
# Density = 2.277332 g / cm^3
# Si number density = 22.825274 Si / 1000 Ang^3
#
#
#
# Elastic Constant Matrix: (Units=GPa)
#
#
# Indices 1 2 3 4 5 6 
#
# 1 100.5386 27.4204 2.7724 0.0000 0.0000 0.0000
# 2 27.4204 159.8342 12.5147 0.0000 0.0000 0.0000
# 3 2.7724 12.5147 18.0098 0.0000 0.0000 0.0000
# 4 0.0000 0.0000 0.0000 0.5453 0.0000 0.0000
# 5 0.0000 0.0000 0.0000 0.0000 45.8378 0.0000
# 6 0.0000 0.0000 0.0000 0.0000 0.0000 29.0747
#
#
#
# Elastic Compliance Matrix: (Units=1/GPa)
#
#
# Indices 1 2 3 4 5 6 
#
# 1 0.010437 -0.001761 -0.000383 0.000000 0.000000 0.000000
# 2 -0.001761 0.006913 -0.004533 0.000000 0.000000 0.000000
# 3 -0.000383 -0.004533 0.058734 0.000000 0.000000 0.000000
# 4 0.000000 0.000000 0.000000 1.833821 0.000000 0.000000
# 5 0.000000 0.000000 0.000000 0.000000 0.021816 0.000000
# 6 0.000000 0.000000 0.000000 0.000000 0.000000 0.034394
#
#
# Mechanical properties :
#
#
# Convention : Reuss Voigt Hill
#
# Bulk Modulus (GPa) = 15.94104 40.42196 28.18150
# Shear Modulus (GPa) = 2.49952 30.80323 16.65138
#
# Velocity S-wave (km/s) = 1.04759 3.67757 2.70388
# Velocity P-wave (km/s) = 2.90901 5.98168 4.70334
#
# Compressibility (1/GPa) = 0.06273115
#
# Stress axis : x y z
#
# Youngs Moduli (GPa) = 95.81149 144.64579 17.02581
#
# Poissons Ratio (x) = 0.25465 0.00653
# Poissons Ratio (y) = 0.16868 0.07718
# Poissons Ratio (z) = 0.03673 0.65568
#
# Static dielectric constant tensor:
#      x y z
#    x 1.911130 0.000000 0.000000 
#    y 0.000000 1.884060 0.000000 
#    z 0.000000 0.000000 2.042940 
# 
# From -- ./inp_files/22989.got.cif
#   From: 2010.05.17/outbox.cif.g08.bks.cpg/sg53_12_cif.got.tgz:22989.got - 2010.06.03 12:45:16.
