data_PCOD9415550
_publ_section_title
;
Structure prediction by ZEFSAII (Michael W. Deem and Ramdas Pophale) SiO2 
 PCOD9415550
Probable space group: P M N A
;
_chemical_formula_sum "Si O2"
_cell_formula_units_Z 52
_cell_length_a 24.958995
_cell_length_b 11.961570
_cell_length_c 9.069826
_cell_angle_alpha 90.000000
_cell_angle_beta 90.000000
_cell_angle_gamma 90.000000
_cell_volume 2707.785359
_symmetry_space_group_name_H-M "P M N A"
_symmetry_group_IT_number 53
_symmetry_cell_setting 'orthorhombic'
loop_
_space_group_symop_operation_xyz
x,y,z
1/2-x,-y,1/2+z
x,-y,-z
1/2-x,y,1/2-z
-x,-y,-z
1/2+x,y,1/2-z
-x,y,z
1/2+x,-y,1/2+z
loop_
_atom_site_type_symbol
_atom_site_label
_atom_site_fract_x
_atom_site_fract_y
_atom_site_fract_z
Si Si1 0.060502 0.793517 0.615299
Si Si2 0.760488 0.382291 0.925308
Si Si3 0.355947 0.243988 0.664939
Si Si4 0.357435 0.633916 0.026497
Si Si5 0.186893 0.996379 0.769939
Si Si6 0.093710 0.114396 0.069293
Si Si7 0.888909 0.000000 0.500000
O O1 0.103733 0.697747 0.584521
O O2 0.066940 0.844641 0.779968
O O3 0.073552 0.891545 0.496235
O O4 0.000000 0.753680 0.596062
O O5 0.750000 0.396702 0.750000
O O6 0.812692 0.307922 0.934245
O O7 0.705399 0.334855 0.992687
O O8 0.770470 0.500000 0.000000
O O9 0.369759 0.319836 0.807506
O O10 0.326595 0.128377 0.712199
O O11 0.404150 0.205413 0.560027
O O12 0.361040 0.500000 0.000000
O O13 0.250000 0.978621 0.750000
O O14 0.155678 0.920048 0.888958
O O15 0.152114 0.968979 0.627450
O O16 0.070584 0.000000 0.000000
#
# Coordination Sequence:
#
# PCOD9415550 Si02
#       7
#     8   8   8   8   8   8   4
#     4  11  23  41  61  82 110 151 199 248 293 333
#     4   9  19  33  54  82 116 154 191 225 275 339
#     4  10  19  35  56  81 121 153 181 230 284 345
#     4  10  21  38  59  86 115 149 195 238 282 339
#     4  10  19  31  54  84 121 154 182 217 280 351
#     4   9  22  37  53  84 117 149 190 234 288 343
#     4  10  21  36  58  86 118 148 191 236 278 342
#
# _framework density 19.203885
#
# number of rings (size 3 to 8) (size 9 to 14) (size 15 to 20)
#    0.000    2.154    1.538    1.615    3.231    5.538 
#    0.000    0.769    0.000    0.923    0.000    0.000 
#    0.000    0.000    0.000    0.000    0.000    0.000 
#
# Total GULP energy -289588.751888 kJ/mol
# GULP energy per Si atom -5569.014459 kJ/mol
# Density = 1.916018 g / cm^3
# Si number density = 19.203885 Si / 1000 Ang^3
#
#
#
# Elastic Constant Matrix: (Units=GPa)
#
#
# Indices 1 2 3 4 5 6 
#
# 1 69.5726 20.3386 17.8615 0.0000 0.0000 0.0000
# 2 20.3386 64.7617 16.4043 0.0000 0.0000 0.0000
# 3 17.8615 16.4043 54.9079 0.0000 0.0000 0.0000
# 4 0.0000 0.0000 0.0000 40.0408 0.0000 0.0000
# 5 0.0000 0.0000 0.0000 0.0000 7.8612 0.0000
# 6 0.0000 0.0000 0.0000 0.0000 0.0000 12.9315
#
#
#
# Elastic Compliance Matrix: (Units=1/GPa)
#
#
# Indices 1 2 3 4 5 6 
#
# 1 0.016666 -0.004177 -0.004174 0.000000 0.000000 0.000000
# 2 -0.004177 0.017752 -0.003945 0.000000 0.000000 0.000000
# 3 -0.004174 -0.003945 0.020749 0.000000 0.000000 0.000000
# 4 0.000000 0.000000 0.000000 0.024975 0.000000 0.000000
# 5 0.000000 0.000000 0.000000 0.000000 0.127207 0.000000
# 6 0.000000 0.000000 0.000000 0.000000 0.000000 0.077330
#
#
# Mechanical properties :
#
#
# Convention : Reuss Voigt Hill
#
# Bulk Modulus (GPa) = 32.70529 33.16126 32.93328
# Shear Modulus (GPa) = 15.65136 21.14257 18.39697
#
# Velocity S-wave (km/s) = 2.85794 3.32166 3.09849
# Velocity P-wave (km/s) = 5.28753 5.65833 5.47607
#
# Compressibility (1/GPa) = 0.03057609
#
# Stress axis : x y z
#
# Youngs Moduli (GPa) = 60.00242 56.33094 48.19610
#
# Poissons Ratio (x) = 0.23528 0.20115
# Poissons Ratio (y) = 0.25062 0.19013
# Poissons Ratio (z) = 0.25042 0.22222
#
# Static dielectric constant tensor:
#      x y z
#    x 1.675160 0.000000 0.000000 
#    y 0.000000 1.673740 0.000000 
#    z 0.000000 0.000000 1.762650 
# 
# From -- ./inp_files/12503.got.cif
#   From: 2010.05.17/outbox.cif.g08.bks.cpg/sg53_7_cif.got.tgz:12503.got - 2010.06.03 12:45:16.
