data_PCOD9415450
_publ_section_title
;
Structure prediction by ZEFSAII (Michael W. Deem and Ramdas Pophale) SiO2 
 PCOD9415450
Probable space group: P M N A
;
_chemical_formula_sum "Si O2"
_cell_formula_units_Z 64
_cell_length_a 8.941715
_cell_length_b 11.768807
_cell_length_c 34.522097
_cell_angle_alpha 90.000000
_cell_angle_beta 90.000000
_cell_angle_gamma 90.000000
_cell_volume 3632.874815
_symmetry_space_group_name_H-M "P M N A"
_symmetry_group_IT_number 53
_symmetry_cell_setting 'orthorhombic'
loop_
_space_group_symop_operation_xyz
x,y,z
1/2-x,-y,1/2+z
x,-y,-z
1/2-x,y,1/2-z
-x,-y,-z
1/2+x,y,1/2-z
-x,y,z
1/2+x,-y,1/2+z
loop_
_atom_site_type_symbol
_atom_site_label
_atom_site_fract_x
_atom_site_fract_y
_atom_site_fract_z
Si Si1 0.817487 0.109824 0.628883
Si Si2 0.319271 0.143520 0.105621
Si Si3 0.820338 0.260971 0.473840
Si Si4 0.826414 0.480823 0.060216
Si Si5 0.679863 0.776230 0.208492
Si Si6 0.826047 0.641822 0.856739
Si Si7 0.319826 0.272476 0.940752
Si Si8 0.321345 0.488953 0.791403
O O1 0.769930 0.149871 0.671635
O O2 0.767868 0.197567 0.595541
O O3 0.000000 0.111893 0.628880
O O4 0.771763 0.982667 0.617485
O O5 0.500000 0.148948 0.107655
O O6 0.275570 0.179163 0.061674
O O7 0.250472 0.238239 0.133695
O O8 0.749167 0.384580 0.466331
O O9 0.781477 0.220721 0.517063
O O10 0.000000 0.272968 0.471979
O O11 0.817079 0.430145 0.103558
O O12 0.745180 0.601138 0.059832
O O13 0.000000 0.494055 0.049779
O O14 0.750000 0.807002 0.250000
O O15 0.500000 0.784719 0.211651
O O16 0.716199 0.643549 0.200315
O O17 0.743332 0.571485 0.823741
O O18 0.000000 0.657304 0.846938
O O19 0.500000 0.279505 0.938483
O O20 0.250000 0.516637 0.750000
O O21 0.500000 0.498065 0.789710
#
# Coordination Sequence:
#
# PCOD9415450 Si02
#       8
#     8   8   8   8   8   8   8   8
#     4   9  18  33  53  75  99 130 169 209 248 295
#     4   9  18  34  53  71  96 133 173 209 249 297
#     4   9  18  31  49  73  99 130 167 208 254 301
#     4  10  20  32  48  71 100 133 168 208 254 306
#     4   9  18  33  53  77 103 130 159 195 243 295
#     4  10  20  34  51  72  99 131 169 210 251 296
#     4  10  19  31  49  74 102 129 163 209 255 303
#     4  10  19  32  53  80 108 134 160 197 248 305
#
# _framework density 17.616900999999999
#
# number of rings (size 3 to 8) (size 9 to 14) (size 15 to 20)
#    0.000    2.500    0.000    2.250    0.000    5.500 
#    0.000    5.000    0.000    1.500    0.000    4.375 
#    0.000    0.000    0.000    0.000    0.000    0.000 
#
# Total GULP energy -357013.340832 kJ/mol
# GULP energy per Si atom -5578.333451 kJ/mol
# Density = 1.757680 g / cm^3
# Si number density = 17.616901 Si / 1000 Ang^3
#
#
#
# Elastic Constant Matrix: (Units=GPa)
#
#
# Indices 1 2 3 4 5 6 
#
# 1 23.4646 27.6923 39.8552 0.0000 0.0000 0.0000
# 2 27.6923 109.8848 97.5508 0.0000 0.0000 0.0000
# 3 39.8552 97.5508 138.1849 0.0000 0.0000 0.0000
# 4 0.0000 0.0000 0.0000 19.6487 0.0000 0.0000
# 5 0.0000 0.0000 0.0000 0.0000 23.0491 0.0000
# 6 0.0000 0.0000 0.0000 0.0000 0.0000 9.4898
#
#
#
# Elastic Compliance Matrix: (Units=1/GPa)
#
#
# Indices 1 2 3 4 5 6 
#
# 1 0.083579 0.000903 -0.024743 0.000000 0.000000 0.000000
# 2 0.000903 0.024388 -0.017477 0.000000 0.000000 0.000000
# 3 -0.024743 -0.017477 0.026711 0.000000 0.000000 0.000000
# 4 0.000000 0.000000 0.000000 0.050894 0.000000 0.000000
# 5 0.000000 0.000000 0.000000 0.000000 0.043386 0.000000
# 6 0.000000 0.000000 0.000000 0.000000 0.000000 0.105376
#
#
# Mechanical properties :
#
#
# Convention : Reuss Voigt Hill
#
# Bulk Modulus (GPa) = 19.21482 66.85898 43.03690
# Shear Modulus (GPa) = 11.51234 17.53324 14.52279
#
# Velocity S-wave (km/s) = 2.55910 3.15818 2.87429
# Velocity P-wave (km/s) = 4.43427 7.16469 5.95800
#
# Compressibility (1/GPa) = 0.05204317
#
# Stress axis : x y z
#
# Youngs Moduli (GPa) = 11.96479 41.00301 37.43763
#
# Poissons Ratio (x) = -0.03703 0.92632
# Poissons Ratio (y) = -0.01080 0.65431
# Poissons Ratio (z) = 0.29605 0.71662
#
# Static dielectric constant tensor:
#      x y z
#    x 1.591080 0.000000 0.000000 
#    y 0.000000 1.568510 0.000000 
#    z 0.000000 0.000000 1.610510 
# 
# From -- ./inp_files/38172.got.cif
#   From: 2010.05.17/outbox.cif.g08.bks.cpg/sg53_20_cif.got.tgz:38172.got - 2010.06.03 12:45:16.
