data_PCOD9415117
_publ_section_title
;
Structure prediction by ZEFSAII (Michael W. Deem and Ramdas Pophale) SiO2 
 PCOD9415117
Probable space group: P M N A
;
_chemical_formula_sum "Si O2"
_cell_formula_units_Z 64
_cell_length_a 14.765255
_cell_length_b 9.785715
_cell_length_c 28.415914
_cell_angle_alpha 90.000000
_cell_angle_beta 90.000000
_cell_angle_gamma 90.000000
_cell_volume 4105.774987
_symmetry_space_group_name_H-M "P M N A"
_symmetry_group_IT_number 53
_symmetry_cell_setting 'orthorhombic'
loop_
_space_group_symop_operation_xyz
x,y,z
1/2-x,-y,1/2+z
x,-y,-z
1/2-x,y,1/2-z
-x,-y,-z
1/2+x,y,1/2-z
-x,y,z
1/2+x,-y,1/2+z
loop_
_atom_site_type_symbol
_atom_site_label
_atom_site_fract_x
_atom_site_fract_y
_atom_site_fract_z
Si Si1 0.204317 0.600620 0.142647
Si Si2 0.336197 0.888263 0.215160
Si Si3 0.895412 0.909790 0.046260
Si Si4 0.391517 0.577882 0.722367
Si Si5 0.393836 0.413338 0.546263
Si Si6 0.700295 0.918660 0.359138
Si Si7 0.397207 0.399910 0.814064
Si Si8 0.604966 0.111963 0.284809
O O1 0.159255 0.510190 0.183116
O O2 0.168187 0.556650 0.091520
O O3 0.173429 0.759276 0.148944
O O4 0.313102 0.595839 0.149708
O O5 0.250000 0.860040 0.250000
O O6 0.300550 0.923092 0.162872
O O7 0.391342 0.748884 0.210995
O O8 0.382021 0.018550 0.238723
O O9 0.886130 0.748534 0.035777
O O10 0.824420 0.946254 0.087096
O O11 0.000000 0.930554 0.063096
O O12 0.882946 0.000000 0.000000
O O13 0.500000 0.572675 0.713335
O O14 0.378319 0.510894 0.773481
O O15 0.359141 0.734809 0.721132
O O16 0.370871 0.500000 0.500000
O O17 0.500000 0.440484 0.557925
O O18 0.648278 0.026465 0.326953
O O19 0.500000 0.418955 0.832179
O O20 0.500000 0.124885 0.294865
#
# Coordination Sequence:
#
# PCOD9415117 Si02
#       8
#     8   8   8   8   8   8   8   8
#     4  10  19  32  49  67  91 121 156 191 227 269
#     4   9  17  29  45  64  87 119 155 189 225 263
#     4   9  17  29  45  64  88 115 141 175 218 264
#     4  10  20  30  43  67  96 127 157 187 227 271
#     4   9  18  32  49  69  92 116 144 181 225 274
#     4   9  18  30  44  64  87 117 153 184 218 261
#     4  10  19  31  47  66  90 121 158 194 227 265
#     4  10  19  29  42  64  94 122 150 183 221 268
#
# _framework density 15.5878
#
# number of rings (size 3 to 8) (size 9 to 14) (size 15 to 20)
#    0.000    2.500    0.000    3.750    0.000    6.500 
#    0.000    2.500    0.000    0.375    0.000    0.000 
#    0.000   50.000    0.000    0.000    0.000    0.500 
#
# Total GULP energy -356407.743479 kJ/mol
# GULP energy per Si atom -5568.870992 kJ/mol
# Density = 1.555232 g / cm^3
# Si number density = 15.587800 Si / 1000 Ang^3
#
#
#
# Elastic Constant Matrix: (Units=GPa)
#
#
# Indices 1 2 3 4 5 6 
#
# 1 64.0062 27.9535 39.5671 0.0000 0.0000 0.0000
# 2 27.9535 78.2737 35.4058 0.0000 0.0000 0.0000
# 3 39.5671 35.4058 73.9598 0.0000 0.0000 0.0000
# 4 0.0000 0.0000 0.0000 21.8184 0.0000 0.0000
# 5 0.0000 0.0000 0.0000 0.0000 20.5010 0.0000
# 6 0.0000 0.0000 0.0000 0.0000 0.0000 17.5038
#
#
#
# Elastic Compliance Matrix: (Units=1/GPa)
#
#
# Indices 1 2 3 4 5 6 
#
# 1 0.024088 -0.003540 -0.011192 0.000000 0.000000 0.000000
# 2 -0.003540 0.016827 -0.006162 0.000000 0.000000 0.000000
# 3 -0.011192 -0.006162 0.022458 0.000000 0.000000 0.000000
# 4 0.000000 0.000000 0.000000 0.045833 0.000000 0.000000
# 5 0.000000 0.000000 0.000000 0.000000 0.048778 0.000000
# 6 0.000000 0.000000 0.000000 0.000000 0.000000 0.057130
#
#
# Mechanical properties :
#
#
# Convention : Reuss Voigt Hill
#
# Bulk Modulus (GPa) = 46.32625 46.89916 46.61271
# Shear Modulus (GPa) = 18.93245 19.51887 19.22566
#
# Velocity S-wave (km/s) = 3.48885 3.54247 3.51576
# Velocity P-wave (km/s) = 6.78332 6.84723 6.81535
#
# Compressibility (1/GPa) = 0.02158603
#
# Stress axis : x y z
#
# Youngs Moduli (GPa) = 41.51422 59.42844 44.52755
#
# Poissons Ratio (x) = 0.21037 0.49835
# Poissons Ratio (y) = 0.14696 0.27436
# Poissons Ratio (z) = 0.46463 0.36617
#
# Static dielectric constant tensor:
#      x y z
#    x 1.545110 0.000000 0.000000 
#    y 0.000000 1.540960 0.000000 
#    z 0.000000 0.000000 1.504700 
# 
# From -- ./inp_files/38953.got.cif
#   From: 2010.05.17/outbox.cif.g08.bks.cpg/sg53_20_cif.got.tgz:38953.got - 2010.06.03 12:45:16.
