data_PCOD9415825
_publ_section_title
;
Structure prediction by ZEFSAII (Michael W. Deem and Ramdas Pophale) SiO2 
 PCOD9415825
Probable space group: P M N A
;
_chemical_formula_sum "Si O2"
_cell_formula_units_Z 48
_cell_length_a 8.655866
_cell_length_b 16.049648
_cell_length_c 18.618232
_cell_angle_alpha 90.000000
_cell_angle_beta 90.000000
_cell_angle_gamma 90.000000
_cell_volume 2586.511860
_symmetry_space_group_name_H-M "P M N A"
_symmetry_group_IT_number 53
_symmetry_cell_setting 'orthorhombic'
loop_
_space_group_symop_operation_xyz
x,y,z
1/2-x,-y,1/2+z
x,-y,-z
1/2-x,y,1/2-z
-x,-y,-z
1/2+x,y,1/2-z
-x,y,z
1/2+x,-y,1/2+z
loop_
_atom_site_type_symbol
_atom_site_label
_atom_site_fract_x
_atom_site_fract_y
_atom_site_fract_z
Si Si1 0.685806 0.176722 0.086073
Si Si2 0.185637 0.334238 0.170081
Si Si3 0.683933 0.180205 0.574657
Si Si4 0.188298 0.501903 0.917531
Si Si5 0.813216 0.662057 0.169707
Si Si6 0.821443 0.006744 0.587141
O O1 0.500000 0.177394 0.087776
O O2 0.753310 0.249974 0.133991
O O3 0.736286 0.083980 0.111533
O O4 0.739598 0.188494 0.003781
O O5 0.250000 0.342877 0.250000
O O6 0.235497 0.413704 0.122556
O O7 0.000000 0.332573 0.171753
O O8 0.500000 0.185194 0.565123
O O9 0.734103 0.255183 0.626315
O O10 0.728191 0.089532 0.605599
O O11 0.237611 0.420181 0.873767
O O12 0.000000 0.501125 0.918640
O O13 0.240848 0.500000 0.000000
O O14 0.750000 0.661473 0.250000
O O15 0.000000 0.661249 0.172367
O O16 0.000000 0.017681 0.608850
O O17 0.819325 0.000000 0.500000
#
# Coordination Sequence:
#
# PCOD9415825 Si02
#       6
#     8   8   8   8   8   8
#     4  10  20  35  55  79 108 142 180 222 269 320
#     4  11  22  36  56  80 109 144 179 219 267 318
#     4  10  19  32  54  82 108 139 181 225 268 316
#     4   9  18  35  58  81 106 137 174 217 264 315
#     4  10  21  36  54  78 109 144 178 213 261 317
#     4   8  16  31  51  76 106 139 174 219 272 317
#
# _framework density 18.557811999999998
#
# number of rings (size 3 to 8) (size 9 to 14) (size 15 to 20)
#    0.000    2.333    0.000    4.000    0.000    7.667 
#    0.000    1.667    0.000    5.500    0.000    0.000 
#    0.000    0.000    0.000    0.000    0.000    0.000 
#
# Total GULP energy -267876.733401 kJ/mol
# GULP energy per Si atom -5580.765279 kJ/mol
# Density = 1.851557 g / cm^3
# Si number density = 18.557812 Si / 1000 Ang^3
#
#
#
# Elastic Constant Matrix: (Units=GPa)
#
#
# Indices 1 2 3 4 5 6 
#
# 1 33.2311 36.2759 25.1057 0.0000 0.0000 0.0000
# 2 36.2759 184.6886 87.4211 0.0000 0.0000 0.0000
# 3 25.1057 87.4211 120.6261 0.0000 0.0000 0.0000
# 4 0.0000 0.0000 0.0000 -7.7674 0.0000 0.0000
# 5 0.0000 0.0000 0.0000 0.0000 25.5681 0.0000
# 6 0.0000 0.0000 0.0000 0.0000 0.0000 38.0602
#
#
#
# Elastic Compliance Matrix: (Units=1/GPa)
#
#
# Indices 1 2 3 4 5 6 
#
# 1 0.039508 -0.005887 -0.003956 0.000000 0.000000 0.000000
# 2 -0.005887 0.009119 -0.005384 0.000000 0.000000 0.000000
# 3 -0.003956 -0.005384 0.013015 0.000000 0.000000 0.000000
# 4 0.000000 0.000000 0.000000 -0.128744 0.000000 0.000000
# 5 0.000000 0.000000 0.000000 0.000000 0.039111 0.000000
# 6 0.000000 0.000000 0.000000 0.000000 0.000000 0.026274
#
#
# Mechanical properties :
#
#
# Convention : Reuss Voigt Hill
#
# Bulk Modulus (GPa) = 32.06346 70.68346 51.37346
# Shear Modulus (GPa) = 127.76694 23.82173 75.79434
#
# Velocity S-wave (km/s) = 8.30647 3.58669 6.39773
# Velocity P-wave (km/s) = 10.45523 7.43797 9.07291
#
# Compressibility (1/GPa) = 0.03118815
#
# Stress axis : x y z
#
# Youngs Moduli (GPa) = 25.31145 109.65873 76.83417
#
# Poissons Ratio (x) = 0.64562 0.30395
# Poissons Ratio (y) = 0.14902 0.41364
# Poissons Ratio (z) = 0.10013 0.59036
#
# Static dielectric constant tensor:
#      x y z
#    x 1.632970 0.000000 0.000000 
#    y 0.000000 1.654430 0.000000 
#    z 0.000000 0.000000 1.601670 
# 
# From -- ./inp_files/26269.got.cif
#   From: 2010.05.17/outbox.cif.g08.bks.cpg/sg53_14_cif.got.tgz:26269.got - 2010.06.03 12:45:16.
