data_PCOD9415473
_publ_section_title
;
Structure prediction by ZEFSAII (Michael W. Deem and Ramdas Pophale) SiO2 
 PCOD9415473
Probable space group: P M N A
;
_chemical_formula_sum "Si O2"
_cell_formula_units_Z 44
_cell_length_a 14.645513
_cell_length_b 15.484910
_cell_length_c 6.893207
_cell_angle_alpha 90.000000
_cell_angle_beta 90.000000
_cell_angle_gamma 90.000000
_cell_volume 1563.272163
_symmetry_space_group_name_H-M "P M N A"
_symmetry_group_IT_number 53
_symmetry_cell_setting 'orthorhombic'
loop_
_space_group_symop_operation_xyz
x,y,z
1/2-x,-y,1/2+z
x,-y,-z
1/2-x,y,1/2-z
-x,-y,-z
1/2+x,y,1/2-z
-x,y,z
1/2+x,-y,1/2+z
loop_
_atom_site_type_symbol
_atom_site_label
_atom_site_fract_x
_atom_site_fract_y
_atom_site_fract_z
Si Si1 0.107298 0.793755 0.363320
Si Si2 0.898075 0.832907 0.827437
Si Si3 0.893106 0.423742 0.241745
Si Si4 0.643417 0.983763 0.222955
Si Si5 0.750000 0.273168 0.250000
Si Si6 0.105829 0.391136 0.702923
O O1 0.116458 0.803114 0.598318
O O2 0.127878 0.882218 0.252398
O O3 0.148102 0.703999 0.287385
O O4 0.000000 0.782937 0.340594
O O5 0.800568 0.797545 0.897128
O O6 0.000000 0.801303 0.884141
O O7 0.900343 0.936574 0.836636
O O8 0.826305 0.346951 0.184544
O O9 0.858090 0.521153 0.201674
O O10 0.894973 0.410245 0.473957
O O11 0.000000 0.415556 0.182248
O O12 0.750000 0.998121 0.250000
O O13 0.615097 0.000000 0.000000
O O14 0.000000 0.387651 0.764222
#
# Coordination Sequence:
#
# PCOD9415473 Si02
#       6
#     8   8   8   8   4   8
#     4   9  16  30  53  75  98 133 173 219 268 309
#     4  10  19  31  49  77 105 131 172 221 263 312
#     4   9  17  28  44  70 101 126 162 213 264 315
#     4  10  20  34  52  80 111 138 175 222 269 319
#     4  12  18  26  46  74 104 126 164 214 272 316
#     4   8  14  28  47  66  94 128 162 213 268 307
#
# _framework density 28.146090999999998
#
# number of rings (size 3 to 8) (size 9 to 14) (size 15 to 20)
#    0.000    2.545    2.727    2.182    0.000    2.182 
#    1.636    0.000    0.000    2.182    0.000   10.182 
#    0.000    0.000    0.000    0.000    0.000    0.000 
#
# Total GULP energy -245205.028429 kJ/mol
# GULP energy per Si atom -5572.841555 kJ/mol
# Density = 2.808203 g / cm^3
# Si number density = 28.146091 Si / 1000 Ang^3
#
#
#
# Elastic Constant Matrix: (Units=GPa)
#
#
# Indices 1 2 3 4 5 6 
#
# 1 160.8738 26.6098 -28.7660 0.0000 0.0000 0.0000
# 2 26.6098 248.8745 23.6394 0.0000 0.0000 0.0000
# 3 -28.7660 23.6394 113.6878 0.0000 0.0000 0.0000
# 4 0.0000 0.0000 0.0000 14.1195 0.0000 0.0000
# 5 0.0000 0.0000 0.0000 0.0000 -2.1819 0.0000
# 6 0.0000 0.0000 0.0000 0.0000 0.0000 199.9914
#
#
#
# Elastic Compliance Matrix: (Units=1/GPa)
#
#
# Indices 1 2 3 4 5 6 
#
# 1 0.006701 -0.000895 0.001882 0.000000 0.000000 0.000000
# 2 -0.000895 0.004219 -0.001104 0.000000 0.000000 0.000000
# 3 0.001882 -0.001104 0.009502 0.000000 0.000000 0.000000
# 4 0.000000 0.000000 0.000000 0.070824 0.000000 0.000000
# 5 0.000000 0.000000 0.000000 0.000000 -0.458314 0.000000
# 6 0.000000 0.000000 0.000000 0.000000 0.000000 0.005000
#
#
# Mechanical properties :
#
#
# Convention : Reuss Voigt Hill
#
# Bulk Modulus (GPa) = 49.53877 62.93360 56.23619
# Shear Modulus (GPa) = -14.08032 75.84932 30.88450
#
# Velocity S-wave (km/s) = -2.23907 5.19682 3.31613
# Velocity P-wave (km/s) = 3.30971 7.64313 5.88947
#
# Compressibility (1/GPa) = 0.02018621
#
# Stress axis : x y z
#
# Youngs Moduli (GPa) = 149.24134 237.04362 105.24550
#
# Poissons Ratio (x) = 0.21219 -0.19802
# Poissons Ratio (y) = 0.13359 0.11616
# Poissons Ratio (z) = -0.28080 0.26162
#
# Static dielectric constant tensor:
#      x y z
#    x -45.277950 0.000000 0.000000 
#    y 0.000000 2.277050 0.000000 
#    z 0.000000 0.000000 1.569750 
# 
# From -- ./inp_files/15875.got.cif
#   From: 2010.05.17/outbox.cif.g08.bks.cpg/sg53_8_cif.got.tgz:15875.got - 2010.06.03 12:45:16.
