data_PCOD9415499
_publ_section_title
;
Structure prediction by ZEFSAII (Michael W. Deem and Ramdas Pophale) SiO2 
 PCOD9415499
Probable space group: P M N A
;
_chemical_formula_sum "Si O2"
_cell_formula_units_Z 40
_cell_length_a 9.166322
_cell_length_b 9.843998
_cell_length_c 26.015261
_cell_angle_alpha 90.000000
_cell_angle_beta 90.000000
_cell_angle_gamma 90.000000
_cell_volume 2347.441691
_symmetry_space_group_name_H-M "P M N A"
_symmetry_group_IT_number 53
_symmetry_cell_setting 'orthorhombic'
loop_
_space_group_symop_operation_xyz
x,y,z
1/2-x,-y,1/2+z
x,-y,-z
1/2-x,y,1/2-z
-x,-y,-z
1/2+x,y,1/2-z
-x,y,z
1/2+x,-y,1/2+z
loop_
_atom_site_type_symbol
_atom_site_label
_atom_site_fract_x
_atom_site_fract_y
_atom_site_fract_z
Si Si1 0.675351 0.248315 0.586110
Si Si2 0.826917 0.717653 0.966545
Si Si3 0.673739 0.945035 0.618240
Si Si4 0.173372 0.518885 0.610329
Si Si5 0.326117 0.746211 0.804824
O O1 0.500000 0.262125 0.590079
O O2 0.713086 0.258921 0.525590
O O3 0.753226 0.372394 0.614241
O O4 0.715029 0.100156 0.607380
O O5 0.802386 0.853190 0.932702
O O6 0.740411 0.597219 0.938812
O O7 0.000000 0.686282 0.964263
O O8 0.500000 0.939416 0.629184
O O9 0.761580 0.873898 0.663863
O O10 0.204751 0.615321 0.659174
O O11 0.000000 0.507134 0.604761
O O12 0.250000 0.733902 0.750000
O O13 0.500000 0.758694 0.799284
#
# Coordination Sequence:
#
# PCOD9415499 Si02
#       5
#     8   8   8   8   8
#     4  10  19  31  50  77 107 138 170 204 244 292
#     4   9  17  31  51  74 103 140 177 207 238 287
#     4   9  18  33  53  77 104 134 169 208 249 294
#     4  10  21  34  49  74 105 135 169 209 252 298
#     4  10  21  38  58  76  95 125 167 211 256 305
#
# _framework density 17.039826999999999
#
# number of rings (size 3 to 8) (size 9 to 14) (size 15 to 20)
#    0.000    2.400    0.000    2.400    0.000    8.800 
#    0.000    1.000    0.000    8.400    0.000    0.000 
#    0.000    0.000    0.000    0.000    0.000    0.000 
#
# Total GULP energy -223263.747027 kJ/mol
# GULP energy per Si atom -5581.593676 kJ/mol
# Density = 1.700104 g / cm^3
# Si number density = 17.039827 Si / 1000 Ang^3
#
#
#
# Elastic Constant Matrix: (Units=GPa)
#
#
# Indices 1 2 3 4 5 6 
#
# 1 47.5472 62.1830 56.9407 0.0000 0.0000 0.0000
# 2 62.1830 149.1790 56.3908 0.0000 0.0000 0.0000
# 3 56.9407 56.3908 110.6523 0.0000 0.0000 0.0000
# 4 0.0000 0.0000 0.0000 5.5787 0.0000 0.0000
# 5 0.0000 0.0000 0.0000 0.0000 19.4412 0.0000
# 6 0.0000 0.0000 0.0000 0.0000 0.0000 -29.3297
#
#
#
# Elastic Compliance Matrix: (Units=1/GPa)
#
#
# Indices 1 2 3 4 5 6 
#
# 1 0.109725 -0.030214 -0.041066 0.000000 0.000000 0.000000
# 2 -0.030214 0.016623 0.007077 0.000000 0.000000 0.000000
# 3 -0.041066 0.007077 0.026563 0.000000 0.000000 0.000000
# 4 0.000000 0.000000 0.000000 0.179252 0.000000 0.000000
# 5 0.000000 0.000000 0.000000 0.000000 0.051437 0.000000
# 6 0.000000 0.000000 0.000000 0.000000 0.000000 -0.034095
#
#
# Mechanical properties :
#
#
# Convention : Reuss Voigt Hill
#
# Bulk Modulus (GPa) = 40.80928 73.15640 56.98284
# Shear Modulus (GPa) = 10.28640 7.92897 9.10768
#
# Velocity S-wave (km/s) = 2.45963 2.15947 2.31442
# Velocity P-wave (km/s) = 5.66284 7.01737 6.37618
#
# Compressibility (1/GPa) = 0.02450423
#
# Stress axis : x y z
#
# Youngs Moduli (GPa) = 9.11371 60.15913 37.64641
#
# Poissons Ratio (x) = 1.81765 1.54598
# Poissons Ratio (y) = 0.27536 -0.26641
# Poissons Ratio (z) = 0.37426 -0.42572
#
# Static dielectric constant tensor:
#      x y z
#    x 1.564170 0.000000 0.000000 
#    y 0.000000 1.567430 0.000000 
#    z 0.000000 0.000000 1.551540 
# 
# From -- ./inp_files/33606.got.cif
#   From: 2010.05.17/outbox.cif.g08.bks.cpg/sg53_17_cif.got.tgz:33606.got - 2010.06.03 12:45:16.
