data_PCOD9415529
_publ_section_title
;
Structure prediction by ZEFSAII (Michael W. Deem and Ramdas Pophale) SiO2 
 PCOD9415529
Probable space group: P M N A
;
_chemical_formula_sum "Si O2"
_cell_formula_units_Z 64
_cell_length_a 8.998928
_cell_length_b 19.920381
_cell_length_c 20.258212
_cell_angle_alpha 90.000000
_cell_angle_beta 90.000000
_cell_angle_gamma 90.000000
_cell_volume 3631.529106
_symmetry_space_group_name_H-M "P M N A"
_symmetry_group_IT_number 53
_symmetry_cell_setting 'orthorhombic'
loop_
_space_group_symop_operation_xyz
x,y,z
1/2-x,-y,1/2+z
x,-y,-z
1/2-x,y,1/2-z
-x,-y,-z
1/2+x,y,1/2-z
-x,y,z
1/2+x,-y,1/2+z
loop_
_atom_site_type_symbol
_atom_site_label
_atom_site_fract_x
_atom_site_fract_y
_atom_site_fract_z
Si Si1 0.177501 0.700693 0.555619
Si Si2 0.821677 0.391866 0.318388
Si Si3 0.175823 0.110824 0.886703
Si Si4 0.676518 0.643648 0.084915
Si Si5 0.821825 0.537978 0.180218
Si Si6 0.324056 0.155400 0.461303
Si Si7 0.171506 0.977501 0.577215
Si Si8 0.324914 0.766840 0.182979
O O1 0.206586 0.658388 0.621413
O O2 0.219539 0.658018 0.490570
O O3 0.257905 0.772128 0.554732
O O4 0.000000 0.712596 0.550626
O O5 0.750000 0.366879 0.250000
O O6 0.745272 0.463834 0.331347
O O7 0.000000 0.400689 0.311243
O O8 0.253289 0.162800 0.837918
O O9 0.000000 0.108941 0.875540
O O10 0.243418 0.036351 0.884550
O O11 0.201995 0.139033 0.961076
O O12 0.500000 0.627060 0.087614
O O13 0.768786 0.586743 0.122056
O O14 0.698567 0.712682 0.125270
O O15 0.750000 0.561109 0.250000
O O16 0.000000 0.536078 0.185740
O O17 0.500000 0.154159 0.450352
O O18 0.247584 0.095086 0.421032
O O19 0.000000 0.974048 0.597240
O O20 0.176075 0.000000 0.500000
O O21 0.250000 0.742036 0.250000
O O22 0.500000 0.774713 0.192796
#
# Coordination Sequence:
#
# PCOD9415529 Si02
#       8
#     8   8   8   8   8   8   8   8
#     4  10  21  37  58  83 112 147 182 224 277 334
#     4  10  21  39  62  84 109 141 181 225 274 333
#     4  10  19  32  50  75 107 140 181 228 274 322
#     4  10  21  37  56  80 111 145 185 229 274 327
#     4  11  22  37  58  81 110 146 187 229 273 325
#     4  10  19  31  51  80 112 142 175 224 276 323
#     4   9  17  29  49  74 103 140 180 220 265 320
#     4  11  22  35  53  75 107 149 191 230 274 329
#
# _framework density 17.623429999999999
#
# number of rings (size 3 to 8) (size 9 to 14) (size 15 to 20)
#    0.000    1.875    1.250    4.125    0.000    6.500 
#    0.000    2.500    0.000    0.750    0.000    3.500 
#    0.000    0.000    0.000    0.000    0.000    0.000 
#
# Total GULP energy -357368.123593 kJ/mol
# GULP energy per Si atom -5583.876931 kJ/mol
# Density = 1.758332 g / cm^3
# Si number density = 17.623430 Si / 1000 Ang^3
#
#
#
# Elastic Constant Matrix: (Units=GPa)
#
#
# Indices 1 2 3 4 5 6 
#
# 1 94.5911 70.1281 63.3230 0.0000 0.0000 0.0000
# 2 70.1281 104.8667 60.4494 0.0000 0.0000 0.0000
# 3 63.3230 60.4494 93.7470 0.0000 0.0000 0.0000
# 4 0.0000 0.0000 0.0000 9.1269 0.0000 0.0000
# 5 0.0000 0.0000 0.0000 0.0000 23.6697 0.0000
# 6 0.0000 0.0000 0.0000 0.0000 0.0000 32.9616
#
#
#
# Elastic Compliance Matrix: (Units=1/GPa)
#
#
# Indices 1 2 3 4 5 6 
#
# 1 0.025779 -0.011462 -0.010022 0.000000 0.000000 0.000000
# 2 -0.011462 0.020274 -0.005331 0.000000 0.000000 0.000000
# 3 -0.010022 -0.005331 0.020873 0.000000 0.000000 0.000000
# 4 0.000000 0.000000 0.000000 0.109567 0.000000 0.000000
# 5 0.000000 0.000000 0.000000 0.000000 0.042248 0.000000
# 6 0.000000 0.000000 0.000000 0.000000 0.000000 0.030338
#
#
# Mechanical properties :
#
#
# Convention : Reuss Voigt Hill
#
# Bulk Modulus (GPa) = 75.20356 75.66731 75.43544
# Shear Modulus (GPa) = 16.27923 19.77192 18.02557
#
# Velocity S-wave (km/s) = 3.04258 3.35313 3.20162
# Velocity P-wave (km/s) = 7.42349 7.61709 7.52092
#
# Compressibility (1/GPa) = 0.01329724
#
# Stress axis : x y z
#
# Youngs Moduli (GPa) = 38.79197 49.32469 47.90777
#
# Poissons Ratio (x) = 0.56537 0.48011
# Poissons Ratio (y) = 0.44464 0.25537
# Poissons Ratio (z) = 0.38876 0.26293
#
# Static dielectric constant tensor:
#      x y z
#    x 1.586810 0.000000 0.000000 
#    y 0.000000 1.579720 0.000000 
#    z 0.000000 0.000000 1.599720 
# 
# From -- ./inp_files/31150.got.cif
#   From: 2010.05.17/outbox.cif.g08.bks.cpg/sg53_16_cif.got.tgz:31150.got - 2010.06.03 12:45:16.
