data_PCOD9415974
_publ_section_title
;
Structure prediction by ZEFSAII (Michael W. Deem and Ramdas Pophale) SiO2 
 PCOD9415974
Probable space group: P M N A
;
_chemical_formula_sum "Si O2"
_cell_formula_units_Z 40
_cell_length_a 27.835499
_cell_length_b 7.295637
_cell_length_c 8.780676
_cell_angle_alpha 90.000000
_cell_angle_beta 90.000000
_cell_angle_gamma 90.000000
_cell_volume 1783.159455
_symmetry_space_group_name_H-M "P M N A"
_symmetry_group_IT_number 53
_symmetry_cell_setting 'orthorhombic'
loop_
_space_group_symop_operation_xyz
x,y,z
1/2-x,-y,1/2+z
x,-y,-z
1/2-x,y,1/2-z
-x,-y,-z
1/2+x,y,1/2-z
-x,y,z
1/2+x,-y,1/2+z
loop_
_atom_site_type_symbol
_atom_site_label
_atom_site_fract_x
_atom_site_fract_y
_atom_site_fract_z
Si Si1 0.800015 0.967672 0.820087
Si Si2 0.896593 0.472309 0.319488
Si Si3 0.000000 0.044804 0.180687
Si Si4 0.201137 0.468732 0.177930
Si Si5 0.000000 0.532572 0.686569
Si Si6 0.399915 0.035170 0.179504
O O1 0.750000 0.039163 0.750000
O O2 0.799692 0.749002 0.791135
O O3 0.849842 0.037872 0.747857
O O4 0.800358 0.000000 0.000000
O O5 0.892619 0.500000 0.500000
O O6 0.848649 0.545336 0.242438
O O7 0.898669 0.253987 0.293659
O O8 0.948333 0.545638 0.264387
O O9 0.949844 0.968452 0.247551
O O10 0.000000 0.257638 0.246158
O O11 0.000000 0.000000 0.000000
O O12 0.250000 0.543065 0.250000
O O13 0.202840 0.500000 0.000000
O O14 0.000000 0.500000 0.500000
O O15 0.401179 0.000000 0.000000
#
# Coordination Sequence:
#
# PCOD9415974 Si02
#       6
#     8   8   4   8   4   8
#     4  10  21  36  53  76 106 138 174 220 270 321
#     4   9  18  34  54  75 102 136 174 215 258 311
#     4  10  19  33  54  81 112 143 179 228 275 320
#     4  10  21  35  52  75 102 133 171 214 261 311
#     4   8  16  33  55  75 104 143 176 214 266 322
#     4  10  20  34  54  80 107 140 180 220 267 324
#
# _framework density 22.432092000000001
#
# number of rings (size 3 to 8) (size 9 to 14) (size 15 to 20)
#    0.000    2.400    0.000    2.100    0.000    2.400 
#    0.000    0.500    0.000    0.000    0.000    0.000 
#    0.000    0.000    0.000    0.000    0.000    0.000 
#
# Total GULP energy -223180.506289 kJ/mol
# GULP energy per Si atom -5579.512657 kJ/mol
# Density = 2.238104 g / cm^3
# Si number density = 22.432092 Si / 1000 Ang^3
#
#
#
# Elastic Constant Matrix: (Units=GPa)
#
#
# Indices 1 2 3 4 5 6 
#
# 1 337.1385 21.2290 135.9469 0.0000 0.0000 0.0000
# 2 21.2290 107.0218 -6.0264 0.0000 0.0000 0.0000
# 3 135.9469 -6.0264 144.2790 0.0000 0.0000 0.0000
# 4 0.0000 0.0000 0.0000 26.1255 0.0000 0.0000
# 5 0.0000 0.0000 0.0000 0.0000 45.8517 0.0000
# 6 0.0000 0.0000 0.0000 0.0000 0.0000 -25.7140
#
#
#
# Elastic Compliance Matrix: (Units=1/GPa)
#
#
# Indices 1 2 3 4 5 6 
#
# 1 0.004944 -0.001246 -0.004711 0.000000 0.000000 0.000000
# 2 -0.001246 0.009680 0.001578 0.000000 0.000000 0.000000
# 3 -0.004711 0.001578 0.011436 0.000000 0.000000 0.000000
# 4 0.000000 0.000000 0.000000 0.038277 0.000000 0.000000
# 5 0.000000 0.000000 0.000000 0.000000 0.021809 0.000000
# 6 0.000000 0.000000 0.000000 0.000000 0.000000 -0.038889
#
#
# Mechanical properties :
#
#
# Convention : Reuss Voigt Hill
#
# Bulk Modulus (GPa) = 57.79337 98.97094 78.38215
# Shear Modulus (GPa) = 80.93154 38.40529 59.66842
#
# Velocity S-wave (km/s) = 6.01305 4.14220 5.16307
# Velocity P-wave (km/s) = 8.60399 8.19104 8.40006
#
# Compressibility (1/GPa) = 0.01730302
#
# Stress axis : x y z
#
# Youngs Moduli (GPa) = 202.26154 103.30668 87.44688
#
# Poissons Ratio (x) = 0.12872 0.41193
# Poissons Ratio (y) = 0.25201 -0.13802
# Poissons Ratio (z) = 0.95278 -0.16305
#
# Static dielectric constant tensor:
#      x y z
#    x 1.864530 0.000000 0.000000 
#    y 0.000000 1.822700 0.000000 
#    z 0.000000 0.000000 1.749530 
# 
# From -- ./inp_files/12325.got.cif
#   From: 2010.05.17/outbox.cif.g08.bks.cpg/sg53_7_cif.got.tgz:12325.got - 2010.06.03 12:45:16.
