data_PCOD9415722
_publ_section_title
;
Structure prediction by ZEFSAII (Michael W. Deem and Ramdas Pophale) SiO2 
 PCOD9415722
Probable space group: P M N A
;
_chemical_formula_sum "Si O2"
_cell_formula_units_Z 48
_cell_length_a 19.640840
_cell_length_b 8.706691
_cell_length_c 15.799753
_cell_angle_alpha 90.000000
_cell_angle_beta 90.000000
_cell_angle_gamma 90.000000
_cell_volume 2701.864014
_symmetry_space_group_name_H-M "P M N A"
_symmetry_group_IT_number 53
_symmetry_cell_setting 'orthorhombic'
loop_
_space_group_symop_operation_xyz
x,y,z
1/2-x,-y,1/2+z
x,-y,-z
1/2-x,y,1/2-z
-x,-y,-z
1/2+x,y,1/2-z
-x,y,z
1/2+x,-y,1/2+z
loop_
_atom_site_type_symbol
_atom_site_label
_atom_site_fract_x
_atom_site_fract_y
_atom_site_fract_z
Si Si1 0.075009 0.165629 0.703956
Si Si2 0.204287 0.156356 0.821143
Si Si3 0.729073 0.819454 0.840827
Si Si4 0.731457 0.670885 0.486556
Si Si5 0.425298 0.159324 0.115470
Si Si6 0.107338 0.659551 0.455758
O O1 0.132462 0.137206 0.774034
O O2 0.086506 0.308777 0.640542
O O3 0.000000 0.176408 0.742280
O O4 0.076191 0.018450 0.641594
O O5 0.250000 0.242595 0.750000
O O6 0.247244 0.999077 0.838701
O O7 0.196138 0.240389 0.910088
O O8 0.750000 0.754378 0.750000
O O9 0.766316 0.752139 0.922609
O O10 0.648312 0.787256 0.849740
O O11 0.704814 0.500000 0.500000
O O12 0.810800 0.662379 0.458468
O O13 0.500000 0.217770 0.145729
O O14 0.420031 0.206453 0.017394
O O15 0.085392 0.500000 0.500000
#
# Coordination Sequence:
#
# PCOD9415722 Si02
#       6
#     8   8   8   8   8   8
#     4  11  21  34  54  79 109 144 183 227 269 318
#     4  11  19  36  57  79 107 143 182 222 267 317
#     4  10  19  36  57  81 105 141 181 222 272 314
#     4  10  21  35  56  83 110 143 180 223 269 319
#     4  10  19  32  52  77 109 138 175 219 267 323
#     4  10  20  34  51  80 116 149 176 211 271 338
#
# _framework density 17.765512999999999
#
# number of rings (size 3 to 8) (size 9 to 14) (size 15 to 20)
#    0.000    1.667    5.000    1.500    0.000    6.000 
#    3.000    0.000    0.000    3.500    0.000    0.000 
#    0.000    0.000    0.000    0.000    0.000    0.000 
#
# Total GULP energy -267212.190139 kJ/mol
# GULP energy per Si atom -5566.920628 kJ/mol
# Density = 1.772508 g / cm^3
# Si number density = 17.765513 Si / 1000 Ang^3
#
#
#
# Elastic Constant Matrix: (Units=GPa)
#
#
# Indices 1 2 3 4 5 6 
#
# 1 105.5907 12.0062 47.7462 0.0000 0.0000 0.0000
# 2 12.0062 48.6840 44.9571 0.0000 0.0000 0.0000
# 3 47.7462 44.9571 132.9671 0.0000 0.0000 0.0000
# 4 0.0000 0.0000 0.0000 9.4534 0.0000 0.0000
# 5 0.0000 0.0000 0.0000 0.0000 8.1657 0.0000
# 6 0.0000 0.0000 0.0000 0.0000 0.0000 7.9531
#
#
#
# Elastic Compliance Matrix: (Units=1/GPa)
#
#
# Indices 1 2 3 4 5 6 
#
# 1 0.011372 0.001405 -0.004559 0.000000 0.000000 0.000000
# 2 0.001405 0.030039 -0.010661 0.000000 0.000000 0.000000
# 3 -0.004559 -0.010661 0.012762 0.000000 0.000000 0.000000
# 4 0.000000 0.000000 0.000000 0.105782 0.000000 0.000000
# 5 0.000000 0.000000 0.000000 0.000000 0.122464 0.000000
# 6 0.000000 0.000000 0.000000 0.000000 0.000000 0.125737
#
#
# Mechanical properties :
#
#
# Convention : Reuss Voigt Hill
#
# Bulk Modulus (GPa) = 37.67295 55.18455 46.42875
# Shear Modulus (GPa) = 11.24522 17.28325 14.26424
#
# Velocity S-wave (km/s) = 2.51864 3.12244 2.83665
# Velocity P-wave (km/s) = 5.45067 6.64302 6.07616
#
# Compressibility (1/GPa) = 0.02654425
#
# Stress axis : x y z
#
# Youngs Moduli (GPa) = 87.93469 33.29021 78.35701
#
# Poissons Ratio (x) = -0.04678 0.35720
# Poissons Ratio (y) = -0.12356 0.83536
# Poissons Ratio (z) = 0.40086 0.35490
#
# Static dielectric constant tensor:
#      x y z
#    x 1.628000 0.000000 0.000000 
#    y 0.000000 1.660630 0.000000 
#    z 0.000000 0.000000 1.611530 
# 
# From -- ./inp_files/24191.got.cif
#   From: 2010.05.17/outbox.cif.g08.bks.cpg/sg53_13_cif.got.tgz:24191.got - 2010.06.03 12:45:16.
