data_PCOD9415096
_publ_section_title
;
Structure prediction by ZEFSAII (Michael W. Deem and Ramdas Pophale) SiO2 
 PCOD9415096
Probable space group: P M N A
;
_chemical_formula_sum "Si O2"
_cell_formula_units_Z 64
_cell_length_a 8.783660
_cell_length_b 19.016639
_cell_length_c 27.042069
_cell_angle_alpha 90.000000
_cell_angle_beta 90.000000
_cell_angle_gamma 90.000000
_cell_volume 4516.990690
_symmetry_space_group_name_H-M "P M N A"
_symmetry_group_IT_number 53
_symmetry_cell_setting 'orthorhombic'
loop_
_space_group_symop_operation_xyz
x,y,z
1/2-x,-y,1/2+z
x,-y,-z
1/2-x,y,1/2-z
-x,-y,-z
1/2+x,y,1/2-z
-x,y,z
1/2+x,-y,1/2+z
loop_
_atom_site_type_symbol
_atom_site_label
_atom_site_fract_x
_atom_site_fract_y
_atom_site_fract_z
Si Si1 0.316637 0.670076 0.005637
Si Si2 0.324983 0.461030 0.053386
Si Si3 0.315597 0.092753 0.603816
Si Si4 0.817664 0.337456 0.696430
Si Si5 0.681918 0.827142 0.196626
Si Si6 0.822859 0.957572 0.947919
Si Si7 0.319413 0.590707 0.399198
Si Si8 0.315242 0.824612 0.496986
O O1 0.500000 0.668615 0.009022
O O2 0.272418 0.617204 0.960911
O O3 0.250145 0.638050 0.056465
O O4 0.256134 0.748245 0.998017
O O5 0.500000 0.459503 0.070961
O O6 0.226494 0.510320 0.088574
O O7 0.325662 0.500000 0.000000
O O8 0.500000 0.090802 0.606599
O O9 0.248461 0.125463 0.653133
O O10 0.277462 0.142159 0.556724
O O11 0.258886 0.013633 0.591092
O O12 0.750000 0.356172 0.750000
O O13 0.778860 0.255074 0.687243
O O14 0.749324 0.383208 0.652329
O O15 0.000000 0.343734 0.697348
O O16 0.750000 0.845968 0.250000
O O17 0.500000 0.832727 0.198032
O O18 0.000000 0.946781 0.934647
O O19 0.759968 0.881037 0.961799
O O20 0.822094 0.000000 0.000000
O O21 0.500000 0.598730 0.399259
O O22 0.500000 0.820646 0.499491
#
# Coordination Sequence:
#
# PCOD9415096 Si02
#       8
#     8   8   8   8   8   8   8   8
#     4  10  19  29  41  59  85 114 141 171 209 248
#     4   8  16  30  43  56  79 110 139 169 207 247
#     4   9  16  27  43  60  81 110 141 171 204 242
#     4  10  20  33  46  61  84 111 140 174 209 244
#     4  10  20  31  43  59  80 107 139 174 208 241
#     4   7  12  24  40  58  80 107 137 167 200 239
#     4  11  20  29  44  63  82 108 142 175 208 246
#     4   9  16  26  42  62  83 109 141 172 201 240
#
# _framework density 14.168725
#
# number of rings (size 3 to 8) (size 9 to 14) (size 15 to 20)
#    0.000    2.750    0.000    5.250    0.000    6.750 
#    0.000    0.625    0.000    2.250    0.000    0.000 
#    0.000    1.000    0.000    7.750    0.000    4.750 
#
# Total GULP energy -356445.494765 kJ/mol
# GULP energy per Si atom -5569.460856 kJ/mol
# Density = 1.413648 g / cm^3
# Si number density = 14.168725 Si / 1000 Ang^3
#
#
#
# Elastic Constant Matrix: (Units=GPa)
#
#
# Indices 1 2 3 4 5 6 
#
# 1 42.2802 39.6628 38.5330 0.0000 0.0000 0.0000
# 2 39.6628 125.7540 65.8056 0.0000 0.0000 0.0000
# 3 38.5330 65.8056 92.9518 0.0000 0.0000 0.0000
# 4 0.0000 0.0000 0.0000 26.1179 0.0000 0.0000
# 5 0.0000 0.0000 0.0000 0.0000 18.5354 0.0000
# 6 0.0000 0.0000 0.0000 0.0000 0.0000 -53.9376
#
#
#
# Elastic Compliance Matrix: (Units=1/GPa)
#
#
# Indices 1 2 3 4 5 6 
#
# 1 0.041035 -0.006419 -0.012467 0.000000 0.000000 0.000000
# 2 -0.006419 0.013636 -0.006993 0.000000 0.000000 0.000000
# 3 -0.012467 -0.006993 0.020877 0.000000 0.000000 0.000000
# 4 0.000000 0.000000 0.000000 0.038288 0.000000 0.000000
# 5 0.000000 0.000000 0.000000 0.000000 0.053951 0.000000
# 6 0.000000 0.000000 0.000000 0.000000 0.000000 -0.018540
#
#
# Mechanical properties :
#
#
# Convention : Reuss Voigt Hill
#
# Bulk Modulus (GPa) = 42.03229 60.99876 51.51552
# Shear Modulus (GPa) = 23.93118 5.94213 14.93665
#
# Velocity S-wave (km/s) = 4.11422 2.05011 3.25037
# Velocity P-wave (km/s) = 7.23181 6.98205 7.10803
#
# Compressibility (1/GPa) = 0.02379124
#
# Stress axis : x y z
#
# Youngs Moduli (GPa) = 24.36947 73.33764 47.90018
#
# Poissons Ratio (x) = 0.47073 0.59717
# Poissons Ratio (y) = 0.15642 0.33494
# Poissons Ratio (z) = 0.30381 0.51281
#
# Static dielectric constant tensor:
#      x y z
#    x 1.473950 0.000000 0.000000 
#    y 0.000000 1.486780 0.000000 
#    z 0.000000 0.000000 1.441620 
# 
# From -- ./inp_files/34514.got.cif
#   From: 2010.05.17/outbox.cif.g08.bks.cpg/sg53_18_cif.got.tgz:34514.got - 2010.06.03 12:45:16.
