data_PCOD9415256
_publ_section_title
;
Structure prediction by ZEFSAII (Michael W. Deem and Ramdas Pophale) SiO2 
 PCOD9415256
Probable space group: P M N A
;
_chemical_formula_sum "Si O2"
_cell_formula_units_Z 64
_cell_length_a 8.841269
_cell_length_b 31.213345
_cell_length_c 14.134073
_cell_angle_alpha 90.000000
_cell_angle_beta 90.000000
_cell_angle_gamma 90.000000
_cell_volume 3900.517647
_symmetry_space_group_name_H-M "P M N A"
_symmetry_group_IT_number 53
_symmetry_cell_setting 'orthorhombic'
loop_
_space_group_symop_operation_xyz
x,y,z
1/2-x,-y,1/2+z
x,-y,-z
1/2-x,y,1/2-z
-x,-y,-z
1/2+x,y,1/2-z
-x,y,z
1/2+x,-y,1/2+z
loop_
_atom_site_type_symbol
_atom_site_label
_atom_site_fract_x
_atom_site_fract_y
_atom_site_fract_z
Si Si1 0.672264 0.892824 0.848017
Si Si2 0.674209 0.814274 0.994240
Si Si3 0.681539 0.747620 0.646861
Si Si4 0.818216 0.048930 0.000379
Si Si5 0.816248 0.432418 0.033614
Si Si6 0.682346 0.876355 0.355228
Si Si7 0.317498 0.516918 0.352305
Si Si8 0.182202 0.648000 0.851333
O O1 0.750000 0.882144 0.750000
O O2 0.500000 0.906309 0.832109
O O3 0.761955 0.929174 0.903866
O O4 0.672994 0.851855 0.915916
O O5 0.500000 0.803726 0.017767
O O6 0.757233 0.835740 0.084081
O O7 0.755540 0.775485 0.939943
O O8 0.750000 0.760071 0.750000
O O9 0.500000 0.751888 0.652080
O O10 0.722184 0.697583 0.631072
O O11 0.000000 0.048382 0.998802
O O12 0.771269 0.080590 0.914202
O O13 0.763325 0.000000 0.000000
O O14 0.772871 0.470323 0.106159
O O15 0.765729 0.386311 0.070827
O O16 0.000000 0.432026 0.031963
O O17 0.767836 0.448028 0.930015
O O18 0.750000 0.876854 0.250000
O O19 0.500000 0.875050 0.351612
O O20 0.250000 0.524109 0.250000
O O21 0.500000 0.517576 0.347669
O O22 0.250000 0.635614 0.750000
O O23 0.000000 0.646042 0.845653
#
# Coordination Sequence:
#
# PCOD9415256 Si02
#       8
#     8   8   8   8   8   8   8   8
#     4  10  20  32  48  70  95 124 155 188 228 273
#     4  10  20  34  52  73  97 124 157 197 237 279
#     4  10  19  30  47  72  99 127 157 191 237 290
#     4   9  19  35  52  72  99 129 160 194 231 272
#     4   8  15  28  44  62  88 123 155 186 232 285
#     4  10  20  35  55  76 100 129 163 202 241 282
#     4   9  16  27  44  64  87 117 154 193 233 277
#     4   9  17  29  45  66  93 124 156 189 229 280
#
# _framework density 16.408078
#
# number of rings (size 3 to 8) (size 9 to 14) (size 15 to 20)
#    0.000    2.625    0.000    3.000    0.000    4.250 
#    0.000    3.125    0.000    0.750    0.000    1.750 
#    0.000    0.000    0.000    0.000    0.000    0.000 
#
# Total GULP energy -356653.240499 kJ/mol
# GULP energy per Si atom -5572.706883 kJ/mol
# Density = 1.637073 g / cm^3
# Si number density = 16.408078 Si / 1000 Ang^3
#
#
#
# Elastic Constant Matrix: (Units=GPa)
#
#
# Indices 1 2 3 4 5 6 
#
# 1 31.4033 28.9937 39.6864 0.0000 0.0000 0.0000
# 2 28.9937 83.7945 48.0905 0.0000 0.0000 0.0000
# 3 39.6864 48.0905 119.3386 0.0000 0.0000 0.0000
# 4 0.0000 0.0000 0.0000 25.7252 0.0000 0.0000
# 5 0.0000 0.0000 0.0000 0.0000 30.8792 0.0000
# 6 0.0000 0.0000 0.0000 0.0000 0.0000 13.1063
#
#
#
# Elastic Compliance Matrix: (Units=1/GPa)
#
#
# Indices 1 2 3 4 5 6 
#
# 1 0.064179 -0.012953 -0.016123 0.000000 0.000000 0.000000
# 2 -0.012953 0.018139 -0.003002 0.000000 0.000000 0.000000
# 3 -0.016123 -0.003002 0.014951 0.000000 0.000000 0.000000
# 4 0.000000 0.000000 0.000000 0.038872 0.000000 0.000000
# 5 0.000000 0.000000 0.000000 0.000000 0.032384 0.000000
# 6 0.000000 0.000000 0.000000 0.000000 0.000000 0.076299
#
#
# Mechanical properties :
#
#
# Convention : Reuss Voigt Hill
#
# Bulk Modulus (GPa) = 30.20027 52.00862 41.10444
# Shear Modulus (GPa) = 15.62411 21.79319 18.70865
#
# Velocity S-wave (km/s) = 3.08915 3.64840 3.38036
# Velocity P-wave (km/s) = 5.58297 7.03659 6.35150
#
# Compressibility (1/GPa) = 0.03311229
#
# Stress axis : x y z
#
# Youngs Moduli (GPa) = 15.58139 55.13071 66.88558
#
# Poissons Ratio (x) = 0.71413 1.07840
# Poissons Ratio (y) = 0.20183 0.20077
# Poissons Ratio (z) = 0.25122 0.16549
#
# Static dielectric constant tensor:
#      x y z
#    x 1.558140 0.000000 0.000000 
#    y 0.000000 1.560420 0.000000 
#    z 0.000000 0.000000 1.527220 
# 
# From -- ./inp_files/14252.got.cif
#   From: 2010.05.17/outbox.cif.g08.bks.cpg/sg53_8_cif.got.tgz:14252.got - 2010.06.03 12:45:16.
