data_PCOD9415942
_publ_section_title
;
Structure prediction by ZEFSAII (Michael W. Deem and Ramdas Pophale) SiO2 
 PCOD9415942
Probable space group: P M N A
;
_chemical_formula_sum "Si O2"
_cell_formula_units_Z 40
_cell_length_a 26.080666
_cell_length_b 13.705865
_cell_length_c 5.172411
_cell_angle_alpha 90.000000
_cell_angle_beta 90.000000
_cell_angle_gamma 90.000000
_cell_volume 1848.920143
_symmetry_space_group_name_H-M "P M N A"
_symmetry_group_IT_number 53
_symmetry_cell_setting 'orthorhombic'
loop_
_space_group_symop_operation_xyz
x,y,z
1/2-x,-y,1/2+z
x,-y,-z
1/2-x,y,1/2-z
-x,-y,-z
1/2+x,y,1/2-z
-x,y,z
1/2+x,-y,1/2+z
loop_
_atom_site_type_symbol
_atom_site_label
_atom_site_fract_x
_atom_site_fract_y
_atom_site_fract_z
Si Si1 0.309450 0.566959 0.248652
Si Si2 0.606642 0.717547 0.083404
Si Si3 0.608414 0.843977 0.573754
Si Si4 0.000000 0.716786 0.303275
Si Si5 0.000000 0.150157 0.200321
Si Si6 0.774873 0.887501 0.993663
O O1 0.319788 0.500000 0.500000
O O2 0.250000 0.597385 0.250000
O O3 0.346846 0.656951 0.200941
O O4 0.316965 0.500000 0.000000
O O5 0.600778 0.807665 0.281201
O O6 0.552653 0.662160 0.127749
O O7 0.612390 0.757619 0.791853
O O8 0.555641 0.898540 0.655030
O O9 0.664544 0.890429 0.557646
O O10 0.000000 0.805523 0.512613
O O11 0.000000 0.760358 0.012039
O O12 0.750000 0.843097 0.250000
O O13 0.750000 0.834947 0.750000
O O14 0.756539 0.000000 0.000000
#
# Coordination Sequence:
#
# PCOD9415942 Si02
#       6
#     8   8   8   4   4   8
#     4  10  21  36  50  68  99 134 164 203 256 302
#     4  10  19  33  54  76  99 129 169 210 248 300
#     4  10  19  33  54  78 101 131 172 212 249 300
#     4   8  16  30  48  73 101 126 155 204 261 296
#     4   8  16  30  49  73 102 130 159 206 261 296
#     4  10  21  36  52  74 108 142 169 208 262 308
#
# _framework density 21.634249000000001
#
# number of rings (size 3 to 8) (size 9 to 14) (size 15 to 20)
#    0.000    2.400    0.000    2.400    0.000    2.400 
#    0.000    1.500    0.000    0.000    0.000   12.600 
#    0.000    0.000    0.000    0.000    0.000    0.000 
#
# Total GULP energy -222687.423808 kJ/mol
# GULP energy per Si atom -5567.185595 kJ/mol
# Density = 2.158501 g / cm^3
# Si number density = 21.634249 Si / 1000 Ang^3
#
#
#
# Elastic Constant Matrix: (Units=GPa)
#
#
# Indices 1 2 3 4 5 6 
#
# 1 82.9494 -2.9164 45.6386 0.0000 0.0000 0.0000
# 2 -2.9164 15.0329 15.4039 0.0000 0.0000 0.0000
# 3 45.6386 15.4039 162.3000 0.0000 0.0000 0.0000
# 4 0.0000 0.0000 0.0000 -10.4487 0.0000 0.0000
# 5 0.0000 0.0000 0.0000 0.0000 37.9596 0.0000
# 6 0.0000 0.0000 0.0000 0.0000 0.0000 292.3779
#
#
#
# Elastic Compliance Matrix: (Units=1/GPa)
#
#
# Indices 1 2 3 4 5 6 
#
# 1 0.015096 0.008062 -0.005010 0.000000 0.000000 0.000000
# 2 0.008062 0.077993 -0.009669 0.000000 0.000000 0.000000
# 3 -0.005010 -0.009669 0.008488 0.000000 0.000000 0.000000
# 4 0.000000 0.000000 0.000000 -0.095705 0.000000 0.000000
# 5 0.000000 0.000000 0.000000 0.000000 0.026344 0.000000
# 6 0.000000 0.000000 0.000000 0.000000 0.000000 0.003420
#
#
# Mechanical properties :
#
#
# Convention : Reuss Voigt Hill
#
# Bulk Modulus (GPa) = 11.31966 41.83715 26.57840
# Shear Modulus (GPa) = 63.84345 77.45483 70.64914
#
# Velocity S-wave (km/s) = 5.43824 5.98996 5.72076
# Velocity P-wave (km/s) = 6.68403 8.19878 7.47984
#
# Compressibility (1/GPa) = 0.08834187
#
# Stress axis : x y z
#
# Youngs Moduli (GPa) = 66.24488 12.82169 117.81394
#
# Poissons Ratio (x) = -0.10337 0.59025
# Poissons Ratio (y) = -0.53408 1.13919
# Poissons Ratio (z) = 0.33189 0.12398
#
# Static dielectric constant tensor:
#      x y z
#    x 2.047600 0.000000 0.000000 
#    y 0.000000 1.746130 0.000000 
#    z 0.000000 0.000000 1.697140 
# 
# From -- ./inp_files/2902.got.cif
#   From: 2010.05.17/outbox.cif.g08.bks.cpg/sg53_2_cif.got.tgz:2902.got - 2010.06.03 12:45:16.
