data_PCOD9415712
_publ_section_title
;
Structure prediction by ZEFSAII (Michael W. Deem and Ramdas Pophale) SiO2 
 PCOD9415712
Probable space group: P M N A
;
_chemical_formula_sum "Si O2"
_cell_formula_units_Z 64
_cell_length_a 8.815260
_cell_length_b 15.145851
_cell_length_c 27.730262
_cell_angle_alpha 90.000000
_cell_angle_beta 90.000000
_cell_angle_gamma 90.000000
_cell_volume 3702.395241
_symmetry_space_group_name_H-M "P M N A"
_symmetry_group_IT_number 53
_symmetry_cell_setting 'orthorhombic'
loop_
_space_group_symop_operation_xyz
x,y,z
1/2-x,-y,1/2+z
x,-y,-z
1/2-x,y,1/2-z
-x,-y,-z
1/2+x,y,1/2-z
-x,y,z
1/2+x,-y,1/2+z
loop_
_atom_site_type_symbol
_atom_site_label
_atom_site_fract_x
_atom_site_fract_y
_atom_site_fract_z
Si Si1 0.318872 0.153834 0.196914
Si Si2 0.817940 0.841657 0.078977
Si Si3 0.181126 0.653348 0.418953
Si Si4 0.182465 0.341726 0.196899
Si Si5 0.182620 0.029518 0.117446
Si Si6 0.319002 0.477002 0.387421
Si Si7 0.680926 0.833559 0.533383
Si Si8 0.319174 0.645841 0.968455
O O1 0.250000 0.139122 0.250000
O O2 0.500000 0.159781 0.199442
O O3 0.250445 0.247925 0.180004
O O4 0.265396 0.077419 0.161183
O O5 0.742221 0.750054 0.094195
O O6 0.000000 0.832925 0.082542
O O7 0.771908 0.928454 0.108289
O O8 0.782606 0.855798 0.022165
O O9 0.249142 0.574289 0.387877
O O10 0.225081 0.636899 0.475236
O O11 0.000000 0.652323 0.416523
O O12 0.250000 0.358527 0.250000
O O13 0.221979 0.418274 0.159154
O O14 0.000000 0.334065 0.199779
O O15 0.214836 0.086920 0.069464
O O16 0.000000 0.032345 0.124885
O O17 0.500000 0.482748 0.389698
O O18 0.258516 0.425123 0.434224
O O19 0.500000 0.815871 0.536147
O O20 0.768210 0.744126 0.546629
O O21 0.500000 0.636432 0.964988
#
# Coordination Sequence:
#
# PCOD9415712 Si02
#       8
#     8   8   8   8   8   8   8   8
#     4  11  22  36  55  78 105 135 166 203 251 304
#     4   9  18  33  52  73 101 138 175 210 248 292
#     4  10  21  35  50  71 102 137 173 213 252 293
#     4  10  21  37  56  79 105 131 162 202 250 303
#     4  10  19  32  52  77 104 134 171 212 251 296
#     4  11  22  34  52  76 100 131 171 210 250 302
#     4   9  17  30  49  74 104 138 173 206 245 296
#     4  10  20  32  47  72 105 138 171 208 251 296
#
# _framework density 17.286107000000001
#
# number of rings (size 3 to 8) (size 9 to 14) (size 15 to 20)
#    0.000    2.000    0.000    4.875    0.000   10.500 
#    0.000    0.000    0.000    4.500    0.000    3.500 
#    0.000    0.000    0.000    0.000    0.000    0.000 
#
# Total GULP energy -357450.132964 kJ/mol
# GULP energy per Si atom -5585.158328 kJ/mol
# Density = 1.724676 g / cm^3
# Si number density = 17.286107 Si / 1000 Ang^3
#
#
#
# Elastic Constant Matrix: (Units=GPa)
#
#
# Indices 1 2 3 4 5 6 
#
# 1 52.8514 57.7349 38.6883 0.0000 0.0000 0.0000
# 2 57.7349 158.4710 73.8218 0.0000 0.0000 0.0000
# 3 38.6883 73.8218 64.5291 0.0000 0.0000 0.0000
# 4 0.0000 0.0000 0.0000 27.6660 0.0000 0.0000
# 5 0.0000 0.0000 0.0000 0.0000 14.9878 0.0000
# 6 0.0000 0.0000 0.0000 0.0000 0.0000 13.9963
#
#
#
# Elastic Compliance Matrix: (Units=1/GPa)
#
#
# Indices 1 2 3 4 5 6 
#
# 1 0.036761 -0.006692 -0.014384 0.000000 0.000000 0.000000
# 2 -0.006692 0.014729 -0.012837 0.000000 0.000000 0.000000
# 3 -0.014384 -0.012837 0.038806 0.000000 0.000000 0.000000
# 4 0.000000 0.000000 0.000000 0.036145 0.000000 0.000000
# 5 0.000000 0.000000 0.000000 0.000000 0.066721 0.000000
# 6 0.000000 0.000000 0.000000 0.000000 0.000000 0.071448
#
#
# Mechanical properties :
#
#
# Convention : Reuss Voigt Hill
#
# Bulk Modulus (GPa) = 44.50519 68.48240 56.49380
# Shear Modulus (GPa) = 14.70907 18.37046 16.53976
#
# Velocity S-wave (km/s) = 2.92021 3.26349 3.09661
# Velocity P-wave (km/s) = 6.09691 7.34190 6.74818
#
# Compressibility (1/GPa) = 0.02246929
#
# Stress axis : x y z
#
# Youngs Moduli (GPa) = 27.20271 67.89535 25.76893
#
# Poissons Ratio (x) = 0.45439 0.37065
# Poissons Ratio (y) = 0.18205 0.33080
# Poissons Ratio (z) = 0.39128 0.87158
#
# Static dielectric constant tensor:
#      x y z
#    x 1.576140 0.000000 0.000000 
#    y 0.000000 1.578180 0.000000 
#    z 0.000000 0.000000 1.577430 
# 
# From -- ./inp_files/38477.got.cif
#   From: 2010.05.17/outbox.cif.g08.bks.cpg/sg53_20_cif.got.tgz:38477.got - 2010.06.03 12:45:16.
