data_PCOD9415734
_publ_section_title
;
Structure prediction by ZEFSAII (Michael W. Deem and Ramdas Pophale) SiO2 
 PCOD9415734
Probable space group: P M N A
;
_chemical_formula_sum "Si O2"
_cell_formula_units_Z 56
_cell_length_a 8.632594
_cell_length_b 16.005184
_cell_length_c 20.570955
_cell_angle_alpha 90.000000
_cell_angle_beta 90.000000
_cell_angle_gamma 90.000000
_cell_volume 2842.211822
_symmetry_space_group_name_H-M "P M N A"
_symmetry_group_IT_number 53
_symmetry_cell_setting 'orthorhombic'
loop_
_space_group_symop_operation_xyz
x,y,z
1/2-x,-y,1/2+z
x,-y,-z
1/2-x,y,1/2-z
-x,-y,-z
1/2+x,y,1/2-z
-x,y,z
1/2+x,-y,1/2+z
loop_
_atom_site_type_symbol
_atom_site_label
_atom_site_fract_x
_atom_site_fract_y
_atom_site_fract_z
Si Si1 0.685665 0.665481 0.318739
Si Si2 0.814885 0.334260 0.417002
Si Si3 0.314151 0.804360 0.679036
Si Si4 0.189238 0.075194 0.953700
Si Si5 0.186234 0.477941 0.319012
Si Si6 0.313862 0.998539 0.680265
Si Si7 0.313143 0.737660 0.457017
O O1 0.750000 0.698188 0.250000
O O2 0.500000 0.663991 0.314905
O O3 0.747244 0.570915 0.326497
O O4 0.731633 0.715817 0.383202
O O5 0.752016 0.256189 0.375506
O O6 0.767036 0.417334 0.377762
O O7 0.752849 0.325540 0.489858
O O8 0.000000 0.331916 0.417772
O O9 0.250000 0.780466 0.750000
O O10 0.500000 0.799244 0.678957
O O11 0.269683 0.901479 0.668217
O O12 0.237248 0.054202 0.880226
O O13 0.238326 0.167885 0.973467
O O14 0.000000 0.074925 0.955261
O O15 0.241168 0.000000 0.000000
O O16 0.250000 0.444805 0.250000
O O17 0.000000 0.481717 0.315723
O O18 0.250000 0.024487 0.750000
O O19 0.500000 0.001016 0.682849
O O20 0.500000 0.734950 0.460482
#
# Coordination Sequence:
#
# PCOD9415734 Si02
#       7
#     8   8   8   8   8   8   8
#     4  10  21  38  60  84 110 141 180 225 272 323
#     4  11  23  36  53  80 112 145 182 225 272 324
#     4  10  19  32  52  78 110 147 184 224 271 324
#     4   9  17  33  56  78 103 139 182 222 263 315
#     4  10  21  37  58  83 110 143 181 219 265 320
#     4   9  18  32  52  77 104 137 177 222 270 321
#     4  10  22  38  57  82 109 143 185 225 271 326
#
# _framework density 19.702966
#
# number of rings (size 3 to 8) (size 9 to 14) (size 15 to 20)
#    0.000    2.143    0.000    3.857    0.000    8.571 
#    0.000    3.571    0.000    1.714    0.000    0.000 
#    0.000    0.000    0.000    0.000    0.000    0.000 
#
# Total GULP energy -312767.551496 kJ/mol
# GULP energy per Si atom -5585.134848 kJ/mol
# Density = 1.965812 g / cm^3
# Si number density = 19.702966 Si / 1000 Ang^3
#
#
#
# Elastic Constant Matrix: (Units=GPa)
#
#
# Indices 1 2 3 4 5 6 
#
# 1 22.9559 16.4413 26.1284 0.0000 0.0000 0.0000
# 2 16.4413 56.4312 41.4508 0.0000 0.0000 0.0000
# 3 26.1284 41.4508 118.3582 0.0000 0.0000 0.0000
# 4 0.0000 0.0000 0.0000 34.7373 0.0000 0.0000
# 5 0.0000 0.0000 0.0000 0.0000 34.3631 0.0000
# 6 0.0000 0.0000 0.0000 0.0000 0.0000 13.0423
#
#
#
# Elastic Compliance Matrix: (Units=1/GPa)
#
#
# Indices 1 2 3 4 5 6 
#
# 1 0.062815 -0.010926 -0.010040 0.000000 0.000000 0.000000
# 2 -0.010926 0.025759 -0.006609 0.000000 0.000000 0.000000
# 3 -0.010040 -0.006609 0.012980 0.000000 0.000000 0.000000
# 4 0.000000 0.000000 0.000000 0.028787 0.000000 0.000000
# 5 0.000000 0.000000 0.000000 0.000000 0.029101 0.000000
# 6 0.000000 0.000000 0.000000 0.000000 0.000000 0.076674
#
#
# Mechanical properties :
#
#
# Convention : Reuss Voigt Hill
#
# Bulk Modulus (GPa) = 21.55052 40.64291 31.09672
# Shear Modulus (GPa) = 16.30074 24.01021 20.15547
#
# Velocity S-wave (km/s) = 2.87944 3.49464 3.20185
# Velocity P-wave (km/s) = 4.69216 6.07914 5.43012
#
# Compressibility (1/GPa) = 0.04640259
#
# Stress axis : x y z
#
# Youngs Moduli (GPa) = 15.91970 38.82193 77.04181
#
# Poissons Ratio (x) = 0.42418 0.77353
# Poissons Ratio (y) = 0.17394 0.50917
# Poissons Ratio (z) = 0.15984 0.25657
#
# Static dielectric constant tensor:
#      x y z
#    x 1.668470 0.000000 0.000000 
#    y 0.000000 1.689100 0.000000 
#    z 0.000000 0.000000 1.694270 
# 
# From -- ./inp_files/30790.got.cif
#   From: 2010.05.17/outbox.cif.g08.bks.cpg/sg53_16_cif.got.tgz:30790.got - 2010.06.03 12:45:16.
