data_PCOD9415951
_publ_section_title
;
Structure prediction by ZEFSAII (Michael W. Deem and Ramdas Pophale) SiO2 
 PCOD9415951
Probable space group: P M N A
;
_chemical_formula_sum "Si O2"
_cell_formula_units_Z 52
_cell_length_a 30.414477
_cell_length_b 5.049175
_cell_length_c 17.656396
_cell_angle_alpha 90.000000
_cell_angle_beta 90.000000
_cell_angle_gamma 90.000000
_cell_volume 2711.457719
_symmetry_space_group_name_H-M "P M N A"
_symmetry_group_IT_number 53
_symmetry_cell_setting 'orthorhombic'
loop_
_space_group_symop_operation_xyz
x,y,z
1/2-x,-y,1/2+z
x,-y,-z
1/2-x,y,1/2-z
-x,-y,-z
1/2+x,y,1/2-z
-x,y,z
1/2+x,-y,1/2+z
loop_
_atom_site_type_symbol
_atom_site_label
_atom_site_fract_x
_atom_site_fract_y
_atom_site_fract_z
Si Si1 0.349303 0.831188 0.274279
Si Si2 0.000000 0.759614 0.442656
Si Si3 0.798810 0.673641 0.722783
Si Si4 0.047932 0.519288 0.091307
Si Si5 0.906054 0.853730 0.366531
Si Si6 0.351939 0.640899 0.920537
Si Si7 0.101049 0.019721 0.089946
O O1 0.332155 0.535027 0.261818
O O2 0.392074 0.896276 0.221305
O O3 0.359934 0.908520 0.359725
O O4 0.311873 0.029859 0.245435
O O5 0.000000 0.500000 0.500000
O O6 0.956337 0.806963 0.391433
O O7 0.000000 0.000000 0.500000
O O8 0.750000 0.612454 0.750000
O O9 0.809339 0.659107 0.633183
O O10 0.061013 0.819049 0.107077
O O11 0.000000 0.450972 0.122324
O O12 0.085519 0.311885 0.113166
O O13 0.045770 0.500000 0.000000
O O14 0.884015 0.574387 0.384340
O O15 0.879918 0.084369 0.413852
O O16 0.341126 0.500000 0.000000
O O17 0.109685 0.000000 0.000000
#
# Coordination Sequence:
#
# PCOD9415951 Si02
#       7
#     8   4   8   8   8   8   8
#     4  10  21  38  57  77 113 145 181 223 281 340
#     4  12  22  34  54  80 111 144 185 230 268 320
#     4  10  21  38  60  82 108 143 177 222 282 340
#     4   9  17  30  48  73 102 135 184 232 261 297
#     4  10  21  35  53  78 111 148 183 222 276 322
#     4  10  19  35  58  82 107 142 184 224 265 327
#     4  10  19  33  54  77 105 144 187 222 271 323
#
# _framework density 19.177876999999999
#
# number of rings (size 3 to 8) (size 9 to 14) (size 15 to 20)
#    0.000    2.000    0.000    4.615    0.000    1.846 
#    2.769    1.538    0.000    0.000    0.000    0.000 
#    0.000    0.000    0.000    0.000    0.000    0.000 
#
# Total GULP energy -289562.252126 kJ/mol
# GULP energy per Si atom -5568.504849 kJ/mol
# Density = 1.913423 g / cm^3
# Si number density = 19.177877 Si / 1000 Ang^3
#
#
#
# Elastic Constant Matrix: (Units=GPa)
#
#
# Indices 1 2 3 4 5 6 
#
# 1 102.1935 6.4093 45.7443 0.0000 0.0000 0.0000
# 2 6.4093 78.0218 0.8445 0.0000 0.0000 0.0000
# 3 45.7443 0.8445 70.5452 0.0000 0.0000 0.0000
# 4 0.0000 0.0000 0.0000 20.3115 0.0000 0.0000
# 5 0.0000 0.0000 0.0000 0.0000 11.2536 0.0000
# 6 0.0000 0.0000 0.0000 0.0000 0.0000 14.2837
#
#
#
# Elastic Compliance Matrix: (Units=1/GPa)
#
#
# Indices 1 2 3 4 5 6 
#
# 1 0.013871 -0.001042 -0.008982 0.000000 0.000000 0.000000
# 2 -0.001042 0.012897 0.000521 0.000000 0.000000 0.000000
# 3 -0.008982 0.000521 0.019994 0.000000 0.000000 0.000000
# 4 0.000000 0.000000 0.000000 0.049233 0.000000 0.000000
# 5 0.000000 0.000000 0.000000 0.000000 0.088860 0.000000
# 6 0.000000 0.000000 0.000000 0.000000 0.000000 0.070010
#
#
# Mechanical properties :
#
#
# Convention : Reuss Voigt Hill
#
# Bulk Modulus (GPa) = 36.02871 39.63962 37.83417
# Shear Modulus (GPa) = 17.66016 22.35393 20.00704
#
# Velocity S-wave (km/s) = 3.03786 3.41781 3.23342
# Velocity P-wave (km/s) = 5.57962 6.02408 5.80611
#
# Compressibility (1/GPa) = 0.02775564
#
# Stress axis : x y z
#
# Youngs Moduli (GPa) = 72.09063 77.53802 50.01615
#
# Poissons Ratio (x) = 0.08082 0.44926
# Poissons Ratio (y) = 0.07514 -0.02608
# Poissons Ratio (z) = 0.64754 -0.04043
#
# Static dielectric constant tensor:
#      x y z
#    x 1.654460 0.000000 0.000000 
#    y 0.000000 1.674900 0.000000 
#    z 0.000000 0.000000 1.757580 
# 
# From -- ./inp_files/29686.got.cif
#   From: 2010.05.17/outbox.cif.g08.bks.cpg/sg53_15_cif.got.tgz:29686.got - 2010.06.03 12:45:16.
