data_PCOD9415372
_publ_section_title
;
Structure prediction by ZEFSAII (Michael W. Deem and Ramdas Pophale) SiO2 
 PCOD9415372
Probable space group: P M N A
;
_chemical_formula_sum "Si O2"
_cell_formula_units_Z 48
_cell_length_a 8.995253
_cell_length_b 15.432727
_cell_length_c 20.915388
_cell_angle_alpha 90.000000
_cell_angle_beta 90.000000
_cell_angle_gamma 90.000000
_cell_volume 2903.501014
_symmetry_space_group_name_H-M "P M N A"
_symmetry_group_IT_number 53
_symmetry_cell_setting 'orthorhombic'
loop_
_space_group_symop_operation_xyz
x,y,z
1/2-x,-y,1/2+z
x,-y,-z
1/2-x,y,1/2-z
-x,-y,-z
1/2+x,y,1/2-z
-x,y,z
1/2+x,-y,1/2+z
loop_
_atom_site_type_symbol
_atom_site_label
_atom_site_fract_x
_atom_site_fract_y
_atom_site_fract_z
Si Si1 0.170971 0.763012 0.507925
Si Si2 0.177665 0.987085 0.813651
Si Si3 0.827713 0.195510 0.342867
Si Si4 0.821880 0.621402 0.814448
Si Si5 0.678395 0.926577 0.448800
Si Si6 0.321020 0.416844 0.458619
O O1 0.174066 0.800327 0.580196
O O2 0.249264 0.834755 0.464644
O O3 0.251831 0.670665 0.512628
O O4 0.000000 0.751016 0.489141
O O5 0.250000 0.026034 0.750000
O O6 0.246730 0.891510 0.821758
O O7 0.000000 0.981114 0.807483
O O8 0.212795 0.039950 0.877873
O O9 0.741360 0.280933 0.320369
O O10 0.000000 0.197444 0.321391
O O11 0.750000 0.582957 0.750000
O O12 0.781698 0.578074 0.882911
O O13 0.000000 0.622496 0.808657
O O14 0.500000 0.918719 0.455023
O O15 0.727072 0.000000 0.500000
O O16 0.275166 0.500000 0.500000
O O17 0.500000 0.409767 0.461458
#
# Coordination Sequence:
#
# PCOD9415372 Si02
#       6
#     8   8   8   8   8   8
#     4  10  20  32  52  80 106 133 168 216 263 303
#     4  11  22  34  49  70 100 137 175 217 260 302
#     4  10  19  31  47  71 103 136 169 204 251 306
#     4  10  19  31  49  73 103 134 165 204 252 308
#     4  10  20  35  54  74 100 137 179 214 250 304
#     4   9  19  36  57  78 102 135 174 213 256 310
#
# _framework density 16.531766000000001
#
# number of rings (size 3 to 8) (size 9 to 14) (size 15 to 20)
#    0.000    2.000    1.667    2.500    0.000    4.000 
#    0.000    0.000    0.000    1.000    0.000    2.333 
#    0.000    0.000    0.000    0.000    0.000    0.000 
#
# Total GULP energy -267848.575030 kJ/mol
# GULP energy per Si atom -5580.178646 kJ/mol
# Density = 1.649414 g / cm^3
# Si number density = 16.531766 Si / 1000 Ang^3
#
#
#
# Elastic Constant Matrix: (Units=GPa)
#
#
# Indices 1 2 3 4 5 6 
#
# 1 58.4774 42.0558 60.3381 0.0000 0.0000 0.0000
# 2 42.0558 96.9670 73.4875 0.0000 0.0000 0.0000
# 3 60.3381 73.4875 133.7969 0.0000 0.0000 0.0000
# 4 0.0000 0.0000 0.0000 18.1198 0.0000 0.0000
# 5 0.0000 0.0000 0.0000 0.0000 28.0265 0.0000
# 6 0.0000 0.0000 0.0000 0.0000 0.0000 13.8272
#
#
#
# Elastic Compliance Matrix: (Units=1/GPa)
#
#
# Indices 1 2 3 4 5 6 
#
# 1 0.033487 -0.005274 -0.012205 0.000000 0.000000 0.000000
# 2 -0.005274 0.018497 -0.007781 0.000000 0.000000 0.000000
# 3 -0.012205 -0.007781 0.017252 0.000000 0.000000 0.000000
# 4 0.000000 0.000000 0.000000 0.055188 0.000000 0.000000
# 5 0.000000 0.000000 0.000000 0.000000 0.035681 0.000000
# 6 0.000000 0.000000 0.000000 0.000000 0.000000 0.072321
#
#
# Mechanical properties :
#
#
# Convention : Reuss Voigt Hill
#
# Bulk Modulus (GPa) = 53.43067 71.22266 62.32666
# Shear Modulus (GPa) = 17.29004 19.55201 18.42103
#
# Velocity S-wave (km/s) = 3.23750 3.44276 3.34171
# Velocity P-wave (km/s) = 6.80921 7.67980 7.25757
#
# Compressibility (1/GPa) = 0.01871584
#
# Stress axis : x y z
#
# Youngs Moduli (GPa) = 29.86265 54.06210 57.96564
#
# Poissons Ratio (x) = 0.28514 0.70744
# Poissons Ratio (y) = 0.15750 0.45103
# Poissons Ratio (z) = 0.36446 0.42066
#
# Static dielectric constant tensor:
#      x y z
#    x 1.557220 0.000000 0.000000 
#    y 0.000000 1.515060 0.000000 
#    z 0.000000 0.000000 1.594260 
# 
# From -- ./inp_files/30469.got.cif
#   From: 2010.05.17/outbox.cif.g08.bks.cpg/sg53_16_cif.got.tgz:30469.got - 2010.06.03 12:45:16.
