data_PCOD9415285
_publ_section_title
;
Structure prediction by ZEFSAII (Michael W. Deem and Ramdas Pophale) SiO2 
 PCOD9415285
Probable space group: P M N A
;
_chemical_formula_sum "Si O2"
_cell_formula_units_Z 56
_cell_length_a 8.738666
_cell_length_b 19.673784
_cell_length_c 18.686987
_cell_angle_alpha 90.000000
_cell_angle_beta 90.000000
_cell_angle_gamma 90.000000
_cell_volume 3212.715902
_symmetry_space_group_name_H-M "P M N A"
_symmetry_group_IT_number 53
_symmetry_cell_setting 'orthorhombic'
loop_
_space_group_symop_operation_xyz
x,y,z
1/2-x,-y,1/2+z
x,-y,-z
1/2-x,y,1/2-z
-x,-y,-z
1/2+x,y,1/2-z
-x,y,z
1/2+x,-y,1/2+z
loop_
_atom_site_type_symbol
_atom_site_label
_atom_site_fract_x
_atom_site_fract_y
_atom_site_fract_z
Si Si1 0.317595 0.778378 0.104744
Si Si2 0.684377 0.081963 0.579951
Si Si3 0.184578 0.798321 0.828078
Si Si4 0.816684 0.362215 0.673607
Si Si5 0.315814 0.428279 0.532562
Si Si6 0.685954 0.069406 0.413062
Si Si7 0.816250 0.712723 0.963256
O O1 0.500000 0.781668 0.106190
O O2 0.250445 0.852621 0.119507
O O3 0.267842 0.715690 0.155191
O O4 0.261298 0.756147 0.025924
O O5 0.500000 0.085280 0.582503
O O6 0.729589 0.083971 0.495604
O O7 0.733666 0.007247 0.606540
O O8 0.250000 0.786696 0.750000
O O9 0.237270 0.870710 0.860979
O O10 0.228551 0.741173 0.886102
O O11 0.000000 0.799572 0.824312
O O12 0.750000 0.382432 0.750000
O O13 0.756922 0.408466 0.608510
O O14 0.000000 0.364254 0.675020
O O15 0.265270 0.500000 0.500000
O O16 0.500000 0.430377 0.541359
O O17 0.280183 0.365756 0.479141
O O18 0.500000 0.069764 0.412884
O O19 0.000000 0.721716 0.970451
#
# Coordination Sequence:
#
# PCOD9415285 Si02
#       7
#     8   8   8   8   8   8   8
#     4  10  19  30  48  76 104 126 161 214 260 296
#     4   9  15  28  50  70  90 124 166 207 252 306
#     4  10  19  32  48  68  95 130 170 208 249 295
#     4  10  21  36  54  78 108 141 174 211 256 308
#     4   9  18  34  58  85 109 134 168 210 254 304
#     4   8  15  28  47  68  90 122 168 210 246 302
#     4   9  17  32  53  72  96 133 171 202 240 301
#
# _framework density 17.430736
#
# number of rings (size 3 to 8) (size 9 to 14) (size 15 to 20)
#    0.000    2.714    1.429    1.714    0.000    2.571 
#    0.000    3.571    0.000    5.143    0.000    0.000 
#    0.000    0.000    0.000    0.000    0.000    0.000 
#
# Total GULP energy -312140.142952 kJ/mol
# GULP energy per Si atom -5573.931124 kJ/mol
# Density = 1.739106 g / cm^3
# Si number density = 17.430736 Si / 1000 Ang^3
#
#
#
# Elastic Constant Matrix: (Units=GPa)
#
#
# Indices 1 2 3 4 5 6 
#
# 1 13.9709 34.2843 25.6285 0.0000 0.0000 0.0000
# 2 34.2843 139.2756 61.1135 0.0000 0.0000 0.0000
# 3 25.6285 61.1135 112.7390 0.0000 0.0000 0.0000
# 4 0.0000 0.0000 0.0000 18.4314 0.0000 0.0000
# 5 0.0000 0.0000 0.0000 0.0000 21.8377 0.0000
# 6 0.0000 0.0000 0.0000 0.0000 0.0000 15.6077
#
#
#
# Elastic Compliance Matrix: (Units=1/GPa)
#
#
# Indices 1 2 3 4 5 6 
#
# 1 0.236544 -0.045442 -0.029140 0.000000 0.000000 0.000000
# 2 -0.045442 0.018151 0.000491 0.000000 0.000000 0.000000
# 3 -0.029140 0.000491 0.015228 0.000000 0.000000 0.000000
# 4 0.000000 0.000000 0.000000 0.054255 0.000000 0.000000
# 5 0.000000 0.000000 0.000000 0.000000 0.045792 0.000000
# 6 0.000000 0.000000 0.000000 0.000000 0.000000 0.064071
#
#
# Mechanical properties :
#
#
# Convention : Reuss Voigt Hill
#
# Bulk Modulus (GPa) = 8.21409 56.44867 32.33138
# Shear Modulus (GPa) = 8.02823 20.83930 14.43377
#
# Velocity S-wave (km/s) = 2.14844 3.46142 2.88073
# Velocity P-wave (km/s) = 3.29803 6.95918 5.44551
#
# Compressibility (1/GPa) = 0.12174202
#
# Stress axis : x y z
#
# Youngs Moduli (GPa) = 4.22754 55.09478 65.66830
#
# Poissons Ratio (x) = 2.50360 1.91355
# Poissons Ratio (y) = 0.19211 -0.03225
# Poissons Ratio (z) = 0.12319 -0.02705
#
# Static dielectric constant tensor:
#      x y z
#    x 1.587820 0.000000 0.000000 
#    y 0.000000 1.616740 0.000000 
#    z 0.000000 0.000000 1.566160 
# 
# From -- ./inp_files/26683.got.cif
#   From: 2010.05.17/outbox.cif.g08.bks.cpg/sg53_14_cif.got.tgz:26683.got - 2010.06.03 12:45:16.
