data_PCOD9415250
_publ_section_title
;
Structure prediction by ZEFSAII (Michael W. Deem and Ramdas Pophale) SiO2 
 PCOD9415250
Probable space group: P M N A
;
_chemical_formula_sum "Si O2"
_cell_formula_units_Z 56
_cell_length_a 9.414374
_cell_length_b 20.281666
_cell_length_c 15.946075
_cell_angle_alpha 90.000000
_cell_angle_beta 90.000000
_cell_angle_gamma 90.000000
_cell_volume 3044.730629
_symmetry_space_group_name_H-M "P M N A"
_symmetry_group_IT_number 53
_symmetry_cell_setting 'orthorhombic'
loop_
_space_group_symop_operation_xyz
x,y,z
1/2-x,-y,1/2+z
x,-y,-z
1/2-x,y,1/2-z
-x,-y,-z
1/2+x,y,1/2-z
-x,y,z
1/2+x,-y,1/2+z
loop_
_atom_site_type_symbol
_atom_site_label
_atom_site_fract_x
_atom_site_fract_y
_atom_site_fract_z
Si Si1 0.338182 0.421086 0.996827
Si Si2 0.840081 0.877101 0.318183
Si Si3 0.836999 0.757334 0.115040
Si Si4 0.661428 0.928525 0.993645
Si Si5 0.330701 0.661442 0.836954
Si Si6 0.670977 0.784414 0.949046
Si Si7 0.162372 0.389769 0.831147
O O1 0.500000 0.396331 0.980372
O O2 0.237330 0.406644 0.918625
O O3 0.343803 0.500000 0.000000
O O4 0.293079 0.387449 0.085074
O O5 0.750000 0.917101 0.250000
O O6 0.749332 0.811976 0.335406
O O7 0.847860 0.908871 0.409162
O O8 0.000000 0.863838 0.289193
O O9 0.839559 0.689606 0.165553
O O10 0.000000 0.777207 0.098901
O O11 0.753480 0.751820 0.027031
O O12 0.500000 0.938864 0.960108
O O13 0.715870 0.861962 0.947320
O O14 0.735174 0.000000 0.000000
O O15 0.250000 0.648600 0.750000
O O16 0.500000 0.654339 0.823662
O O17 0.303950 0.736271 0.870511
O O18 0.500000 0.784652 0.965726
O O19 0.250000 0.412570 0.750000
O O20 0.000000 0.413651 0.827867
#
# Coordination Sequence:
#
# PCOD9415250 Si02
#       7
#     8   8   8   8   8   8   8
#     4  10  22  41  62  83 112 149 188 234 289 343
#     4  10  19  30  47  71 101 136 173 215 264 319
#     4  10  19  31  51  79 108 138 173 216 269 323
#     4   8  15  29  50  74 100 135 178 220 269 330
#     4  10  21  37  59  85 113 148 191 239 286 339
#     4   9  17  32  55  79 105 143 184 228 278 326
#     4  11  23  36  55  83 114 148 181 223 276 334
#
# _framework density 18.392431999999999
#
# number of rings (size 3 to 8) (size 9 to 14) (size 15 to 20)
#    0.000    2.286    1.429    2.571    0.000    4.857 
#    0.000    2.143    0.000   10.714    0.000    0.000 
#    0.000    0.000    0.000    0.000    0.000    0.000 
#
# Total GULP energy -311760.599851 kJ/mol
# GULP energy per Si atom -5567.153569 kJ/mol
# Density = 1.835057 g / cm^3
# Si number density = 18.392432 Si / 1000 Ang^3
#
#
#
# Elastic Constant Matrix: (Units=GPa)
#
#
# Indices 1 2 3 4 5 6 
#
# 1 102.0840 21.7249 64.9456 0.0000 0.0000 0.0000
# 2 21.7249 78.9167 33.1516 0.0000 0.0000 0.0000
# 3 64.9456 33.1516 130.2517 0.0000 0.0000 0.0000
# 4 0.0000 0.0000 0.0000 2.5020 0.0000 0.0000
# 5 0.0000 0.0000 0.0000 0.0000 31.5503 0.0000
# 6 0.0000 0.0000 0.0000 0.0000 0.0000 16.7194
#
#
#
# Elastic Compliance Matrix: (Units=1/GPa)
#
#
# Indices 1 2 3 4 5 6 
#
# 1 0.014426 -0.001063 -0.006923 0.000000 0.000000 0.000000
# 2 -0.001063 0.014267 -0.003101 0.000000 0.000000 0.000000
# 3 -0.006923 -0.003101 0.011918 0.000000 0.000000 0.000000
# 4 0.000000 0.000000 0.000000 0.399676 0.000000 0.000000
# 5 0.000000 0.000000 0.000000 0.000000 0.031695 0.000000
# 6 0.000000 0.000000 0.000000 0.000000 0.000000 0.059811
#
#
# Mechanical properties :
#
#
# Convention : Reuss Voigt Hill
#
# Bulk Modulus (GPa) = 54.23622 61.21072 57.72347
# Shear Modulus (GPa) = 8.92677 22.91637 15.92157
#
# Velocity S-wave (km/s) = 2.20546 3.53366 2.94540
# Velocity P-wave (km/s) = 6.00314 7.07118 6.55894
#
# Compressibility (1/GPa) = 0.01843786
#
# Stress axis : x y z
#
# Youngs Moduli (GPa) = 69.31810 70.09174 83.90385
#
# Poissons Ratio (x) = 0.07453 0.58083
# Poissons Ratio (y) = 0.07371 0.26019
# Poissons Ratio (z) = 0.47986 0.21736
#
# Static dielectric constant tensor:
#      x y z
#    x 1.655040 0.000000 0.000000 
#    y 0.000000 1.685320 0.000000 
#    z 0.000000 0.000000 1.662990 
# 
# From -- ./inp_files/20520.got.cif
#   From: 2010.05.17/outbox.cif.g08.bks.cpg/sg53_11_cif.got.tgz:20520.got - 2010.06.03 12:45:16.
