data_PCOD9415185
_publ_section_title
;
Structure prediction by ZEFSAII (Michael W. Deem and Ramdas Pophale) SiO2 
 PCOD9415185
Probable space group: P M N A
;
_chemical_formula_sum "Si O2"
_cell_formula_units_Z 56
_cell_length_a 7.282310
_cell_length_b 12.954201
_cell_length_c 24.336025
_cell_angle_alpha 90.000000
_cell_angle_beta 90.000000
_cell_angle_gamma 90.000000
_cell_volume 2295.775605
_symmetry_space_group_name_H-M "P M N A"
_symmetry_group_IT_number 53
_symmetry_cell_setting 'orthorhombic'
loop_
_space_group_symop_operation_xyz
x,y,z
1/2-x,-y,1/2+z
x,-y,-z
1/2-x,y,1/2-z
-x,-y,-z
1/2+x,y,1/2-z
-x,y,z
1/2+x,-y,1/2+z
loop_
_atom_site_type_symbol
_atom_site_label
_atom_site_fract_x
_atom_site_fract_y
_atom_site_fract_z
Si Si1 0.292840 0.086368 0.454542
Si Si2 0.275994 0.366208 0.396180
Si Si3 0.723828 0.706583 0.489446
Si Si4 0.724120 0.746879 0.363668
Si Si5 0.217851 0.804839 0.809554
Si Si6 0.718231 0.460477 0.687643
Si Si7 0.724197 0.020206 0.655025
O O1 0.500000 0.118474 0.437780
O O2 0.213444 0.186013 0.483091
O O3 0.306944 0.000000 0.500000
O O4 0.214892 0.027350 0.403079
O O5 0.500000 0.365834 0.396123
O O6 0.222737 0.370485 0.460651
O O7 0.217312 0.263831 0.361397
O O8 0.212704 0.461429 0.358889
O O9 0.500000 0.702528 0.486537
O O10 0.781108 0.712477 0.425717
O O11 0.500000 0.751558 0.364959
O O12 0.784044 0.655693 0.323320
O O13 0.785198 0.860816 0.343930
O O14 0.250000 0.755064 0.750000
O O15 0.000000 0.809816 0.815859
O O16 0.286089 0.923630 0.807777
O O17 0.750000 0.493884 0.750000
O O18 0.500000 0.458021 0.680034
O O19 0.500000 0.025444 0.657778
#
# Coordination Sequence:
#
# PCOD9415185 Si02
#       7
#     8   8   8   8   8   8   8
#     4   9  12  17  34  60  91 123 146 169 218 286
#     4   9  17  29  46  68  94 122 152 190 240 288
#     4   9  14  22  40  68  98 121 143 184 243 289
#     4   9  17  27  43  69  98 124 152 190 235 281
#     4  10  19  30  45  66  92 122 158 198 233 270
#     4  10  21  36  51  68  93 127 163 195 228 272
#     4   9  15  24  39  62  92 122 150 182 225 277
#
# _framework density 24.392627000000001
#
# number of rings (size 3 to 8) (size 9 to 14) (size 15 to 20)
#    0.000    2.714    2.857    0.429    0.000    1.143 
#    0.000    2.857    0.000    0.000    0.000    3.000 
#    0.000    2.000    0.000    0.000    0.000    0.000 
#
# Total GULP energy -312163.554643 kJ/mol
# GULP energy per Si atom -5574.349190 kJ/mol
# Density = 2.433711 g / cm^3
# Si number density = 24.392627 Si / 1000 Ang^3
#
#
#
# Elastic Constant Matrix: (Units=GPa)
#
#
# Indices 1 2 3 4 5 6 
#
# 1 101.2836 1.7625 -6.5789 0.0000 0.0000 0.0000
# 2 1.7625 107.1189 8.8130 0.0000 0.0000 0.0000
# 3 -6.5789 8.8130 50.2968 0.0000 0.0000 0.0000
# 4 0.0000 0.0000 0.0000 32.3581 0.0000 0.0000
# 5 0.0000 0.0000 0.0000 0.0000 14.6954 0.0000
# 6 0.0000 0.0000 0.0000 0.0000 0.0000 -26.4488
#
#
#
# Elastic Compliance Matrix: (Units=1/GPa)
#
#
# Indices 1 2 3 4 5 6 
#
# 1 0.009966 -0.000275 0.001352 0.000000 0.000000 0.000000
# 2 -0.000275 0.009480 -0.001697 0.000000 0.000000 0.000000
# 3 0.001352 -0.001697 0.020356 0.000000 0.000000 0.000000
# 4 0.000000 0.000000 0.000000 0.030904 0.000000 0.000000
# 5 0.000000 0.000000 0.000000 0.000000 0.068048 0.000000
# 6 0.000000 0.000000 0.000000 0.000000 0.000000 -0.037809
#
#
# Mechanical properties :
#
#
# Convention : Reuss Voigt Hill
#
# Bulk Modulus (GPa) = 25.93311 29.63248 27.78279
# Shear Modulus (GPa) = 43.46327 21.10112 32.28220
#
# Velocity S-wave (km/s) = 4.22574 2.94438 3.64186
# Velocity P-wave (km/s) = 5.87059 4.87172 5.39432
#
# Compressibility (1/GPa) = 0.03856074
#
# Stress axis : x y z
#
# Youngs Moduli (GPa) = 100.34254 105.49004 49.12524
#
# Poissons Ratio (x) = 0.02903 -0.06641
# Poissons Ratio (y) = 0.02761 0.08337
# Poissons Ratio (z) = -0.13564 0.17902
#
# Static dielectric constant tensor:
#      x y z
#    x 2.033450 0.000000 0.000000 
#    y 0.000000 1.948860 0.000000 
#    z 0.000000 0.000000 2.031920 
# 
# From -- ./inp_files/31972.got.cif
#   From: 2010.05.17/outbox.cif.g08.bks.cpg/sg53_16_cif.got.tgz:31972.got - 2010.06.03 12:45:16.
