data_PCOD9415301
_publ_section_title
;
Structure prediction by ZEFSAII (Michael W. Deem and Ramdas Pophale) SiO2 
 PCOD9415301
Probable space group: P M N A
;
_chemical_formula_sum "Si O2"
_cell_formula_units_Z 42
_cell_length_a 24.149745
_cell_length_b 7.927124
_cell_length_c 8.812616
_cell_angle_alpha 90.000000
_cell_angle_beta 90.000000
_cell_angle_gamma 90.000000
_cell_volume 1687.069786
_symmetry_space_group_name_H-M "P M N A"
_symmetry_group_IT_number 53
_symmetry_cell_setting 'orthorhombic'
loop_
_space_group_symop_operation_xyz
x,y,z
1/2-x,-y,1/2+z
x,-y,-z
1/2-x,y,1/2-z
-x,-y,-z
1/2+x,y,1/2-z
-x,y,z
1/2+x,-y,1/2+z
loop_
_atom_site_type_symbol
_atom_site_label
_atom_site_fract_x
_atom_site_fract_y
_atom_site_fract_z
Si Si1 0.500000 0.500000 0.000000
Si Si2 0.311876 0.833865 0.311150
Si Si3 0.106700 0.836265 0.436370
Si Si4 0.500000 0.264684 0.434174
Si Si5 0.588774 0.399229 0.220996
Si Si6 0.191654 0.768887 0.839303
Si Si7 0.500000 0.910717 0.257621
O O1 0.549147 0.470449 0.868622
O O2 0.250000 0.828437 0.250000
O O3 0.353243 0.751565 0.187929
O O4 0.309539 0.753638 0.478201
O O5 0.328292 0.034110 0.321314
O O6 0.087247 0.742684 0.587588
O O7 0.053340 0.898407 0.346602
O O8 0.139320 0.000000 0.500000
O O9 0.554234 0.355415 0.371116
O O10 0.500000 0.227912 0.610201
O O11 0.500000 0.087028 0.345618
O O12 0.652066 0.374998 0.270121
O O13 0.250000 0.759152 0.750000
#
# Coordination Sequence:
#
# PCOD9415301 Si02
#       7
#     2   8   8   4   8   8   4
#     4  10  26  42  60  80 104 162 218 266 296 346
#     4  10  20  31  52  91 133 157 184 222 300 389
#     4  12  20  31  53  84 117 150 179 238 289 359
#     4  10  19  30  50  74 110 151 178 232 281 362
#     4  11  21  38  57  78 113 153 203 244 301 350
#     4  10  19  33  57  87 124 163 188 235 299 378
#     4  11  19  29  46  80 115 140 187 223 291 346
#
# _framework density 24.895235
#
# number of rings (size 3 to 8) (size 9 to 14) (size 15 to 20)
#    0.000    1.333    3.810    3.714    2.667    3.048 
#    0.000    0.000    0.000   24.000    0.000    0.000 
#    0.000    0.000    0.000    0.000    0.000    0.000 
#
# Total GULP energy -234002.302165 kJ/mol
# GULP energy per Si atom -5571.483385 kJ/mol
# Density = 2.483857 g / cm^3
# Si number density = 24.895235 Si / 1000 Ang^3
#
#
#
# Elastic Constant Matrix: (Units=GPa)
#
#
# Indices 1 2 3 4 5 6 
#
# 1 136.5929 16.1993 48.7258 0.0000 0.0000 0.0000
# 2 16.1993 63.8925 30.0347 0.0000 0.0000 0.0000
# 3 48.7258 30.0347 190.4751 0.0000 0.0000 0.0000
# 4 0.0000 0.0000 0.0000 37.5189 0.0000 0.0000
# 5 0.0000 0.0000 0.0000 0.0000 -4.6692 0.0000
# 6 0.0000 0.0000 0.0000 0.0000 0.0000 -123.6719
#
#
#
# Elastic Compliance Matrix: (Units=1/GPa)
#
#
# Indices 1 2 3 4 5 6 
#
# 1 0.008137 -0.001171 -0.001897 0.000000 0.000000 0.000000
# 2 -0.001171 0.017073 -0.002392 0.000000 0.000000 0.000000
# 3 -0.001897 -0.002392 0.006112 0.000000 0.000000 0.000000
# 4 0.000000 0.000000 0.000000 0.026653 0.000000 0.000000
# 5 0.000000 0.000000 0.000000 0.000000 -0.214170 0.000000
# 6 0.000000 0.000000 0.000000 0.000000 0.000000 -0.008086
#
#
# Mechanical properties :
#
#
# Convention : Reuss Voigt Hill
#
# Bulk Modulus (GPa) = 49.01739 64.54223 56.77981
# Shear Modulus (GPa) = -34.11577 1.56895 -16.27341
#
# Velocity S-wave (km/s) = -3.70587 0.79473 -2.55948
# Velocity P-wave (km/s) = 1.19202 5.17918 3.75798
#
# Compressibility (1/GPa) = 0.02040092
#
# Stress axis : x y z
#
# Youngs Moduli (GPa) = 122.90235 58.57227 163.59954
#
# Poissons Ratio (x) = 0.06861 0.31030
# Poissons Ratio (y) = 0.14396 0.39141
# Poissons Ratio (z) = 0.23311 0.14013
#
# Static dielectric constant tensor:
#      x y z
#    x 1.920800 0.000000 0.000000 
#    y 0.000000 2.173860 0.000000 
#    z 0.000000 0.000000 1.937570 
# 
# From -- ./inp_files/11726.got.cif
#   From: 2010.05.17/outbox.cif.g08.bks.cpg/sg53_6_cif.got.tgz:11726.got - 2010.06.03 12:45:16.
