data_PCOD9415242
_publ_section_title
;
Structure prediction by ZEFSAII (Michael W. Deem and Ramdas Pophale) SiO2 
 PCOD9415242
Probable space group: P M N A
;
_chemical_formula_sum "Si O2"
_cell_formula_units_Z 56
_cell_length_a 18.674958
_cell_length_b 5.407324
_cell_length_c 30.491072
_cell_angle_alpha 90.000000
_cell_angle_beta 90.000000
_cell_angle_gamma 90.000000
_cell_volume 3079.035669
_symmetry_space_group_name_H-M "P M N A"
_symmetry_group_IT_number 53
_symmetry_cell_setting 'orthorhombic'
loop_
_space_group_symop_operation_xyz
x,y,z
1/2-x,-y,1/2+z
x,-y,-z
1/2-x,y,1/2-z
-x,-y,-z
1/2+x,y,1/2-z
-x,y,z
1/2+x,-y,1/2+z
loop_
_atom_site_type_symbol
_atom_site_label
_atom_site_fract_x
_atom_site_fract_y
_atom_site_fract_z
Si Si1 0.638520 0.997072 0.337837
Si Si2 0.668669 0.464695 0.452019
Si Si3 0.000000 0.361712 0.330542
Si Si4 0.500000 0.861410 0.172631
Si Si5 0.343717 0.385073 0.208775
Si Si6 0.629661 0.884208 0.242000
Si Si7 0.775855 0.503405 0.857131
Si Si8 0.081958 0.035008 0.932816
O O1 0.603586 0.951867 0.290522
O O2 0.694092 0.767967 0.344439
O O3 0.587445 0.980163 0.379865
O O4 0.675055 0.267951 0.339852
O O5 0.702132 0.500000 0.500000
O O6 0.720461 0.475300 0.409866
O O7 0.615333 0.699872 0.445907
O O8 0.626962 0.201830 0.449817
O O9 0.928549 0.362876 0.301119
O O10 0.000000 0.616468 0.355675
O O11 0.000000 0.106854 0.355606
O O12 0.567525 0.862178 0.205515
O O13 0.333894 0.615215 0.241485
O O14 0.300584 0.453351 0.165159
O O15 0.322649 0.116260 0.226628
O O16 0.000000 0.017223 0.946834
#
# Coordination Sequence:
#
# PCOD9415242 Si02
#       8
#     8   8   4   4   8   8   8   8
#     4  10  21  33  46  69  99 129 164 193 234 283
#     4  10  21  37  54  73  97 124 161 203 249 308
#     4   8  16  30  44  66  87 114 154 190 225 266
#     4   8  16  28  42  62  88 116 162 192 224 258
#     4  10  19  32  49  68  95 123 162 200 233 279
#     4  10  19  30  47  68  92 133 162 199 230 276
#     4  10  21  35  48  69  96 123 154 199 245 289
#     4  10  21  35  52  75 100 129 164 206 247 279
#
# _framework density 18.187511000000001
#
# number of rings (size 3 to 8) (size 9 to 14) (size 15 to 20)
#    0.000    2.286    0.000    2.571    1.000    5.143 
#    0.000    0.000    0.000    0.000    0.000    0.500 
#    0.000    0.000    0.000   22.429    0.000    0.000 
#
# Total GULP energy -311838.379916 kJ/mol
# GULP energy per Si atom -5568.542498 kJ/mol
# Density = 1.814612 g / cm^3
# Si number density = 18.187511 Si / 1000 Ang^3
#
#
#
# Elastic Constant Matrix: (Units=GPa)
#
#
# Indices 1 2 3 4 5 6 
#
# 1 48.1260 -5.8114 2.4625 0.0000 0.0000 0.0000
# 2 -5.8114 150.5650 -5.4215 0.0000 0.0000 0.0000
# 3 2.4625 -5.4215 59.6093 0.0000 0.0000 0.0000
# 4 0.0000 0.0000 0.0000 14.4553 0.0000 0.0000
# 5 0.0000 0.0000 0.0000 0.0000 0.1732 0.0000
# 6 0.0000 0.0000 0.0000 0.0000 0.0000 8.0771
#
#
#
# Elastic Compliance Matrix: (Units=1/GPa)
#
#
# Indices 1 2 3 4 5 6 
#
# 1 0.020913 0.000779 -0.000793 0.000000 0.000000 0.000000
# 2 0.000779 0.006692 0.000577 0.000000 0.000000 0.000000
# 3 -0.000793 0.000577 0.016861 0.000000 0.000000 0.000000
# 4 0.000000 0.000000 0.000000 0.069179 0.000000 0.000000
# 5 0.000000 0.000000 0.000000 0.000000 5.774166 0.000000
# 6 0.000000 0.000000 0.000000 0.000000 0.000000 0.123806
#
#
# Mechanical properties :
#
#
# Convention : Reuss Voigt Hill
#
# Bulk Modulus (GPa) = 21.93414 26.75105 24.34259
# Shear Modulus (GPa) = 0.82978 22.34584 11.58781
#
# Velocity S-wave (km/s) = 0.67619 3.50899 2.52688
# Velocity P-wave (km/s) = 3.56312 5.58192 4.68261
#
# Compressibility (1/GPa) = 0.04559103
#
# Stress axis : x y z
#
# Youngs Moduli (GPa) = 47.81626 149.42180 59.30811
#
# Poissons Ratio (x) = -0.11635 0.04704
# Poissons Ratio (y) = -0.03723 -0.03419
# Poissons Ratio (z) = 0.03792 -0.08614
#
# Static dielectric constant tensor:
#      x y z
#    x 1.525130 0.000000 0.000000 
#    y 0.000000 1.718620 0.000000 
#    z 0.000000 0.000000 1.612260 
# 
# From -- ./inp_files/37237.got.cif
#   From: 2010.05.17/outbox.cif.g08.bks.cpg/sg53_19_cif.got.tgz:37237.got - 2010.06.03 12:45:16.
