data_PCOD9415361
_publ_section_title
;
Structure prediction by ZEFSAII (Michael W. Deem and Ramdas Pophale) SiO2 
 PCOD9415361
Probable space group: P M N A
;
_chemical_formula_sum "Si O2"
_cell_formula_units_Z 64
_cell_length_a 8.984615
_cell_length_b 22.268211
_cell_length_c 15.084733
_cell_angle_alpha 90.000000
_cell_angle_beta 90.000000
_cell_angle_gamma 90.000000
_cell_volume 3018.022180
_symmetry_space_group_name_H-M "P M N A"
_symmetry_group_IT_number 53
_symmetry_cell_setting 'orthorhombic'
loop_
_space_group_symop_operation_xyz
x,y,z
1/2-x,-y,1/2+z
x,-y,-z
1/2-x,y,1/2-z
-x,-y,-z
1/2+x,y,1/2-z
-x,y,z
1/2+x,-y,1/2+z
loop_
_atom_site_type_symbol
_atom_site_label
_atom_site_fract_x
_atom_site_fract_y
_atom_site_fract_z
Si Si1 0.680079 0.000000 0.151212
Si Si2 0.834859 0.619113 0.104385
Si Si3 0.679686 0.870664 0.151488
Si Si4 0.179686 0.129336 0.348512
Si Si5 0.821471 0.259227 0.347394
Si Si6 0.329819 0.500000 0.109065
Si Si7 0.834859 0.380887 0.104386
Si Si8 0.678529 0.259227 0.847394
O O1 0.750000 0.000000 0.250000
O O2 0.500000 0.000000 0.157489
O O3 0.722239 0.064727 0.110077
O O4 0.722239 0.935273 0.110077
O O5 0.751648 0.560484 0.139863
O O6 0.744156 0.680561 0.111851
O O7 0.000000 0.626287 0.143855
O O8 0.850654 0.607640 1.000000
O O9 0.750000 0.870958 0.250000
O O10 0.500000 0.870434 0.159032
O O11 0.718934 0.805858 0.110342
O O12 0.250000 0.129042 0.250000
O O13 0.218934 0.194142 0.389658
O O14 0.000000 0.129566 0.340968
O O15 0.750000 0.257500 0.250000
O O16 0.755844 0.319439 0.388149
O O17 0.000000 0.263362 0.344300
O O18 0.500000 0.500000 0.138035
O O19 0.248352 0.439516 0.139863
O O20 0.330825 0.500000 0.000000
O O21 0.000000 0.373713 0.143855
O O22 0.750000 0.257500 0.750000
O O23 0.500000 0.263362 0.844300
#
# Coordination Sequence:
#
# PCOD9415361 Si02
#       8
#     8   8   8   8   8   8   8   8
#     4   8  12  20  34  54  81 112 147 185 225 267
#     4  10  20  34  52  73  96 123 156 193 232 275
#     4   8  14  23  37  58  85 117 150 186 227 271
#     4   8  14  23  37  58  85 117 150 186 227 271
#     4  10  19  31  47  69  98 129 159 192 234 281
#     4   9  17  31  52  75  96 119 150 189 231 275
#     4  10  20  34  52  73  96 123 156 193 232 275
#     4  10  19  31  47  69  98 129 159 192 234 281
#
# _framework density 21.205942
#
# number of rings (size 3 to 8) (size 9 to 14) (size 15 to 20)
#    0.000    2.875    0.000    1.875    0.000    4.000 
#    0.000    0.625    0.000    0.000    0.000    0.875 
#    0.000    7.000    0.000    0.000    0.000    0.500 
#
# Total GULP energy -356364.319703 kJ/mol
# GULP energy per Si atom -5568.192495 kJ/mol
# Density = 2.115768 g / cm^3
# Si number density = 21.205942 Si / 1000 Ang^3
#
#
#
# Elastic Constant Matrix: (Units=GPa)
#
#
# Indices 1 2 3 4 5 6 
#
# 1 92.6981 85.9061 5.0336 0.0000 0.0000 0.0000
# 2 85.9061 269.3316 10.7858 0.0000 0.0000 0.0000
# 3 5.0336 10.7858 33.2389 0.0000 0.0000 0.0000
# 4 0.0000 0.0000 0.0000 -17.4042 0.0000 0.0000
# 5 0.0000 0.0000 0.0000 0.0000 10.1625 0.0000
# 6 0.0000 0.0000 0.0000 0.0000 0.0000 34.3100
#
#
#
# Elastic Compliance Matrix: (Units=1/GPa)
#
#
# Indices 1 2 3 4 5 6 
#
# 1 0.015333 -0.004861 -0.000745 0.000000 0.000000 0.000000
# 2 -0.004861 0.005303 -0.000985 0.000000 0.000000 0.000000
# 3 -0.000745 -0.000985 0.030517 0.000000 0.000000 0.000000
# 4 0.000000 0.000000 0.000000 -0.057457 0.000000 0.000000
# 5 0.000000 0.000000 0.000000 0.000000 0.098401 0.000000
# 6 0.000000 0.000000 0.000000 0.000000 0.000000 0.029146
#
#
# Mechanical properties :
#
#
# Convention : Reuss Voigt Hill
#
# Bulk Modulus (GPa) = 26.33458 66.52441 46.42950
# Shear Modulus (GPa) = 33.99511 24.98320 29.48916
#
# Velocity S-wave (km/s) = 4.00821 3.43610 3.73313
# Velocity P-wave (km/s) = 5.81949 6.86885 6.36583
#
# Compressibility (1/GPa) = 0.03797289
#
# Stress axis : x y z
#
# Youngs Moduli (GPa) = 65.22011 188.58341 32.76812
#
# Poissons Ratio (x) = 0.91665 0.02440
# Poissons Ratio (y) = 0.31702 0.03226
# Poissons Ratio (z) = 0.04857 0.18568
#
# Static dielectric constant tensor:
#      x y z
#    x 1.732670 0.000000 0.000000 
#    y 0.000000 1.843850 0.000000 
#    z 0.000000 0.000000 1.776630 
# 
# From -- ./inp_files/31358.got.cif
#   From: 2010.05.17/outbox.cif.g08.bks.cpg/sg53_16_cif.got.tgz:31358.got - 2010.06.03 12:45:16.
