data_PCOD9415421
_publ_section_title
;
Structure prediction by ZEFSAII (Michael W. Deem and Ramdas Pophale) SiO2 
 PCOD9415421
Probable space group: P M N A
;
_chemical_formula_sum "Si O2"
_cell_formula_units_Z 64
_cell_length_a 8.990753
_cell_length_b 16.286887
_cell_length_c 24.604931
_cell_angle_alpha 90.000000
_cell_angle_beta 90.000000
_cell_angle_gamma 90.000000
_cell_volume 3602.933956
_symmetry_space_group_name_H-M "P M N A"
_symmetry_group_IT_number 53
_symmetry_cell_setting 'orthorhombic'
loop_
_space_group_symop_operation_xyz
x,y,z
1/2-x,-y,1/2+z
x,-y,-z
1/2-x,y,1/2-z
-x,-y,-z
1/2+x,y,1/2-z
-x,y,z
1/2+x,-y,1/2+z
loop_
_atom_site_type_symbol
_atom_site_label
_atom_site_fract_x
_atom_site_fract_y
_atom_site_fract_z
Si Si1 0.820861 0.797884 0.413527
Si Si2 0.678094 0.133206 0.109323
Si Si3 0.327519 0.395987 0.392349
Si Si4 0.822756 0.279671 0.807334
Si Si5 0.327208 0.753137 0.693596
Si Si6 0.322212 0.525360 0.307277
Si Si7 0.822070 0.720191 0.525747
Si Si8 0.675392 0.973141 0.437263
O O1 0.751601 0.766164 0.357665
O O2 0.776635 0.738804 0.464022
O O3 0.759721 0.888289 0.426734
O O4 0.000000 0.799451 0.410749
O O5 0.500000 0.125406 0.110443
O O6 0.740008 0.173504 0.164140
O O7 0.717641 0.199019 0.061678
O O8 0.754252 0.046884 0.097245
O O9 0.500000 0.410409 0.406446
O O10 0.320499 0.324001 0.347127
O O11 0.267452 0.475029 0.359886
O O12 0.246181 0.358997 0.444728
O O13 0.750000 0.254825 0.750000
O O14 0.796042 0.377626 0.813637
O O15 0.000000 0.266244 0.806230
O O16 0.250000 0.732302 0.750000
O O17 0.500000 0.774117 0.701557
O O18 0.250000 0.498970 0.250000
O O19 0.500000 0.511301 0.303400
O O20 0.000000 0.713113 0.527603
O O21 0.500000 0.963708 0.425853
O O22 0.692259 0.000000 0.500000
#
# Coordination Sequence:
#
# PCOD9415421 Si02
#       8
#     8   8   8   8   8   8   8   8
#     4  11  22  38  59  83 111 144 183 225 272 325
#     4  10  19  34  53  75 106 142 179 221 266 311
#     4   9  18  31  50  77 109 143 182 226 270 320
#     4  10  21  39  61  84 110 142 182 228 278 328
#     4  10  19  31  48  73 106 144 183 221 266 322
#     4   9  18  33  54  80 108 141 184 231 276 324
#     4   9  19  33  51  77 109 144 180 219 265 319
#     4  11  22  35  56  85 112 138 176 221 266 319
#
# _framework density 17.763301999999999
#
# number of rings (size 3 to 8) (size 9 to 14) (size 15 to 20)
#    0.000    2.125    1.250    2.250    0.000    3.500 
#    0.000    1.250    0.000    3.750    0.000    0.000 
#    0.000    0.000    0.000    0.000    0.000    0.000 
#
# Total GULP energy -357142.443773 kJ/mol
# GULP energy per Si atom -5580.350684 kJ/mol
# Density = 1.772287 g / cm^3
# Si number density = 17.763302 Si / 1000 Ang^3
#
#
#
# Elastic Constant Matrix: (Units=GPa)
#
#
# Indices 1 2 3 4 5 6 
#
# 1 67.3217 38.1508 53.6426 0.0000 0.0000 0.0000
# 2 38.1508 56.0010 40.2090 0.0000 0.0000 0.0000
# 3 53.6426 40.2090 109.3839 0.0000 0.0000 0.0000
# 4 0.0000 0.0000 0.0000 27.6368 0.0000 0.0000
# 5 0.0000 0.0000 0.0000 0.0000 29.1741 0.0000
# 6 0.0000 0.0000 0.0000 0.0000 0.0000 19.9215
#
#
#
# Elastic Compliance Matrix: (Units=1/GPa)
#
#
# Indices 1 2 3 4 5 6 
#
# 1 0.030513 -0.013644 -0.009948 0.000000 0.000000 0.000000
# 2 -0.013644 0.030361 -0.004469 0.000000 0.000000 0.000000
# 3 -0.009948 -0.004469 0.015664 0.000000 0.000000 0.000000
# 4 0.000000 0.000000 0.000000 0.036184 0.000000 0.000000
# 5 0.000000 0.000000 0.000000 0.000000 0.034277 0.000000
# 6 0.000000 0.000000 0.000000 0.000000 0.000000 0.050197
#
#
# Mechanical properties :
#
#
# Convention : Reuss Voigt Hill
#
# Bulk Modulus (GPa) = 48.98565 55.19017 52.08791
# Shear Modulus (GPa) = 19.22164 22.06009 20.64087
#
# Velocity S-wave (km/s) = 3.29310 3.52787 3.41250
# Velocity P-wave (km/s) = 6.48815 6.90881 6.70178
#
# Compressibility (1/GPa) = 0.02041414
#
# Stress axis : x y z
#
# Youngs Moduli (GPa) = 32.77298 32.93699 63.84178
#
# Poissons Ratio (x) = 0.44940 0.63511
# Poissons Ratio (y) = 0.44716 0.28533
# Poissons Ratio (z) = 0.32603 0.14721
#
# Static dielectric constant tensor:
#      x y z
#    x 1.594240 0.000000 0.000000 
#    y 0.000000 1.597910 0.000000 
#    z 0.000000 0.000000 1.596450 
# 
# From -- ./inp_files/34338.got.cif
#   From: 2010.05.17/outbox.cif.g08.bks.cpg/sg53_18_cif.got.tgz:34338.got - 2010.06.03 12:45:16.
