data_PCOD9415355
_publ_section_title
;
Structure prediction by ZEFSAII (Michael W. Deem and Ramdas Pophale) SiO2 
 PCOD9415355
Probable space group: P M N A
;
_chemical_formula_sum "Si O2"
_cell_formula_units_Z 64
_cell_length_a 9.029365
_cell_length_b 23.608300
_cell_length_c 16.458599
_cell_angle_alpha 90.000000
_cell_angle_beta 90.000000
_cell_angle_gamma 90.000000
_cell_volume 3508.445936
_symmetry_space_group_name_H-M "P M N A"
_symmetry_group_IT_number 53
_symmetry_cell_setting 'orthorhombic'
loop_
_space_group_symop_operation_xyz
x,y,z
1/2-x,-y,1/2+z
x,-y,-z
1/2-x,y,1/2-z
-x,-y,-z
1/2+x,y,1/2-z
-x,y,z
1/2+x,-y,1/2+z
loop_
_atom_site_type_symbol
_atom_site_label
_atom_site_fract_x
_atom_site_fract_y
_atom_site_fract_z
Si Si1 0.177720 0.632149 0.495102
Si Si2 0.824113 0.031623 0.664561
Si Si3 0.823413 0.763106 0.494846
Si Si4 0.829656 0.131819 0.918942
Si Si5 0.828522 0.927056 0.904530
Si Si6 0.823769 0.181109 0.331219
Si Si7 0.823072 0.573634 0.666199
Si Si8 0.169518 0.469197 0.911860
O O1 0.216637 0.697684 0.483678
O O2 0.215225 0.611636 0.587024
O O3 0.256400 0.590927 0.431040
O O4 0.000000 0.625815 0.487367
O O5 0.750000 0.016343 0.750000
O O6 0.769237 0.093960 0.640058
O O7 0.000000 0.028659 0.668068
O O8 0.759289 0.985396 0.602392
O O9 0.735729 0.806499 0.437849
O O10 0.795735 0.781468 0.588462
O O11 0.000000 0.769828 0.481389
O O12 0.000000 0.134060 0.891372
O O13 0.826196 0.098753 0.005220
O O14 0.750178 0.879794 0.848966
O O15 0.000000 0.935543 0.880891
O O16 0.750000 0.205131 0.250000
O O17 0.000000 0.175239 0.321123
O O18 0.750000 0.593688 0.750000
O O19 0.761755 0.510880 0.645745
O O20 0.000000 0.572715 0.674091
O O21 0.000000 0.464134 0.883932
O O22 0.168580 0.500000 0.000000
#
# Coordination Sequence:
#
# PCOD9415355 Si02
#       8
#     8   8   8   8   8   8   8   8
#     4   9  18  33  52  74 101 135 174 212 250 295
#     4  12  24  37  55  78 104 132 165 208 259 313
#     4   9  19  35  53  73  99 135 176 212 249 297
#     4  10  21  37  56  78 104 134 170 212 256 303
#     4  10  20  35  54  76 103 133 167 208 254 307
#     4  10  19  31  47  69 100 136 172 209 251 300
#     4  10  19  31  49  75 108 141 170 206 252 299
#     4   9  17  30  49  73 100 131 168 207 246 291
#
# _framework density 18.241693999999999
#
# number of rings (size 3 to 8) (size 9 to 14) (size 15 to 20)
#    0.000    2.125    0.000    3.750    0.000    6.500 
#    0.000    0.000    0.000    0.750    0.000    0.000 
#    0.000    0.000    0.000    0.000    0.000    0.000 
#
# Total GULP energy -357283.156288 kJ/mol
# GULP energy per Si atom -5582.549317 kJ/mol
# Density = 1.820018 g / cm^3
# Si number density = 18.241694 Si / 1000 Ang^3
#
#
#
# Elastic Constant Matrix: (Units=GPa)
#
#
# Indices 1 2 3 4 5 6 
#
# 1 92.9296 44.7887 8.8864 0.0000 0.0000 0.0000
# 2 44.7887 118.5950 1.8815 0.0000 0.0000 0.0000
# 3 8.8864 1.8815 10.9287 0.0000 0.0000 0.0000
# 4 0.0000 0.0000 0.0000 13.1080 0.0000 0.0000
# 5 0.0000 0.0000 0.0000 0.0000 25.2552 0.0000
# 6 0.0000 0.0000 0.0000 0.0000 0.0000 25.9016
#
#
#
# Elastic Compliance Matrix: (Units=1/GPa)
#
#
# Indices 1 2 3 4 5 6 
#
# 1 0.014310 -0.005234 -0.010735 0.000000 0.000000 0.000000
# 2 -0.005234 0.010370 0.002471 0.000000 0.000000 0.000000
# 3 -0.010735 0.002471 0.099806 0.000000 0.000000 0.000000
# 4 0.000000 0.000000 0.000000 0.076289 0.000000 0.000000
# 5 0.000000 0.000000 0.000000 0.000000 0.039596 0.000000
# 6 0.000000 0.000000 0.000000 0.000000 0.000000 0.038608
#
#
# Mechanical properties :
#
#
# Convention : Reuss Voigt Hill
#
# Bulk Modulus (GPa) = 10.25754 37.06293 23.66024
# Shear Modulus (GPa) = 14.77233 23.97939 19.37586
#
# Velocity S-wave (km/s) = 2.84881 3.62959 3.26264
# Velocity P-wave (km/s) = 4.05663 6.15849 5.21456
#
# Compressibility (1/GPa) = 0.09748925
#
# Stress axis : x y z
#
# Youngs Moduli (GPa) = 69.88150 96.43631 10.01946
#
# Poissons Ratio (x) = 0.50475 0.10756
# Poissons Ratio (y) = 0.36576 -0.02475
# Poissons Ratio (z) = 0.75015 -0.23826
#
# Static dielectric constant tensor:
#      x y z
#    x 1.611180 0.000000 0.000000 
#    y 0.000000 1.619120 0.000000 
#    z 0.000000 0.000000 1.641710 
# 
# From -- ./inp_files/20857.got.cif
#   From: 2010.05.17/outbox.cif.g08.bks.cpg/sg53_11_cif.got.tgz:20857.got - 2010.06.03 12:45:16.
