data_PCOD9415446
_publ_section_title
;
Structure prediction by ZEFSAII (Michael W. Deem and Ramdas Pophale) SiO2 
 PCOD9415446
Probable space group: P M N A
;
_chemical_formula_sum "Si O2"
_cell_formula_units_Z 48
_cell_length_a 9.329083
_cell_length_b 17.644052
_cell_length_c 13.378605
_cell_angle_alpha 90.000000
_cell_angle_beta 90.000000
_cell_angle_gamma 90.000000
_cell_volume 2202.156185
_symmetry_space_group_name_H-M "P M N A"
_symmetry_group_IT_number 53
_symmetry_cell_setting 'orthorhombic'
loop_
_space_group_symop_operation_xyz
x,y,z
1/2-x,-y,1/2+z
x,-y,-z
1/2-x,y,1/2-z
-x,-y,-z
1/2+x,y,1/2-z
-x,y,z
1/2+x,-y,1/2+z
loop_
_atom_site_type_symbol
_atom_site_label
_atom_site_fract_x
_atom_site_fract_y
_atom_site_fract_z
Si Si1 0.838779 0.978332 0.383352
Si Si2 0.830318 0.663052 0.056307
Si Si3 0.155828 0.528706 0.385361
Si Si4 0.330747 0.167870 0.574069
Si Si5 0.665505 0.643378 0.845923
Si Si6 0.831706 0.872191 0.844068
O O1 0.769035 0.895407 0.376296
O O2 0.000000 0.982438 0.339867
O O3 0.853449 0.000000 0.500000
O O4 0.727099 0.041990 0.349537
O O5 0.802566 0.745454 0.103610
O O6 0.746719 0.659248 0.950124
O O7 0.000000 0.656827 0.037279
O O8 0.776169 0.592436 0.122535
O O9 0.159814 0.500000 0.500000
O O10 0.162302 0.448172 0.332109
O O11 0.000000 0.564383 0.366490
O O12 0.500000 0.150402 0.589343
O O13 0.304853 0.162928 0.453575
O O14 0.750000 0.673285 0.750000
O O15 0.500000 0.669135 0.851036
O O16 0.750000 0.837161 0.750000
O O17 0.000000 0.869773 0.826114
#
# Coordination Sequence:
#
# PCOD9415446 Si02
#       6
#     8   8   8   8   8   8
#     4   9  17  30  49  71  92 120 161 200 234 277
#     4  10  19  31  49  73  99 127 160 195 235 283
#     4   8  16  31  48  67  92 123 159 198 237 278
#     4   9  19  33  48  70  99 129 158 193 237 282
#     4  10  20  33  49  70  97 127 160 197 239 285
#     4  10  19  32  49  69  97 128 158 194 236 281
#
# _framework density 21.796817000000001
#
# number of rings (size 3 to 8) (size 9 to 14) (size 15 to 20)
#    0.000    2.667    0.000    3.000    0.000    8.333 
#    0.000    1.667    0.000    1.000    0.000    2.333 
#    0.000    0.000    0.000    0.000    0.000    0.000 
#
# Total GULP energy -267783.850537 kJ/mol
# GULP energy per Si atom -5578.830220 kJ/mol
# Density = 2.174721 g / cm^3
# Si number density = 21.796817 Si / 1000 Ang^3
#
#
#
# Elastic Constant Matrix: (Units=GPa)
#
#
# Indices 1 2 3 4 5 6 
#
# 1 110.3294 53.2642 8.8990 0.0000 0.0000 0.0000
# 2 53.2642 129.0182 -12.9462 0.0000 0.0000 0.0000
# 3 8.8990 -12.9462 26.0834 0.0000 0.0000 0.0000
# 4 0.0000 0.0000 0.0000 -1.2230 0.0000 0.0000
# 5 0.0000 0.0000 0.0000 0.0000 11.3966 0.0000
# 6 0.0000 0.0000 0.0000 0.0000 0.0000 27.8418
#
#
#
# Elastic Compliance Matrix: (Units=1/GPa)
#
#
# Indices 1 2 3 4 5 6 
#
# 1 0.012476 -0.005870 -0.007170 0.000000 0.000000 0.000000
# 2 -0.005870 0.010919 0.007422 0.000000 0.000000 0.000000
# 3 -0.007170 0.007422 0.044469 0.000000 0.000000 0.000000
# 4 0.000000 0.000000 0.000000 -0.817662 0.000000 0.000000
# 5 0.000000 0.000000 0.000000 0.000000 0.087746 0.000000
# 6 0.000000 0.000000 0.000000 0.000000 0.000000 0.035917
#
#
# Mechanical properties :
#
#
# Convention : Reuss Voigt Hill
#
# Bulk Modulus (GPa) = 17.65910 40.42947 29.04428
# Shear Modulus (GPa) = -8.38892 22.01735 6.81421
#
# Velocity S-wave (km/s) = -1.96394 3.18168 1.77004
# Velocity P-wave (km/s) = 1.72527 5.66446 4.18704
#
# Compressibility (1/GPa) = 0.05662803
#
# Stress axis : x y z
#
# Youngs Moduli (GPa) = 80.15368 91.58301 22.48770
#
# Poissons Ratio (x) = 0.53760 0.16124
# Poissons Ratio (y) = 0.47051 -0.16691
# Poissons Ratio (z) = 0.57471 -0.67975
#
# Static dielectric constant tensor:
#      x y z
#    x 1.767950 0.000000 0.000000 
#    y 0.000000 1.798190 0.000000 
#    z 0.000000 0.000000 1.855570 
# 
# From -- ./inp_files/20223.got.cif
#   From: 2010.05.17/outbox.cif.g08.bks.cpg/sg53_11_cif.got.tgz:20223.got - 2010.06.03 12:45:16.
