data_PCOD9415939
_publ_section_title
;
Structure prediction by ZEFSAII (Michael W. Deem and Ramdas Pophale) SiO2 
 PCOD9415939
Probable space group: P M N A
;
_chemical_formula_sum "Si O2"
_cell_formula_units_Z 56
_cell_length_a 9.412367
_cell_length_b 19.280605
_cell_length_c 18.752692
_cell_angle_alpha 90.000000
_cell_angle_beta 90.000000
_cell_angle_gamma 90.000000
_cell_volume 3403.165976
_symmetry_space_group_name_H-M "P M N A"
_symmetry_group_IT_number 53
_symmetry_cell_setting 'orthorhombic'
loop_
_space_group_symop_operation_xyz
x,y,z
1/2-x,-y,1/2+z
x,-y,-z
1/2-x,y,1/2-z
-x,-y,-z
1/2+x,y,1/2-z
-x,y,z
1/2+x,-y,1/2+z
loop_
_atom_site_type_symbol
_atom_site_label
_atom_site_fract_x
_atom_site_fract_y
_atom_site_fract_z
Si Si1 0.827042 0.437829 0.827673
Si Si2 0.332815 0.969894 0.679553
Si Si3 0.334008 0.133609 0.680593
Si Si4 0.338110 0.068431 0.048155
Si Si5 0.834179 0.641300 0.455691
Si Si6 0.159041 0.195776 0.558835
Si Si7 0.341093 0.557034 0.563206
O O1 0.750000 0.432767 0.750000
O O2 0.755584 0.386002 0.886649
O O3 0.805790 0.513644 0.865350
O O4 0.000000 0.427112 0.822631
O O5 0.250000 0.948200 0.750000
O O6 0.500000 0.961661 0.688448
O O7 0.302404 0.052050 0.668143
O O8 0.272819 0.931014 0.611539
O O9 0.250000 0.156281 0.750000
O O10 0.500000 0.140753 0.691890
O O11 0.278744 0.176839 0.614813
O O12 0.500000 0.060667 0.075700
O O13 0.330445 0.138827 0.003221
O O14 0.311370 0.000000 0.000000
O O15 0.828034 0.724283 0.461607
O O16 0.770431 0.609752 0.528807
O O17 0.000000 0.620632 0.446695
O O18 0.000000 0.186016 0.590754
O O19 0.349753 0.500000 0.500000
O O20 0.500000 0.587406 0.570884
#
# Coordination Sequence:
#
# PCOD9415939 Si02
#       7
#     8   8   8   8   8   8   8
#     4  10  20  34  54  80 108 137 170 207 247 293
#     4  10  20  33  51  74  98 124 162 211 262 314
#     4  10  20  32  48  69  96 130 166 206 253 307
#     4  10  19  33  54  74  98 133 172 219 266 307
#     4  10  20  33  51  75 105 139 173 208 248 303
#     4  10  21  35  50  73 103 136 173 211 257 307
#     4   8  16  32  52  74 101 132 167 206 243 288
#
# _framework density 16.455266000000002
#
# number of rings (size 3 to 8) (size 9 to 14) (size 15 to 20)
#    0.000    2.286    1.429    2.571    0.000    6.857 
#    0.000    0.000    0.000    0.857    0.000    2.000 
#    0.000    0.000    0.000    0.000    0.000    0.000 
#
# Total GULP energy -311951.723094 kJ/mol
# GULP energy per Si atom -5570.566484 kJ/mol
# Density = 1.641781 g / cm^3
# Si number density = 16.455266 Si / 1000 Ang^3
#
#
#
# Elastic Constant Matrix: (Units=GPa)
#
#
# Indices 1 2 3 4 5 6 
#
# 1 62.0129 40.8758 38.6061 0.0000 0.0000 0.0000
# 2 40.8758 57.4540 38.6047 0.0000 0.0000 0.0000
# 3 38.6061 38.6047 54.5203 0.0000 0.0000 0.0000
# 4 0.0000 0.0000 0.0000 10.2178 0.0000 0.0000
# 5 0.0000 0.0000 0.0000 0.0000 30.9447 0.0000
# 6 0.0000 0.0000 0.0000 0.0000 0.0000 24.1425
#
#
#
# Elastic Compliance Matrix: (Units=1/GPa)
#
#
# Indices 1 2 3 4 5 6 
#
# 1 0.034978 -0.015724 -0.013634 0.000000 0.000000 0.000000
# 2 -0.015724 0.040271 -0.017380 0.000000 0.000000 0.000000
# 3 -0.013634 -0.017380 0.040303 0.000000 0.000000 0.000000
# 4 0.000000 0.000000 0.000000 0.097869 0.000000 0.000000
# 5 0.000000 0.000000 0.000000 0.000000 0.032316 0.000000
# 6 0.000000 0.000000 0.000000 0.000000 0.000000 0.041421
#
#
# Mechanical properties :
#
#
# Convention : Reuss Voigt Hill
#
# Bulk Modulus (GPa) = 45.30201 45.57338 45.43770
# Shear Modulus (GPa) = 12.88684 16.78771 14.83727
#
# Velocity S-wave (km/s) = 2.80151 3.19753 3.00604
# Velocity P-wave (km/s) = 6.16885 6.43333 6.30248
#
# Compressibility (1/GPa) = 0.02207407
#
# Stress axis : x y z
#
# Youngs Moduli (GPa) = 28.58908 24.83205 24.81205
#
# Poissons Ratio (x) = 0.39046 0.33830
# Poissons Ratio (y) = 0.44954 0.43124
# Poissons Ratio (z) = 0.38979 0.43159
#
# Static dielectric constant tensor:
#      x y z
#    x 1.571880 0.000000 0.000000 
#    y 0.000000 1.558310 0.000000 
#    z 0.000000 0.000000 1.119300 
# 
# From -- ./inp_files/26642.got.cif
#   From: 2010.05.17/outbox.cif.g08.bks.cpg/sg53_14_cif.got.tgz:26642.got - 2010.06.03 12:45:16.
