data_PCOD9415382
_publ_section_title
;
Structure prediction by ZEFSAII (Michael W. Deem and Ramdas Pophale) SiO2 
 PCOD9415382
Probable space group: P M N A
;
_chemical_formula_sum "Si O2"
_cell_formula_units_Z 56
_cell_length_a 8.779276
_cell_length_b 20.839986
_cell_length_c 13.706072
_cell_angle_alpha 90.000000
_cell_angle_beta 90.000000
_cell_angle_gamma 90.000000
_cell_volume 2507.662781
_symmetry_space_group_name_H-M "P M N A"
_symmetry_group_IT_number 53
_symmetry_cell_setting 'orthorhombic'
loop_
_space_group_symop_operation_xyz
x,y,z
1/2-x,-y,1/2+z
x,-y,-z
1/2-x,y,1/2-z
-x,-y,-z
1/2+x,y,1/2-z
-x,y,z
1/2+x,-y,1/2+z
loop_
_atom_site_type_symbol
_atom_site_label
_atom_site_fract_x
_atom_site_fract_y
_atom_site_fract_z
Si Si1 0.184149 0.853479 0.569808
Si Si2 0.174237 0.696619 0.151452
Si Si3 0.321061 0.574281 0.895302
Si Si4 0.671056 0.984090 0.615109
Si Si5 0.183518 0.287617 0.437356
Si Si6 0.177784 0.115051 0.650853
Si Si7 0.174977 0.446491 0.898740
O O1 0.263836 0.912555 0.623921
O O2 0.225537 0.782020 0.604737
O O3 0.230651 0.858758 0.454626
O O4 0.000000 0.861323 0.574080
O O5 0.250000 0.721426 0.250000
O O6 0.255829 0.710593 0.048718
O O7 0.176124 0.618998 0.160322
O O8 0.000000 0.718254 0.144648
O O9 0.500000 0.567747 0.872744
O O10 0.224926 0.514541 0.854283
O O11 0.267474 0.647858 0.879725
O O12 0.290096 0.566185 0.011577
O O13 0.500000 0.990179 0.656145
O O14 0.660018 0.000000 0.500000
O O15 0.784475 0.039209 0.649991
O O16 0.000000 0.290734 0.442186
O O17 0.250000 0.140597 0.750000
O O18 0.000000 0.126720 0.655025
O O19 0.000000 0.451052 0.933061
#
# Coordination Sequence:
#
# PCOD9415382 Si02
#       7
#     8   8   8   8   8   8   8
#     4   9  18  32  48  67  94 127 157 187 228 275
#     4  10  20  31  43  60  85 118 152 185 222 265
#     4   9  15  24  41  62  82 106 137 175 215 252
#     4   9  17  30  48  69  92 118 152 193 232 272
#     4   9  18  31  45  64  91 120 150 181 216 263
#     4  10  19  31  48  69  94 123 155 191 230 272
#     4   9  16  26  40  58  80 106 138 178 220 257
#
# _framework density 22.331548999999999
#
# number of rings (size 3 to 8) (size 9 to 14) (size 15 to 20)
#    0.000    2.714    0.000    3.000    0.000    5.714 
#    0.000    1.429    0.000    0.000    0.000    1.000 
#    0.000    2.286    0.000    0.000    0.000    0.000 
#
# Total GULP energy -312201.593493 kJ/mol
# GULP energy per Si atom -5575.028455 kJ/mol
# Density = 2.228072 g / cm^3
# Si number density = 22.331549 Si / 1000 Ang^3
#
#
#
# Elastic Constant Matrix: (Units=GPa)
#
#
# Indices 1 2 3 4 5 6 
#
# 1 20.5693 13.1980 -5.9955 0.0000 0.0000 0.0000
# 2 13.1980 172.8779 -14.7074 0.0000 0.0000 0.0000
# 3 -5.9955 -14.7074 29.9617 0.0000 0.0000 0.0000
# 4 0.0000 0.0000 0.0000 -7.4477 0.0000 0.0000
# 5 0.0000 0.0000 0.0000 0.0000 10.3707 0.0000
# 6 0.0000 0.0000 0.0000 0.0000 0.0000 18.2471
#
#
#
# Elastic Compliance Matrix: (Units=1/GPa)
#
#
# Indices 1 2 3 4 5 6 
#
# 1 0.053377 -0.003304 0.009059 0.000000 0.000000 0.000000
# 2 -0.003304 0.006241 0.002402 0.000000 0.000000 0.000000
# 3 0.009059 0.002402 0.036368 0.000000 0.000000 0.000000
# 4 0.000000 0.000000 0.000000 -0.134270 0.000000 0.000000
# 5 0.000000 0.000000 0.000000 0.000000 0.096425 0.000000
# 6 0.000000 0.000000 0.000000 0.000000 0.000000 0.054803
#
#
# Mechanical properties :
#
#
# Convention : Reuss Voigt Hill
#
# Bulk Modulus (GPa) = 8.90474 23.15548 16.03011
# Shear Modulus (GPa) = 37.29596 19.62829 28.46212
#
# Velocity S-wave (km/s) = 4.09112 2.96792 3.57392
# Velocity P-wave (km/s) = 5.12957 4.70491 4.92183
#
# Compressibility (1/GPa) = 0.11229968
#
# Stress axis : x y z
#
# Youngs Moduli (GPa) = 18.73478 160.22904 27.49675
#
# Poissons Ratio (x) = 0.52944 -0.24909
# Poissons Ratio (y) = 0.06190 -0.06606
# Poissons Ratio (z) = -0.16972 -0.38493
#
# Static dielectric constant tensor:
#      x y z
#    x 1.766870 0.000000 0.000000 
#    y 0.000000 1.889450 0.000000 
#    z 0.000000 0.000000 1.864450 
# 
# From -- ./inp_files/26706.got.cif
#   From: 2010.05.17/outbox.cif.g08.bks.cpg/sg53_14_cif.got.tgz:26706.got - 2010.06.03 12:45:16.
