data_PCOD9415056
_publ_section_title
;
Structure prediction by ZEFSAII (Michael W. Deem and Ramdas Pophale) SiO2 
 PCOD9415056
Probable space group: P M N A
;
_chemical_formula_sum "Si O2"
_cell_formula_units_Z 56
_cell_length_a 27.146091
_cell_length_b 18.908933
_cell_length_c 5.670136
_cell_angle_alpha 90.000000
_cell_angle_beta 90.000000
_cell_angle_gamma 90.000000
_cell_volume 2910.501312
_symmetry_space_group_name_H-M "P M N A"
_symmetry_group_IT_number 53
_symmetry_cell_setting 'orthorhombic'
loop_
_space_group_symop_operation_xyz
x,y,z
1/2-x,-y,1/2+z
x,-y,-z
1/2-x,y,1/2-z
-x,-y,-z
1/2+x,y,1/2-z
-x,y,z
1/2+x,-y,1/2+z
loop_
_atom_site_type_symbol
_atom_site_label
_atom_site_fract_x
_atom_site_fract_y
_atom_site_fract_z
Si Si1 0.804093 0.175582 0.149483
Si Si2 0.639527 0.964866 0.755610
Si Si3 0.721697 0.584063 0.999840
Si Si4 0.873860 0.818242 0.229390
Si Si5 0.055303 0.102538 0.471064
Si Si6 0.055742 0.753936 0.831473
Si Si7 0.144301 0.301178 0.387189
O O1 0.750000 0.166566 0.250000
O O2 0.837710 0.114323 0.261915
O O3 0.821608 0.255238 0.209051
O O4 0.820327 0.164557 0.879095
O O5 0.650494 0.000000 0.500000
O O6 0.580793 0.951424 0.789803
O O7 0.658078 0.000000 0.000000
O O8 0.750000 0.600463 0.250000
O O9 0.712032 0.500000 0.000000
O O10 0.750000 0.598325 0.750000
O O11 0.672489 0.630699 0.978499
O O12 0.903965 0.885397 0.326246
O O13 0.863541 0.755485 0.407769
O O14 0.912419 0.786259 0.042424
O O15 0.052762 0.180455 0.351740
O O16 0.000000 0.084189 0.543872
O O17 0.090155 0.691921 0.727040
O O18 0.000000 0.733957 0.893845
#
# Coordination Sequence:
#
# PCOD9415056 Si02
#       7
#     8   8   8   8   8   8   8
#     4  11  24  40  59  84 115 157 211 263 311 365
#     4  12  26  44  60  82 122 159 207 262 319 384
#     4  10  23  41  63  97 138 173 204 245 306 369
#     4  10  18  36  58  91 118 153 203 265 306 366
#     4  10  20  38  60  84 115 154 201 257 323 383
#     4   9  18  33  58  87 120 157 200 257 317 366
#     4  10  21  35  63  91 121 158 205 257 298 362
#
# _framework density 19.240673000000001
#
# number of rings (size 3 to 8) (size 9 to 14) (size 15 to 20)
#    0.000    1.714    4.286    1.714    6.000    1.714 
#    0.000    0.000    0.000    0.429    0.000    1.000 
#    0.000    0.000    0.000    0.000    0.000    0.000 
#
# Total GULP energy -311779.866755 kJ/mol
# GULP energy per Si atom -5567.497621 kJ/mol
# Density = 1.919688 g / cm^3
# Si number density = 19.240673 Si / 1000 Ang^3
#
#
#
# Elastic Constant Matrix: (Units=GPa)
#
#
# Indices 1 2 3 4 5 6 
#
# 1 121.5664 29.6441 28.8187 0.0000 0.0000 0.0000
# 2 29.6441 63.5510 19.3034 0.0000 0.0000 0.0000
# 3 28.8187 19.3034 81.0242 0.0000 0.0000 0.0000
# 4 0.0000 0.0000 0.0000 18.1996 0.0000 0.0000
# 5 0.0000 0.0000 0.0000 0.0000 15.7340 0.0000
# 6 0.0000 0.0000 0.0000 0.0000 0.0000 19.8035
#
#
#
# Elastic Compliance Matrix: (Units=1/GPa)
#
#
# Indices 1 2 3 4 5 6 
#
# 1 0.009755 -0.003769 -0.002572 0.000000 0.000000 0.000000
# 2 -0.003769 0.018419 -0.003048 0.000000 0.000000 0.000000
# 3 -0.002572 -0.003048 0.013983 0.000000 0.000000 0.000000
# 4 0.000000 0.000000 0.000000 0.054946 0.000000 0.000000
# 5 0.000000 0.000000 0.000000 0.000000 0.063556 0.000000
# 6 0.000000 0.000000 0.000000 0.000000 0.000000 0.050496
#
#
# Mechanical properties :
#
#
# Convention : Reuss Voigt Hill
#
# Bulk Modulus (GPa) = 42.77160 46.85268 44.81214
# Shear Modulus (GPa) = 21.03264 23.30577 22.16921
#
# Velocity S-wave (km/s) = 3.30985 3.48412 3.39810
# Velocity P-wave (km/s) = 6.07329 6.37096 6.22390
#
# Compressibility (1/GPa) = 0.02338000
#
# Stress axis : x y z
#
# Youngs Moduli (GPa) = 102.51498 54.29101 71.51670
#
# Poissons Ratio (x) = 0.20463 0.18391
# Poissons Ratio (y) = 0.38639 0.21796
# Poissons Ratio (z) = 0.26363 0.16546
#
# Static dielectric constant tensor:
#      x y z
#    x 1.696410 0.000000 0.000000 
#    y 0.000000 1.660440 0.000000 
#    z 0.000000 0.000000 1.803820 
# 
# From -- ./inp_files/4663.got.cif
#   From: 2010.05.17/outbox.cif.g08.bks.cpg/sg53_3_cif.got.tgz:4663.got - 2010.06.03 12:45:16.
