data_PCOD9415887
_publ_section_title
;
Structure prediction by ZEFSAII (Michael W. Deem and Ramdas Pophale) SiO2 
 PCOD9415887
Probable space group: P M N A
;
_chemical_formula_sum "Si O2"
_cell_formula_units_Z 56
_cell_length_a 8.830300
_cell_length_b 21.329906
_cell_length_c 17.161136
_cell_angle_alpha 90.000000
_cell_angle_beta 90.000000
_cell_angle_gamma 90.000000
_cell_volume 3232.290852
_symmetry_space_group_name_H-M "P M N A"
_symmetry_group_IT_number 53
_symmetry_cell_setting 'orthorhombic'
loop_
_space_group_symop_operation_xyz
x,y,z
1/2-x,-y,1/2+z
x,-y,-z
1/2-x,y,1/2-z
-x,-y,-z
1/2+x,y,1/2-z
-x,y,z
1/2+x,-y,1/2+z
loop_
_atom_site_type_symbol
_atom_site_label
_atom_site_fract_x
_atom_site_fract_y
_atom_site_fract_z
Si Si1 0.822349 0.460729 0.117494
Si Si2 0.680759 0.151252 0.980807
Si Si3 0.182959 0.286121 0.008396
Si Si4 0.674092 0.955437 0.576729
Si Si5 0.680471 0.935201 0.167858
Si Si6 0.823850 0.411127 0.938727
Si Si7 0.179738 0.664071 0.669306
O O1 0.762007 0.532248 0.114379
O O2 0.725200 0.409411 0.162135
O O3 0.000000 0.459070 0.141975
O O4 0.821172 0.436948 0.027577
O O5 0.500000 0.158359 0.985730
O O6 0.717244 0.114125 0.900841
O O7 0.760873 0.218095 0.983911
O O8 0.738906 0.106933 0.050885
O O9 0.247803 0.302817 0.093753
O O10 0.000000 0.289064 0.011523
O O11 0.237887 0.340952 0.948624
O O12 0.500000 0.941795 0.596442
O O13 0.675387 0.000000 0.500000
O O14 0.752749 0.997538 0.642208
O O15 0.750000 0.915992 0.250000
O O16 0.500000 0.939631 0.173058
O O17 0.000000 0.405990 0.915910
O O18 0.250000 0.688113 0.750000
O O19 0.000000 0.671239 0.668527
#
# Coordination Sequence:
#
# PCOD9415887 Si02
#       7
#     8   8   8   8   8   8   8
#     4   8  13  26  46  67  90 118 153 195 242 290
#     4  10  20  34  52  77 107 138 171 209 251 296
#     4  10  19  33  52  74 100 135 174 209 250 304
#     4   9  17  31  52  76 101 131 167 204 244 293
#     4  10  20  34  54  79 107 135 167 209 254 298
#     4   7  12  24  45  69  92 118 152 193 237 287
#     4  11  21  33  48  69  97 130 168 212 260 309
#
# _framework density 17.325174000000001
#
# number of rings (size 3 to 8) (size 9 to 14) (size 15 to 20)
#    0.000    2.714    0.000    4.714    0.000    3.429 
#    0.000    7.143    0.000    0.857    0.000    2.000 
#    0.000    0.000    0.000    0.000    0.000    0.000 
#
# Total GULP energy -311895.256915 kJ/mol
# GULP energy per Si atom -5569.558159 kJ/mol
# Density = 1.728574 g / cm^3
# Si number density = 17.325174 Si / 1000 Ang^3
#
#
#
# Elastic Constant Matrix: (Units=GPa)
#
#
# Indices 1 2 3 4 5 6 
#
# 1 79.0195 45.7005 34.7245 0.0000 0.0000 0.0000
# 2 45.7005 122.0574 28.9245 0.0000 0.0000 0.0000
# 3 34.7245 28.9245 56.3976 0.0000 0.0000 0.0000
# 4 0.0000 0.0000 0.0000 12.3915 0.0000 0.0000
# 5 0.0000 0.0000 0.0000 0.0000 22.5971 0.0000
# 6 0.0000 0.0000 0.0000 0.0000 0.0000 7.7863
#
#
#
# Elastic Compliance Matrix: (Units=1/GPa)
#
#
# Indices 1 2 3 4 5 6 
#
# 1 0.019848 -0.005163 -0.009572 0.000000 0.000000 0.000000
# 2 -0.005163 0.010669 -0.002293 0.000000 0.000000 0.000000
# 3 -0.009572 -0.002293 0.024801 0.000000 0.000000 0.000000
# 4 0.000000 0.000000 0.000000 0.080701 0.000000 0.000000
# 5 0.000000 0.000000 0.000000 0.000000 0.044253 0.000000
# 6 0.000000 0.000000 0.000000 0.000000 0.000000 0.128430
#
#
# Mechanical properties :
#
#
# Convention : Reuss Voigt Hill
#
# Bulk Modulus (GPa) = 47.03412 52.90819 49.97115
# Shear Modulus (GPa) = 14.29198 18.42998 16.36098
#
# Velocity S-wave (km/s) = 2.87527 3.26509 3.07636
# Velocity P-wave (km/s) = 6.18301 6.69470 6.44394
#
# Compressibility (1/GPa) = 0.02126116
#
# Stress axis : x y z
#
# Youngs Moduli (GPa) = 50.38410 93.72638 40.32075
#
# Poissons Ratio (x) = 0.48390 0.38597
# Poissons Ratio (y) = 0.26013 0.09246
# Poissons Ratio (z) = 0.48230 0.21493
#
# Static dielectric constant tensor:
#      x y z
#    x 1.577610 0.000000 0.000000 
#    y 0.000000 1.614730 0.000000 
#    z 0.000000 0.000000 1.592320 
# 
# From -- ./inp_files/26719.got.cif
#   From: 2010.05.17/outbox.cif.g08.bks.cpg/sg53_14_cif.got.tgz:26719.got - 2010.06.03 12:45:16.
