data_PCOD9415746
_publ_section_title
;
Structure prediction by ZEFSAII (Michael W. Deem and Ramdas Pophale) SiO2 
 PCOD9415746
Probable space group: P M N A
;
_chemical_formula_sum "Si O2"
_cell_formula_units_Z 64
_cell_length_a 8.624548
_cell_length_b 15.231957
_cell_length_c 22.979017
_cell_angle_alpha 90.000000
_cell_angle_beta 90.000000
_cell_angle_gamma 90.000000
_cell_volume 3018.724608
_symmetry_space_group_name_H-M "P M N A"
_symmetry_group_IT_number 53
_symmetry_cell_setting 'orthorhombic'
loop_
_space_group_symop_operation_xyz
x,y,z
1/2-x,-y,1/2+z
x,-y,-z
1/2-x,y,1/2-z
-x,-y,-z
1/2+x,y,1/2-z
-x,y,z
1/2+x,-y,1/2+z
loop_
_atom_site_type_symbol
_atom_site_label
_atom_site_fract_x
_atom_site_fract_y
_atom_site_fract_z
Si Si1 0.817524 0.262096 0.929978
Si Si2 0.815979 0.560190 0.444704
Si Si3 0.813248 0.318170 0.310363
Si Si4 0.683226 0.003369 0.311395
Si Si5 0.184692 0.514519 0.185128
Si Si6 0.186427 0.803840 0.188707
Si Si7 0.675454 0.154514 0.116974
Si Si8 0.177270 0.900845 0.486827
O O1 0.723163 0.338835 0.960747
O O2 0.766713 0.259760 0.862749
O O3 0.784009 0.162373 0.949327
O O4 0.000000 0.280196 0.935070
O O5 0.762936 0.500000 0.500000
O O6 0.743802 0.545332 0.379602
O O7 0.000000 0.546680 0.438853
O O8 0.750000 0.278914 0.250000
O O9 0.730484 0.411379 0.316587
O O10 0.772013 0.248677 0.360162
O O11 0.000000 0.330841 0.308711
O O12 0.750000 0.034382 0.250000
O O13 0.500000 0.997835 0.306994
O O14 0.728235 0.072849 0.359685
O O15 0.743260 0.904119 0.321295
O O16 0.250000 0.544793 0.250000
O O17 0.000000 0.528243 0.186971
O O18 0.250000 0.774256 0.250000
O O19 0.000000 0.805559 0.189570
O O20 0.500000 0.142184 0.139719
O O21 0.671101 0.148352 0.048268
O O22 0.000000 0.907196 0.463238
O O23 0.230630 0.000000 0.500000
#
# Coordination Sequence:
#
# PCOD9415746 Si02
#       8
#     8   8   8   8   8   8   8   8
#     4  11  24  42  64  94 128 161 206 262 317 378
#     4  11  26  47  71  97 131 174 219 271 332 395
#     4  10  20  35  55  83 120 159 203 256 316 378
#     4  10  19  32  52  79 114 155 199 248 305 363
#     4  11  23  42  69  99 132 169 216 267 327 395
#     4   9  20  37  58  86 119 155 195 244 300 361
#     4  10  21  34  52  79 113 156 205 258 309 368
#     4  10  22  40  61  87 122 168 218 263 313 377
#
# _framework density 21.201006
#
# number of rings (size 3 to 8) (size 9 to 14) (size 15 to 20)
#    0.000    1.750    0.000    4.500    1.750    5.750 
#    0.000    1.250    0.000    0.000    0.000    0.000 
#    0.000    0.000    0.000    0.000    0.000    0.000 
#
# Total GULP energy -357104.885481 kJ/mol
# GULP energy per Si atom -5579.763836 kJ/mol
# Density = 2.115275 g / cm^3
# Si number density = 21.201006 Si / 1000 Ang^3
#
#
#
# Elastic Constant Matrix: (Units=GPa)
#
#
# Indices 1 2 3 4 5 6 
#
# 1 49.5167 11.1315 27.0418 0.0000 0.0000 0.0000
# 2 11.1315 82.1706 34.7285 0.0000 0.0000 0.0000
# 3 27.0418 34.7285 92.6100 0.0000 0.0000 0.0000
# 4 0.0000 0.0000 0.0000 23.1995 0.0000 0.0000
# 5 0.0000 0.0000 0.0000 0.0000 22.7162 0.0000
# 6 0.0000 0.0000 0.0000 0.0000 0.0000 20.3281
#
#
#
# Elastic Compliance Matrix: (Units=1/GPa)
#
#
# Indices 1 2 3 4 5 6 
#
# 1 0.024035 -0.000344 -0.006889 0.000000 0.000000 0.000000
# 2 -0.000344 0.014467 -0.005324 0.000000 0.000000 0.000000
# 3 -0.006889 -0.005324 0.014806 0.000000 0.000000 0.000000
# 4 0.000000 0.000000 0.000000 0.043104 0.000000 0.000000
# 5 0.000000 0.000000 0.000000 0.000000 0.044021 0.000000
# 6 0.000000 0.000000 0.000000 0.000000 0.000000 0.049193
#
#
# Mechanical properties :
#
#
# Convention : Reuss Voigt Hill
#
# Bulk Modulus (GPa) = 35.47086 41.12234 38.29660
# Shear Modulus (GPa) = 22.30753 23.34178 22.82465
#
# Velocity S-wave (km/s) = 3.24727 3.32169 3.28469
# Velocity P-wave (km/s) = 5.55218 5.84380 5.69986
#
# Compressibility (1/GPa) = 0.02819216
#
# Stress axis : x y z
#
# Youngs Moduli (GPa) = 41.60634 69.12391 67.53948
#
# Poissons Ratio (x) = 0.02381 0.46527
# Poissons Ratio (y) = 0.01433 0.35961
# Poissons Ratio (z) = 0.28662 0.36805
#
# Static dielectric constant tensor:
#      x y z
#    x 1.749460 0.000000 0.000000 
#    y 0.000000 1.788250 0.000000 
#    z 0.000000 0.000000 1.850060 
# 
# From -- ./inp_files/34330.got.cif
#   From: 2010.05.17/outbox.cif.g08.bks.cpg/sg53_18_cif.got.tgz:34330.got - 2010.06.03 12:45:16.
