data_PCOD9415803
_publ_section_title
;
Structure prediction by ZEFSAII (Michael W. Deem and Ramdas Pophale) SiO2 
 PCOD9415803
Probable space group: P M N A
;
_chemical_formula_sum "Si O2"
_cell_formula_units_Z 48
_cell_length_a 9.385068
_cell_length_b 20.008893
_cell_length_c 11.564824
_cell_angle_alpha 90.000000
_cell_angle_beta 90.000000
_cell_angle_gamma 90.000000
_cell_volume 2171.698409
_symmetry_space_group_name_H-M "P M N A"
_symmetry_group_IT_number 53
_symmetry_cell_setting 'orthorhombic'
loop_
_space_group_symop_operation_xyz
x,y,z
1/2-x,-y,1/2+z
x,-y,-z
1/2-x,y,1/2-z
-x,-y,-z
1/2+x,y,1/2-z
-x,y,z
1/2+x,-y,1/2+z
loop_
_atom_site_type_symbol
_atom_site_label
_atom_site_fract_x
_atom_site_fract_y
_atom_site_fract_z
Si Si1 0.163938 0.811843 0.141506
Si Si2 0.664649 0.513446 0.365163
Si Si3 0.340295 0.309713 0.143871
Si Si4 0.328880 0.976438 0.634686
Si Si5 0.165033 0.844551 0.587561
Si Si6 0.154782 0.662936 0.072397
O O1 0.250000 0.837433 0.250000
O O2 0.157679 0.731012 0.144930
O O3 0.000000 0.835996 0.130995
O O4 0.263663 0.830013 0.035359
O O5 0.714112 0.500000 0.500000
O O6 0.750000 0.490565 0.250000
O O7 0.500000 0.489650 0.359694
O O8 0.663154 0.594331 0.359693
O O9 0.250000 0.334821 0.250000
O O10 0.500000 0.332766 0.153832
O O11 0.337337 0.228493 0.145623
O O12 0.274855 0.332550 0.023527
O O13 0.250000 0.006941 0.750000
O O14 0.500000 0.980516 0.649700
O O15 0.269946 0.900786 0.635033
O O16 0.297757 0.000000 0.500000
O O17 0.000000 0.867977 0.582816
O O18 0.000000 0.663980 0.010850
#
# Coordination Sequence:
#
# PCOD9415803 Si02
#       6
#     8   8   8   8   8   8
#     4  10  19  32  53  81 114 150 190 238 292 352
#     4  10  22  40  61  86 117 154 199 249 300 355
#     4  10  20  33  53  82 114 149 188 233 287 348
#     4  11  25  44  66  92 122 159 204 252 302 356
#     4  10  21  37  58  84 115 152 193 238 292 351
#     4   9  19  35  54  78 110 148 190 238 290 348
#
# _framework density 22.102516999999999
#
# number of rings (size 3 to 8) (size 9 to 14) (size 15 to 20)
#    0.000    2.000    0.000    3.000    0.000    7.667 
#    0.000    3.333    0.000    0.000    0.000    0.000 
#    0.000    0.000    0.000    0.000    0.000    0.000 
#
# Total GULP energy -267634.460608 kJ/mol
# GULP energy per Si atom -5575.717929 kJ/mol
# Density = 2.205221 g / cm^3
# Si number density = 22.102517 Si / 1000 Ang^3
#
#
#
# Elastic Constant Matrix: (Units=GPa)
#
#
# Indices 1 2 3 4 5 6 
#
# 1 134.1657 -3.7002 70.3870 0.0000 0.0000 0.0000
# 2 -3.7002 72.6580 6.6358 0.0000 0.0000 0.0000
# 3 70.3870 6.6358 127.9038 0.0000 0.0000 0.0000
# 4 0.0000 0.0000 0.0000 -5.9356 0.0000 0.0000
# 5 0.0000 0.0000 0.0000 0.0000 25.7034 0.0000
# 6 0.0000 0.0000 0.0000 0.0000 0.0000 -5.2429
#
#
#
# Elastic Compliance Matrix: (Units=1/GPa)
#
#
# Indices 1 2 3 4 5 6 
#
# 1 0.010562 0.001074 -0.005868 0.000000 0.000000 0.000000
# 2 0.001074 0.013938 -0.001314 0.000000 0.000000 0.000000
# 3 -0.005868 -0.001314 0.011116 0.000000 0.000000 0.000000
# 4 0.000000 0.000000 0.000000 -0.168476 0.000000 0.000000
# 5 0.000000 0.000000 0.000000 0.000000 0.038905 0.000000
# 6 0.000000 0.000000 0.000000 0.000000 0.000000 -0.190733
#
#
# Mechanical properties :
#
#
# Convention : Reuss Voigt Hill
#
# Bulk Modulus (GPa) = 42.73719 53.48586 48.11152
# Shear Modulus (GPa) = -18.89119 20.33199 0.72040
#
# Velocity S-wave (km/s) = -2.92671 3.03627 0.57153
# Velocity P-wave (km/s) = 2.82082 6.04511 4.71701
#
# Compressibility (1/GPa) = 0.02339882
#
# Stress axis : x y z
#
# Youngs Moduli (GPa) = 94.68350 71.74735 89.96298
#
# Poissons Ratio (x) = -0.07704 0.52789
# Poissons Ratio (y) = -0.10167 0.11821
# Poissons Ratio (z) = 0.55559 0.09428
#
# Static dielectric constant tensor:
#      x y z
#    x 1.784510 0.000000 0.000000 
#    y 0.000000 1.866920 0.000000 
#    z 0.000000 0.000000 1.985540 
# 
# From -- ./inp_files/14062.got.cif
#   From: 2010.05.17/outbox.cif.g08.bks.cpg/sg53_8_cif.got.tgz:14062.got - 2010.06.03 12:45:16.
