data_PCOD9415230
_publ_section_title
;
Structure prediction by ZEFSAII (Michael W. Deem and Ramdas Pophale) SiO2 
 PCOD9415230
Probable space group: P M N A
;
_chemical_formula_sum "Si O2"
_cell_formula_units_Z 64
_cell_length_a 9.286982
_cell_length_b 30.753041
_cell_length_c 13.901154
_cell_angle_alpha 90.000000
_cell_angle_beta 90.000000
_cell_angle_gamma 90.000000
_cell_volume 3970.210427
_symmetry_space_group_name_H-M "P M N A"
_symmetry_group_IT_number 53
_symmetry_cell_setting 'orthorhombic'
loop_
_space_group_symop_operation_xyz
x,y,z
1/2-x,-y,1/2+z
x,-y,-z
1/2-x,y,1/2-z
-x,-y,-z
1/2+x,y,1/2-z
-x,y,z
1/2+x,-y,1/2+z
loop_
_atom_site_type_symbol
_atom_site_label
_atom_site_fract_x
_atom_site_fract_y
_atom_site_fract_z
Si Si1 0.328464 0.745351 0.149997
Si Si2 0.329112 0.050769 0.511725
Si Si3 0.328170 0.517157 0.650725
Si Si4 0.172725 0.124083 0.146997
Si Si5 0.166189 0.814932 0.502610
Si Si6 0.163712 0.108923 0.655534
Si Si7 0.327487 0.429366 0.537003
Si Si8 0.829335 0.357638 0.650334
O O1 0.250000 0.757627 0.250000
O O2 0.500000 0.753300 0.161750
O O3 0.282051 0.772499 0.055951
O O4 0.306383 0.693878 0.134683
O O5 0.500000 0.055412 0.529584
O O6 0.296872 0.081148 0.418764
O O7 0.241498 0.069728 0.600954
O O8 0.296823 0.000000 0.500000
O O9 0.250000 0.525164 0.750000
O O10 0.500000 0.518088 0.663440
O O11 0.292383 0.469396 0.608749
O O12 0.292446 0.552296 0.568592
O O13 0.250000 0.120871 0.250000
O O14 0.000000 0.127736 0.157508
O O15 0.236857 0.165088 0.087248
O O16 0.163999 0.851700 0.419885
O O17 0.000000 0.808537 0.535384
O O18 0.250000 0.121318 0.750000
O O19 0.000000 0.098001 0.680195
O O20 0.500000 0.421959 0.542228
O O21 0.240658 0.387226 0.568524
O O22 0.750000 0.369154 0.750000
O O23 0.000000 0.365348 0.658485
#
# Coordination Sequence:
#
# PCOD9415230 Si02
#       8
#     8   8   8   8   8   8   8   8
#     4   9  18  31  48  72 101 129 156 189 231 281
#     4   9  19  35  51  69  95 125 157 192 230 274
#     4   9  18  31  47  67  92 122 158 199 241 282
#     4  10  20  34  53  74  96 124 159 199 239 279
#     4   9  18  33  51  71  96 124 155 193 233 274
#     4  10  19  30  47  70  95 123 153 186 226 271
#     4   9  18  32  47  66  94 126 158 196 239 282
#     4  10  19  30  46  70  98 128 159 191 231 280
#
# _framework density 16.120052000000001
#
# number of rings (size 3 to 8) (size 9 to 14) (size 15 to 20)
#    0.000    2.625    0.000    2.625    0.000    4.750 
#    0.000    2.500    0.000    0.750    0.000    1.750 
#    0.000    0.000    0.000    0.000    0.000    0.000 
#
# Total GULP energy -356769.513103 kJ/mol
# GULP energy per Si atom -5574.523642 kJ/mol
# Density = 1.608336 g / cm^3
# Si number density = 16.120052 Si / 1000 Ang^3
#
#
#
# Elastic Constant Matrix: (Units=GPa)
#
#
# Indices 1 2 3 4 5 6 
#
# 1 51.7179 37.0061 48.3060 0.0000 0.0000 0.0000
# 2 37.0061 66.4304 36.2044 0.0000 0.0000 0.0000
# 3 48.3060 36.2044 92.4478 0.0000 0.0000 0.0000
# 4 0.0000 0.0000 0.0000 16.0621 0.0000 0.0000
# 5 0.0000 0.0000 0.0000 0.0000 33.2886 0.0000
# 6 0.0000 0.0000 0.0000 0.0000 0.0000 21.9858
#
#
#
# Elastic Compliance Matrix: (Units=1/GPa)
#
#
# Indices 1 2 3 4 5 6 
#
# 1 0.049468 -0.017125 -0.019142 0.000000 0.000000 0.000000
# 2 -0.017125 0.025066 -0.000868 0.000000 0.000000 0.000000
# 3 -0.019142 -0.000868 0.021159 0.000000 0.000000 0.000000
# 4 0.000000 0.000000 0.000000 0.062259 0.000000 0.000000
# 5 0.000000 0.000000 0.000000 0.000000 0.030040 0.000000
# 6 0.000000 0.000000 0.000000 0.000000 0.000000 0.045484
#
#
# Mechanical properties :
#
#
# Convention : Reuss Voigt Hill
#
# Bulk Modulus (GPa) = 46.67774 50.40324 48.54049
# Shear Modulus (GPa) = 15.87872 20.20594 18.04233
#
# Velocity S-wave (km/s) = 3.14192 3.54427 3.34914
# Velocity P-wave (km/s) = 6.49472 6.93430 6.71811
#
# Compressibility (1/GPa) = 0.02142349
#
# Stress axis : x y z
#
# Youngs Moduli (GPa) = 20.21506 39.89429 47.26120
#
# Poissons Ratio (x) = 0.68318 0.90466
# Poissons Ratio (y) = 0.34618 0.04104
# Poissons Ratio (z) = 0.38695 0.03464
#
# Static dielectric constant tensor:
#      x y z
#    x 1.541250 0.000000 0.000000 
#    y 0.000000 1.540590 0.000000 
#    z 0.000000 0.000000 1.523140 
# 
# From -- ./inp_files/14250.got.cif
#   From: 2010.05.17/outbox.cif.g08.bks.cpg/sg53_8_cif.got.tgz:14250.got - 2010.06.03 12:45:16.
