data_PCOD9415947
_publ_section_title
;
Structure prediction by ZEFSAII (Michael W. Deem and Ramdas Pophale) SiO2 
 PCOD9415947
Probable space group: P M N A
;
_chemical_formula_sum "Si O2"
_cell_formula_units_Z 32
_cell_length_a 14.760141
_cell_length_b 5.401183
_cell_length_c 17.646856
_cell_angle_alpha 90.000000
_cell_angle_beta 90.000000
_cell_angle_gamma 90.000000
_cell_volume 1406.846583
_symmetry_space_group_name_H-M "P M N A"
_symmetry_group_IT_number 53
_symmetry_cell_setting 'orthorhombic'
loop_
_space_group_symop_operation_xyz
x,y,z
1/2-x,-y,1/2+z
x,-y,-z
1/2-x,y,1/2-z
-x,-y,-z
1/2+x,y,1/2-z
-x,y,z
1/2+x,-y,1/2+z
loop_
_atom_site_type_symbol
_atom_site_label
_atom_site_fract_x
_atom_site_fract_y
_atom_site_fract_z
Si Si1 0.851920 0.274237 0.287060
Si Si2 0.283511 0.754580 0.950353
Si Si3 0.600045 0.560207 0.588286
Si Si4 0.644628 0.773307 0.276770
O O1 0.750000 0.294605 0.250000
O O2 0.846990 0.240432 0.376897
O O3 0.893907 0.539361 0.268943
O O4 0.894221 0.037068 0.246264
O O5 0.183126 0.749925 0.912125
O O6 0.292886 0.500000 0.000000
O O7 0.294261 0.000000 0.000000
O O8 0.592595 0.500000 0.500000
O O9 0.500000 0.639871 0.613525
O O10 0.631499 0.322202 0.637439
O O11 0.750000 0.792729 0.250000
#
# Coordination Sequence:
#
# PCOD9415947 Si02
#       4
#     8   8   8   8
#     4  10  19  33  54  77 103 144 191 247 276 316
#     4  11  22  35  55  81 116 153 191 235 290 345
#     4  10  22  37  54  83 124 161 187 222 283 356
#     4  10  19  35  56  75 104 151 194 241 272 320
#
# _framework density 22.745905
#
# number of rings (size 3 to 8) (size 9 to 14) (size 15 to 20)
#    0.000    1.750    5.000    1.500   10.500    0.500 
#    0.000    6.250    0.000    0.000    0.000    0.000 
#    0.000   27.000    0.000    0.000    0.000    0.000 
#
# Total GULP energy -178473.675416 kJ/mol
# GULP energy per Si atom -5577.302357 kJ/mol
# Density = 2.269413 g / cm^3
# Si number density = 22.745905 Si / 1000 Ang^3
#
#
#
# Elastic Constant Matrix: (Units=GPa)
#
#
# Indices 1 2 3 4 5 6 
#
# 1 50.1720 0.4748 24.7354 0.0000 0.0000 0.0000
# 2 0.4748 157.3429 43.0919 0.0000 0.0000 0.0000
# 3 24.7354 43.0919 157.6002 0.0000 0.0000 0.0000
# 4 0.0000 0.0000 0.0000 31.5868 0.0000 0.0000
# 5 0.0000 0.0000 0.0000 0.0000 12.1570 0.0000
# 6 0.0000 0.0000 0.0000 0.0000 0.0000 -28.5492
#
#
#
# Elastic Compliance Matrix: (Units=1/GPa)
#
#
# Indices 1 2 3 4 5 6 
#
# 1 0.021731 0.000939 -0.003667 0.000000 0.000000 0.000000
# 2 0.000939 0.006911 -0.002037 0.000000 0.000000 0.000000
# 3 -0.003667 -0.002037 0.007478 0.000000 0.000000 0.000000
# 4 0.000000 0.000000 0.000000 0.031659 0.000000 0.000000
# 5 0.000000 0.000000 0.000000 0.000000 0.082257 0.000000
# 6 0.000000 0.000000 0.000000 0.000000 0.000000 -0.035027
#
#
# Mechanical properties :
#
#
# Convention : Reuss Voigt Hill
#
# Bulk Modulus (GPa) = 37.61087 55.74659 46.67873
# Shear Modulus (GPa) = 37.48097 22.82645 30.15371
#
# Velocity S-wave (km/s) = 4.06373 3.17131 3.64493
# Velocity P-wave (km/s) = 6.21206 6.16208 6.18712
#
# Compressibility (1/GPa) = 0.02658806
#
# Stress axis : x y z
#
# Youngs Moduli (GPa) = 46.01810 144.70620 133.73120
#
# Poissons Ratio (x) = -0.13585 0.49043
# Poissons Ratio (y) = -0.04320 0.27239
# Poissons Ratio (z) = 0.16876 0.29475
#
# Static dielectric constant tensor:
#      x y z
#    x 1.988100 0.000000 0.000000 
#    y 0.000000 1.895350 0.000000 
#    z 0.000000 0.000000 0.790110 
# 
# From -- ./inp_files/23165.got.cif
#   From: 2010.05.17/outbox.cif.g08.bks.cpg/sg53_12_cif.got.tgz:23165.got - 2010.06.03 12:45:16.
