data_PCOD9415788
_publ_section_title
;
Structure prediction by ZEFSAII (Michael W. Deem and Ramdas Pophale) SiO2 
 PCOD9415788
Probable space group: P M N A
;
_chemical_formula_sum "Si O2"
_cell_formula_units_Z 48
_cell_length_a 8.446506
_cell_length_b 10.567909
_cell_length_c 29.205915
_cell_angle_alpha 90.000000
_cell_angle_beta 90.000000
_cell_angle_gamma 90.000000
_cell_volume 2606.975662
_symmetry_space_group_name_H-M "P M N A"
_symmetry_group_IT_number 53
_symmetry_cell_setting 'orthorhombic'
loop_
_space_group_symop_operation_xyz
x,y,z
1/2-x,-y,1/2+z
x,-y,-z
1/2-x,y,1/2-z
-x,-y,-z
1/2+x,y,1/2-z
-x,y,z
1/2+x,-y,1/2+z
loop_
_atom_site_type_symbol
_atom_site_label
_atom_site_fract_x
_atom_site_fract_y
_atom_site_fract_z
Si Si1 0.190634 0.249339 0.894270
Si Si2 0.191247 0.000261 0.052860
Si Si3 0.689911 0.641029 0.299778
Si Si4 0.691155 0.495412 0.947003
Si Si5 0.310189 0.353693 0.200266
Si Si6 0.808753 0.752079 0.604747
O O1 0.249242 0.123376 0.919601
O O2 0.244652 0.272326 0.842029
O O3 0.239549 0.372905 0.922526
O O4 0.000000 0.242656 0.893256
O O5 0.000000 0.995904 0.051765
O O6 0.241937 0.125985 0.079450
O O7 0.246912 0.000000 0.000000
O O8 0.750000 0.682271 0.250000
O O9 0.500000 0.637838 0.299060
O O10 0.749577 0.497202 0.307353
O O11 0.500000 0.487733 0.944674
O O12 0.739903 0.624186 0.921700
O O13 0.738337 0.500000 0.000000
O O14 0.250000 0.311875 0.250000
O O15 0.500000 0.358709 0.201018
O O16 0.259758 0.266959 0.157642
O O17 0.000000 0.758696 0.603441
#
# Coordination Sequence:
#
# PCOD9415788 Si02
#       6
#     8   8   8   8   8   8
#     4  10  21  36  54  80 109 140 182 226 271 325
#     4  10  22  39  57  78 109 149 188 227 273 325
#     4  10  19  32  53  80 109 140 176 220 273 325
#     4  10  20  34  54  80 109 140 178 227 276 322
#     4  10  19  33  54  81 112 141 177 223 272 326
#     4  10  21  36  54  81 111 141 182 226 270 327
#
# _framework density 18.412140000000001
#
# number of rings (size 3 to 8) (size 9 to 14) (size 15 to 20)
#    0.000    2.000    1.667    3.000    0.000    4.000 
#    0.000    0.833    0.000    4.000    0.000    0.000 
#    0.000    0.000    0.000    0.000    0.000    0.000 
#
# Total GULP energy -267967.807217 kJ/mol
# GULP energy per Si atom -5582.662650 kJ/mol
# Density = 1.837023 g / cm^3
# Si number density = 18.412140 Si / 1000 Ang^3
#
#
#
# Elastic Constant Matrix: (Units=GPa)
#
#
# Indices 1 2 3 4 5 6 
#
# 1 15.0649 12.3390 27.8316 0.0000 0.0000 0.0000
# 2 12.3390 142.0898 99.8927 0.0000 0.0000 0.0000
# 3 27.8316 99.8927 208.8327 0.0000 0.0000 0.0000
# 4 0.0000 0.0000 0.0000 32.3772 0.0000 0.0000
# 5 0.0000 0.0000 0.0000 0.0000 32.3829 0.0000
# 6 0.0000 0.0000 0.0000 0.0000 0.0000 25.3595
#
#
#
# Elastic Compliance Matrix: (Units=1/GPa)
#
#
# Indices 1 2 3 4 5 6 
#
# 1 0.088140 0.000910 -0.012182 0.000000 0.000000 0.000000
# 2 0.000910 0.010613 -0.005198 0.000000 0.000000 0.000000
# 3 -0.012182 -0.005198 0.008898 0.000000 0.000000 0.000000
# 4 0.000000 0.000000 0.000000 0.030886 0.000000 0.000000
# 5 0.000000 0.000000 0.000000 0.000000 0.030880 0.000000
# 6 0.000000 0.000000 0.000000 0.000000 0.000000 0.039433
#
#
# Mechanical properties :
#
#
# Convention : Reuss Voigt Hill
#
# Bulk Modulus (GPa) = 13.38476 71.79045 42.58760
# Shear Modulus (GPa) = 18.74809 33.08553 25.91681
#
# Velocity S-wave (km/s) = 3.19446 4.24363 3.75586
# Velocity P-wave (km/s) = 4.57071 7.94271 6.47990
#
# Compressibility (1/GPa) = 0.07471184
#
# Stress axis : x y z
#
# Youngs Moduli (GPa) = 11.34562 94.22373 112.37953
#
# Poissons Ratio (x) = -0.08577 1.36901
# Poissons Ratio (y) = -0.01033 0.58414
# Poissons Ratio (z) = 0.13821 0.48977
#
# Static dielectric constant tensor:
#      x y z
#    x 1.632550 0.000000 0.000000 
#    y 0.000000 1.593550 0.000000 
#    z 0.000000 0.000000 1.653230 
# 
# From -- ./inp_files/37764.got.cif
#   From: 2010.05.17/outbox.cif.g08.bks.cpg/sg53_19_cif.got.tgz:37764.got - 2010.06.03 12:45:16.
