data_PCOD9415866
_publ_section_title
;
Structure prediction by ZEFSAII (Michael W. Deem and Ramdas Pophale) SiO2 
 PCOD9415866
Probable space group: P M N A
;
_chemical_formula_sum "Si O2"
_cell_formula_units_Z 64
_cell_length_a 26.049123
_cell_length_b 9.916355
_cell_length_c 16.936670
_cell_angle_alpha 90.000000
_cell_angle_beta 90.000000
_cell_angle_gamma 90.000000
_cell_volume 4374.951048
_symmetry_space_group_name_H-M "P M N A"
_symmetry_group_IT_number 53
_symmetry_cell_setting 'orthorhombic'
loop_
_space_group_symop_operation_xyz
x,y,z
1/2-x,-y,1/2+z
x,-y,-z
1/2-x,y,1/2-z
-x,-y,-z
1/2+x,y,1/2-z
-x,y,z
1/2+x,-y,1/2+z
loop_
_atom_site_type_symbol
_atom_site_label
_atom_site_fract_x
_atom_site_fract_y
_atom_site_fract_z
Si Si1 0.354491 0.713755 0.671324
Si Si2 0.939295 0.629251 0.949597
Si Si3 0.194737 0.231840 0.706842
Si Si4 0.443379 0.118520 0.563796
Si Si5 0.762802 0.627855 0.944767
Si Si6 0.253992 0.882118 0.057245
Si Si7 0.696850 0.542485 0.800777
Si Si8 0.154440 0.036871 0.837951
O O1 0.406670 0.666305 0.627967
O O2 0.310234 0.662623 0.611779
O O3 0.342078 0.640141 0.754137
O O4 0.349579 0.876257 0.677660
O O5 0.000000 0.613197 0.930915
O O6 0.921557 0.500000 0.000000
O O7 0.933693 0.749837 0.011955
O O8 0.250000 0.241403 0.750000
O O9 0.205788 0.163456 0.623192
O O10 0.177371 0.387378 0.698291
O O11 0.163104 0.129791 0.761348
O O12 0.500000 0.128147 0.601342
O O13 0.397697 0.086617 0.622162
O O14 0.444545 0.000000 0.500000
O O15 0.714737 0.594103 0.886989
O O16 0.773148 0.500000 0.000000
O O17 0.756314 0.753742 0.002536
O O18 0.202312 0.933001 0.102610
O O19 0.272176 0.000000 0.000000
O O20 0.750000 0.543317 0.750000
#
# Coordination Sequence:
#
# PCOD9415866 Si02
#       8
#     8   8   8   8   8   8   8   8
#     4  11  21  31  47  68  94 128 159 191 231 278
#     4  10  21  34  48  70  96 124 160 199 232 267
#     4   9  20  33  45  64  93 123 154 194 232 274
#     4  10  19  33  50  67  94 126 158 194 228 268
#     4  11  20  32  48  66  90 123 162 193 227 276
#     4  11  20  31  48  68  93 124 157 197 234 272
#     4   9  20  33  45  64  91 123 158 193 231 275
#     4  11  21  31  46  69  96 125 160 189 234 279
#
# _framework density 14.628735000000001
#
# number of rings (size 3 to 8) (size 9 to 14) (size 15 to 20)
#    0.000    1.750    3.750    1.500    5.250    1.500 
#    0.000    0.000    0.000    0.000    0.000    0.000 
#    0.000    2.000    0.000    0.125    0.000    0.000 
#
# Total GULP energy -356677.414983 kJ/mol
# GULP energy per Si atom -5573.084609 kJ/mol
# Density = 1.459544 g / cm^3
# Si number density = 14.628735 Si / 1000 Ang^3
#
#
#
# Elastic Constant Matrix: (Units=GPa)
#
#
# Indices 1 2 3 4 5 6 
#
# 1 59.3598 27.4860 29.7999 0.0000 0.0000 0.0000
# 2 27.4860 109.1809 29.3915 0.0000 0.0000 0.0000
# 3 29.7999 29.3915 66.0724 0.0000 0.0000 0.0000
# 4 0.0000 0.0000 0.0000 19.9837 0.0000 0.0000
# 5 0.0000 0.0000 0.0000 0.0000 27.5170 0.0000
# 6 0.0000 0.0000 0.0000 0.0000 0.0000 17.3198
#
#
#
# Elastic Compliance Matrix: (Units=1/GPa)
#
#
# Indices 1 2 3 4 5 6 
#
# 1 0.022825 -0.003379 -0.008791 0.000000 0.000000 0.000000
# 2 -0.003379 0.010906 -0.003327 0.000000 0.000000 0.000000
# 3 -0.008791 -0.003327 0.020580 0.000000 0.000000 0.000000
# 4 0.000000 0.000000 0.000000 0.050041 0.000000 0.000000
# 5 0.000000 0.000000 0.000000 0.000000 0.036341 0.000000
# 6 0.000000 0.000000 0.000000 0.000000 0.000000 0.057737
#
#
# Mechanical properties :
#
#
# Convention : Reuss Voigt Hill
#
# Bulk Modulus (GPa) = 42.89093 45.32976 44.11035
# Shear Modulus (GPa) = 21.07964 22.82647 21.95305
#
# Velocity S-wave (km/s) = 3.80014 3.95446 3.87806
# Velocity P-wave (km/s) = 6.97410 7.20447 7.09022
#
# Compressibility (1/GPa) = 0.02331495
#
# Stress axis : x y z
#
# Youngs Moduli (GPa) = 43.81248 91.69674 48.59139
#
# Poissons Ratio (x) = 0.30989 0.42717
# Poissons Ratio (y) = 0.14806 0.16166
# Poissons Ratio (z) = 0.38515 0.30507
#
# Static dielectric constant tensor:
#      x y z
#    x 1.482340 0.000000 0.000000 
#    y 0.000000 1.516500 0.000000 
#    z 0.000000 0.000000 1.482900 
# 
# From -- ./inp_files/29734.got.cif
#   From: 2010.05.17/outbox.cif.g08.bks.cpg/sg53_15_cif.got.tgz:29734.got - 2010.06.03 12:45:16.
