data_PCOD9415280
_publ_section_title
;
Structure prediction by ZEFSAII (Michael W. Deem and Ramdas Pophale) SiO2 
 PCOD9415280
Probable space group: P M N A
;
_chemical_formula_sum "Si O2"
_cell_formula_units_Z 44
_cell_length_a 14.843140
_cell_length_b 17.069429
_cell_length_c 7.323116
_cell_angle_alpha 90.000000
_cell_angle_beta 90.000000
_cell_angle_gamma 90.000000
_cell_volume 1855.413408
_symmetry_space_group_name_H-M "P M N A"
_symmetry_group_IT_number 53
_symmetry_cell_setting 'orthorhombic'
loop_
_space_group_symop_operation_xyz
x,y,z
1/2-x,-y,1/2+z
x,-y,-z
1/2-x,y,1/2-z
-x,-y,-z
1/2+x,y,1/2-z
-x,y,z
1/2+x,-y,1/2+z
loop_
_atom_site_type_symbol
_atom_site_label
_atom_site_fract_x
_atom_site_fract_y
_atom_site_fract_z
Si Si1 0.604012 0.802079 0.028592
Si Si2 0.398471 0.214728 0.415090
Si Si3 0.102059 0.390578 0.135954
Si Si4 0.742099 0.090551 0.468147
Si Si5 0.603072 0.626151 0.074667
Si Si6 0.239633 0.500000 0.500000
O O1 0.500000 0.815888 0.076268
O O2 0.608113 0.792189 0.806454
O O3 0.668213 0.875795 0.063100
O O4 0.630195 0.716651 0.109503
O O5 0.500000 0.196189 0.465838
O O6 0.381747 0.305645 0.453191
O O7 0.333796 0.154113 0.511801
O O8 0.099163 0.380184 0.354095
O O9 0.188879 0.440811 0.089547
O O10 0.000000 0.416540 0.084067
O O11 0.750000 0.096210 0.250000
O O12 0.722738 0.000000 0.500000
O O13 0.500000 0.613178 0.141816
O O14 0.672084 0.556257 0.118717
#
# Coordination Sequence:
#
# PCOD9415280 Si02
#       6
#     8   8   8   8   8   4
#     4   8  15  30  50  68  88 118 155 193 233 279
#     4   8  15  30  50  68  88 118 155 193 233 279
#     4   9  18  31  46  66  91 120 159 202 237 276
#     4  10  19  30  48  75 100 122 154 198 243 288
#     4   9  18  31  46  66  91 120 159 202 237 276
#     4  12  18  24  44  72  94 116 142 186 248 292
#
# _framework density 23.714390000000002
#
# number of rings (size 3 to 8) (size 9 to 14) (size 15 to 20)
#    0.000    2.909    0.000    4.364    0.000    3.636 
#    0.000    0.000    0.000    8.727    0.000   10.182 
#    0.000    0.000    0.000    0.000    0.000    0.000 
#
# Total GULP energy -245769.593853 kJ/mol
# GULP energy per Si atom -5585.672588 kJ/mol
# Density = 2.366042 g / cm^3
# Si number density = 23.714390 Si / 1000 Ang^3
#
#
#
# Elastic Constant Matrix: (Units=GPa)
#
#
# Indices 1 2 3 4 5 6 
#
# 1 136.3655 97.9745 1.4175 0.0000 0.0000 0.0000
# 2 97.9745 152.6555 -0.3895 0.0000 0.0000 0.0000
# 3 1.4175 -0.3895 64.5687 0.0000 0.0000 0.0000
# 4 0.0000 0.0000 0.0000 21.1283 0.0000 0.0000
# 5 0.0000 0.0000 0.0000 0.0000 10.6863 0.0000
# 6 0.0000 0.0000 0.0000 0.0000 0.0000 79.9372
#
#
#
# Elastic Compliance Matrix: (Units=1/GPa)
#
#
# Indices 1 2 3 4 5 6 
#
# 1 0.013616 -0.008740 -0.000352 0.000000 0.000000 0.000000
# 2 -0.008740 0.012161 0.000265 0.000000 0.000000 0.000000
# 3 -0.000352 0.000265 0.015497 0.000000 0.000000 0.000000
# 4 0.000000 0.000000 0.000000 0.047330 0.000000 0.000000
# 5 0.000000 0.000000 0.000000 0.000000 0.093578 0.000000
# 6 0.000000 0.000000 0.000000 0.000000 0.000000 0.012510
#
#
# Mechanical properties :
#
#
# Convention : Reuss Voigt Hill
#
# Bulk Modulus (GPa) = 42.33510 61.28830 51.81170
# Shear Modulus (GPa) = 22.70490 39.32285 31.01388
#
# Velocity S-wave (km/s) = 3.09760 4.07650 3.62029
# Velocity P-wave (km/s) = 5.53934 6.93236 6.27463
#
# Compressibility (1/GPa) = 0.02362106
#
# Stress axis : x y z
#
# Youngs Moduli (GPa) = 73.44223 82.23300 64.52987
#
# Poissons Ratio (x) = 0.71870 0.02269
# Poissons Ratio (y) = 0.64187 -0.01711
# Poissons Ratio (z) = 0.02582 -0.02181
#
# Static dielectric constant tensor:
#      x y z
#    x 1.880700 0.000000 0.000000 
#    y 0.000000 1.906160 0.000000 
#    z 0.000000 0.000000 1.948120 
# 
# From -- ./inp_files/15866.got.cif
#   From: 2010.05.17/outbox.cif.g08.bks.cpg/sg53_8_cif.got.tgz:15866.got - 2010.06.03 12:45:16.
