data_PCOD9415864
_publ_section_title
;
Structure prediction by ZEFSAII (Michael W. Deem and Ramdas Pophale) SiO2 
 PCOD9415864
Probable space group: P M N A
;
_chemical_formula_sum "Si O2"
_cell_formula_units_Z 56
_cell_length_a 8.294638
_cell_length_b 19.760095
_cell_length_c 18.806292
_cell_angle_alpha 90.000000
_cell_angle_beta 90.000000
_cell_angle_gamma 90.000000
_cell_volume 3082.404572
_symmetry_space_group_name_H-M "P M N A"
_symmetry_group_IT_number 53
_symmetry_cell_setting 'orthorhombic'
loop_
_space_group_symop_operation_xyz
x,y,z
1/2-x,-y,1/2+z
x,-y,-z
1/2-x,y,1/2-z
-x,-y,-z
1/2+x,y,1/2-z
-x,y,z
1/2+x,-y,1/2+z
loop_
_atom_site_type_symbol
_atom_site_label
_atom_site_fract_x
_atom_site_fract_y
_atom_site_fract_z
Si Si1 0.696106 0.289838 0.956876
Si Si2 0.812618 0.073155 0.081279
Si Si3 0.810053 0.070737 0.579025
Si Si4 0.305852 0.643024 0.827868
Si Si5 0.694291 0.801570 0.169961
Si Si6 0.697155 0.572824 0.972707
Si Si7 0.194363 0.218021 0.396598
O O1 0.500000 0.290484 0.955788
O O2 0.752330 0.257076 0.883646
O O3 0.747933 0.365746 0.975705
O O4 0.740541 0.242405 0.023735
O O5 0.762119 0.143715 0.116677
O O6 0.000000 0.060711 0.092261
O O7 0.718337 0.005840 0.104567
O O8 0.777194 0.079464 0.996678
O O9 0.755435 0.126968 0.635032
O O10 0.000000 0.080983 0.564916
O O11 0.250000 0.622403 0.750000
O O12 0.500000 0.643484 0.829400
O O13 0.252698 0.594950 0.893081
O O14 0.252757 0.720105 0.846085
O O15 0.750000 0.793727 0.250000
O O16 0.500000 0.800565 0.169514
O O17 0.500000 0.571842 0.972498
O O18 0.752622 0.500000 0.000000
O O19 0.000000 0.214244 0.394369
#
# Coordination Sequence:
#
# PCOD9415864 Si02
#       7
#     8   8   8   8   8   8   8
#     4   8  14  28  48  69  93 124 167 206 236 285
#     4  11  20  29  47  76 100 119 155 215 262 291
#     4  10  19  33  50  66  92 133 170 200 247 308
#     4   9  18  31  51  76 104 135 167 208 251 300
#     4  10  20  33  50  69  94 131 168 210 252 291
#     4   8  14  27  51  79 102 130 171 209 239 285
#     4   9  16  31  51  69  93 130 171 202 239 299
#
# _framework density 18.167635000000001
#
# number of rings (size 3 to 8) (size 9 to 14) (size 15 to 20)
#    0.000    2.714    1.429    4.286    0.000    1.714 
#    0.000    1.429    0.000    0.429    0.000    0.000 
#    0.000    0.000    0.000    0.000    0.000    0.000 
#
# Total GULP energy -312170.250850 kJ/mol
# GULP energy per Si atom -5574.468765 kJ/mol
# Density = 1.812628 g / cm^3
# Si number density = 18.167635 Si / 1000 Ang^3
#
#
#
# Elastic Constant Matrix: (Units=GPa)
#
#
# Indices 1 2 3 4 5 6 
#
# 1 9.6391 1.7078 4.6442 0.0000 0.0000 0.0000
# 2 1.7078 145.5811 68.0251 0.0000 0.0000 0.0000
# 3 4.6442 68.0251 117.1317 0.0000 0.0000 0.0000
# 4 0.0000 0.0000 0.0000 19.6776 0.0000 0.0000
# 5 0.0000 0.0000 0.0000 0.0000 23.1977 0.0000
# 6 0.0000 0.0000 0.0000 0.0000 0.0000 6.5578
#
#
#
# Elastic Compliance Matrix: (Units=1/GPa)
#
#
# Indices 1 2 3 4 5 6 
#
# 1 0.105867 0.000987 -0.004771 0.000000 0.000000 0.000000
# 2 0.000987 0.009437 -0.005519 0.000000 0.000000 0.000000
# 3 -0.004771 -0.005519 0.011932 0.000000 0.000000 0.000000
# 4 0.000000 0.000000 0.000000 0.050819 0.000000 0.000000
# 5 0.000000 0.000000 0.000000 0.000000 0.043108 0.000000
# 6 0.000000 0.000000 0.000000 0.000000 0.000000 0.152490
#
#
# Mechanical properties :
#
#
# Convention : Reuss Voigt Hill
#
# Bulk Modulus (GPa) = 9.20557 46.78956 27.99757
# Shear Modulus (GPa) = 11.66945 23.08494 17.37720
#
# Velocity S-wave (km/s) = 2.53715 3.56850 3.09608
# Velocity P-wave (km/s) = 3.69606 6.54135 5.31273
#
# Compressibility (1/GPa) = 0.10862985
#
# Stress axis : x y z
#
# Youngs Moduli (GPa) = 9.44577 105.97144 83.80793
#
# Poissons Ratio (x) = -0.10464 0.39985
# Poissons Ratio (y) = -0.00933 0.46258
# Poissons Ratio (z) = 0.04507 0.58491
#
# Static dielectric constant tensor:
#      x y z
#    x 1.634860 0.000000 0.000000 
#    y 0.000000 1.642590 0.000000 
#    z 0.000000 0.000000 1.610140 
# 
# From -- ./inp_files/26708.got.cif
#   From: 2010.05.17/outbox.cif.g08.bks.cpg/sg53_14_cif.got.tgz:26708.got - 2010.06.03 12:45:16.
