data_PCOD9415801
_publ_section_title
;
Structure prediction by ZEFSAII (Michael W. Deem and Ramdas Pophale) SiO2 
 PCOD9415801
Probable space group: P M N A
;
_chemical_formula_sum "Si O2"
_cell_formula_units_Z 64
_cell_length_a 9.254713
_cell_length_b 12.900978
_cell_length_c 28.049560
_cell_angle_alpha 90.000000
_cell_angle_beta 90.000000
_cell_angle_gamma 90.000000
_cell_volume 3348.972975
_symmetry_space_group_name_H-M "P M N A"
_symmetry_group_IT_number 53
_symmetry_cell_setting 'orthorhombic'
loop_
_space_group_symop_operation_xyz
x,y,z
1/2-x,-y,1/2+z
x,-y,-z
1/2-x,y,1/2-z
-x,-y,-z
1/2+x,y,1/2-z
-x,y,z
1/2+x,-y,1/2+z
loop_
_atom_site_type_symbol
_atom_site_label
_atom_site_fract_x
_atom_site_fract_y
_atom_site_fract_z
Si Si1 0.164337 0.160132 0.566684
Si Si2 0.337841 0.739911 0.297380
Si Si3 0.325942 0.853002 0.800989
Si Si4 0.329401 0.885210 0.521745
Si Si5 0.164027 0.627282 0.373793
Si Si6 0.332823 0.042192 0.646523
Si Si7 0.824124 0.455230 0.448701
Si Si8 0.827429 0.763813 0.598303
O O1 0.248057 0.182493 0.518066
O O2 0.158198 0.266647 0.595884
O O3 0.250165 0.077162 0.598658
O O4 0.000000 0.125148 0.557293
O O5 0.250000 0.754428 0.250000
O O6 0.500000 0.710372 0.286138
O O7 0.264804 0.653276 0.329913
O O8 0.338093 0.850047 0.324338
O O9 0.250000 0.830220 0.750000
O O10 0.500000 0.865129 0.794626
O O11 0.302484 0.771017 0.844590
O O12 0.254332 0.957784 0.822752
O O13 0.500000 0.866931 0.523551
O O14 0.257726 0.855662 0.571734
O O15 0.306273 0.000000 0.500000
O O16 0.217343 0.537414 0.408261
O O17 0.000000 0.603041 0.358466
O O18 0.500000 0.010134 0.637250
O O19 0.774047 0.500000 0.500000
O O20 0.782407 0.342030 0.428716
O O21 0.000000 0.453709 0.451237
O O22 0.000000 0.777616 0.591456
#
# Coordination Sequence:
#
# PCOD9415801 Si02
#       8
#     8   8   8   8   8   8   8   8
#     4  10  19  32  53  81 112 146 183 222 267 323
#     4  10  20  33  51  77 110 145 182 226 273 322
#     4  11  23  38  57  80 108 145 188 233 278 327
#     4  11  23  36  52  77 111 149 184 221 271 328
#     4   9  18  33  55  80 106 138 175 216 264 318
#     4  10  20  34  54  81 114 150 188 231 277 328
#     4   9  17  34  61  87 109 137 176 221 270 327
#     4  10  22  39  59  84 111 142 186 235 281 335
#
# _framework density 19.110334999999999
#
# number of rings (size 3 to 8) (size 9 to 14) (size 15 to 20)
#    0.000    2.000    0.000    3.750    0.000    9.000 
#    0.000    1.250    0.000    3.000    0.000    0.000 
#    0.000    0.000    0.000    0.000    0.000    0.000 
#
# Total GULP energy -357040.518138 kJ/mol
# GULP energy per Si atom -5578.758096 kJ/mol
# Density = 1.906684 g / cm^3
# Si number density = 19.110335 Si / 1000 Ang^3
#
#
#
# Elastic Constant Matrix: (Units=GPa)
#
#
# Indices 1 2 3 4 5 6 
#
# 1 87.3750 34.9924 56.3294 0.0000 0.0000 0.0000
# 2 34.9924 77.9852 35.0220 0.0000 0.0000 0.0000
# 3 56.3294 35.0220 122.9430 0.0000 0.0000 0.0000
# 4 0.0000 0.0000 0.0000 44.2609 0.0000 0.0000
# 5 0.0000 0.0000 0.0000 0.0000 31.6476 0.0000
# 6 0.0000 0.0000 0.0000 0.0000 0.0000 13.6402
#
#
#
# Elastic Compliance Matrix: (Units=1/GPa)
#
#
# Indices 1 2 3 4 5 6 
#
# 1 0.017766 -0.004949 -0.006730 0.000000 0.000000 0.000000
# 2 -0.004949 0.016083 -0.002314 0.000000 0.000000 0.000000
# 3 -0.006730 -0.002314 0.011876 0.000000 0.000000 0.000000
# 4 0.000000 0.000000 0.000000 0.022593 0.000000 0.000000
# 5 0.000000 0.000000 0.000000 0.000000 0.031598 0.000000
# 6 0.000000 0.000000 0.000000 0.000000 0.000000 0.073313
#
#
# Mechanical properties :
#
#
# Convention : Reuss Voigt Hill
#
# Bulk Modulus (GPa) = 56.37295 60.11008 58.24152
# Shear Modulus (GPa) = 24.13968 28.70703 26.42336
#
# Velocity S-wave (km/s) = 3.55797 3.87999 3.72247
# Velocity P-wave (km/s) = 6.81481 7.18296 7.00131
#
# Compressibility (1/GPa) = 0.01773900
#
# Stress axis : x y z
#
# Youngs Moduli (GPa) = 56.28815 62.17827 84.20025
#
# Poissons Ratio (x) = 0.30774 0.56666
# Poissons Ratio (y) = 0.27859 0.19482
# Poissons Ratio (z) = 0.37882 0.14387
#
# Static dielectric constant tensor:
#      x y z
#    x 1.648880 0.000000 0.000000 
#    y 0.000000 1.683010 0.000000 
#    z 0.000000 0.000000 1.708190 
# 
# From -- ./inp_files/38188.got.cif
#   From: 2010.05.17/outbox.cif.g08.bks.cpg/sg53_20_cif.got.tgz:38188.got - 2010.06.03 12:45:16.
