data_PCOD9415544
_publ_section_title
;
Structure prediction by ZEFSAII (Michael W. Deem and Ramdas Pophale) SiO2 
 PCOD9415544
Probable space group: P M N A
;
_chemical_formula_sum "Si O2"
_cell_formula_units_Z 32
_cell_length_a 14.846652
_cell_length_b 21.072183
_cell_length_c 5.162418
_cell_angle_alpha 90.000000
_cell_angle_beta 90.000000
_cell_angle_gamma 90.000000
_cell_volume 1615.069533
_symmetry_space_group_name_H-M "P M N A"
_symmetry_group_IT_number 53
_symmetry_cell_setting 'orthorhombic'
loop_
_space_group_symop_operation_xyz
x,y,z
1/2-x,-y,1/2+z
x,-y,-z
1/2-x,y,1/2-z
-x,-y,-z
1/2+x,y,1/2-z
-x,y,z
1/2+x,-y,1/2+z
loop_
_atom_site_type_symbol
_atom_site_label
_atom_site_fract_x
_atom_site_fract_y
_atom_site_fract_z
Si Si1 0.187160 0.363827 0.998153
Si Si2 0.604800 0.228010 0.618433
Si Si3 0.750000 0.959277 0.750000
Si Si4 0.607040 0.145547 0.100829
Si Si5 0.815234 0.500000 0.000000
O O1 0.250000 0.357447 0.250000
O O2 0.135269 0.431721 0.010854
O O3 0.250000 0.370484 0.750000
O O4 0.136712 0.298386 0.948699
O O5 0.500000 0.234072 0.682549
O O6 0.615132 0.185701 0.363671
O O7 0.642833 0.189791 0.865587
O O8 0.831237 0.915660 0.642684
O O9 0.719693 0.000000 0.500000
O O10 0.500000 0.130507 0.060851
O O11 0.750000 0.501507 0.750000
#
# Coordination Sequence:
#
# PCOD9415544 Si02
#       5
#     8   8   4   8   4
#     4  10  19  31  53  81 108 151 192 238 284 332
#     4  10  21  37  56  84 115 149 190 235 286 338
#     4  12  26  42  64  92 116 150 194 232 276 354
#     4  10  23  41  61  86 121 152 185 238 287 335
#     4   8  16  30  45  72 113 144 188 234 282 336
#
# _framework density 19.813388
#
# number of rings (size 3 to 8) (size 9 to 14) (size 15 to 20)
#    0.000    2.000    0.000    3.000    5.250    1.000 
#    0.000    0.625    0.000    0.000    0.000   15.750 
#    0.000    0.000    0.000    0.000    0.000    0.000 
#
# Total GULP energy -178377.930817 kJ/mol
# GULP energy per Si atom -5574.310338 kJ/mol
# Density = 1.976829 g / cm^3
# Si number density = 19.813388 Si / 1000 Ang^3
#
#
#
# Elastic Constant Matrix: (Units=GPa)
#
#
# Indices 1 2 3 4 5 6 
#
# 1 36.8396 53.5667 34.2637 0.0000 0.0000 0.0000
# 2 53.5667 170.6274 44.6859 0.0000 0.0000 0.0000
# 3 34.2637 44.6859 122.5782 0.0000 0.0000 0.0000
# 4 0.0000 0.0000 0.0000 33.6611 0.0000 0.0000
# 5 0.0000 0.0000 0.0000 0.0000 6.3843 0.0000
# 6 0.0000 0.0000 0.0000 0.0000 0.0000 -5.7863
#
#
#
# Elastic Compliance Matrix: (Units=1/GPa)
#
#
# Indices 1 2 3 4 5 6 
#
# 1 0.061237 -0.016298 -0.011176 0.000000 0.000000 0.000000
# 2 -0.016298 0.010817 0.000612 0.000000 0.000000 0.000000
# 3 -0.011176 0.000612 0.011059 0.000000 0.000000 0.000000
# 4 0.000000 0.000000 0.000000 0.029708 0.000000 0.000000
# 5 0.000000 0.000000 0.000000 0.000000 0.156634 0.000000
# 6 0.000000 0.000000 0.000000 0.000000 0.000000 -0.172821
#
#
# Mechanical properties :
#
#
# Convention : Reuss Voigt Hill
#
# Bulk Modulus (GPa) = 34.02528 66.11975 50.07251
# Shear Modulus (GPa) = 31.22004 20.02041 25.62023
#
# Velocity S-wave (km/s) = 3.97382 3.18220 3.59984
# Velocity P-wave (km/s) = 6.18588 6.85169 6.52728
#
# Compressibility (1/GPa) = 0.02938991
#
# Stress axis : x y z
#
# Youngs Moduli (GPa) = 16.32996 92.44796 90.42587
#
# Poissons Ratio (x) = 1.50671 1.01060
# Poissons Ratio (y) = 0.26614 -0.05537
# Poissons Ratio (z) = 0.18250 -0.05661
#
# Static dielectric constant tensor:
#      x y z
#    x 1.716260 0.000000 0.000000 
#    y 0.000000 1.788870 0.000000 
#    z 0.000000 0.000000 1.686120 
# 
# From -- ./inp_files/1198.got.cif
#   From: 2010.05.17/outbox.cif.g08.bks.cpg/sg53_1_cif.got.tgz:1198.got - 2010.06.03 12:45:16.
