data_PCOD9415737
_publ_section_title
;
Structure prediction by ZEFSAII (Michael W. Deem and Ramdas Pophale) SiO2 
 PCOD9415737
Probable space group: P M N A
;
_chemical_formula_sum "Si O2"
_cell_formula_units_Z 40
_cell_length_a 9.017202
_cell_length_b 13.830451
_cell_length_c 18.539707
_cell_angle_alpha 90.000000
_cell_angle_beta 90.000000
_cell_angle_gamma 90.000000
_cell_volume 2312.123391
_symmetry_space_group_name_H-M "P M N A"
_symmetry_group_IT_number 53
_symmetry_cell_setting 'orthorhombic'
loop_
_space_group_symop_operation_xyz
x,y,z
1/2-x,-y,1/2+z
x,-y,-z
1/2-x,y,1/2-z
-x,-y,-z
1/2+x,y,1/2-z
-x,y,z
1/2+x,-y,1/2+z
loop_
_atom_site_type_symbol
_atom_site_label
_atom_site_fract_x
_atom_site_fract_y
_atom_site_fract_z
Si Si1 0.822324 0.399068 0.536165
Si Si2 0.323662 0.891300 0.406412
Si Si3 0.823324 0.801125 0.543147
Si Si4 0.175956 0.689849 0.173015
Si Si5 0.322283 0.906900 0.671480
O O1 0.778909 0.500000 0.500000
O O2 0.789632 0.307202 0.484850
O O3 0.742406 0.379130 0.611618
O O4 0.000000 0.400034 0.547825
O O5 0.500000 0.892984 0.422969
O O6 0.236018 0.872041 0.480122
O O7 0.294310 0.799288 0.354958
O O8 0.285321 0.989685 0.365469
O O9 0.742435 0.827388 0.617052
O O10 0.000000 0.811169 0.550756
O O11 0.250000 0.674500 0.250000
O O12 0.000000 0.677781 0.178039
O O13 0.250000 0.900838 0.750000
O O14 0.500000 0.899911 0.676647
#
# Coordination Sequence:
#
# PCOD9415737 Si02
#       5
#     8   8   8   8   8
#     4   9  19  37  58  77 100 132 170 212 258 307
#     4   9  19  34  52  75 104 138 171 206 249 298
#     4  10  20  34  54  78 102 131 169 211 254 303
#     4  10  19  32  52  79 108 134 166 209 256 303
#     4  11  22  35  51  73 105 141 175 209 247 294
#
# _framework density 17.300114000000001
#
# number of rings (size 3 to 8) (size 9 to 14) (size 15 to 20)
#    0.000    2.200    0.000    3.000    0.000    6.000 
#    0.000    1.000    0.000    0.000    0.000    0.000 
#    0.000    0.000    0.000    0.000    0.000    0.000 
#
# Total GULP energy -223364.674242 kJ/mol
# GULP energy per Si atom -5584.116856 kJ/mol
# Density = 1.726074 g / cm^3
# Si number density = 17.300114 Si / 1000 Ang^3
#
#
#
# Elastic Constant Matrix: (Units=GPa)
#
#
# Indices 1 2 3 4 5 6 
#
# 1 56.9828 49.5841 78.1300 0.0000 0.0000 0.0000
# 2 49.5841 84.1963 78.3738 0.0000 0.0000 0.0000
# 3 78.1300 78.3738 163.2144 0.0000 0.0000 0.0000
# 4 0.0000 0.0000 0.0000 16.5970 0.0000 0.0000
# 5 0.0000 0.0000 0.0000 0.0000 39.0131 0.0000
# 6 0.0000 0.0000 0.0000 0.0000 0.0000 23.5456
#
#
#
# Elastic Compliance Matrix: (Units=1/GPa)
#
#
# Indices 1 2 3 4 5 6 
#
# 1 0.060771 -0.015749 -0.021528 0.000000 0.000000 0.000000
# 2 -0.015749 0.025558 -0.004734 0.000000 0.000000 0.000000
# 3 -0.021528 -0.004734 0.018705 0.000000 0.000000 0.000000
# 4 0.000000 0.000000 0.000000 0.060252 0.000000 0.000000
# 5 0.000000 0.000000 0.000000 0.000000 0.025632 0.000000
# 6 0.000000 0.000000 0.000000 0.000000 0.000000 0.042471
#
#
# Mechanical properties :
#
#
# Convention : Reuss Voigt Hill
#
# Bulk Modulus (GPa) = 47.59087 79.61882 63.60484
# Shear Modulus (GPa) = 15.41227 22.38485 18.89856
#
# Velocity S-wave (km/s) = 2.98799 3.60100 3.30873
# Velocity P-wave (km/s) = 6.28274 7.96314 7.17233
#
# Compressibility (1/GPa) = 0.02101244
#
# Stress axis : x y z
#
# Youngs Moduli (GPa) = 16.45514 39.12622 53.46039
#
# Poissons Ratio (x) = 0.61621 1.15091
# Poissons Ratio (y) = 0.25916 0.25306
# Poissons Ratio (z) = 0.35425 0.18521
#
# Static dielectric constant tensor:
#      x y z
#    x 1.573760 0.000000 0.000000 
#    y 0.000000 1.581290 0.000000 
#    z 0.000000 0.000000 1.554870 
# 
# From -- ./inp_files/19829.got.cif
#   From: 2010.05.17/outbox.cif.g08.bks.cpg/sg53_10_cif.got.tgz:19829.got - 2010.06.03 12:45:16.
