data_PCOD9415115
_publ_section_title
;
Structure prediction by ZEFSAII (Michael W. Deem and Ramdas Pophale) SiO2 
 PCOD9415115
Probable space group: P M N A
;
_chemical_formula_sum "Si O2"
_cell_formula_units_Z 64
_cell_length_a 9.324607
_cell_length_b 16.440298
_cell_length_c 23.327829
_cell_angle_alpha 90.000000
_cell_angle_beta 90.000000
_cell_angle_gamma 90.000000
_cell_volume 3576.140272
_symmetry_space_group_name_H-M "P M N A"
_symmetry_group_IT_number 53
_symmetry_cell_setting 'orthorhombic'
loop_
_space_group_symop_operation_xyz
x,y,z
1/2-x,-y,1/2+z
x,-y,-z
1/2-x,y,1/2-z
-x,-y,-z
1/2+x,y,1/2-z
-x,y,z
1/2+x,-y,1/2+z
loop_
_atom_site_type_symbol
_atom_site_label
_atom_site_fract_x
_atom_site_fract_y
_atom_site_fract_z
Si Si1 0.334827 0.758537 0.193168
Si Si2 0.830298 0.095090 0.492434
Si Si3 0.834798 0.689968 0.807402
Si Si4 0.669816 0.782490 0.423056
Si Si5 0.329707 0.665282 0.520322
Si Si6 0.163232 0.562170 0.306831
Si Si7 0.830860 0.212416 0.395631
Si Si8 0.163219 0.535743 0.894319
O O1 0.250000 0.784486 0.250000
O O2 0.500000 0.785565 0.194001
O O3 0.253200 0.785513 0.136263
O O4 0.335160 0.659924 0.192543
O O5 0.733764 0.149341 0.534489
O O6 0.806159 0.126715 0.427429
O O7 0.000000 0.110254 0.504699
O O8 0.802029 0.000000 0.500000
O O9 0.750000 0.669942 0.750000
O O10 0.758419 0.765197 0.839472
O O11 0.831700 0.613487 0.851041
O O12 0.000000 0.707965 0.794967
O O13 0.500000 0.793326 0.415116
O O14 0.690629 0.695217 0.455461
O O15 0.500000 0.680999 0.533724
O O16 0.226716 0.722978 0.557432
O O17 0.302146 0.574797 0.543748
O O18 0.250000 0.536106 0.250000
O O19 0.233545 0.528295 0.364654
O O20 0.000000 0.533280 0.301807
O O21 0.000000 0.223118 0.385442
O O22 0.000000 0.504208 0.895753
#
# Coordination Sequence:
#
# PCOD9415115 Si02
#       8
#     8   8   8   8   8   8   8   8
#     4  10  21  37  55  75  99 129 167 209 254 301
#     4   9  18  33  54  80 107 132 157 190 235 286
#     4  10  19  29  42  63  92 127 166 203 240 284
#     4  10  19  33  55  80 104 131 165 204 246 294
#     4   8  16  30  46  67  96 129 163 199 241 289
#     4  10  20  32  47  67  92 125 166 213 260 303
#     4   9  16  27  45  68  94 125 159 193 231 275
#     4   9  17  29  45  65  92 126 164 207 250 291
#
# _framework density 17.896391000000001
#
# number of rings (size 3 to 8) (size 9 to 14) (size 15 to 20)
#    0.000    2.625    0.000    3.000    0.000    6.250 
#    0.000    0.625    0.000    4.500    0.000    3.500 
#    0.000    0.000    0.000    0.000    0.000    0.000 
#
# Total GULP energy -356765.653682 kJ/mol
# GULP energy per Si atom -5574.463339 kJ/mol
# Density = 1.785566 g / cm^3
# Si number density = 17.896391 Si / 1000 Ang^3
#
#
#
# Elastic Constant Matrix: (Units=GPa)
#
#
# Indices 1 2 3 4 5 6 
#
# 1 101.7203 24.5499 45.4149 0.0000 0.0000 0.0000
# 2 24.5499 31.0739 16.4305 0.0000 0.0000 0.0000
# 3 45.4149 16.4305 78.2347 0.0000 0.0000 0.0000
# 4 0.0000 0.0000 0.0000 20.6336 0.0000 0.0000
# 5 0.0000 0.0000 0.0000 0.0000 26.4987 0.0000
# 6 0.0000 0.0000 0.0000 0.0000 0.0000 18.2320
#
#
#
# Elastic Compliance Matrix: (Units=1/GPa)
#
#
# Indices 1 2 3 4 5 6 
#
# 1 0.014881 -0.008087 -0.006940 0.000000 0.000000 0.000000
# 2 -0.008087 0.040597 -0.003831 0.000000 0.000000 0.000000
# 3 -0.006940 -0.003831 0.017615 0.000000 0.000000 0.000000
# 4 0.000000 0.000000 0.000000 0.048465 0.000000 0.000000
# 5 0.000000 0.000000 0.000000 0.000000 0.037738 0.000000
# 6 0.000000 0.000000 0.000000 0.000000 0.000000 0.054849
#
#
# Mechanical properties :
#
#
# Convention : Reuss Voigt Hill
#
# Bulk Modulus (GPa) = 28.26783 42.64661 35.45722
# Shear Modulus (GPa) = 18.96429 21.38175 20.17302
#
# Velocity S-wave (km/s) = 3.25879 3.46027 3.36104
# Velocity P-wave (km/s) = 5.47624 6.31237 5.90911
#
# Compressibility (1/GPa) = 0.03537591
#
# Stress axis : x y z
#
# Youngs Moduli (GPa) = 67.19876 24.63263 56.76869
#
# Poissons Ratio (x) = 0.19921 0.39398
# Poissons Ratio (y) = 0.54346 0.21750
# Poissons Ratio (z) = 0.46636 0.09437
#
# Static dielectric constant tensor:
#      x y z
#    x 1.601680 0.000000 0.000000 
#    y 0.000000 1.616940 0.000000 
#    z 0.000000 0.000000 1.633230 
# 
# From -- ./inp_files/31233.got.cif
#   From: 2010.05.17/outbox.cif.g08.bks.cpg/sg53_16_cif.got.tgz:31233.got - 2010.06.03 12:45:16.
