data_PCOD9415840
_publ_section_title
;
Structure prediction by ZEFSAII (Michael W. Deem and Ramdas Pophale) SiO2 
 PCOD9415840
Probable space group: P M N A
;
_chemical_formula_sum "Si O2"
_cell_formula_units_Z 36
_cell_length_a 25.760832
_cell_length_b 10.118912
_cell_length_c 7.344704
_cell_angle_alpha 90.000000
_cell_angle_beta 90.000000
_cell_angle_gamma 90.000000
_cell_volume 1914.555685
_symmetry_space_group_name_H-M "P M N A"
_symmetry_group_IT_number 53
_symmetry_cell_setting 'orthorhombic'
loop_
_space_group_symop_operation_xyz
x,y,z
1/2-x,-y,1/2+z
x,-y,-z
1/2-x,y,1/2-z
-x,-y,-z
1/2+x,y,1/2-z
-x,y,z
1/2+x,-y,1/2+z
loop_
_atom_site_type_symbol
_atom_site_label
_atom_site_fract_x
_atom_site_fract_y
_atom_site_fract_z
Si Si1 0.362465 0.500000 0.500000
Si Si2 0.060440 0.931923 0.739874
Si Si3 0.441894 0.717305 0.472646
Si Si4 0.197244 0.388682 0.656404
Si Si5 0.601473 0.199457 0.893233
O O1 0.399359 0.620842 0.552068
O O2 0.329677 0.538174 0.325492
O O3 0.073508 0.822260 0.585795
O O4 0.000000 0.976626 0.719043
O O5 0.099447 0.051682 0.694928
O O6 0.064689 0.859702 0.932767
O O7 0.500000 0.673544 0.512889
O O8 0.431951 0.721813 0.256715
O O9 0.206344 0.500000 0.500000
O O10 0.250000 0.335055 0.750000
O O11 0.156861 0.273749 0.593781
#
# Coordination Sequence:
#
# PCOD9415840 Si02
#       5
#     4   8   8   8   8
#     4  10  21  36  56  84 110 142 185 230 270 328
#     4  10  19  34  57  83 116 151 177 210 272 338
#     4  10  19  32  54  84 116 147 177 217 268 326
#     4  11  22  39  60  77 101 141 189 235 285 327
#     4  10  20  33  55  79 110 142 186 223 264 331
#
# _framework density 18.803318000000001
#
# number of rings (size 3 to 8) (size 9 to 14) (size 15 to 20)
#    0.000    1.778    1.111    5.000    0.000    1.778 
#    0.000    0.000   19.556   14.000    0.000    0.000 
#    0.000    0.000    0.000    0.000    0.000    0.000 
#
# Total GULP energy -200576.932428 kJ/mol
# GULP energy per Si atom -5571.581456 kJ/mol
# Density = 1.876052 g / cm^3
# Si number density = 18.803318 Si / 1000 Ang^3
#
#
#
# Elastic Constant Matrix: (Units=GPa)
#
#
# Indices 1 2 3 4 5 6 
#
# 1 97.7679 36.2015 20.9466 0.0000 0.0000 0.0000
# 2 36.2015 61.9458 3.7296 0.0000 0.0000 0.0000
# 3 20.9466 3.7296 63.6319 0.0000 0.0000 0.0000
# 4 0.0000 0.0000 0.0000 23.2022 0.0000 0.0000
# 5 0.0000 0.0000 0.0000 0.0000 33.3220 0.0000
# 6 0.0000 0.0000 0.0000 0.0000 0.0000 25.5300
#
#
#
# Elastic Compliance Matrix: (Units=1/GPa)
#
#
# Indices 1 2 3 4 5 6 
#
# 1 0.014073 -0.007974 -0.004165 0.000000 0.000000 0.000000
# 2 -0.007974 0.020718 0.001410 0.000000 0.000000 0.000000
# 3 -0.004165 0.001410 0.017004 0.000000 0.000000 0.000000
# 4 0.000000 0.000000 0.000000 0.043099 0.000000 0.000000
# 5 0.000000 0.000000 0.000000 0.000000 0.030010 0.000000
# 6 0.000000 0.000000 0.000000 0.000000 0.000000 0.039170
#
#
# Mechanical properties :
#
#
# Convention : Reuss Voigt Hill
#
# Bulk Modulus (GPa) = 32.96183 38.34454 35.65318
# Shear Modulus (GPa) = 25.55661 27.24203 26.39932
#
# Velocity S-wave (km/s) = 3.69067 3.81042 3.75103
# Velocity P-wave (km/s) = 5.97739 6.30839 6.14512
#
# Compressibility (1/GPa) = 0.03033813
#
# Stress axis : x y z
#
# Youngs Moduli (GPa) = 71.05691 48.26694 58.81016
#
# Poissons Ratio (x) = 0.38487 0.24496
# Poissons Ratio (y) = 0.56659 -0.08295
# Poissons Ratio (z) = 0.29597 -0.06808
#
# Static dielectric constant tensor:
#      x y z
#    x 1.635240 0.000000 0.000000 
#    y 0.000000 1.707550 0.000000 
#    z 0.000000 0.000000 1.680030 
# 
# From -- ./inp_files/11587.got.cif
#   From: 2010.05.17/outbox.cif.g08.bks.cpg/sg53_6_cif.got.tgz:11587.got - 2010.06.03 12:45:16.
