data_PCOD9415114
_publ_section_title
;
Structure prediction by ZEFSAII (Michael W. Deem and Ramdas Pophale) SiO2 
 PCOD9415114
Probable space group: P M N A
;
_chemical_formula_sum "Si O2"
_cell_formula_units_Z 56
_cell_length_a 7.321385
_cell_length_b 18.477994
_cell_length_c 20.015783
_cell_angle_alpha 90.000000
_cell_angle_beta 90.000000
_cell_angle_gamma 90.000000
_cell_volume 2707.825357
_symmetry_space_group_name_H-M "P M N A"
_symmetry_group_IT_number 53
_symmetry_cell_setting 'orthorhombic'
loop_
_space_group_symop_operation_xyz
x,y,z
1/2-x,-y,1/2+z
x,-y,-z
1/2-x,y,1/2-z
-x,-y,-z
1/2+x,y,1/2-z
-x,y,z
1/2+x,-y,1/2+z
loop_
_atom_site_type_symbol
_atom_site_label
_atom_site_fract_x
_atom_site_fract_y
_atom_site_fract_z
Si Si1 0.718084 0.520069 0.829530
Si Si2 0.277020 0.964007 0.929615
Si Si3 0.222747 0.643119 0.570668
Si Si4 0.778782 0.775679 0.395391
Si Si5 0.778734 0.804011 0.548725
Si Si6 0.717166 0.082747 0.826363
Si Si7 0.722819 0.615383 0.082138
O O1 0.750000 0.518745 0.750000
O O2 0.500000 0.519710 0.836930
O O3 0.783716 0.591025 0.869649
O O4 0.785018 0.450192 0.871142
O O5 0.500000 0.961944 0.928886
O O6 0.215726 0.880899 0.923091
O O7 0.213005 0.018478 0.872706
O O8 0.225419 0.000000 0.000000
O O9 0.282036 0.726752 0.577825
O O10 0.276225 0.614339 0.496480
O O11 0.000000 0.643601 0.570195
O O12 0.732679 0.801275 0.470207
O O13 0.712402 0.837613 0.345819
O O14 0.717710 0.693022 0.388542
O O15 0.000000 0.772680 0.391718
O O16 0.000000 0.803832 0.552822
O O17 0.750000 0.066874 0.750000
O O18 0.500000 0.085616 0.838469
O O19 0.500000 0.614133 0.081631
#
# Coordination Sequence:
#
# PCOD9415114 Si02
#       7
#     8   8   8   8   8   8   8
#     4  10  19  30  44  64  90 118 146 176 217 263
#     4   9  14  23  42  65  86 109 143 185 218 245
#     4   8  14  25  43  65  86 108 142 188 225 250
#     4   8  13  23  40  64  87 106 134 179 223 252
#     4   8  12  21  40  66  86 101 136 188 226 245
#     4  10  19  29  42  63  92 119 142 172 216 264
#     4   8  14  25  44  66  86 109 144 186 220 250
#
# _framework density 20.680802
#
# number of rings (size 3 to 8) (size 9 to 14) (size 15 to 20)
#    0.000    3.286    1.429    2.143    0.000    2.286 
#    0.000    0.714    0.000    2.143    0.000    3.000 
#    0.000    0.000    0.000    0.000    0.000    0.000 
#
# Total GULP energy -312300.588422 kJ/mol
# GULP energy per Si atom -5576.796222 kJ/mol
# Density = 2.063373 g / cm^3
# Si number density = 20.680802 Si / 1000 Ang^3
#
#
#
# Elastic Constant Matrix: (Units=GPa)
#
#
# Indices 1 2 3 4 5 6 
#
# 1 80.2452 7.3917 0.0975 0.0000 0.0000 0.0000
# 2 7.3917 204.5164 120.3169 0.0000 0.0000 0.0000
# 3 0.0975 120.3169 138.5006 0.0000 0.0000 0.0000
# 4 0.0000 0.0000 0.0000 31.4764 0.0000 0.0000
# 5 0.0000 0.0000 0.0000 0.0000 5.9321 0.0000
# 6 0.0000 0.0000 0.0000 0.0000 0.0000 -23.3146
#
#
#
# Elastic Compliance Matrix: (Units=1/GPa)
#
#
# Indices 1 2 3 4 5 6 
#
# 1 0.012545 -0.000917 0.000788 0.000000 0.000000 0.000000
# 2 -0.000917 0.010067 -0.008745 0.000000 0.000000 0.000000
# 3 0.000788 -0.008745 0.014817 0.000000 0.000000 0.000000
# 4 0.000000 0.000000 0.000000 0.031770 0.000000 0.000000
# 5 0.000000 0.000000 0.000000 0.000000 0.168574 0.000000
# 6 0.000000 0.000000 0.000000 0.000000 0.000000 -0.042892
#
#
# Mechanical properties :
#
#
# Convention : Reuss Voigt Hill
#
# Bulk Modulus (GPa) = 50.81094 75.43049 63.12072
# Shear Modulus (GPa) = 22.81123 22.51585 22.66354
#
# Velocity S-wave (km/s) = 3.32477 3.30317 3.31399
# Velocity P-wave (km/s) = 6.27386 7.14848 6.72540
#
# Compressibility (1/GPa) = 0.01968080
#
# Stress axis : x y z
#
# Youngs Moduli (GPa) = 79.71119 99.33047 67.49226
#
# Poissons Ratio (x) = 0.09106 -0.05315
# Poissons Ratio (y) = 0.07307 0.59022
# Poissons Ratio (z) = -0.06277 0.86865
#
# Static dielectric constant tensor:
#      x y z
#    x 1.834980 0.000000 0.000000 
#    y 0.000000 1.753190 0.000000 
#    z 0.000000 0.000000 1.562950 
# 
# From -- ./inp_files/27720.got.cif
#   From: 2010.05.17/outbox.cif.g08.bks.cpg/sg53_14_cif.got.tgz:27720.got - 2010.06.03 12:45:16.
