data_PCOD9415766
_publ_section_title
;
Structure prediction by ZEFSAII (Michael W. Deem and Ramdas Pophale) SiO2 
 PCOD9415766
Probable space group: P M N A
;
_chemical_formula_sum "Si O2"
_cell_formula_units_Z 64
_cell_length_a 17.963931
_cell_length_b 7.190144
_cell_length_c 21.013204
_cell_angle_alpha 90.000000
_cell_angle_beta 90.000000
_cell_angle_gamma 90.000000
_cell_volume 2714.133736
_symmetry_space_group_name_H-M "P M N A"
_symmetry_group_IT_number 53
_symmetry_cell_setting 'orthorhombic'
loop_
_space_group_symop_operation_xyz
x,y,z
1/2-x,-y,1/2+z
x,-y,-z
1/2-x,y,1/2-z
-x,-y,-z
1/2+x,y,1/2-z
-x,y,z
1/2+x,-y,1/2+z
loop_
_atom_site_type_symbol
_atom_site_label
_atom_site_fract_x
_atom_site_fract_y
_atom_site_fract_z
Si Si1 0.162802 0.836686 0.244979
Si Si2 0.083472 0.114727 0.627990
Si Si3 0.416329 0.785678 0.378425
Si Si4 0.187616 0.219819 0.518752
Si Si5 0.417835 0.306415 0.089317
Si Si6 0.589178 0.441463 0.232130
Si Si7 0.413535 0.665700 0.635352
Si Si8 0.643532 0.711201 0.504660
O O1 0.250000 0.868789 0.250000
O O2 0.116758 0.926578 0.302635
O O3 0.136525 0.877182 0.173546
O O4 0.140329 0.620940 0.257784
O O5 0.140221 0.231198 0.584053
O O6 0.000000 0.196705 0.632780
O O7 0.076132 0.916925 0.594116
O O8 0.500000 0.834473 0.360930
O O9 0.408235 0.560689 0.370560
O O10 0.400739 0.826603 0.451985
O O11 0.144860 0.329614 0.463192
O O12 0.272192 0.286051 0.520466
O O13 0.192329 0.000000 0.500000
O O14 0.500000 0.377998 0.070906
O O15 0.400153 0.373363 0.160417
O O16 0.500000 0.484355 0.239459
O O17 0.606063 0.302011 0.290646
O O18 0.500000 0.715065 0.624088
O O19 0.364932 0.754929 0.579195
O O20 0.613881 0.500000 0.500000
#
# Coordination Sequence:
#
# PCOD9415766 Si02
#       8
#     8   8   8   8   8   8   8   8
#     4  11  21  33  51  79 112 139 166 207 260 309
#     4  10  20  37  58  76  98 135 179 215 251 303
#     4   9  17  31  51  74 101 135 173 209 248 297
#     4  10  21  36  52  74 105 135 163 208 268 316
#     4   9  19  36  57  77  98 132 177 216 252 304
#     4   9  18  34  54  77 106 137 170 210 256 305
#     4   8  15  29  50  75 101 133 171 208 247 295
#     4  10  19  32  53  78 101 130 171 214 250 295
#
# _framework density 23.580266000000002
#
# number of rings (size 3 to 8) (size 9 to 14) (size 15 to 20)
#    0.000    2.500    0.000    3.375    0.000    7.000 
#    0.000    4.375    0.000    6.000    0.000    0.000 
#    0.000    0.000    0.000    0.000    0.000    0.000 
#
# Total GULP energy -357542.870533 kJ/mol
# GULP energy per Si atom -5586.607352 kJ/mol
# Density = 2.352660 g / cm^3
# Si number density = 23.580266 Si / 1000 Ang^3
#
#
#
# Elastic Constant Matrix: (Units=GPa)
#
#
# Indices 1 2 3 4 5 6 
#
# 1 74.4693 -10.0425 28.9743 0.0000 0.0000 0.0000
# 2 -10.0425 54.4227 5.3822 0.0000 0.0000 0.0000
# 3 28.9743 5.3822 131.9585 0.0000 0.0000 0.0000
# 4 0.0000 0.0000 0.0000 32.0688 0.0000 0.0000
# 5 0.0000 0.0000 0.0000 0.0000 46.1467 0.0000
# 6 0.0000 0.0000 0.0000 0.0000 0.0000 -7.6472
#
#
#
# Elastic Compliance Matrix: (Units=1/GPa)
#
#
# Indices 1 2 3 4 5 6 
#
# 1 0.015201 0.003148 -0.003466 0.000000 0.000000 0.000000
# 2 0.003148 0.019101 -0.001470 0.000000 0.000000 0.000000
# 3 -0.003466 -0.001470 0.008399 0.000000 0.000000 0.000000
# 4 0.000000 0.000000 0.000000 0.031183 0.000000 0.000000
# 5 0.000000 0.000000 0.000000 0.000000 0.021670 0.000000
# 6 0.000000 0.000000 0.000000 0.000000 0.000000 -0.130767
#
#
# Mechanical properties :
#
#
# Convention : Reuss Voigt Hill
#
# Bulk Modulus (GPa) = 25.55942 34.38650 29.97296
# Shear Modulus (GPa) = -268.90345 29.88276 -119.51034
#
# Velocity S-wave (km/s) = -10.69042 3.56375 -7.12688
# Velocity P-wave (km/s) = 11.89610 5.61677 7.41516
#
# Compressibility (1/GPa) = 0.03912451
#
# Stress axis : x y z
#
# Youngs Moduli (GPa) = 65.78307 52.35333 119.05910
#
# Poissons Ratio (x) = -0.16480 0.41268
# Poissons Ratio (y) = -0.20708 0.17505
# Poissons Ratio (z) = 0.22802 0.07697
#
# Static dielectric constant tensor:
#      x y z
#    x 1.846210 0.000000 0.000000 
#    y 0.000000 1.963910 0.000000 
#    z 0.000000 0.000000 1.908160 
# 
# From -- ./inp_files/32814.got.cif
#   From: 2010.05.17/outbox.cif.g08.bks.cpg/sg53_17_cif.got.tgz:32814.got - 2010.06.03 12:45:16.
