data_PCOD9415350
_publ_section_title
;
Structure prediction by ZEFSAII (Michael W. Deem and Ramdas Pophale) SiO2 
 PCOD9415350
Probable space group: P M N A
;
_chemical_formula_sum "Si O2"
_cell_formula_units_Z 64
_cell_length_a 7.636410
_cell_length_b 18.325975
_cell_length_c 20.344941
_cell_angle_alpha 90.000000
_cell_angle_beta 90.000000
_cell_angle_gamma 90.000000
_cell_volume 2847.165826
_symmetry_space_group_name_H-M "P M N A"
_symmetry_group_IT_number 53
_symmetry_cell_setting 'orthorhombic'
loop_
_space_group_symop_operation_xyz
x,y,z
1/2-x,-y,1/2+z
x,-y,-z
1/2-x,y,1/2-z
-x,-y,-z
1/2+x,y,1/2-z
-x,y,z
1/2+x,-y,1/2+z
loop_
_atom_site_type_symbol
_atom_site_label
_atom_site_fract_x
_atom_site_fract_y
_atom_site_fract_z
Si Si1 0.791132 0.122769 0.486497
Si Si2 0.711091 0.624972 0.326497
Si Si3 0.709098 0.784384 0.326469
Si Si4 0.711486 0.937149 0.376934
Si Si5 0.294752 0.434899 0.542574
Si Si6 0.709018 0.752739 0.678426
Si Si7 0.205292 0.286854 0.469744
Si Si8 0.698238 0.087681 0.342292
O O1 0.753663 0.068986 0.546263
O O2 0.733301 0.207559 0.497437
O O3 0.695445 0.097333 0.421002
O O4 0.000000 0.123933 0.473896
O O5 0.750000 0.610248 0.250000
O O6 0.500000 0.627536 0.329881
O O7 0.776750 0.705537 0.347988
O O8 0.777888 0.572212 0.383514
O O9 0.750000 0.784709 0.250000
O O10 0.500000 0.785663 0.337952
O O11 0.782799 0.859518 0.353103
O O12 0.500000 0.939457 0.369948
O O13 0.780253 0.007303 0.336999
O O14 0.215025 0.500000 0.500000
O O15 0.500000 0.452156 0.551372
O O16 0.285404 0.357891 0.503938
O O17 0.750000 0.719001 0.750000
O O18 0.500000 0.757664 0.672362
O O19 0.769560 0.716610 0.609868
O O20 0.782802 0.836208 0.679948
O O21 0.000000 0.291076 0.482849
O O22 0.500000 0.085317 0.315588
#
# Coordination Sequence:
#
# PCOD9415350 Si02
#       8
#     8   8   8   8   8   8   8   8
#     4  10  20  32  48  72  99 129 171 221 268 317
#     4   9  18  34  56  81 110 146 184 220 262 316
#     4   9  18  31  47  68  95 128 167 208 249 299
#     4  10  19  31  47  68  97 134 174 216 269 330
#     4  10  21  38  61  89 119 149 182 223 274 330
#     4  10  20  36  57  79 106 143 190 241 291 343
#     4  10  21  37  57  82 111 144 184 229 280 338
#     4   9  19  33  48  68  97 135 175 218 272 331
#
# _framework density 22.478494999999999
#
# number of rings (size 3 to 8) (size 9 to 14) (size 15 to 20)
#    0.000    2.375    0.000    2.250    0.000    6.750 
#    0.000    3.125    0.000    1.500    0.000    0.000 
#    0.000    0.000    0.000    0.000    0.000    0.000 
#
# Total GULP energy -356964.610215 kJ/mol
# GULP energy per Si atom -5577.572035 kJ/mol
# Density = 2.242733 g / cm^3
# Si number density = 22.478495 Si / 1000 Ang^3
#
#
#
# Elastic Constant Matrix: (Units=GPa)
#
#
# Indices 1 2 3 4 5 6 
#
# 1 56.1668 1.7740 -13.0196 0.0000 0.0000 0.0000
# 2 1.7740 91.2174 49.5092 0.0000 0.0000 0.0000
# 3 -13.0196 49.5092 88.4302 0.0000 0.0000 0.0000
# 4 0.0000 0.0000 0.0000 23.5141 0.0000 0.0000
# 5 0.0000 0.0000 0.0000 0.0000 14.2735 0.0000
# 6 0.0000 0.0000 0.0000 0.0000 0.0000 2.6234
#
#
#
# Elastic Compliance Matrix: (Units=1/GPa)
#
#
# Indices 1 2 3 4 5 6 
#
# 1 0.018883 -0.002695 0.004289 0.000000 0.000000 0.000000
# 2 -0.002695 0.016133 -0.009429 0.000000 0.000000 0.000000
# 3 0.004289 -0.009429 0.017219 0.000000 0.000000 0.000000
# 4 0.000000 0.000000 0.000000 0.042528 0.000000 0.000000
# 5 0.000000 0.000000 0.000000 0.000000 0.070060 0.000000
# 6 0.000000 0.000000 0.000000 0.000000 0.000000 0.381186
#
#
# Mechanical properties :
#
#
# Convention : Reuss Voigt Hill
#
# Bulk Modulus (GPa) = 27.34855 34.70463 31.02659
# Shear Modulus (GPa) = 8.71282 21.25226 14.98254
#
# Velocity S-wave (km/s) = 1.97091 3.07815 2.58452
# Velocity P-wave (km/s) = 4.16800 5.30150 4.76855
#
# Compressibility (1/GPa) = 0.03656501
#
# Stress axis : x y z
#
# Youngs Moduli (GPa) = 52.95629 61.98470 58.07560
#
# Poissons Ratio (x) = 0.16707 -0.24910
# Poissons Ratio (y) = 0.14273 0.54760
# Poissons Ratio (z) = -0.22714 0.58446
#
# Static dielectric constant tensor:
#      x y z
#    x 1.839730 0.000000 0.000000 
#    y 0.000000 1.897210 0.000000 
#    z 0.000000 0.000000 1.858480 
# 
# From -- ./inp_files/31282.got.cif
#   From: 2010.05.17/outbox.cif.g08.bks.cpg/sg53_16_cif.got.tgz:31282.got - 2010.06.03 12:45:16.
