data_PCOD9415384
_publ_section_title
;
Structure prediction by ZEFSAII (Michael W. Deem and Ramdas Pophale) SiO2 
 PCOD9415384
Probable space group: P M N A
;
_chemical_formula_sum "Si O2"
_cell_formula_units_Z 56
_cell_length_a 7.599916
_cell_length_b 20.680411
_cell_length_c 18.722292
_cell_angle_alpha 90.000000
_cell_angle_beta 90.000000
_cell_angle_gamma 90.000000
_cell_volume 2942.571146
_symmetry_space_group_name_H-M "P M N A"
_symmetry_group_IT_number 53
_symmetry_cell_setting 'orthorhombic'
loop_
_space_group_symop_operation_xyz
x,y,z
1/2-x,-y,1/2+z
x,-y,-z
1/2-x,y,1/2-z
-x,-y,-z
1/2+x,y,1/2-z
-x,y,z
1/2+x,-y,1/2+z
loop_
_atom_site_type_symbol
_atom_site_label
_atom_site_fract_x
_atom_site_fract_y
_atom_site_fract_z
Si Si1 0.202031 0.954018 0.070153
Si Si2 0.211633 0.932572 0.833985
Si Si3 0.700778 0.299055 0.469727
Si Si4 0.790677 0.363797 0.331481
Si Si5 0.208943 0.488069 0.668546
Si Si6 0.202550 0.432056 0.972415
Si Si7 0.782873 0.845556 0.968220
O O1 0.000000 0.939250 0.090610
O O2 0.278275 0.998490 0.133520
O O3 0.278292 0.889083 0.035367
O O4 0.196961 0.000000 0.000000
O O5 0.250000 0.922513 0.750000
O O6 0.270075 0.878286 0.892191
O O7 0.000000 0.934422 0.840112
O O8 0.500000 0.295509 0.497084
O O9 0.701726 0.315592 0.385988
O O10 0.783535 0.364084 0.503510
O O11 0.778037 0.227943 0.477542
O O12 0.750000 0.348277 0.250000
O O13 0.729512 0.437857 0.344404
O O14 0.000000 0.361963 0.342342
O O15 0.250000 0.472460 0.750000
O O16 0.293141 0.440120 0.612271
O O17 0.000000 0.487175 0.658457
O O18 0.000000 0.431444 0.998515
O O19 0.283449 0.500000 0.000000
O O20 0.000000 0.846229 0.968032
#
# Coordination Sequence:
#
# PCOD9415384 Si02
#       7
#     8   8   8   8   8   8   8
#     4   7  11  23  44  66  86 113 152 189 214 249
#     4   9  16  27  46  71  96 120 149 186 224 265
#     4  10  19  31  48  69  94 125 158 194 235 280
#     4  10  20  32  46  65  91 122 155 191 234 284
#     4  10  20  33  51  70  90 117 153 198 245 290
#     4  10  19  31  48  70  96 123 157 201 241 281
#     4   8  15  28  46  67  90 121 159 189 219 265
#
# _framework density 19.030977
#
# number of rings (size 3 to 8) (size 9 to 14) (size 15 to 20)
#    0.000    2.857    1.429    2.571    0.000    2.571 
#    0.000    2.143    0.000    5.571    0.000    2.000 
#    0.000    0.000    0.000    0.000    0.000    0.000 
#
# Total GULP energy -311861.260439 kJ/mol
# GULP energy per Si atom -5568.951079 kJ/mol
# Density = 1.898766 g / cm^3
# Si number density = 19.030977 Si / 1000 Ang^3
#
#
#
# Elastic Constant Matrix: (Units=GPa)
#
#
# Indices 1 2 3 4 5 6 
#
# 1 49.5036 7.0503 4.3694 0.0000 0.0000 0.0000
# 2 7.0503 165.9043 58.0219 0.0000 0.0000 0.0000
# 3 4.3694 58.0219 59.2485 0.0000 0.0000 0.0000
# 4 0.0000 0.0000 0.0000 22.9997 0.0000 0.0000
# 5 0.0000 0.0000 0.0000 0.0000 18.3324 0.0000
# 6 0.0000 0.0000 0.0000 0.0000 0.0000 -1.8532
#
#
#
# Elastic Compliance Matrix: (Units=1/GPa)
#
#
# Indices 1 2 3 4 5 6 
#
# 1 0.020362 -0.000517 -0.000995 0.000000 0.000000 0.000000
# 2 -0.000517 0.009180 -0.008952 0.000000 0.000000 0.000000
# 3 -0.000995 -0.008952 0.025718 0.000000 0.000000 0.000000
# 4 0.000000 0.000000 0.000000 0.043479 0.000000 0.000000
# 5 0.000000 0.000000 0.000000 0.000000 0.054548 0.000000
# 6 0.000000 0.000000 0.000000 0.000000 0.000000 -0.539608
#
#
# Mechanical properties :
#
#
# Convention : Reuss Voigt Hill
#
# Bulk Modulus (GPa) = 29.12764 45.94885 37.53825
# Shear Modulus (GPa) = -14.12640 21.57678 3.72519
#
# Velocity S-wave (km/s) = -2.72745 3.37081 1.40060
# Velocity P-wave (km/s) = 2.32809 6.27267 4.73109
#
# Compressibility (1/GPa) = 0.03433165
#
# Stress axis : x y z
#
# Youngs Moduli (GPa) = 49.11096 108.92746 38.88280
#
# Poissons Ratio (x) = 0.05635 0.03869
# Poissons Ratio (y) = 0.02541 0.34809
# Poissons Ratio (z) = 0.04887 0.97514
#
# Static dielectric constant tensor:
#      x y z
#    x 1.720380 0.000000 0.000000 
#    y 0.000000 1.702010 0.000000 
#    z 0.000000 0.000000 1.667010 
# 
# From -- ./inp_files/26648.got.cif
#   From: 2010.05.17/outbox.cif.g08.bks.cpg/sg53_14_cif.got.tgz:26648.got - 2010.06.03 12:45:16.
