data_PCOD9415480
_publ_section_title
;
Structure prediction by ZEFSAII (Michael W. Deem and Ramdas Pophale) SiO2 
 PCOD9415480
Probable space group: P M N A
;
_chemical_formula_sum "Si O2"
_cell_formula_units_Z 56
_cell_length_a 7.767666
_cell_length_b 23.837938
_cell_length_c 14.728455
_cell_angle_alpha 90.000000
_cell_angle_beta 90.000000
_cell_angle_gamma 90.000000
_cell_volume 2727.196440
_symmetry_space_group_name_H-M "P M N A"
_symmetry_group_IT_number 53
_symmetry_cell_setting 'orthorhombic'
loop_
_space_group_symop_operation_xyz
x,y,z
1/2-x,-y,1/2+z
x,-y,-z
1/2-x,y,1/2-z
-x,-y,-z
1/2+x,y,1/2-z
-x,y,z
1/2+x,-y,1/2+z
loop_
_atom_site_type_symbol
_atom_site_label
_atom_site_fract_x
_atom_site_fract_y
_atom_site_fract_z
Si Si1 0.206971 0.643712 0.647771
Si Si2 0.795192 0.518852 0.604415
Si Si3 0.788968 0.916733 0.042951
Si Si4 0.202055 0.806365 0.144136
Si Si5 0.707979 0.302805 0.970988
Si Si6 0.793732 0.598469 0.345367
Si Si7 0.793545 0.969248 0.856120
O O1 0.250000 0.658351 0.750000
O O2 0.274577 0.580427 0.626578
O O3 0.266929 0.689408 0.574459
O O4 0.000000 0.640774 0.638431
O O5 0.780285 0.500000 0.500000
O O6 0.718960 0.464306 0.653579
O O7 0.000000 0.522122 0.624761
O O8 0.723511 0.859988 0.090094
O O9 0.000000 0.916414 0.041536
O O10 0.737432 0.969529 0.106325
O O11 0.734620 0.927479 0.937883
O O12 0.250000 0.801912 0.250000
O O13 0.237142 0.750300 0.087007
O O14 0.000000 0.815291 0.144533
O O15 0.500000 0.302285 0.968817
O O16 0.767561 0.360496 0.923462
O O17 0.750000 0.625935 0.250000
O O18 0.000000 0.593836 0.355601
O O19 0.750000 0.959368 0.750000
O O20 0.000000 0.968719 0.859289
#
# Coordination Sequence:
#
# PCOD9415480 Si02
#       7
#     8   8   8   8   8   8   8
#     4  10  20  35  56  77 100 132 172 215 263 316
#     4   9  15  29  52  74  96 128 163 200 253 314
#     4   8  17  33  53  77 109 146 178 210 259 315
#     4  11  22  37  57  80 106 139 176 216 260 308
#     4  10  21  37  54  74 101 136 175 214 256 307
#     4  10  19  31  50  73  98 127 161 200 250 307
#     4   9  16  31  54  80 110 143 177 215 259 308
#
# _framework density 20.533906999999999
#
# number of rings (size 3 to 8) (size 9 to 14) (size 15 to 20)
#    0.000    2.429    1.429    2.571    0.000    2.286 
#    0.000    4.286    0.000    4.286    0.000    0.000 
#    0.000    0.000    0.000    0.000    0.000    0.000 
#
# Total GULP energy -312139.209479 kJ/mol
# GULP energy per Si atom -5573.914455 kJ/mol
# Density = 2.048717 g / cm^3
# Si number density = 20.533907 Si / 1000 Ang^3
#
#
#
# Elastic Constant Matrix: (Units=GPa)
#
#
# Indices 1 2 3 4 5 6 
#
# 1 27.4965 10.0868 9.1966 0.0000 0.0000 0.0000
# 2 10.0868 117.6987 100.0033 0.0000 0.0000 0.0000
# 3 9.1966 100.0033 185.3355 0.0000 0.0000 0.0000
# 4 0.0000 0.0000 0.0000 23.5297 0.0000 0.0000
# 5 0.0000 0.0000 0.0000 0.0000 24.1402 0.0000
# 6 0.0000 0.0000 0.0000 0.0000 0.0000 11.2175
#
#
#
# Elastic Compliance Matrix: (Units=1/GPa)
#
#
# Indices 1 2 3 4 5 6 
#
# 1 0.037554 -0.003019 -0.000234 0.000000 0.000000 0.000000
# 2 -0.003019 0.015932 -0.008447 0.000000 0.000000 0.000000
# 3 -0.000234 -0.008447 0.009965 0.000000 0.000000 0.000000
# 4 0.000000 0.000000 0.000000 0.042499 0.000000 0.000000
# 5 0.000000 0.000000 0.000000 0.000000 0.041425 0.000000
# 6 0.000000 0.000000 0.000000 0.000000 0.000000 0.089146
#
#
# Mechanical properties :
#
#
# Convention : Reuss Voigt Hill
#
# Bulk Modulus (GPa) = 24.96860 63.23380 44.10120
# Shear Modulus (GPa) = 18.29680 25.86042 22.07861
#
# Velocity S-wave (km/s) = 2.98829 3.55265 3.28262
# Velocity P-wave (km/s) = 4.90842 6.90580 5.99094
#
# Compressibility (1/GPa) = 0.04005031
#
# Stress axis : x y z
#
# Youngs Moduli (GPa) = 26.62816 62.76776 100.35249
#
# Poissons Ratio (x) = 0.18951 0.02352
# Poissons Ratio (y) = 0.08040 0.84764
# Poissons Ratio (z) = 0.00624 0.53018
#
# Static dielectric constant tensor:
#      x y z
#    x 1.765700 0.000000 0.000000 
#    y 0.000000 1.743080 0.000000 
#    z 0.000000 0.000000 1.783920 
# 
# From -- ./inp_files/20639.got.cif
#   From: 2010.05.17/outbox.cif.g08.bks.cpg/sg53_11_cif.got.tgz:20639.got - 2010.06.03 12:45:16.
