data_PCOD9415831
_publ_section_title
;
Structure prediction by ZEFSAII (Michael W. Deem and Ramdas Pophale) SiO2 
 PCOD9415831
Probable space group: P M N A
;
_chemical_formula_sum "Si O2"
_cell_formula_units_Z 64
_cell_length_a 8.555629
_cell_length_b 20.178005
_cell_length_c 21.192235
_cell_angle_alpha 90.000000
_cell_angle_beta 90.000000
_cell_angle_gamma 90.000000
_cell_volume 3658.532610
_symmetry_space_group_name_H-M "P M N A"
_symmetry_group_IT_number 53
_symmetry_cell_setting 'orthorhombic'
loop_
_space_group_symop_operation_xyz
x,y,z
1/2-x,-y,1/2+z
x,-y,-z
1/2-x,y,1/2-z
-x,-y,-z
1/2+x,y,1/2-z
-x,y,z
1/2+x,-y,1/2+z
loop_
_atom_site_type_symbol
_atom_site_label
_atom_site_fract_x
_atom_site_fract_y
_atom_site_fract_z
Si Si1 0.187219 0.177195 0.514446
Si Si2 0.310471 0.823282 0.866291
Si Si3 0.811535 0.459656 0.937176
Si Si4 0.187562 0.319339 0.989329
Si Si5 0.810821 0.677405 0.632039
Si Si6 0.313308 0.462463 0.182920
Si Si7 0.687146 0.041056 0.562225
Si Si8 0.187325 0.036581 0.317164
O O1 0.232296 0.169497 0.440281
O O2 0.248234 0.249219 0.534652
O O3 0.257574 0.116216 0.552620
O O4 0.000000 0.175618 0.517713
O O5 0.500000 0.823497 0.863575
O O6 0.257353 0.750179 0.844772
O O7 0.254483 0.887819 0.829382
O O8 0.767867 0.383059 0.947941
O O9 0.741539 0.492842 0.875283
O O10 0.000000 0.463831 0.933279
O O11 0.763259 0.500000 0.000000
O O12 0.000000 0.316804 0.993311
O O13 0.254522 0.329273 0.059855
O O14 0.756420 0.613121 0.669978
O O15 0.000000 0.677627 0.631780
O O16 0.250000 0.485785 0.250000
O O17 0.500000 0.461567 0.184480
O O18 0.500000 0.038347 0.565182
O O19 0.739053 0.000000 0.500000
O O20 0.756351 0.007462 0.624422
O O21 0.250000 0.012996 0.250000
O O22 0.000000 0.037095 0.316413
#
# Coordination Sequence:
#
# PCOD9415831 Si02
#       8
#     8   8   8   8   8   8   8   8
#     4  10  19  34  56  82 112 145 182 225 276 332
#     4   8  16  31  51  74 106 145 184 220 264 321
#     4  10  20  36  57  81 111 145 184 229 280 329
#     4  10  19  32  54  83 112 142 178 228 279 326
#     4   9  18  33  51  76 108 147 188 225 268 326
#     4  11  23  36  54  78 111 149 191 234 278 331
#     4  11  22  36  57  85 113 142 186 235 276 325
#     4  11  22  37  55  78 111 150 190 229 278 330
#
# _framework density 17.493352000000002
#
# number of rings (size 3 to 8) (size 9 to 14) (size 15 to 20)
#    0.000    2.000    2.500    2.625    0.000    2.750 
#    0.000    0.625    0.000    0.750    0.000    1.750 
#    0.000    0.000    0.000    0.000    0.000    0.000 
#
# Total GULP energy -357222.882528 kJ/mol
# GULP energy per Si atom -5581.607539 kJ/mol
# Density = 1.745354 g / cm^3
# Si number density = 17.493352 Si / 1000 Ang^3
#
#
#
# Elastic Constant Matrix: (Units=GPa)
#
#
# Indices 1 2 3 4 5 6 
#
# 1 32.2410 28.3382 27.0819 0.0000 0.0000 0.0000
# 2 28.3382 122.6253 68.1710 0.0000 0.0000 0.0000
# 3 27.0819 68.1710 117.1191 0.0000 0.0000 0.0000
# 4 0.0000 0.0000 0.0000 18.1534 0.0000 0.0000
# 5 0.0000 0.0000 0.0000 0.0000 20.5556 0.0000
# 6 0.0000 0.0000 0.0000 0.0000 0.0000 23.7539
#
#
#
# Elastic Compliance Matrix: (Units=1/GPa)
#
#
# Indices 1 2 3 4 5 6 
#
# 1 0.041541 -0.006298 -0.005940 0.000000 0.000000 0.000000
# 2 -0.006298 0.013011 -0.006117 0.000000 0.000000 0.000000
# 3 -0.005940 -0.006117 0.013472 0.000000 0.000000 0.000000
# 4 0.000000 0.000000 0.000000 0.055086 0.000000 0.000000
# 5 0.000000 0.000000 0.000000 0.000000 0.048649 0.000000
# 6 0.000000 0.000000 0.000000 0.000000 0.000000 0.042098
#
#
# Mechanical properties :
#
#
# Convention : Reuss Voigt Hill
#
# Bulk Modulus (GPa) = 31.93352 57.68528 44.80940
# Shear Modulus (GPa) = 19.15668 22.38553 20.77111
#
# Velocity S-wave (km/s) = 3.31279 3.58111 3.44956
# Velocity P-wave (km/s) = 5.73821 7.08141 6.44490
#
# Compressibility (1/GPa) = 0.03131506
#
# Stress axis : x y z
#
# Youngs Moduli (GPa) = 24.07239 76.85868 74.22633
#
# Poissons Ratio (x) = 0.48404 0.44091
# Poissons Ratio (y) = 0.15160 0.45404
# Poissons Ratio (z) = 0.14299 0.47014
#
# Static dielectric constant tensor:
#      x y z
#    x 1.586200 0.000000 0.000000 
#    y 0.000000 1.613010 0.000000 
#    z 0.000000 0.000000 1.565660 
# 
# From -- ./inp_files/31325.got.cif
#   From: 2010.05.17/outbox.cif.g08.bks.cpg/sg53_16_cif.got.tgz:31325.got - 2010.06.03 12:45:16.
