data_PCOD9415921
_publ_section_title
;
Structure prediction by ZEFSAII (Michael W. Deem and Ramdas Pophale) SiO2 
 PCOD9415921
Probable space group: P M N A
;
_chemical_formula_sum "Si O2"
_cell_formula_units_Z 64
_cell_length_a 9.171514
_cell_length_b 23.694382
_cell_length_c 15.033175
_cell_angle_alpha 90.000000
_cell_angle_beta 90.000000
_cell_angle_gamma 90.000000
_cell_volume 3266.909714
_symmetry_space_group_name_H-M "P M N A"
_symmetry_group_IT_number 53
_symmetry_cell_setting 'orthorhombic'
loop_
_space_group_symop_operation_xyz
x,y,z
1/2-x,-y,1/2+z
x,-y,-z
1/2-x,y,1/2-z
-x,-y,-z
1/2+x,y,1/2-z
-x,y,z
1/2+x,-y,1/2+z
loop_
_atom_site_type_symbol
_atom_site_label
_atom_site_fract_x
_atom_site_fract_y
_atom_site_fract_z
Si Si1 0.659923 0.950558 0.325374
Si Si2 0.674589 0.740254 0.474441
Si Si3 0.337101 0.043080 0.085240
Si Si4 0.328461 0.567033 0.485911
Si Si5 0.664730 0.400924 0.164636
Si Si6 0.337531 0.867315 0.491366
Si Si7 0.834358 0.733255 0.663806
Si Si8 0.822262 0.646233 0.348407
O O1 0.750000 0.919908 0.250000
O O2 0.500000 0.960013 0.290786
O O3 0.655665 0.912185 0.411929
O O4 0.732232 0.009768 0.349294
O O5 0.500000 0.727971 0.472870
O O6 0.696942 0.806201 0.451925
O O7 0.739668 0.737573 0.574158
O O8 0.760627 0.698306 0.408598
O O9 0.500000 0.048095 0.119107
O O10 0.275310 0.103929 0.058056
O O11 0.341416 0.000000 0.000000
O O12 0.318808 0.500000 0.500000
O O13 0.500000 0.582209 0.477357
O O14 0.257429 0.591869 0.575328
O O15 0.238514 0.591626 0.402416
O O16 0.750000 0.425181 0.250000
O O17 0.500000 0.424066 0.155724
O O18 0.650879 0.333963 0.179086
O O19 0.500000 0.863399 0.531997
O O20 0.750000 0.756991 0.750000
O O21 0.000000 0.755567 0.653420
O O22 0.750000 0.648356 0.250000
O O23 0.000000 0.646757 0.344631
#
# Coordination Sequence:
#
# PCOD9415921 Si02
#       8
#     8   8   8   8   8   8   8   8
#     4  10  19  33  53  78 111 147 190 242 295 352
#     4  11  22  39  63  90 124 164 205 252 306 367
#     4   9  17  31  52  77 104 138 180 226 280 336
#     4  11  24  42  65  93 125 161 202 251 307 365
#     4  10  20  35  59  89 120 153 192 240 294 353
#     4   9  20  36  55  81 113 152 194 239 294 352
#     4  10  20  35  58  88 117 151 192 239 296 357
#     4  12  26  45  67  92 125 168 213 256 306 363
#
# _framework density 19.590378999999999
#
# number of rings (size 3 to 8) (size 9 to 14) (size 15 to 20)
#    0.000    1.750    1.250    3.375    0.000    6.000 
#    0.000    1.875    0.000    3.000    0.000    0.000 
#    0.000    0.000    0.000    0.000    0.000    0.000 
#
# Total GULP energy -356818.377351 kJ/mol
# GULP energy per Si atom -5575.287146 kJ/mol
# Density = 1.954579 g / cm^3
# Si number density = 19.590379 Si / 1000 Ang^3
#
#
#
# Elastic Constant Matrix: (Units=GPa)
#
#
# Indices 1 2 3 4 5 6 
#
# 1 176.9747 42.9550 63.6146 0.0000 0.0000 0.0000
# 2 42.9550 74.3444 9.6102 0.0000 0.0000 0.0000
# 3 63.6146 9.6102 109.8100 0.0000 0.0000 0.0000
# 4 0.0000 0.0000 0.0000 1.2085 0.0000 0.0000
# 5 0.0000 0.0000 0.0000 0.0000 21.8427 0.0000
# 6 0.0000 0.0000 0.0000 0.0000 0.0000 23.1233
#
#
#
# Elastic Compliance Matrix: (Units=1/GPa)
#
#
# Indices 1 2 3 4 5 6 
#
# 1 0.008257 -0.004200 -0.004416 0.000000 0.000000 0.000000
# 2 -0.004200 0.015741 0.001056 0.000000 0.000000 0.000000
# 3 -0.004416 0.001056 0.011573 0.000000 0.000000 0.000000
# 4 0.000000 0.000000 0.000000 0.827460 0.000000 0.000000
# 5 0.000000 0.000000 0.000000 0.000000 0.045782 0.000000
# 6 0.000000 0.000000 0.000000 0.000000 0.000000 0.043246
#
#
# Mechanical properties :
#
#
# Convention : Reuss Voigt Hill
#
# Bulk Modulus (GPa) = 48.89987 65.94320 57.42153
# Shear Modulus (GPa) = 5.13348 25.56486 15.34917
#
# Velocity S-wave (km/s) = 1.62052 3.61636 2.80215
# Velocity P-wave (km/s) = 5.34011 7.15342 6.31222
#
# Compressibility (1/GPa) = 0.02044995
#
# Stress axis : x y z
#
# Youngs Moduli (GPa) = 121.10445 63.52745 86.41156
#
# Poissons Ratio (x) = 0.26682 0.38160
# Poissons Ratio (y) = 0.50865 -0.09121
# Poissons Ratio (z) = 0.53480 -0.06706
#
# Static dielectric constant tensor:
#      x y z
#    x 1.713810 0.000000 0.000000 
#    y 0.000000 1.701080 0.000000 
#    z 0.000000 0.000000 1.723620 
# 
# From -- ./inp_files/20918.got.cif
#   From: 2010.05.17/outbox.cif.g08.bks.cpg/sg53_11_cif.got.tgz:20918.got - 2010.06.03 12:45:16.
