data_PCOD9415088
_publ_section_title
;
Structure prediction by ZEFSAII (Michael W. Deem and Ramdas Pophale) SiO2 
 PCOD9415088
Probable space group: P M N A
;
_chemical_formula_sum "Si O2"
_cell_formula_units_Z 64
_cell_length_a 9.033654
_cell_length_b 14.351514
_cell_length_c 29.991100
_cell_angle_alpha 90.000000
_cell_angle_beta 90.000000
_cell_angle_gamma 90.000000
_cell_volume 3888.244501
_symmetry_space_group_name_H-M "P M N A"
_symmetry_group_IT_number 53
_symmetry_cell_setting 'orthorhombic'
loop_
_space_group_symop_operation_xyz
x,y,z
1/2-x,-y,1/2+z
x,-y,-z
1/2-x,y,1/2-z
-x,-y,-z
1/2+x,y,1/2-z
-x,y,z
1/2+x,-y,1/2+z
loop_
_atom_site_type_symbol
_atom_site_label
_atom_site_fract_x
_atom_site_fract_y
_atom_site_fract_z
Si Si1 0.821413 0.998432 0.447227
Si Si2 0.830870 0.688763 0.992047
Si Si3 0.179409 0.618120 0.373397
Si Si4 0.322325 0.790730 0.073834
Si Si5 0.169509 0.461985 0.439095
Si Si6 0.677594 0.508591 0.701951
Si Si7 0.329418 0.669640 0.851132
Si Si8 0.329068 0.177691 0.404970
O O1 0.776783 0.898434 0.426893
O O2 0.000000 0.007686 0.445053
O O3 0.781189 0.000000 0.500000
O O4 0.747789 0.082857 0.420720
O O5 0.741321 0.741507 0.030028
O O6 0.000000 0.675946 0.005978
O O7 0.760834 0.591446 0.976427
O O8 0.827631 0.754979 0.948373
O O9 0.216522 0.725119 0.384207
O O10 0.221794 0.558895 0.417778
O O11 0.260802 0.569462 0.332343
O O12 0.000000 0.608074 0.368080
O O13 0.500000 0.789047 0.070407
O O14 0.169352 0.393620 0.395957
O O15 0.000000 0.472281 0.453170
O O16 0.750000 0.492846 0.750000
O O17 0.735207 0.608381 0.683392
O O18 0.000000 0.680046 0.663424
O O19 0.256871 0.766681 0.866200
O O20 0.000000 0.506751 0.796486
O O21 0.500000 0.162630 0.392608
#
# Coordination Sequence:
#
# PCOD9415088 Si02
#       8
#     8   8   8   8   8   8   8   8
#     4  10  19  31  48  69  93 130 181 226 263 304
#     4  10  19  28  41  63  91 125 167 210 254 297
#     4   9  19  35  51  70  96 129 167 207 251 299
#     4  10  20  33  48  65  92 130 174 219 257 297
#     4   8  15  28  45  62  87 124 163 200 242 293
#     4  11  21  35  57  83 109 133 159 194 241 299
#     4   9  17  31  51  75 102 131 164 202 244 296
#     4  10  19  30  46  69  99 134 170 214 263 303
#
# _framework density 16.459871
#
# number of rings (size 3 to 8) (size 9 to 14) (size 15 to 20)
#    0.000    2.375    1.250    3.000    0.000    5.750 
#    0.000    2.500    0.000    0.000    0.000    0.875 
#    0.000    2.000    0.000    0.000    0.000    0.000 
#
# Total GULP energy -356949.460757 kJ/mol
# GULP energy per Si atom -5577.335324 kJ/mol
# Density = 1.642241 g / cm^3
# Si number density = 16.459871 Si / 1000 Ang^3
#
#
#
# Elastic Constant Matrix: (Units=GPa)
#
#
# Indices 1 2 3 4 5 6 
#
# 1 66.5816 57.6053 38.9189 0.0000 0.0000 0.0000
# 2 57.6053 138.3109 44.8679 0.0000 0.0000 0.0000
# 3 38.9189 44.8679 69.8090 0.0000 0.0000 0.0000
# 4 0.0000 0.0000 0.0000 15.4041 0.0000 0.0000
# 5 0.0000 0.0000 0.0000 0.0000 18.2243 0.0000
# 6 0.0000 0.0000 0.0000 0.0000 0.0000 4.4973
#
#
#
# Elastic Compliance Matrix: (Units=1/GPa)
#
#
# Indices 1 2 3 4 5 6 
#
# 1 0.028424 -0.008462 -0.010408 0.000000 0.000000 0.000000
# 2 -0.008462 0.011654 -0.002773 0.000000 0.000000 0.000000
# 3 -0.010408 -0.002773 0.021909 0.000000 0.000000 0.000000
# 4 0.000000 0.000000 0.000000 0.064918 0.000000 0.000000
# 5 0.000000 0.000000 0.000000 0.000000 0.054872 0.000000
# 6 0.000000 0.000000 0.000000 0.000000 0.000000 0.222358
#
#
# Mechanical properties :
#
#
# Convention : Reuss Voigt Hill
#
# Bulk Modulus (GPa) = 53.46950 61.94288 57.70619
# Shear Modulus (GPa) = 11.02162 16.51243 13.76703
#
# Velocity S-wave (km/s) = 2.59048 3.17076 2.89519
# Velocity P-wave (km/s) = 6.44226 7.14978 6.80522
#
# Compressibility (1/GPa) = 0.01870225
#
# Stress axis : x y z
#
# Youngs Moduli (GPa) = 35.18138 85.80818 45.64293
#
# Poissons Ratio (x) = 0.72612 0.47504
# Poissons Ratio (y) = 0.29771 0.12655
# Poissons Ratio (z) = 0.36616 0.23791
#
# Static dielectric constant tensor:
#      x y z
#    x 1.554730 0.000000 0.000000 
#    y 0.000000 1.573180 0.000000 
#    z 0.000000 0.000000 1.542230 
# 
# From -- ./inp_files/38415.got.cif
#   From: 2010.05.17/outbox.cif.g08.bks.cpg/sg53_20_cif.got.tgz:38415.got - 2010.06.03 12:45:16.
