data_PCOD9415562
_publ_section_title
;
Structure prediction by ZEFSAII (Michael W. Deem and Ramdas Pophale) SiO2 
 PCOD9415562
Probable space group: P M N A
;
_chemical_formula_sum "Si O2"
_cell_formula_units_Z 64
_cell_length_a 30.886089
_cell_length_b 5.322051
_cell_length_c 25.281729
_cell_angle_alpha 90.000000
_cell_angle_beta 90.000000
_cell_angle_gamma 90.000000
_cell_volume 4155.743385
_symmetry_space_group_name_H-M "P M N A"
_symmetry_group_IT_number 53
_symmetry_cell_setting 'orthorhombic'
loop_
_space_group_symop_operation_xyz
x,y,z
1/2-x,-y,1/2+z
x,-y,-z
1/2-x,y,1/2-z
-x,-y,-z
1/2+x,y,1/2-z
-x,y,z
1/2+x,-y,1/2+z
loop_
_atom_site_type_symbol
_atom_site_label
_atom_site_fract_x
_atom_site_fract_y
_atom_site_fract_z
Si Si1 0.321208 0.210019 0.740597
Si Si2 0.450635 0.091226 0.899294
Si Si3 0.049097 0.406010 0.329376
Si Si4 0.756412 0.750177 0.335014
Si Si5 0.129352 0.315755 0.548902
Si Si6 0.366796 0.266124 0.227045
Si Si7 0.821948 0.366326 0.373627
Si Si8 0.282485 0.016812 0.945432
O O1 0.291246 0.245646 0.689050
O O2 0.287553 0.145783 0.788436
O O3 0.343630 0.476582 0.753881
O O4 0.354465 0.976691 0.738397
O O5 0.500000 0.113518 0.920724
O O6 0.446398 0.317486 0.855891
O O7 0.411740 0.139341 0.940237
O O8 0.446543 0.816309 0.873176
O O9 0.083913 0.339229 0.284581
O O10 0.000000 0.389801 0.309091
O O11 0.780112 0.484992 0.345442
O O12 0.760027 0.880263 0.392299
O O13 0.120238 0.500000 0.500000
O O14 0.141089 0.448917 0.604824
O O15 0.175339 0.181493 0.540653
O O16 0.347029 0.200976 0.168830
O O17 0.802925 0.240788 0.425443
O O18 0.256391 0.000000 0.000000
#
# Coordination Sequence:
#
# PCOD9415562 Si02
#       8
#     8   8   8   8   8   8   8   8
#     4  10  21  32  49  72  94 121 153 189 245 285
#     4  10  21  34  49  65  87 119 154 197 254 301
#     4  10  20  34  51  70  91 117 154 195 237 291
#     4   9  21  31  45  68  95 119 150 201 235 283
#     4  11  21  31  45  66  87 115 159 210 248 291
#     4  11  19  32  52  70  90 121 153 189 239 286
#     4  10  19  32  46  64  90 117 155 197 242 278
#     4  11  20  32  50  67  88 125 163 198 241 285
#
# _framework density 15.400373
#
# number of rings (size 3 to 8) (size 9 to 14) (size 15 to 20)
#    0.000    1.750    3.750    1.500    3.500    1.250 
#    0.000    0.000    0.000    2.625    0.000    0.000 
#    0.000    0.000    0.000    0.000    0.000    3.750 
#
# Total GULP energy -356290.712107 kJ/mol
# GULP energy per Si atom -5567.042377 kJ/mol
# Density = 1.536532 g / cm^3
# Si number density = 15.400373 Si / 1000 Ang^3
#
#
#
# Elastic Constant Matrix: (Units=GPa)
#
#
# Indices 1 2 3 4 5 6 
#
# 1 58.2320 5.1544 37.9392 0.0000 0.0000 0.0000
# 2 5.1544 42.3540 5.8187 0.0000 0.0000 0.0000
# 3 37.9392 5.8187 66.2529 0.0000 0.0000 0.0000
# 4 0.0000 0.0000 0.0000 12.3174 0.0000 0.0000
# 5 0.0000 0.0000 0.0000 0.0000 5.8439 0.0000
# 6 0.0000 0.0000 0.0000 0.0000 0.0000 -4.2472
#
#
#
# Elastic Compliance Matrix: (Units=1/GPa)
#
#
# Indices 1 2 3 4 5 6 
#
# 1 0.027452 -0.001196 -0.015615 0.000000 0.000000 0.000000
# 2 -0.001196 0.023951 -0.001419 0.000000 0.000000 0.000000
# 3 -0.015615 -0.001419 0.024160 0.000000 0.000000 0.000000
# 4 0.000000 0.000000 0.000000 0.081186 0.000000 0.000000
# 5 0.000000 0.000000 0.000000 0.000000 0.171118 0.000000
# 6 0.000000 0.000000 0.000000 0.000000 0.000000 -0.235448
#
#
# Mechanical properties :
#
#
# Convention : Reuss Voigt Hill
#
# Bulk Modulus (GPa) = 25.57286 29.40702 27.48994
# Shear Modulus (GPa) = 35.23272 10.64459 22.93866
#
# Velocity S-wave (km/s) = 4.78827 2.63190 3.86357
# Velocity P-wave (km/s) = 6.87106 5.32657 6.14751
#
# Compressibility (1/GPa) = 0.03910396
#
# Stress axis : x y z
#
# Youngs Moduli (GPa) = 36.42707 41.75198 41.39034
#
# Poissons Ratio (x) = 0.04992 0.64632
# Poissons Ratio (y) = 0.04355 0.05873
# Poissons Ratio (z) = 0.56882 0.05924
#
# Static dielectric constant tensor:
#      x y z
#    x 1.519660 0.000000 0.000000 
#    y 0.000000 1.619090 0.000000 
#    z 0.000000 0.000000 1.615030 
# 
# From -- ./inp_files/35767.got.cif
#   From: 2010.05.17/outbox.cif.g08.bks.cpg/sg53_18_cif.got.tgz:35767.got - 2010.06.03 12:45:16.
