data_PCOD9415871
_publ_section_title
;
Structure prediction by ZEFSAII (Michael W. Deem and Ramdas Pophale) SiO2 
 PCOD9415871
Probable space group: P M N A
;
_chemical_formula_sum "Si O2"
_cell_formula_units_Z 48
_cell_length_a 8.322648
_cell_length_b 14.103024
_cell_length_c 24.685549
_cell_angle_alpha 90.000000
_cell_angle_beta 90.000000
_cell_angle_gamma 90.000000
_cell_volume 2897.454082
_symmetry_space_group_name_H-M "P M N A"
_symmetry_group_IT_number 53
_symmetry_cell_setting 'orthorhombic'
loop_
_space_group_symop_operation_xyz
x,y,z
1/2-x,-y,1/2+z
x,-y,-z
1/2-x,y,1/2-z
-x,-y,-z
1/2+x,y,1/2-z
-x,y,z
1/2+x,-y,1/2+z
loop_
_atom_site_type_symbol
_atom_site_label
_atom_site_fract_x
_atom_site_fract_y
_atom_site_fract_z
Si Si1 0.804360 0.961996 0.915942
Si Si2 0.805925 0.856012 0.809413
Si Si3 0.687318 0.358034 0.983325
Si Si4 0.194316 0.851230 0.024532
Si Si5 0.689950 0.530167 0.583982
Si Si6 0.694004 0.362751 0.309501
O O1 0.748175 0.921329 0.858717
O O2 0.000000 0.962719 0.915184
O O3 0.754562 0.068078 0.932590
O O4 0.759350 0.892377 0.965396
O O5 0.750000 0.886813 0.750000
O O6 0.752423 0.746630 0.817436
O O7 0.000000 0.856017 0.810218
O O8 0.500000 0.363061 0.996345
O O9 0.735265 0.252305 0.967165
O O10 0.726489 0.434901 0.937057
O O11 0.782417 0.392113 0.036796
O O12 0.000000 0.845116 0.025745
O O13 0.500000 0.511691 0.587953
O O14 0.749372 0.571954 0.640924
O O15 0.750000 0.393481 0.250000
O O16 0.500000 0.362451 0.310573
#
# Coordination Sequence:
#
# PCOD9415871 Si02
#       6
#     8   8   8   8   8   8
#     4   8  15  28  49  70  89 116 155 193 222 260
#     4   9  16  28  44  67  94 119 146 180 221 268
#     4  11  21  31  45  70  99 124 149 191 241 277
#     4   9  16  30  50  69  88 118 155 191 228 272
#     4  10  19  33  51  69  90 124 162 191 221 274
#     4   9  18  30  48  71  95 121 151 186 228 273
#
# _framework density 16.566268000000001
#
# number of rings (size 3 to 8) (size 9 to 14) (size 15 to 20)
#    0.000    2.667    0.000    5.000    0.000    4.000 
#    0.000    6.667    0.000    1.000    0.000    2.333 
#    0.000    0.000    0.000    0.000    0.000    0.000 
#
# Total GULP energy -267616.930895 kJ/mol
# GULP energy per Si atom -5575.352727 kJ/mol
# Density = 1.652856 g / cm^3
# Si number density = 16.566268 Si / 1000 Ang^3
#
#
#
# Elastic Constant Matrix: (Units=GPa)
#
#
# Indices 1 2 3 4 5 6 
#
# 1 7.1419 3.0451 -2.1086 0.0000 0.0000 0.0000
# 2 3.0451 106.0674 68.7876 0.0000 0.0000 0.0000
# 3 -2.1086 68.7876 135.0697 0.0000 0.0000 0.0000
# 4 0.0000 0.0000 0.0000 22.0600 0.0000 0.0000
# 5 0.0000 0.0000 0.0000 0.0000 21.7808 0.0000
# 6 0.0000 0.0000 0.0000 0.0000 0.0000 -1.3669
#
#
#
# Elastic Compliance Matrix: (Units=1/GPa)
#
#
# Indices 1 2 3 4 5 6 
#
# 1 0.145558 -0.008440 0.006571 0.000000 0.000000 0.000000
# 2 -0.008440 0.014567 -0.007550 0.000000 0.000000 0.000000
# 3 0.006571 -0.007550 0.011351 0.000000 0.000000 0.000000
# 4 0.000000 0.000000 0.000000 0.045331 0.000000 0.000000
# 5 0.000000 0.000000 0.000000 0.000000 0.045912 0.000000
# 6 0.000000 0.000000 0.000000 0.000000 0.000000 -0.731603
#
#
# Mechanical properties :
#
#
# Convention : Reuss Voigt Hill
#
# Bulk Modulus (GPa) = 6.55150 43.08080 24.81615
# Shear Modulus (GPa) = -12.52615 20.39843 3.93614
#
# Velocity S-wave (km/s) = -2.75275 3.51283 1.54310
# Velocity P-wave (km/s) = 2.47795 6.52034 4.26466
#
# Compressibility (1/GPa) = 0.15263672
#
# Stress axis : x y z
#
# Youngs Moduli (GPa) = 6.87011 68.64908 88.09547
#
# Poissons Ratio (x) = 0.57940 -0.57884
# Poissons Ratio (y) = 0.05798 0.66515
# Poissons Ratio (z) = -0.04514 0.51832
#
# Static dielectric constant tensor:
#      x y z
#    x 1.572280 0.000000 0.000000 
#    y 0.000000 1.547090 0.000000 
#    z 0.000000 0.000000 1.550090 
# 
# From -- ./inp_files/33976.got.cif
#   From: 2010.05.17/outbox.cif.g08.bks.cpg/sg53_17_cif.got.tgz:33976.got - 2010.06.03 12:45:16.
