data_PCOD9415946
_publ_section_title
;
Structure prediction by ZEFSAII (Michael W. Deem and Ramdas Pophale) SiO2 
 PCOD9415946
Probable space group: P M N A
;
_chemical_formula_sum "Si O2"
_cell_formula_units_Z 40
_cell_length_a 16.173670
_cell_length_b 24.914563
_cell_length_c 5.143669
_cell_angle_alpha 90.000000
_cell_angle_beta 90.000000
_cell_angle_gamma 90.000000
_cell_volume 2072.692450
_symmetry_space_group_name_H-M "P M N A"
_symmetry_group_IT_number 53
_symmetry_cell_setting 'orthorhombic'
loop_
_space_group_symop_operation_xyz
x,y,z
1/2-x,-y,1/2+z
x,-y,-z
1/2-x,y,1/2-z
-x,-y,-z
1/2+x,y,1/2-z
-x,y,z
1/2+x,-y,1/2+z
loop_
_atom_site_type_symbol
_atom_site_label
_atom_site_fract_x
_atom_site_fract_y
_atom_site_fract_z
Si Si1 0.691131 0.174156 0.502624
Si Si2 0.405566 0.279733 0.672879
Si Si3 0.149206 0.532892 0.745312
Si Si4 0.652495 0.657575 0.816464
Si Si5 0.690155 0.942460 0.501135
O O1 0.750000 0.169215 0.750000
O O2 0.633877 0.223773 0.578452
O O3 0.646988 0.115753 0.480844
O O4 0.750000 0.183766 0.250000
O O5 0.500000 0.271467 0.751158
O O6 0.397393 0.315510 0.416369
O O7 0.362176 0.311056 0.912700
O O8 0.119201 0.500000 0.500000
O O9 0.250000 0.531866 0.750000
O O10 0.128209 0.594949 0.696114
O O11 0.121875 0.500000 0.000000
O O12 0.750000 0.661479 0.750000
O O13 0.750000 0.942749 0.750000
O O14 0.643748 0.000000 0.500000
O O15 0.750000 0.942807 0.250000
#
# Coordination Sequence:
#
# PCOD9415946 Si02
#       5
#     8   8   8   8   8
#     4  10  19  33  54  77 103 139 184 225 264 320
#     4  12  24  37  53  78 114 147 179 223 273 318
#     4   9  17  31  54  83 106 126 165 221 268 307
#     4  11  22  38  61  83 106 141 183 221 262 321
#     4   8  14  25  44  72 101 128 166 221 272 309
#
# _framework density 19.298568
#
# number of rings (size 3 to 8) (size 9 to 14) (size 15 to 20)
#    0.000    2.000    0.000    5.400    0.000    3.200 
#    0.000    0.000    0.000   12.600    0.000    0.000 
#    0.000   19.200    0.000    0.000    0.000    4.000 
#
# Total GULP energy -222807.193245 kJ/mol
# GULP energy per Si atom -5570.179831 kJ/mol
# Density = 1.925464 g / cm^3
# Si number density = 19.298568 Si / 1000 Ang^3
#
#
#
# Elastic Constant Matrix: (Units=GPa)
#
#
# Indices 1 2 3 4 5 6 
#
# 1 39.3016 44.4739 12.0434 0.0000 0.0000 0.0000
# 2 44.4739 242.3587 66.3956 0.0000 0.0000 0.0000
# 3 12.0434 66.3956 155.2535 0.0000 0.0000 0.0000
# 4 0.0000 0.0000 0.0000 36.9457 0.0000 0.0000
# 5 0.0000 0.0000 0.0000 0.0000 11.4238 0.0000
# 6 0.0000 0.0000 0.0000 0.0000 0.0000 -3.4893
#
#
#
# Elastic Compliance Matrix: (Units=1/GPa)
#
#
# Indices 1 2 3 4 5 6 
#
# 1 0.032113 -0.005902 0.000033 0.000000 0.000000 0.000000
# 2 -0.005902 0.005758 -0.002005 0.000000 0.000000 0.000000
# 3 0.000033 -0.002005 0.007296 0.000000 0.000000 0.000000
# 4 0.000000 0.000000 0.000000 0.027067 0.000000 0.000000
# 5 0.000000 0.000000 0.000000 0.000000 0.087537 0.000000
# 6 0.000000 0.000000 0.000000 0.000000 0.000000 -0.286592
#
#
# Mechanical properties :
#
#
# Convention : Reuss Voigt Hill
#
# Bulk Modulus (GPa) = 33.99103 75.85996 54.92549
# Shear Modulus (GPa) = -49.37420 29.90943 -9.73238
#
# Velocity S-wave (km/s) = -5.06359 3.94105 -2.24811
# Velocity P-wave (km/s) = 4.06634 7.75262 4.66734
#
# Compressibility (1/GPa) = 0.02941953
#
# Stress axis : x y z
#
# Youngs Moduli (GPa) = 31.14028 173.66070 137.06341
#
# Poissons Ratio (x) = 1.02492 -0.00451
# Poissons Ratio (y) = 0.18379 0.27478
# Poissons Ratio (z) = -0.00102 0.34815
#
# Static dielectric constant tensor:
#      x y z
#    x 1.631510 0.000000 0.000000 
#    y 0.000000 1.821840 0.000000 
#    z 0.000000 0.000000 1.658960 
# 
# From -- ./inp_files/1390.got.cif
#   From: 2010.05.17/outbox.cif.g08.bks.cpg/sg53_1_cif.got.tgz:1390.got - 2010.06.03 12:45:16.
