data_PCOD9415049
_publ_section_title
;
Structure prediction by ZEFSAII (Michael W. Deem and Ramdas Pophale) SiO2 
 PCOD9415049
Probable space group: P M N A
;
_chemical_formula_sum "Si O2"
_cell_formula_units_Z 48
_cell_length_a 26.854467
_cell_length_b 9.247649
_cell_length_c 9.810118
_cell_angle_alpha 90.000000
_cell_angle_beta 90.000000
_cell_angle_gamma 90.000000
_cell_volume 2436.251423
_symmetry_space_group_name_H-M "P M N A"
_symmetry_group_IT_number 53
_symmetry_cell_setting 'orthorhombic'
loop_
_space_group_symop_operation_xyz
x,y,z
1/2-x,-y,1/2+z
x,-y,-z
1/2-x,y,1/2-z
-x,-y,-z
1/2+x,y,1/2-z
-x,y,z
1/2+x,-y,1/2+z
loop_
_atom_site_type_symbol
_atom_site_label
_atom_site_fract_x
_atom_site_fract_y
_atom_site_fract_z
Si Si1 0.641688 0.376781 0.794610
Si Si2 0.191667 0.828991 0.512410
Si Si3 0.554865 0.384200 0.603628
Si Si4 0.556281 0.876782 0.601341
Si Si5 0.144217 0.711806 0.768302
Si Si6 0.209891 0.660914 0.033213
O O1 0.588286 0.340787 0.729810
O O2 0.638145 0.552326 0.799896
O O3 0.683054 0.345348 0.678597
O O4 0.655871 0.275806 0.921461
O O5 0.182086 0.791892 0.669373
O O6 0.246909 0.778522 0.471682
O O7 0.183546 0.000000 0.500000
O O8 0.579383 0.500000 0.500000
O O9 0.500000 0.440262 0.644085
O O10 0.549298 0.250768 0.505572
O O11 0.500000 0.918085 0.651108
O O12 0.594542 0.809537 0.711190
O O13 0.577314 0.000000 0.500000
O O14 0.169381 0.691966 0.916009
O O15 0.231238 0.500000 0.000000
#
# Coordination Sequence:
#
# PCOD9415049 Si02
#       6
#     8   8   8   8   8   8
#     4  11  21  40  63  91 118 158 200 249 302 357
#     4  12  28  40  55  85 125 163 200 248 305 362
#     4  10  18  35  64  97 121 147 198 252 296 356
#     4  10  21  36  61  96 127 156 195 249 306 358
#     4  11  22  40  64  88 120 160 201 246 302 358
#     4  10  21  41  66  89 112 152 205 252 299 358
#
# _framework density 19.702400000000001
#
# number of rings (size 3 to 8) (size 9 to 14) (size 15 to 20)
#    0.000    1.333    3.333    3.000    2.333    6.000 
#    0.000    0.833    0.000    3.000    0.000    0.000 
#    0.000    0.000    0.000    0.000    0.000    0.000 
#
# Total GULP energy -267529.098550 kJ/mol
# GULP energy per Si atom -5573.522886 kJ/mol
# Density = 1.965756 g / cm^3
# Si number density = 19.702400 Si / 1000 Ang^3
#
#
#
# Elastic Constant Matrix: (Units=GPa)
#
#
# Indices 1 2 3 4 5 6 
#
# 1 86.5742 11.9620 17.4806 0.0000 0.0000 0.0000
# 2 11.9620 83.2118 30.2588 0.0000 0.0000 0.0000
# 3 17.4806 30.2588 54.8705 0.0000 0.0000 0.0000
# 4 0.0000 0.0000 0.0000 18.7322 0.0000 0.0000
# 5 0.0000 0.0000 0.0000 0.0000 14.6538 0.0000
# 6 0.0000 0.0000 0.0000 0.0000 0.0000 22.7603
#
#
#
# Elastic Compliance Matrix: (Units=1/GPa)
#
#
# Indices 1 2 3 4 5 6 
#
# 1 0.012357 -0.000431 -0.003699 0.000000 0.000000 0.000000
# 2 -0.000431 0.015047 -0.008160 0.000000 0.000000 0.000000
# 3 -0.003699 -0.008160 0.023903 0.000000 0.000000 0.000000
# 4 0.000000 0.000000 0.000000 0.053384 0.000000 0.000000
# 5 0.000000 0.000000 0.000000 0.000000 0.068242 0.000000
# 6 0.000000 0.000000 0.000000 0.000000 0.000000 0.043936
#
#
# Mechanical properties :
#
#
# Convention : Reuss Voigt Hill
#
# Bulk Modulus (GPa) = 37.41642 38.22880 37.82261
# Shear Modulus (GPa) = 19.97133 22.22628 21.09880
#
# Velocity S-wave (km/s) = 3.18724 3.36236 3.27597
# Velocity P-wave (km/s) = 5.70760 5.87531 5.79206
#
# Compressibility (1/GPa) = 0.02672623
#
# Stress axis : x y z
#
# Youngs Moduli (GPa) = 80.92422 66.45883 41.83546
#
# Poissons Ratio (x) = 0.02867 0.15474
# Poissons Ratio (y) = 0.03491 0.34139
# Poissons Ratio (z) = 0.29933 0.54232
#
# Static dielectric constant tensor:
#      x y z
#    x 1.758300 0.000000 0.000000 
#    y 0.000000 0.988270 0.000000 
#    z 0.000000 0.000000 1.664870 
# 
# From -- ./inp_files/12990.got.cif
#   From: 2010.05.17/outbox.cif.g08.bks.cpg/sg53_7_cif.got.tgz:12990.got - 2010.06.03 12:45:16.
