data_PCOD9415779
_publ_section_title
;
Structure prediction by ZEFSAII (Michael W. Deem and Ramdas Pophale) SiO2 
 PCOD9415779
Probable space group: P M N A
;
_chemical_formula_sum "Si O2"
_cell_formula_units_Z 64
_cell_length_a 8.361604
_cell_length_b 21.615021
_cell_length_c 19.319570
_cell_angle_alpha 90.000000
_cell_angle_beta 90.000000
_cell_angle_gamma 90.000000
_cell_volume 3491.746557
_symmetry_space_group_name_H-M "P M N A"
_symmetry_group_IT_number 53
_symmetry_cell_setting 'orthorhombic'
loop_
_space_group_symop_operation_xyz
x,y,z
1/2-x,-y,1/2+z
x,-y,-z
1/2-x,y,1/2-z
-x,-y,-z
1/2+x,y,1/2-z
-x,y,z
1/2+x,-y,1/2+z
loop_
_atom_site_type_symbol
_atom_site_label
_atom_site_fract_x
_atom_site_fract_y
_atom_site_fract_z
Si Si1 0.693445 0.693448 0.531287
Si Si2 0.308202 0.882309 0.171210
Si Si3 0.695137 0.563759 0.466320
Si Si4 0.691525 0.248584 0.892217
Si Si5 0.306199 0.997146 0.420763
Si Si6 0.808738 0.375790 0.826160
Si Si7 0.806869 0.249552 0.174710
Si Si8 0.192634 0.107559 0.175081
O O1 0.500000 0.694868 0.530373
O O2 0.744017 0.624356 0.509728
O O3 0.750869 0.739310 0.470662
O O4 0.747868 0.712659 0.607656
O O5 0.250000 0.890077 0.250000
O O6 0.500000 0.881948 0.171817
O O7 0.251854 0.816247 0.140122
O O8 0.250880 0.937835 0.122122
O O9 0.751905 0.500000 0.500000
O O10 0.500000 0.562223 0.466687
O O11 0.745110 0.577787 0.387329
O O12 0.500000 0.248821 0.891445
O O13 0.751072 0.307274 0.847869
O O14 0.500000 0.996059 0.420518
O O15 0.251900 0.000000 0.500000
O O16 0.252077 0.059480 0.382178
O O17 0.750000 0.392030 0.750000
O O18 0.000000 0.374914 0.826471
O O19 0.750000 0.271582 0.250000
O O20 0.751908 0.178220 0.166036
O O21 0.000000 0.249931 0.175139
O O22 0.250000 0.085661 0.250000
O O23 0.000000 0.108628 0.174299
#
# Coordination Sequence:
#
# PCOD9415779 Si02
#       8
#     8   8   8   8   8   8   8   8
#     4   9  18  32  54  79 103 138 177 215 261 309
#     4  11  24  39  55  77 105 138 172 212 263 314
#     4   8  15  30  51  75 103 137 176 212 251 304
#     4  10  21  35  53  79 108 137 172 215 265 316
#     4  10  22  37  55  77 101 134 172 212 259 308
#     4  10  19  32  53  79 106 140 178 218 263 308
#     4   9  18  32  51  75 102 131 169 213 257 307
#     4   9  18  33  51  72  95 126 166 207 253 301
#
# _framework density 18.328935999999999
#
# number of rings (size 3 to 8) (size 9 to 14) (size 15 to 20)
#    0.000    2.500    0.000    2.625    1.750    5.250 
#    0.000    0.625    0.000    9.375    0.000    0.000 
#    0.000    0.000    0.000    0.000    0.000    0.000 
#
# Total GULP energy -357049.121142 kJ/mol
# GULP energy per Si atom -5578.892518 kJ/mol
# Density = 1.828722 g / cm^3
# Si number density = 18.328936 Si / 1000 Ang^3
#
#
#
# Elastic Constant Matrix: (Units=GPa)
#
#
# Indices 1 2 3 4 5 6 
#
# 1 15.1086 15.3463 21.8842 0.0000 0.0000 0.0000
# 2 15.3463 96.1135 101.9182 0.0000 0.0000 0.0000
# 3 21.8842 101.9182 211.1934 0.0000 0.0000 0.0000
# 4 0.0000 0.0000 0.0000 26.0312 0.0000 0.0000
# 5 0.0000 0.0000 0.0000 0.0000 28.9540 0.0000
# 6 0.0000 0.0000 0.0000 0.0000 0.0000 -900.0244
#
#
#
# Elastic Compliance Matrix: (Units=1/GPa)
#
#
# Indices 1 2 3 4 5 6 
#
# 1 0.080952 -0.008255 -0.004405 0.000000 0.000000 0.000000
# 2 -0.008255 0.022150 -0.009834 0.000000 0.000000 0.000000
# 3 -0.004405 -0.009834 0.009937 0.000000 0.000000 0.000000
# 4 0.000000 0.000000 0.000000 0.038415 0.000000 0.000000
# 5 0.000000 0.000000 0.000000 0.000000 0.034538 0.000000
# 6 0.000000 0.000000 0.000000 0.000000 0.000000 -0.001111
#
#
# Mechanical properties :
#
#
# Convention : Reuss Voigt Hill
#
# Bulk Modulus (GPa) = 14.69453 66.74588 40.72021
# Shear Modulus (GPa) = 19.79788 -156.79006 -68.49609
#
# Velocity S-wave (km/s) = 3.29012 -9.25895 -6.11977
# Velocity P-wave (km/s) = 4.74001 8.82097 5.26031
#
# Compressibility (1/GPa) = 0.06805252
#
# Stress axis : x y z
#
# Youngs Moduli (GPa) = 12.35299 45.14626 100.63276
#
# Poissons Ratio (x) = 0.37267 0.44327
# Poissons Ratio (y) = 0.10197 0.98962
# Poissons Ratio (z) = 0.05441 0.44397
#
# Static dielectric constant tensor:
#      x y z
#    x 1.636620 0.000000 0.000000 
#    y 0.000000 1.619550 0.000000 
#    z 0.000000 0.000000 1.647110 
# 
# From -- ./inp_files/26802.got.cif
#   From: 2010.05.17/outbox.cif.g08.bks.cpg/sg53_14_cif.got.tgz:26802.got - 2010.06.03 12:45:16.
