data_PCOD9415992
_publ_section_title
;
Structure prediction by ZEFSAII (Michael W. Deem and Ramdas Pophale) SiO2 
 PCOD9415992
Probable space group: P M N A
;
_chemical_formula_sum "Si O2"
_cell_formula_units_Z 48
_cell_length_a 8.534436
_cell_length_b 32.483400
_cell_length_c 9.520999
_cell_angle_alpha 90.000000
_cell_angle_beta 90.000000
_cell_angle_gamma 90.000000
_cell_volume 2639.482735
_symmetry_space_group_name_H-M "P M N A"
_symmetry_group_IT_number 53
_symmetry_cell_setting 'orthorhombic'
loop_
_space_group_symop_operation_xyz
x,y,z
1/2-x,-y,1/2+z
x,-y,-z
1/2-x,y,1/2-z
-x,-y,-z
1/2+x,y,1/2-z
-x,y,z
1/2+x,-y,1/2+z
loop_
_atom_site_type_symbol
_atom_site_label
_atom_site_fract_x
_atom_site_fract_y
_atom_site_fract_z
Si Si1 0.311437 0.781395 0.089934
Si Si2 0.812039 0.372687 0.908593
Si Si3 0.189771 0.038712 0.590719
Si Si4 0.187998 0.538956 0.407838
Si Si5 0.687907 0.705686 0.591898
Si Si6 0.811257 0.128271 0.590429
O O1 0.250000 0.777069 0.250000
O O2 0.500000 0.779520 0.093269
O O3 0.262290 0.826966 0.033952
O O4 0.247156 0.745249 0.993458
O O5 0.750000 0.366446 0.750000
O O6 0.751289 0.417038 0.959647
O O7 0.000000 0.373662 0.903158
O O8 0.761044 0.335362 0.008130
O O9 0.250000 0.035511 0.750000
O O10 0.238568 0.083786 0.530875
O O11 0.000000 0.037825 0.593648
O O12 0.245183 0.000000 0.500000
O O13 0.238202 0.500000 0.500000
O O14 0.250000 0.533930 0.250000
O O15 0.000000 0.540608 0.405778
O O16 0.750000 0.705716 0.750000
O O17 0.500000 0.706185 0.594046
O O18 0.750000 0.127957 0.750000
O O19 0.000000 0.128366 0.591459
#
# Coordination Sequence:
#
# PCOD9415992 Si02
#       6
#     8   8   8   8   8   8
#     4  10  19  33  55  79 103 133 171 214 258 308
#     4  10  21  37  58  81 105 137 176 216 256 302
#     4   9  17  30  48  70  98 130 165 206 250 298
#     4  10  21  36  56  82 110 141 176 214 256 302
#     4  11  24  39  55  78 107 139 174 214 263 313
#     4   8  15  28  47  71  97 127 165 207 249 295
#
# _framework density 18.185381
#
# number of rings (size 3 to 8) (size 9 to 14) (size 15 to 20)
#    0.000    2.333    0.000    3.500    0.000    7.000 
#    0.000    4.167    0.000    2.000    0.000    0.000 
#    0.000    0.000    0.000    0.000    0.000    0.000 
#
# Total GULP energy -267631.581784 kJ/mol
# GULP energy per Si atom -5575.657954 kJ/mol
# Density = 1.814399 g / cm^3
# Si number density = 18.185381 Si / 1000 Ang^3
#
#
#
# Elastic Constant Matrix: (Units=GPa)
#
#
# Indices 1 2 3 4 5 6 
#
# 1 32.0716 41.1168 20.2988 0.0000 0.0000 0.0000
# 2 41.1168 239.8677 96.9126 0.0000 0.0000 0.0000
# 3 20.2988 96.9126 75.7496 0.0000 0.0000 0.0000
# 4 0.0000 0.0000 0.0000 31.9398 0.0000 0.0000
# 5 0.0000 0.0000 0.0000 0.0000 22.0072 0.0000
# 6 0.0000 0.0000 0.0000 0.0000 0.0000 24.6392
#
#
#
# Elastic Compliance Matrix: (Units=1/GPa)
#
#
# Indices 1 2 3 4 5 6 
#
# 1 0.040564 -0.005302 -0.004087 0.000000 0.000000 0.000000
# 2 -0.005302 0.009323 -0.010506 0.000000 0.000000 0.000000
# 3 -0.004087 -0.010506 0.027738 0.000000 0.000000 0.000000
# 4 0.000000 0.000000 0.000000 0.031309 0.000000 0.000000
# 5 0.000000 0.000000 0.000000 0.000000 0.045440 0.000000
# 6 0.000000 0.000000 0.000000 0.000000 0.000000 0.040586
#
#
# Mechanical properties :
#
#
# Convention : Reuss Voigt Hill
#
# Bulk Modulus (GPa) = 26.43064 73.81614 50.12339
# Shear Modulus (GPa) = 20.21331 28.34127 24.27729
#
# Velocity S-wave (km/s) = 3.33755 3.95202 3.65771
# Velocity P-wave (km/s) = 5.42383 7.84243 6.74246
#
# Compressibility (1/GPa) = 0.03783487
#
# Stress axis : x y z
#
# Youngs Moduli (GPa) = 24.65215 107.26485 36.05137
#
# Poissons Ratio (x) = 0.56875 0.14732
# Poissons Ratio (y) = 0.13071 0.37877
# Poissons Ratio (z) = 0.10074 1.12697
#
# Static dielectric constant tensor:
#      x y z
#    x 1.616560 0.000000 0.000000 
#    y 0.000000 1.674490 0.000000 
#    z 0.000000 0.000000 1.574860 
# 
# From -- ./inp_files/6745.got.cif
#   From: 2010.05.17/outbox.cif.g08.bks.cpg/sg53_4_cif.got.tgz:6745.got - 2010.06.03 12:45:16.
