data_PCOD9415184
_publ_section_title
;
Structure prediction by ZEFSAII (Michael W. Deem and Ramdas Pophale) SiO2 
 PCOD9415184
Probable space group: P M N A
;
_chemical_formula_sum "Si O2"
_cell_formula_units_Z 48
_cell_length_a 7.895949
_cell_length_b 18.314797
_cell_length_c 13.740551
_cell_angle_alpha 90.000000
_cell_angle_beta 90.000000
_cell_angle_gamma 90.000000
_cell_volume 1987.058222
_symmetry_space_group_name_H-M "P M N A"
_symmetry_group_IT_number 53
_symmetry_cell_setting 'orthorhombic'
loop_
_space_group_symop_operation_xyz
x,y,z
1/2-x,-y,1/2+z
x,-y,-z
1/2-x,y,1/2-z
-x,-y,-z
1/2+x,y,1/2-z
-x,y,z
1/2+x,-y,1/2+z
loop_
_atom_site_type_symbol
_atom_site_label
_atom_site_fract_x
_atom_site_fract_y
_atom_site_fract_z
Si Si1 0.192781 0.980342 0.385411
Si Si2 0.796161 0.863704 0.648017
Si Si3 0.707077 0.175202 0.930810
Si Si4 0.705382 0.665894 0.072947
Si Si5 0.187152 0.642494 0.645148
Si Si6 0.811252 0.489623 0.883703
O O1 0.268946 0.899297 0.379632
O O2 0.000000 0.975793 0.346561
O O3 0.179115 0.000000 0.500000
O O4 0.278895 0.053793 0.347879
O O5 0.750000 0.827456 0.750000
O O6 0.742841 0.829046 0.545356
O O7 0.000000 0.869016 0.642566
O O8 0.500000 0.171820 0.928853
O O9 0.757458 0.254081 0.890400
O O10 0.500000 0.661786 0.071254
O O11 0.769370 0.659846 0.959867
O O12 0.765730 0.594736 0.130768
O O13 0.250000 0.666904 0.750000
O O14 0.190109 0.554073 0.650252
O O15 0.000000 0.673167 0.635748
O O16 0.000000 0.504813 0.847276
O O17 0.811469 0.500000 0.000000
#
# Coordination Sequence:
#
# PCOD9415184 Si02
#       6
#     8   8   8   8   8   8
#     4   7  11  22  41  61  79 106 148 186 208 239
#     4   9  16  26  42  64  88 114 144 179 217 256
#     4   8  14  26  44  64  85 113 149 181 210 252
#     4   9  17  29  46  67  89 114 146 183 220 261
#     4  10  19  30  45  66  91 117 145 178 217 262
#     4   9  17  30  47  65  86 114 148 183 218 258
#
# _framework density 24.156313999999998
#
# number of rings (size 3 to 8) (size 9 to 14) (size 15 to 20)
#    0.000    3.333    0.000    3.000    0.000    3.333 
#    0.000    0.833    0.000    6.500    0.000    2.333 
#    0.000    0.000    0.000    0.000    0.000    0.000 
#
# Total GULP energy -267460.826635 kJ/mol
# GULP energy per Si atom -5572.100555 kJ/mol
# Density = 2.410133 g / cm^3
# Si number density = 24.156314 Si / 1000 Ang^3
#
#
#
# Elastic Constant Matrix: (Units=GPa)
#
#
# Indices 1 2 3 4 5 6 
#
# 1 32.0693 0.9628 1.2894 0.0000 0.0000 0.0000
# 2 0.9628 193.6306 -3.9661 0.0000 0.0000 0.0000
# 3 1.2894 -3.9661 50.0734 0.0000 0.0000 0.0000
# 4 0.0000 0.0000 0.0000 -3.7649 0.0000 0.0000
# 5 0.0000 0.0000 0.0000 0.0000 10.8344 0.0000
# 6 0.0000 0.0000 0.0000 0.0000 0.0000 -6.6693
#
#
#
# Elastic Compliance Matrix: (Units=1/GPa)
#
#
# Indices 1 2 3 4 5 6 
#
# 1 0.031220 -0.000172 -0.000818 0.000000 0.000000 0.000000
# 2 -0.000172 0.005174 0.000414 0.000000 0.000000 0.000000
# 3 -0.000818 0.000414 0.020025 0.000000 0.000000 0.000000
# 4 0.000000 0.000000 0.000000 -0.265612 0.000000 0.000000
# 5 0.000000 0.000000 0.000000 0.000000 0.092298 0.000000
# 6 0.000000 0.000000 0.000000 0.000000 0.000000 -0.149942
#
#
# Mechanical properties :
#
#
# Convention : Reuss Voigt Hill
#
# Bulk Modulus (GPa) = 18.09358 30.26060 24.17709
# Shear Modulus (GPa) = -20.22136 18.57921 -0.82107
#
# Velocity S-wave (km/s) = -2.89641 2.77632 -0.58364
# Velocity P-wave (km/s) = 1.91811 4.77823 3.09453
#
# Compressibility (1/GPa) = 0.05526822
#
# Stress axis : x y z
#
# Youngs Moduli (GPa) = 32.03026 193.28102 49.93876
#
# Poissons Ratio (x) = 0.03324 0.04083
# Poissons Ratio (y) = 0.00551 -0.02069
# Poissons Ratio (z) = 0.02619 -0.08006
#
# Static dielectric constant tensor:
#      x y z
#    x 1.916780 0.000000 0.000000 
#    y 0.000000 1.975530 0.000000 
#    z 0.000000 0.000000 1.965890 
# 
# From -- ./inp_files/26390.got.cif
#   From: 2010.05.17/outbox.cif.g08.bks.cpg/sg53_14_cif.got.tgz:26390.got - 2010.06.03 12:45:16.
