data_PCOD9415076
_publ_section_title
;
Structure prediction by ZEFSAII (Michael W. Deem and Ramdas Pophale) SiO2 
 PCOD9415076
Probable space group: P M N A
;
_chemical_formula_sum "Si O2"
_cell_formula_units_Z 32
_cell_length_a 23.558824
_cell_length_b 8.125774
_cell_length_c 6.983810
_cell_angle_alpha 90.000000
_cell_angle_beta 90.000000
_cell_angle_gamma 90.000000
_cell_volume 1336.936445
_symmetry_space_group_name_H-M "P M N A"
_symmetry_group_IT_number 53
_symmetry_cell_setting 'orthorhombic'
loop_
_space_group_symop_operation_xyz
x,y,z
1/2-x,-y,1/2+z
x,-y,-z
1/2-x,y,1/2-z
-x,-y,-z
1/2+x,y,1/2-z
-x,y,z
1/2+x,-y,1/2+z
loop_
_atom_site_type_symbol
_atom_site_label
_atom_site_fract_x
_atom_site_fract_y
_atom_site_fract_z
Si Si1 0.000000 0.095106 0.754759
Si Si2 0.620804 0.014690 0.764212
Si Si3 0.873314 0.649234 0.711318
Si Si4 0.000000 0.713486 0.610420
Si Si5 0.184871 0.670123 0.293746
O O1 0.064240 0.095502 0.827848
O O2 0.000000 0.251046 0.614253
O O3 0.000000 0.902891 0.684971
O O4 0.669979 0.145119 0.732130
O O5 0.633121 0.829845 0.697036
O O6 0.610123 0.000000 0.000000
O O7 0.940806 0.634548 0.671106
O O8 0.851311 0.478854 0.795944
O O9 0.836136 0.667507 0.515522
O O10 0.250000 0.635669 0.250000
#
# Coordination Sequence:
#
# PCOD9415076 Si02
#       5
#     4   8   8   4   8
#     4   9  10  21  42  65  81  97 127 164 210 275
#     4   9  14  26  41  58  81 105 130 165 210 246
#     4   9  18  29  44  62  87 113 134 172 216 250
#     4   9  12  24  45  66  83 105 128 165 230 271
#     4  10  19  27  37  58  85 118 151 166 188 246
#
# _framework density 23.935320999999998
#
# number of rings (size 3 to 8) (size 9 to 14) (size 15 to 20)
#    0.000    2.750    7.500    0.000    0.000    4.000 
#    0.000    0.000    0.000    0.000    0.000    0.000 
#    0.000   36.000    0.000  130.125    0.000    0.000 
#
# Total GULP energy -178201.909886 kJ/mol
# GULP energy per Si atom -5568.809684 kJ/mol
# Density = 2.388084 g / cm^3
# Si number density = 23.935321 Si / 1000 Ang^3
#
#
#
# Elastic Constant Matrix: (Units=GPa)
#
#
# Indices 1 2 3 4 5 6 
#
# 1 201.5893 77.5424 13.9366 0.0000 0.0000 0.0000
# 2 77.5424 185.7085 -11.4698 0.0000 0.0000 0.0000
# 3 13.9366 -11.4698 77.6512 0.0000 0.0000 0.0000
# 4 0.0000 0.0000 0.0000 -9.5888 0.0000 0.0000
# 5 0.0000 0.0000 0.0000 0.0000 11.7347 0.0000
# 6 0.0000 0.0000 0.0000 0.0000 0.0000 51.1134
#
#
#
# Elastic Compliance Matrix: (Units=1/GPa)
#
#
# Indices 1 2 3 4 5 6 
#
# 1 0.006073 -0.002627 -0.001478 0.000000 0.000000 0.000000
# 2 -0.002627 0.006571 0.001442 0.000000 0.000000 0.000000
# 3 -0.001478 0.001442 0.013356 0.000000 0.000000 0.000000
# 4 0.000000 0.000000 0.000000 -0.104288 0.000000 0.000000
# 5 0.000000 0.000000 0.000000 0.000000 0.085217 0.000000
# 6 0.000000 0.000000 0.000000 0.000000 0.000000 0.019564
#
#
# Mechanical properties :
#
#
# Convention : Reuss Voigt Hill
#
# Bulk Modulus (GPa) = 48.36950 69.44082 58.90516
# Shear Modulus (GPa) = 129.16012 36.31451 82.73732
#
# Velocity S-wave (km/s) = 7.35386 3.89934 5.88575
# Velocity P-wave (km/s) = 9.61031 7.02481 8.41742
#
# Compressibility (1/GPa) = 0.02067418
#
# Stress axis : x y z
#
# Youngs Moduli (GPa) = 164.65416 152.18755 74.87049
#
# Poissons Ratio (x) = 0.39983 0.11067
# Poissons Ratio (y) = 0.43258 -0.10797
# Poissons Ratio (z) = 0.24337 -0.21947
#
# Static dielectric constant tensor:
#      x y z
#    x 1.864810 0.000000 0.000000 
#    y 0.000000 1.932390 0.000000 
#    z 0.000000 0.000000 2.137060 
# 
# From -- ./inp_files/16566.got.cif
#   From: 2010.05.17/outbox.cif.g08.bks.cpg/sg53_9_cif.got.tgz:16566.got - 2010.06.03 12:45:16.
