data_PCOD9415719
_publ_section_title
;
Structure prediction by ZEFSAII (Michael W. Deem and Ramdas Pophale) SiO2 
 PCOD9415719
Probable space group: P M N A
;
_chemical_formula_sum "Si O2"
_cell_formula_units_Z 64
_cell_length_a 9.675164
_cell_length_b 28.110076
_cell_length_c 12.216333
_cell_angle_alpha 90.000000
_cell_angle_beta 90.000000
_cell_angle_gamma 90.000000
_cell_volume 3322.471143
_symmetry_space_group_name_H-M "P M N A"
_symmetry_group_IT_number 53
_symmetry_cell_setting 'orthorhombic'
loop_
_space_group_symop_operation_xyz
x,y,z
1/2-x,-y,1/2+z
x,-y,-z
1/2-x,y,1/2-z
-x,-y,-z
1/2+x,y,1/2-z
-x,y,z
1/2+x,-y,1/2+z
loop_
_atom_site_type_symbol
_atom_site_label
_atom_site_fract_x
_atom_site_fract_y
_atom_site_fract_z
Si Si1 0.336996 0.990778 0.635611
Si Si2 0.661652 0.863648 0.144262
Si Si3 0.342994 0.112924 0.439701
Si Si4 0.653651 0.483448 0.336816
Si Si5 0.839678 0.653152 0.356246
Si Si6 0.843408 0.241812 0.556192
Si Si7 0.160784 0.781104 0.854524
Si Si8 0.842540 0.420870 0.946872
O O1 0.250000 0.005615 0.750000
O O2 0.500000 0.005536 0.647294
O O3 0.329571 0.933505 0.633918
O O4 0.302185 0.000000 0.500000
O O5 0.750000 0.876867 0.250000
O O6 0.500000 0.875844 0.153877
O O7 0.672197 0.806403 0.126189
O O8 0.732632 0.886470 0.037643
O O9 0.500000 0.113058 0.486505
O O10 0.327938 0.161885 0.373414
O O11 0.750000 0.459891 0.250000
O O12 0.500000 0.489410 0.293544
O O13 0.703850 0.536441 0.366790
O O14 0.649501 0.449847 0.441017
O O15 0.750000 0.641603 0.250000
O O16 0.831986 0.709463 0.377772
O O17 0.763338 0.622253 0.448308
O O18 0.000000 0.640225 0.345587
O O19 0.729483 0.241018 0.462125
O O20 0.000000 0.239630 0.509068
O O21 0.250000 0.767406 0.750000
O O22 0.000000 0.769077 0.843195
O O23 0.000000 0.405526 0.919482
#
# Coordination Sequence:
#
# PCOD9415719 Si02
#       8
#     8   8   8   8   8   8   8   8
#     4  10  22  40  61  86 118 155 195 239 287 343
#     4  10  19  32  52  77 107 143 181 225 276 328
#     4   9  19  35  54  79 109 141 182 229 274 325
#     4   9  18  33  53  75 101 131 164 206 253 298
#     4  11  22  35  53  76 102 133 167 205 248 298
#     4   9  20  36  51  72 103 137 175 214 255 309
#     4  10  19  32  54  79 103 133 170 216 265 311
#     4   9  19  35  52  74 103 133 167 206 248 298
#
# _framework density 19.26277
#
# number of rings (size 3 to 8) (size 9 to 14) (size 15 to 20)
#    0.000    2.375    0.000    3.000    0.000    5.250 
#    0.000    3.125    0.000    1.500    0.000    0.000 
#    0.000    0.000    0.000    0.000    0.000    0.000 
#
# Total GULP energy -356363.117082 kJ/mol
# GULP energy per Si atom -5568.173704 kJ/mol
# Density = 1.921893 g / cm^3
# Si number density = 19.262770 Si / 1000 Ang^3
#
#
#
# Elastic Constant Matrix: (Units=GPa)
#
#
# Indices 1 2 3 4 5 6 
#
# 1 116.3363 21.9612 59.0368 0.0000 0.0000 0.0000
# 2 21.9612 50.3811 -2.2328 0.0000 0.0000 0.0000
# 3 59.0368 -2.2328 73.0799 0.0000 0.0000 0.0000
# 4 0.0000 0.0000 0.0000 -0.0067 0.0000 0.0000
# 5 0.0000 0.0000 0.0000 0.0000 36.9402 0.0000
# 6 0.0000 0.0000 0.0000 0.0000 0.0000 17.2893
#
#
#
# Elastic Compliance Matrix: (Units=1/GPa)
#
#
# Indices 1 2 3 4 5 6 
#
# 1 0.017416 -0.008226 -0.014321 0.000000 0.000000 0.000000
# 2 -0.008226 0.023761 0.007371 0.000000 0.000000 0.000000
# 3 -0.014321 0.007371 0.025478 0.000000 0.000000 0.000000
# 4 0.000000 0.000000 0.000000********** 0.000000 0.000000
# 5 0.000000 0.000000 0.000000 0.000000 0.027071 0.000000
# 6 0.000000 0.000000 0.000000 0.000000 0.000000 0.057839
#
#
# Mechanical properties :
#
#
# Convention : Reuss Voigt Hill
#
# Bulk Modulus (GPa) = 27.54517 44.14751 35.84634
# Shear Modulus (GPa) = -0.03339 21.58003 10.77332
#
# Velocity S-wave (km/s) = -0.13179 3.35072 2.36748
# Velocity P-wave (km/s) = 3.78254 6.15939 5.11105
#
# Compressibility (1/GPa) = 0.03630401
#
# Stress axis : x y z
#
# Youngs Moduli (GPa) = 57.41879 42.08532 39.25015
#
# Poissons Ratio (x) = 0.34621 0.56209
# Poissons Ratio (y) = 0.47234 -0.28933
# Poissons Ratio (z) = 0.82227 -0.31023
#
# Static dielectric constant tensor:
#      x y z
#    x 1.672890 0.000000 0.000000 
#    y 0.000000 1.672790 0.000000 
#    z 0.000000 0.000000 1.490270 
# 
# From -- ./inp_files/14249.got.cif
#   From: 2010.05.17/outbox.cif.g08.bks.cpg/sg53_8_cif.got.tgz:14249.got - 2010.06.03 12:45:16.
