data_PCOD9415606
_publ_section_title
;
Structure prediction by ZEFSAII (Michael W. Deem and Ramdas Pophale) SiO2 
 PCOD9415606
Probable space group: P M N A
;
_chemical_formula_sum "Si O2"
_cell_formula_units_Z 48
_cell_length_a 8.817737
_cell_length_b 13.007726
_cell_length_c 25.695941
_cell_angle_alpha 90.000000
_cell_angle_beta 90.000000
_cell_angle_gamma 90.000000
_cell_volume 2947.291204
_symmetry_space_group_name_H-M "P M N A"
_symmetry_group_IT_number 53
_symmetry_cell_setting 'orthorhombic'
loop_
_space_group_symop_operation_xyz
x,y,z
1/2-x,-y,1/2+z
x,-y,-z
1/2-x,y,1/2-z
-x,-y,-z
1/2+x,y,1/2-z
-x,y,z
1/2+x,-y,1/2+z
loop_
_atom_site_type_symbol
_atom_site_label
_atom_site_fract_x
_atom_site_fract_y
_atom_site_fract_z
Si Si1 0.818186 0.519275 0.308177
Si Si2 0.180684 0.888246 0.387208
Si Si3 0.317653 0.290713 0.192267
Si Si4 0.326029 0.124501 0.503912
Si Si5 0.682634 0.870804 0.894653
Si Si6 0.819247 0.271032 0.808009
O O1 0.750000 0.516150 0.250000
O O2 0.782128 0.405460 0.329219
O O3 0.744224 0.621508 0.331546
O O4 0.000000 0.531459 0.306474
O O5 0.231402 0.850819 0.444476
O O6 0.264870 0.822219 0.343769
O O7 0.000000 0.878126 0.381261
O O8 0.220163 0.009627 0.383662
O O9 0.250000 0.278643 0.250000
O O10 0.500000 0.285284 0.197179
O O11 0.267842 0.203072 0.152184
O O12 0.500000 0.157855 0.509623
O O13 0.254907 0.160855 0.449669
O O14 0.324588 0.000000 0.500000
O O15 0.500000 0.864889 0.899381
O O16 0.750000 0.260072 0.750000
O O17 0.000000 0.275533 0.804294
#
# Coordination Sequence:
#
# PCOD9415606 Si02
#       6
#     8   8   8   8   8   8
#     4   9  16  29  48  68  91 121 158 195 231 274
#     4  10  19  32  50  71  97 128 160 194 235 282
#     4   9  18  31  48  71  98 126 157 193 233 279
#     4   9  17  30  48  70  94 123 161 199 233 274
#     4   9  18  32  49  71  98 128 159 192 234 283
#     4  11  21  33  49  70  97 126 159 197 237 281
#
# _framework density 16.286142000000002
#
# number of rings (size 3 to 8) (size 9 to 14) (size 15 to 20)
#    0.000    2.500    0.000    4.000    0.000    4.667 
#    0.000    1.667    0.000    1.000    0.000    7.000 
#    0.000    0.000    0.000    0.000    0.000    0.000 
#
# Total GULP energy -267431.417310 kJ/mol
# GULP energy per Si atom -5571.487861 kJ/mol
# Density = 1.624907 g / cm^3
# Si number density = 16.286142 Si / 1000 Ang^3
#
#
#
# Elastic Constant Matrix: (Units=GPa)
#
#
# Indices 1 2 3 4 5 6 
#
# 1 76.9214 48.6360 40.7260 0.0000 0.0000 0.0000
# 2 48.6360 93.3852 57.9175 0.0000 0.0000 0.0000
# 3 40.7260 57.9175 89.7304 0.0000 0.0000 0.0000
# 4 0.0000 0.0000 0.0000 -3.3208 0.0000 0.0000
# 5 0.0000 0.0000 0.0000 0.0000 27.0182 0.0000
# 6 0.0000 0.0000 0.0000 0.0000 0.0000 22.2805
#
#
#
# Elastic Compliance Matrix: (Units=1/GPa)
#
#
# Indices 1 2 3 4 5 6 
#
# 1 0.020195 -0.008059 -0.003964 0.000000 0.000000 0.000000
# 2 -0.008059 0.021073 -0.009944 0.000000 0.000000 0.000000
# 3 -0.003964 -0.009944 0.019362 0.000000 0.000000 0.000000
# 4 0.000000 0.000000 0.000000 -0.301128 0.000000 0.000000
# 5 0.000000 0.000000 0.000000 0.000000 0.037012 0.000000
# 6 0.000000 0.000000 0.000000 0.000000 0.000000 0.044882
#
#
# Mechanical properties :
#
#
# Convention : Reuss Voigt Hill
#
# Bulk Modulus (GPa) = 59.89609 61.62180 60.75894
# Shear Modulus (GPa) = -45.82740 16.71274 -14.55733
#
# Velocity S-wave (km/s) = -5.31037 3.20690 -2.99297
# Velocity P-wave (km/s) = 0.86186 7.18550 5.04423
#
# Compressibility (1/GPa) = 0.01669558
#
# Stress axis : x y z
#
# Youngs Moduli (GPa) = 49.51813 47.45447 51.64765
#
# Poissons Ratio (x) = 0.38244 0.20472
# Poissons Ratio (y) = 0.39908 0.51358
# Poissons Ratio (z) = 0.19628 0.47188
#
# Static dielectric constant tensor:
#      x y z
#    x 1.546510 0.000000 0.000000 
#    y 0.000000 1.573600 0.000000 
#    z 0.000000 0.000000 1.528000 
# 
# From -- ./inp_files/33911.got.cif
#   From: 2010.05.17/outbox.cif.g08.bks.cpg/sg53_17_cif.got.tgz:33911.got - 2010.06.03 12:45:16.
