data_PCOD9415042
_publ_section_title
;
Structure prediction by ZEFSAII (Michael W. Deem and Ramdas Pophale) SiO2 
 PCOD9415042
Probable space group: P M N A
;
_chemical_formula_sum "Si O2"
_cell_formula_units_Z 54
_cell_length_a 15.162228
_cell_length_b 27.627994
_cell_length_c 5.355238
_cell_angle_alpha 90.000000
_cell_angle_beta 90.000000
_cell_angle_gamma 90.000000
_cell_volume 2243.319610
_symmetry_space_group_name_H-M "P M N A"
_symmetry_group_IT_number 53
_symmetry_cell_setting 'orthorhombic'
loop_
_space_group_symop_operation_xyz
x,y,z
1/2-x,-y,1/2+z
x,-y,-z
1/2-x,y,1/2-z
-x,-y,-z
1/2+x,y,1/2-z
-x,y,z
1/2+x,-y,1/2+z
loop_
_atom_site_type_symbol
_atom_site_label
_atom_site_fract_x
_atom_site_fract_y
_atom_site_fract_z
Si Si1 0.165446 0.289473 0.881201
Si Si2 0.250000 0.365975 0.250000
Si Si3 0.644545 0.847378 0.204288
Si Si4 0.500000 0.000000 0.500000
Si Si5 0.356963 0.200668 0.293801
Si Si6 0.394664 0.476573 0.743005
Si Si7 0.902352 0.624292 0.420411
Si Si8 0.645857 0.043741 0.811489
O O1 0.250000 0.263840 0.750000
O O2 0.109766 0.321172 0.685262
O O3 0.211025 0.331059 0.040340
O O4 0.122572 0.252170 0.074996
O O5 0.167967 0.390577 0.373896
O O6 0.750000 0.844319 0.250000
O O7 0.612412 0.836067 0.486103
O O8 0.630656 0.901550 0.099403
O O9 0.610770 0.811491 0.986053
O O10 0.578872 0.962410 0.415770
O O11 0.250000 0.198826 0.250000
O O12 0.353581 0.500000 0.500000
O O13 0.500000 0.486813 0.744011
O O14 0.388366 0.418397 0.722302
O O15 0.361464 0.500000 0.000000
O O16 0.000000 0.620048 0.524127
O O17 0.750000 0.038417 0.750000
O O18 0.621132 0.000000 0.000000
#
# Coordination Sequence:
#
# PCOD9415042 Si02
#       8
#     8   4   8   2   8   8   8   8
#     4  10  20  36  62  93 133 175 232 294 346 422
#     4  10  22  38  66  98 134 174 238 288 346 416
#     4   9  21  34  63  97 132 173 235 287 346 416
#     4  12  26  44  76 100 144 192 242 284 374 422
#     4  10  18  35  61  96 128 177 231 284 349 417
#     4   9  19  37  63  94 128 172 226 280 345 417
#     4  10  23  40  66  99 137 185 235 292 354 423
#     4  11  24  44  71 105 141 186 240 298 349 424
#
# _framework density 24.071470999999999
#
# number of rings (size 3 to 8) (size 9 to 14) (size 15 to 20)
#    0.000    2.074    1.481    1.556    6.222    1.185 
#    0.000    0.000    8.148    0.000    0.000    0.000 
#    0.000    0.593    0.000    0.000    0.000    0.000 
#
# Total GULP energy -300620.959549 kJ/mol
# GULP energy per Si atom -5567.054806 kJ/mol
# Density = 2.401668 g / cm^3
# Si number density = 24.071471 Si / 1000 Ang^3
#
#
#
# Elastic Constant Matrix: (Units=GPa)
#
#
# Indices 1 2 3 4 5 6 
#
# 1 103.5652 26.3908 19.9287 0.0000 0.0000 0.0000
# 2 26.3908 114.1408 43.9002 0.0000 0.0000 0.0000
# 3 19.9287 43.9002 128.2397 0.0000 0.0000 0.0000
# 4 0.0000 0.0000 0.0000 -973.3130 0.0000 0.0000
# 5 0.0000 0.0000 0.0000 0.0000 -1.4083 0.0000
# 6 0.0000 0.0000 0.0000 0.0000 0.0000 9.7434
#
#
#
# Elastic Compliance Matrix: (Units=1/GPa)
#
#
# Indices 1 2 3 4 5 6 
#
# 1 0.010351 -0.002044 -0.000909 0.000000 0.000000 0.000000
# 2 -0.002044 0.010493 -0.003274 0.000000 0.000000 0.000000
# 3 -0.000909 -0.003274 0.009060 0.000000 0.000000 0.000000
# 4 0.000000 0.000000 0.000000 -0.001027 0.000000 0.000000
# 5 0.000000 0.000000 0.000000 0.000000 -0.710075 0.000000
# 6 0.000000 0.000000 0.000000 0.000000 0.000000 0.102634
#
#
# Mechanical properties :
#
#
# Convention : Reuss Voigt Hill
#
# Bulk Modulus (GPa) = 57.30613 58.48725 57.89669
# Shear Modulus (GPa) = -8.92391 -175.94719 -92.43555
#
# Velocity S-wave (km/s) = -1.92751 -8.55876 -6.20353
# Velocity P-wave (km/s) = 4.34794 8.56269 5.21609
#
# Compressibility (1/GPa) = 0.01745014
#
# Stress axis : x y z
#
# Youngs Moduli (GPa) = 96.60462 95.30094 110.37395
#
# Poissons Ratio (x) = 0.19477 0.10033
# Poissons Ratio (y) = 0.19744 0.36142
# Poissons Ratio (z) = 0.08781 0.31206
#
# Static dielectric constant tensor:
#      x y z
#    x 1.954830 0.000000 0.000000 
#    y 0.000000 2.037450 0.000000 
#    z 0.000000 0.000000 1.864220 
# 
# From -- ./inp_files/1497.got.cif
#   From: 2010.05.17/outbox.cif.g08.bks.cpg/sg53_1_cif.got.tgz:1497.got - 2010.06.03 12:45:16.
