data_PCOD9415619
_publ_section_title
;
Structure prediction by ZEFSAII (Michael W. Deem and Ramdas Pophale) SiO2 
 PCOD9415619
Probable space group: P M N A
;
_chemical_formula_sum "Si O2"
_cell_formula_units_Z 48
_cell_length_a 8.820594
_cell_length_b 12.006000
_cell_length_c 26.374029
_cell_angle_alpha 90.000000
_cell_angle_beta 90.000000
_cell_angle_gamma 90.000000
_cell_volume 2793.011031
_symmetry_space_group_name_H-M "P M N A"
_symmetry_group_IT_number 53
_symmetry_cell_setting 'orthorhombic'
loop_
_space_group_symop_operation_xyz
x,y,z
1/2-x,-y,1/2+z
x,-y,-z
1/2-x,y,1/2-z
-x,-y,-z
1/2+x,y,1/2-z
-x,y,z
1/2+x,-y,1/2+z
loop_
_atom_site_type_symbol
_atom_site_label
_atom_site_fract_x
_atom_site_fract_y
_atom_site_fract_z
Si Si1 0.681768 0.954243 0.443523
Si Si2 0.319401 0.672790 0.805256
Si Si3 0.323726 0.657062 0.532567
Si Si4 0.681110 0.839006 0.895627
Si Si5 0.178784 0.709938 0.430686
Si Si6 0.177403 0.485523 0.875124
O O1 0.500000 0.958111 0.439368
O O2 0.740295 0.829391 0.435123
O O3 0.722553 0.000000 0.500000
O O4 0.759051 0.036729 0.403064
O O5 0.250000 0.687990 0.750000
O O6 0.500000 0.661395 0.802013
O O7 0.286846 0.777653 0.842371
O O8 0.251936 0.563034 0.832377
O O9 0.500000 0.665921 0.516896
O O10 0.270050 0.766414 0.562599
O O11 0.220426 0.648511 0.483419
O O12 0.310722 0.558289 0.573111
O O13 0.500000 0.833238 0.904547
O O14 0.242163 0.631281 0.386228
O O15 0.000000 0.724616 0.426120
O O16 0.000000 0.469394 0.864464
#
# Coordination Sequence:
#
# PCOD9415619 Si02
#       6
#     8   8   8   8   8   8
#     4  11  22  35  53  76 108 150 191 225 266 325
#     4  10  21  38  61  87 111 138 177 225 279 330
#     4  10  19  32  50  74 106 145 183 220 264 318
#     4  10  20  34  54  81 110 141 182 229 272 318
#     4  12  23  33  50  75 109 148 185 223 267 321
#     4  10  21  36  54  77 108 142 180 225 273 324
#
# _framework density 17.185752999999998
#
# number of rings (size 3 to 8) (size 9 to 14) (size 15 to 20)
#    0.000    1.500    1.667    4.500    0.000    6.667 
#    0.000    0.000    0.000    1.000    0.000    4.667 
#    0.000    0.000    0.000    0.000    0.000    0.000 
#
# Total GULP energy -268093.387364 kJ/mol
# GULP energy per Si atom -5585.278903 kJ/mol
# Density = 1.714664 g / cm^3
# Si number density = 17.185753 Si / 1000 Ang^3
#
#
#
# Elastic Constant Matrix: (Units=GPa)
#
#
# Indices 1 2 3 4 5 6 
#
# 1 72.9966 42.6528 32.2542 0.0000 0.0000 0.0000
# 2 42.6528 90.0418 34.5148 0.0000 0.0000 0.0000
# 3 32.2542 34.5148 78.3957 0.0000 0.0000 0.0000
# 4 0.0000 0.0000 0.0000 12.1831 0.0000 0.0000
# 5 0.0000 0.0000 0.0000 0.0000 25.0580 0.0000
# 6 0.0000 0.0000 0.0000 0.0000 0.0000 27.4361
#
#
#
# Elastic Compliance Matrix: (Units=1/GPa)
#
#
# Indices 1 2 3 4 5 6 
#
# 1 0.020446 -0.007772 -0.004990 0.000000 0.000000 0.000000
# 2 -0.007772 0.016315 -0.003985 0.000000 0.000000 0.000000
# 3 -0.004990 -0.003985 0.016563 0.000000 0.000000 0.000000
# 4 0.000000 0.000000 0.000000 0.082081 0.000000 0.000000
# 5 0.000000 0.000000 0.000000 0.000000 0.039907 0.000000
# 6 0.000000 0.000000 0.000000 0.000000 0.000000 0.036448
#
#
# Mechanical properties :
#
#
# Convention : Reuss Voigt Hill
#
# Bulk Modulus (GPa) = 50.43099 51.14198 50.78648
# Shear Modulus (GPa) = 19.85183 21.73626 20.79405
#
# Velocity S-wave (km/s) = 3.40241 3.56024 3.48222
# Velocity P-wave (km/s) = 6.69653 6.83545 6.76635
#
# Compressibility (1/GPa) = 0.01982908
#
# Stress axis : x y z
#
# Youngs Moduli (GPa) = 48.91023 61.29195 60.37388
#
# Poissons Ratio (x) = 0.47638 0.30127
# Poissons Ratio (y) = 0.38015 0.24061
# Poissons Ratio (z) = 0.24406 0.24427
#
# Static dielectric constant tensor:
#      x y z
#    x 1.567850 0.000000 0.000000 
#    y 0.000000 1.602300 0.000000 
#    z 0.000000 0.000000 1.570020 
# 
# From -- ./inp_files/33851.got.cif
#   From: 2010.05.17/outbox.cif.g08.bks.cpg/sg53_17_cif.got.tgz:33851.got - 2010.06.03 12:45:16.
