data_PCOD9415326
_publ_section_title
;
Structure prediction by ZEFSAII (Michael W. Deem and Ramdas Pophale) SiO2 
 PCOD9415326
Probable space group: P M N A
;
_chemical_formula_sum "Si O2"
_cell_formula_units_Z 64
_cell_length_a 8.661292
_cell_length_b 32.710356
_cell_length_c 14.291095
_cell_angle_alpha 90.000000
_cell_angle_beta 90.000000
_cell_angle_gamma 90.000000
_cell_volume 4048.866499
_symmetry_space_group_name_H-M "P M N A"
_symmetry_group_IT_number 53
_symmetry_cell_setting 'orthorhombic'
loop_
_space_group_symop_operation_xyz
x,y,z
1/2-x,-y,1/2+z
x,-y,-z
1/2-x,y,1/2-z
-x,-y,-z
1/2+x,y,1/2-z
-x,y,z
1/2+x,-y,1/2+z
loop_
_atom_site_type_symbol
_atom_site_label
_atom_site_fract_x
_atom_site_fract_y
_atom_site_fract_z
Si Si1 0.187887 0.937170 0.539968
Si Si2 0.687193 0.143866 0.144215
Si Si3 0.814823 0.597969 0.955176
Si Si4 0.180698 0.428694 0.653237
Si Si5 0.185858 0.766670 0.644663
Si Si6 0.314365 0.322730 0.144328
Si Si7 0.813664 0.980654 0.352925
Si Si8 0.675491 0.487960 0.390344
O O1 0.240462 0.893880 0.580607
O O2 0.236103 0.949212 0.434754
O O3 0.000000 0.936852 0.539098
O O4 0.233222 0.974419 0.608686
O O5 0.750000 0.139552 0.250000
O O6 0.500000 0.142557 0.148750
O O7 0.733135 0.188911 0.105817
O O8 0.750418 0.639876 0.914928
O O9 0.767290 0.558687 0.891563
O O10 0.000000 0.597883 0.954524
O O11 0.758291 0.589833 0.060602
O O12 0.250000 0.412380 0.750000
O O13 0.216312 0.477337 0.651008
O O14 0.000000 0.421563 0.649426
O O15 0.250000 0.766675 0.750000
O O16 0.231860 0.722327 0.604960
O O17 0.000000 0.766634 0.647609
O O18 0.250000 0.325690 0.250000
O O19 0.500000 0.324982 0.147312
O O20 0.750000 0.972774 0.250000
O O21 0.000000 0.980026 0.349142
O O22 0.664878 0.500000 0.500000
O O23 0.500000 0.490764 0.352296
#
# Coordination Sequence:
#
# PCOD9415326 Si02
#       8
#     8   8   8   8   8   8   8   8
#     4   8  15  26  40  57  81 112 144 174 213 262
#     4   9  15  25  41  61  84 111 140 173 212 255
#     4  10  20  34  50  69  93 120 151 186 221 259
#     4  11  21  33  50  70  93 121 152 185 221 260
#     4   8  15  26  41  61  85 110 139 173 212 259
#     4  10  19  31  46  66  91 118 146 178 218 266
#     4   9  16  27  40  56  80 112 145 178 214 253
#     4   8  16  31  47  63  86 113 142 177 214 251
#
# _framework density 15.806893000000001
#
# number of rings (size 3 to 8) (size 9 to 14) (size 15 to 20)
#    0.000    2.875    0.000    3.750    0.000    3.750 
#    0.000    1.875    0.000    0.000    0.000    0.875 
#    0.000    2.000    0.000    0.000    0.000    0.000 
#
# Total GULP energy -356320.403860 kJ/mol
# GULP energy per Si atom -5567.506310 kJ/mol
# Density = 1.577092 g / cm^3
# Si number density = 15.806893 Si / 1000 Ang^3
#
#
#
# Elastic Constant Matrix: (Units=GPa)
#
#
# Indices 1 2 3 4 5 6 
#
# 1 27.6880 24.0654 18.0476 0.0000 0.0000 0.0000
# 2 24.0654 157.9954 57.7472 0.0000 0.0000 0.0000
# 3 18.0476 57.7472 82.0908 0.0000 0.0000 0.0000
# 4 0.0000 0.0000 0.0000 21.1483 0.0000 0.0000
# 5 0.0000 0.0000 0.0000 0.0000 23.0912 0.0000
# 6 0.0000 0.0000 0.0000 0.0000 0.0000 15.5634
#
#
#
# Elastic Compliance Matrix: (Units=1/GPa)
#
#
# Indices 1 2 3 4 5 6 
#
# 1 0.044211 -0.004283 -0.006707 0.000000 0.000000 0.000000
# 2 -0.004283 0.008935 -0.005344 0.000000 0.000000 0.000000
# 3 -0.006707 -0.005344 0.017415 0.000000 0.000000 0.000000
# 4 0.000000 0.000000 0.000000 0.047285 0.000000 0.000000
# 5 0.000000 0.000000 0.000000 0.000000 0.043307 0.000000
# 6 0.000000 0.000000 0.000000 0.000000 0.000000 0.064253
#
#
# Mechanical properties :
#
#
# Convention : Reuss Voigt Hill
#
# Bulk Modulus (GPa) = 26.38933 51.94383 39.16658
# Shear Modulus (GPa) = 18.47037 23.15485 20.81261
#
# Velocity S-wave (km/s) = 3.42204 3.83150 3.63254
# Velocity P-wave (km/s) = 5.68726 7.24615 6.51351
#
# Compressibility (1/GPa) = 0.03789410
#
# Stress axis : x y z
#
# Youngs Moduli (GPa) = 22.61884 111.92304 57.42117
#
# Poissons Ratio (x) = 0.47933 0.38513
# Poissons Ratio (y) = 0.09687 0.30684
# Poissons Ratio (z) = 0.15171 0.59808
#
# Static dielectric constant tensor:
#      x y z
#    x 1.531800 0.000000 0.000000 
#    y 0.000000 1.568600 0.000000 
#    z 0.000000 0.000000 1.513380 
# 
# From -- ./inp_files/21069.got.cif
#   From: 2010.05.17/outbox.cif.g08.bks.cpg/sg53_11_cif.got.tgz:21069.got - 2010.06.03 12:45:16.
