data_PCOD9415994
_publ_section_title
;
Structure prediction by ZEFSAII (Michael W. Deem and Ramdas Pophale) SiO2 
 PCOD9415994
Probable space group: P M N A
;
_chemical_formula_sum "Si O2"
_cell_formula_units_Z 64
_cell_length_a 8.558616
_cell_length_b 21.513866
_cell_length_c 19.229433
_cell_angle_alpha 90.000000
_cell_angle_beta 90.000000
_cell_angle_gamma 90.000000
_cell_volume 3540.694688
_symmetry_space_group_name_H-M "P M N A"
_symmetry_group_IT_number 53
_symmetry_cell_setting 'orthorhombic'
loop_
_space_group_symop_operation_xyz
x,y,z
1/2-x,-y,1/2+z
x,-y,-z
1/2-x,y,1/2-z
-x,-y,-z
1/2+x,y,1/2-z
-x,y,z
1/2+x,-y,1/2+z
loop_
_atom_site_type_symbol
_atom_site_label
_atom_site_fract_x
_atom_site_fract_y
_atom_site_fract_z
Si Si1 0.810239 0.192599 0.532908
Si Si2 0.311268 0.498545 0.919091
Si Si3 0.312644 0.747499 0.175233
Si Si4 0.689234 0.249536 0.111170
Si Si5 0.814046 0.878131 0.825752
Si Si6 0.189157 0.063932 0.463732
Si Si7 0.685402 0.391681 0.676256
Si Si8 0.688800 0.382417 0.172038
O O1 0.755461 0.214046 0.608424
O O2 0.764454 0.238082 0.469344
O O3 0.762675 0.123518 0.509940
O O4 0.000000 0.193273 0.534945
O O5 0.500000 0.493603 0.914202
O O6 0.236432 0.439207 0.882581
O O7 0.263340 0.560912 0.877985
O O8 0.269357 0.500000 0.000000
O O9 0.250000 0.769225 0.250000
O O10 0.500000 0.749066 0.177214
O O11 0.258936 0.676298 0.165894
O O12 0.500000 0.246970 0.114221
O O13 0.753251 0.190921 0.154104
O O14 0.740483 0.315640 0.141561
O O15 0.750000 0.895060 0.750000
O O16 0.754239 0.923409 0.886862
O O17 0.000000 0.877581 0.824760
O O18 0.000000 0.935760 0.540694
O O19 0.238203 0.000000 0.500000
O O20 0.750000 0.415965 0.750000
O O21 0.500000 0.385688 0.680343
O O22 0.750000 0.390995 0.250000
O O23 0.500000 0.381798 0.173762
#
# Coordination Sequence:
#
# PCOD9415994 Si02
#       8
#     8   8   8   8   8   8   8   8
#     4   8  16  31  55  81 106 139 176 217 262 315
#     4  10  22  38  57  78 102 137 181 222 268 325
#     4  10  19  33  55  79 106 138 177 222 271 322
#     4   9  18  34  55  80 107 136 178 222 268 321
#     4  11  21  34  54  81 113 147 185 225 268 316
#     4   9  18  36  60  83 110 146 186 224 267 321
#     4  11  22  37  56  77 103 136 178 224 273 323
#     4  10  21  35  54  78 104 136 172 216 266 323
#
# _framework density 18.075548000000001
#
# number of rings (size 3 to 8) (size 9 to 14) (size 15 to 20)
#    0.000    2.250    0.000    4.875    1.750    3.500 
#    0.000    5.625    0.000    1.500    0.000    0.000 
#    0.000    0.000    0.000    0.000    0.000    0.000 
#
# Total GULP energy -357237.657651 kJ/mol
# GULP energy per Si atom -5581.838401 kJ/mol
# Density = 1.803441 g / cm^3
# Si number density = 18.075548 Si / 1000 Ang^3
#
#
#
# Elastic Constant Matrix: (Units=GPa)
#
#
# Indices 1 2 3 4 5 6 
#
# 1 41.2064 24.6541 42.5773 0.0000 0.0000 0.0000
# 2 24.6541 86.1607 90.7154 0.0000 0.0000 0.0000
# 3 42.5773 90.7154 191.4800 0.0000 0.0000 0.0000
# 4 0.0000 0.0000 0.0000 25.6811 0.0000 0.0000
# 5 0.0000 0.0000 0.0000 0.0000 29.8760 0.0000
# 6 0.0000 0.0000 0.0000 0.0000 0.0000 26.6006
#
#
#
# Elastic Compliance Matrix: (Units=1/GPa)
#
#
# Indices 1 2 3 4 5 6 
#
# 1 0.031976 -0.003319 -0.005538 0.000000 0.000000 0.000000
# 2 -0.003319 0.023502 -0.010396 0.000000 0.000000 0.000000
# 3 -0.005538 -0.010396 0.011379 0.000000 0.000000 0.000000
# 4 0.000000 0.000000 0.000000 0.038939 0.000000 0.000000
# 5 0.000000 0.000000 0.000000 0.000000 0.033472 0.000000
# 6 0.000000 0.000000 0.000000 0.000000 0.000000 0.037593
#
#
# Mechanical properties :
#
#
# Convention : Reuss Voigt Hill
#
# Bulk Modulus (GPa) = 35.27253 70.52675 52.89964
# Shear Modulus (GPa) = 22.24037 27.15822 24.69929
#
# Velocity S-wave (km/s) = 3.51153 3.88039 3.70056
# Velocity P-wave (km/s) = 5.99978 7.69279 6.89842
#
# Compressibility (1/GPa) = 0.02835067
#
# Stress axis : x y z
#
# Youngs Moduli (GPa) = 31.27363 42.55029 87.88104
#
# Poissons Ratio (x) = 0.14124 0.48665
# Poissons Ratio (y) = 0.10381 0.91361
# Poissons Ratio (z) = 0.17318 0.44235
#
# Static dielectric constant tensor:
#      x y z
#    x 1.617730 0.000000 0.000000 
#    y 0.000000 1.600480 0.000000 
#    z 0.000000 0.000000 1.633860 
# 
# From -- ./inp_files/26934.got.cif
#   From: 2010.05.17/outbox.cif.g08.bks.cpg/sg53_14_cif.got.tgz:26934.got - 2010.06.03 12:45:16.
