data_PCOD9415991
_publ_section_title
;
Structure prediction by ZEFSAII (Michael W. Deem and Ramdas Pophale) SiO2 
 PCOD9415991
Probable space group: P M N A
;
_chemical_formula_sum "Si O2"
_cell_formula_units_Z 64
_cell_length_a 7.946419
_cell_length_b 11.090881
_cell_length_c 35.172149
_cell_angle_alpha 90.000000
_cell_angle_beta 90.000000
_cell_angle_gamma 90.000000
_cell_volume 3099.819534
_symmetry_space_group_name_H-M "P M N A"
_symmetry_group_IT_number 53
_symmetry_cell_setting 'orthorhombic'
loop_
_space_group_symop_operation_xyz
x,y,z
1/2-x,-y,1/2+z
x,-y,-z
1/2-x,y,1/2-z
-x,-y,-z
1/2+x,y,1/2-z
-x,y,z
1/2+x,-y,1/2+z
loop_
_atom_site_type_symbol
_atom_site_label
_atom_site_fract_x
_atom_site_fract_y
_atom_site_fract_z
Si Si1 0.694843 0.288162 0.439713
Si Si2 0.295050 0.315256 0.867627
Si Si3 0.299047 0.794663 0.482732
Si Si4 0.303204 0.165722 0.131579
Si Si5 0.796508 0.072884 0.590187
Si Si6 0.202579 0.436354 0.708080
Si Si7 0.300988 0.548168 0.058843
Si Si8 0.296648 0.713636 0.792337
O O1 0.500000 0.260044 0.432943
O O2 0.763571 0.204208 0.473792
O O3 0.788356 0.269952 0.400006
O O4 0.710849 0.426228 0.453188
O O5 0.500000 0.310565 0.867196
O O6 0.238749 0.187742 0.884729
O O7 0.235215 0.352775 0.826105
O O8 0.249565 0.417471 0.898198
O O9 0.500000 0.787853 0.484819
O O10 0.254188 0.899780 0.453240
O O11 0.234207 0.669493 0.464544
O O12 0.500000 0.140167 0.138270
O O13 0.232347 0.207918 0.172110
O O14 0.232006 0.048088 0.110234
O O15 0.000000 0.071155 0.590301
O O16 0.250000 0.393420 0.750000
O O17 0.263502 0.574758 0.703928
O O18 0.000000 0.439857 0.705660
O O19 0.500000 0.524835 0.057205
O O20 0.250000 0.756466 0.750000
O O21 0.500000 0.710882 0.794579
#
# Coordination Sequence:
#
# PCOD9415991 Si02
#       8
#     8   8   8   8   8   8   8   8
#     4  11  23  35  50  76 109 141 172 212 266 321
#     4   8  15  30  51  72  96 127 162 204 255 302
#     4  10  21  36  52  74 107 141 171 211 266 321
#     4  10  21  37  56  77 102 135 181 228 262 302
#     4   9  19  36  56  75  96 132 181 224 260 303
#     4   9  16  28  47  71 100 129 157 195 248 309
#     4  10  19  33  55  79 102 133 175 218 261 313
#     4   9  18  33  53  77 104 134 167 209 263 316
#
# _framework density 20.646360999999999
#
# number of rings (size 3 to 8) (size 9 to 14) (size 15 to 20)
#    0.000    2.500    0.000    3.000    0.000    7.000 
#    0.000    8.750    0.000    0.000    0.000    0.000 
#    0.000    0.000    0.000    0.000    0.000    0.000 
#
# Total GULP energy -357108.428354 kJ/mol
# GULP energy per Si atom -5579.819193 kJ/mol
# Density = 2.059937 g / cm^3
# Si number density = 20.646361 Si / 1000 Ang^3
#
#
#
# Elastic Constant Matrix: (Units=GPa)
#
#
# Indices 1 2 3 4 5 6 
#
# 1 23.7837 -2.6518 1.5082 0.0000 0.0000 0.0000
# 2 -2.6518 45.2794 5.4902 0.0000 0.0000 0.0000
# 3 1.5082 5.4902 109.6118 0.0000 0.0000 0.0000
# 4 0.0000 0.0000 0.0000 20.9670 0.0000 0.0000
# 5 0.0000 0.0000 0.0000 0.0000 21.8915 0.0000
# 6 0.0000 0.0000 0.0000 0.0000 0.0000 12.7946
#
#
#
# Elastic Compliance Matrix: (Units=1/GPa)
#
#
# Indices 1 2 3 4 5 6 
#
# 1 0.042377 0.002568 -0.000712 0.000000 0.000000 0.000000
# 2 0.002568 0.022376 -0.001156 0.000000 0.000000 0.000000
# 3 -0.000712 -0.001156 0.009191 0.000000 0.000000 0.000000
# 4 0.000000 0.000000 0.000000 0.047694 0.000000 0.000000
# 5 0.000000 0.000000 0.000000 0.000000 0.045680 0.000000
# 6 0.000000 0.000000 0.000000 0.000000 0.000000 0.078158
#
#
# Mechanical properties :
#
#
# Convention : Reuss Voigt Hill
#
# Bulk Modulus (GPa) = 13.27240 20.81867 17.04553
# Shear Modulus (GPa) = 18.57427 22.75251 20.66339
#
# Velocity S-wave (km/s) = 3.00265 3.32326 3.16701
# Velocity P-wave (km/s) = 4.29693 4.98304 4.65265
#
# Compressibility (1/GPa) = 0.07534433
#
# Stress axis : x y z
#
# Youngs Moduli (GPa) = 23.59763 44.69136 108.80437
#
# Poissons Ratio (x) = -0.11477 0.07744
# Poissons Ratio (y) = -0.06060 0.12579
# Poissons Ratio (z) = 0.01679 0.05167
#
# Static dielectric constant tensor:
#      x y z
#    x 1.739420 0.000000 0.000000 
#    y 0.000000 1.746310 0.000000 
#    z 0.000000 0.000000 1.749960 
# 
# From -- ./inp_files/38158.got.cif
#   From: 2010.05.17/outbox.cif.g08.bks.cpg/sg53_20_cif.got.tgz:38158.got - 2010.06.03 12:45:16.
