data_PCOD9415121
_publ_section_title
;
Structure prediction by ZEFSAII (Michael W. Deem and Ramdas Pophale) SiO2 
 PCOD9415121
Probable space group: P M N A
;
_chemical_formula_sum "Si O2"
_cell_formula_units_Z 56
_cell_length_a 9.598932
_cell_length_b 16.350715
_cell_length_c 21.566708
_cell_angle_alpha 90.000000
_cell_angle_beta 90.000000
_cell_angle_gamma 90.000000
_cell_volume 3384.881912
_symmetry_space_group_name_H-M "P M N A"
_symmetry_group_IT_number 53
_symmetry_cell_setting 'orthorhombic'
loop_
_space_group_symop_operation_xyz
x,y,z
1/2-x,-y,1/2+z
x,-y,-z
1/2-x,y,1/2-z
-x,-y,-z
1/2+x,y,1/2-z
-x,y,z
1/2+x,-y,1/2+z
loop_
_atom_site_type_symbol
_atom_site_label
_atom_site_fract_x
_atom_site_fract_y
_atom_site_fract_z
Si Si1 0.659804 0.981806 0.190771
Si Si2 0.839569 0.821187 0.691176
Si Si3 0.839507 0.569112 0.586885
Si Si4 0.841533 0.236972 0.961428
Si Si5 0.157232 0.717422 0.894240
Si Si6 0.832061 0.070982 0.550678
Si Si7 0.839739 0.386835 0.560399
O O1 0.750000 0.954382 0.250000
O O2 0.500000 0.955702 0.200068
O O3 0.702211 0.955106 0.121504
O O4 0.662650 0.080589 0.190143
O O5 0.750000 0.793102 0.750000
O O6 0.759386 0.785478 0.632795
O O7 0.000000 0.794818 0.693563
O O8 0.730476 0.630348 0.617698
O O9 0.804124 0.473289 0.592346
O O10 0.837329 0.592025 0.513403
O O11 0.000000 0.581705 0.607355
O O12 0.751951 0.154150 0.961085
O O13 0.761243 0.310976 0.927225
O O14 0.000000 0.224145 0.938989
O O15 0.850491 0.266947 0.032490
O O16 0.000000 0.722501 0.869141
O O17 0.000000 0.083907 0.546659
O O18 0.798397 0.000000 0.500000
O O19 0.000000 0.365697 0.575367
#
# Coordination Sequence:
#
# PCOD9415121 Si02
#       7
#     8   8   8   8   8   8   8
#     4   9  19  34  52  72  93 123 161 201 243 286
#     4  10  19  32  49  67  89 118 154 194 234 278
#     4   8  14  25  42  63  86 117 154 187 222 267
#     4  10  20  30  43  67  97 126 155 192 238 282
#     4  10  19  29  42  65  96 126 155 187 229 280
#     4  10  20  34  51  71  96 127 164 202 242 291
#     4   8  14  26  43  62  87 119 154 188 223 271
#
# _framework density 16.544152
#
# number of rings (size 3 to 8) (size 9 to 14) (size 15 to 20)
#    0.000    2.714    0.000    3.000    0.000    4.857 
#    0.000    2.857    0.000    0.000    0.000    1.000 
#    0.000    4.571    0.000    0.000    0.000    0.000 
#
# Total GULP energy -311773.086748 kJ/mol
# GULP energy per Si atom -5567.376549 kJ/mol
# Density = 1.650650 g / cm^3
# Si number density = 16.544152 Si / 1000 Ang^3
#
#
#
# Elastic Constant Matrix: (Units=GPa)
#
#
# Indices 1 2 3 4 5 6 
#
# 1 106.6197 58.3319 31.4314 0.0000 0.0000 0.0000
# 2 58.3319 78.4170 18.2371 0.0000 0.0000 0.0000
# 3 31.4314 18.2371 45.9562 0.0000 0.0000 0.0000
# 4 0.0000 0.0000 0.0000 6.8464 0.0000 0.0000
# 5 0.0000 0.0000 0.0000 0.0000 21.2658 0.0000
# 6 0.0000 0.0000 0.0000 0.0000 0.0000 19.7711
#
#
#
# Elastic Compliance Matrix: (Units=1/GPa)
#
#
# Indices 1 2 3 4 5 6 
#
# 1 0.017993 -0.011592 -0.007706 0.000000 0.000000 0.000000
# 2 -0.011592 0.021517 -0.000610 0.000000 0.000000 0.000000
# 3 -0.007706 -0.000610 0.027272 0.000000 0.000000 0.000000
# 4 0.000000 0.000000 0.000000 0.146062 0.000000 0.000000
# 5 0.000000 0.000000 0.000000 0.000000 0.047024 0.000000
# 6 0.000000 0.000000 0.000000 0.000000 0.000000 0.050579
#
#
# Mechanical properties :
#
#
# Convention : Reuss Voigt Hill
#
# Bulk Modulus (GPa) = 37.08428 49.66597 43.37513
# Shear Modulus (GPa) = 13.91776 17.77617 15.84697
#
# Velocity S-wave (km/s) = 2.90358 3.28147 3.09829
# Velocity P-wave (km/s) = 5.80560 6.66654 6.25091
#
# Compressibility (1/GPa) = 0.02696560
#
# Stress axis : x y z
#
# Youngs Moduli (GPa) = 55.57716 46.47392 36.66697
#
# Poissons Ratio (x) = 0.53874 0.28255
# Poissons Ratio (y) = 0.64427 0.02238
# Poissons Ratio (z) = 0.42827 0.02837
#
# Static dielectric constant tensor:
#      x y z
#    x 1.573320 0.000000 0.000000 
#    y 0.000000 1.551790 0.000000 
#    z 0.000000 0.000000 1.595070 
# 
# From -- ./inp_files/30744.got.cif
#   From: 2010.05.17/outbox.cif.g08.bks.cpg/sg53_16_cif.got.tgz:30744.got - 2010.06.03 12:45:16.
