data_PCOD9415626
_publ_section_title
;
Structure prediction by ZEFSAII (Michael W. Deem and Ramdas Pophale) SiO2 
 PCOD9415626
Probable space group: P M N A
;
_chemical_formula_sum "Si O2"
_cell_formula_units_Z 56
_cell_length_a 9.032062
_cell_length_b 15.251407
_cell_length_c 21.203058
_cell_angle_alpha 90.000000
_cell_angle_beta 90.000000
_cell_angle_gamma 90.000000
_cell_volume 2920.756301
_symmetry_space_group_name_H-M "P M N A"
_symmetry_group_IT_number 53
_symmetry_cell_setting 'orthorhombic'
loop_
_space_group_symop_operation_xyz
x,y,z
1/2-x,-y,1/2+z
x,-y,-z
1/2-x,y,1/2-z
-x,-y,-z
1/2+x,y,1/2-z
-x,y,z
1/2+x,-y,1/2+z
loop_
_atom_site_type_symbol
_atom_site_label
_atom_site_fract_x
_atom_site_fract_y
_atom_site_fract_z
Si Si1 0.169690 0.852664 0.186255
Si Si2 0.679326 0.914819 0.542108
Si Si3 0.828685 0.266821 0.484747
Si Si4 0.329718 0.936777 0.685265
Si Si5 0.330768 0.289097 0.872207
Si Si6 0.320963 0.450235 0.065409
Si Si7 0.676369 0.547684 0.316359
O O1 0.250000 0.823762 0.250000
O O2 0.268470 0.808933 0.133057
O O3 0.000000 0.823804 0.182600
O O4 0.170641 0.957238 0.185285
O O5 0.500000 0.918157 0.542939
O O6 0.733412 0.821224 0.516613
O O7 0.731311 0.915592 0.615547
O O8 0.726680 0.000000 0.500000
O O9 0.826220 0.310186 0.554151
O O10 0.783171 0.346936 0.439891
O O11 0.000000 0.243100 0.471777
O O12 0.250000 0.908101 0.750000
O O13 0.500000 0.906734 0.688239
O O14 0.500000 0.295330 0.850150
O O15 0.228063 0.353366 0.832613
O O16 0.500000 0.458210 0.071919
O O17 0.241601 0.492195 0.125432
O O18 0.280691 0.500000 0.000000
O O19 0.750000 0.522009 0.250000
O O20 0.500000 0.541606 0.312983
#
# Coordination Sequence:
#
# PCOD9415626 Si02
#       7
#     8   8   8   8   8   8   8
#     4  10  19  32  50  76 109 148 193 241 294 357
#     4  10  21  38  59  86 122 159 199 253 306 353
#     4  10  22  38  61  89 116 154 198 243 301 361
#     4   9  19  35  55  78 109 152 197 244 303 356
#     4  11  21  36  55  81 117 155 193 238 300 364
#     4  10  20  42  67  88 121 160 197 246 303 360
#     4  12  25  40  61  90 122 159 203 250 303 360
#
# _framework density 19.173116
#
# number of rings (size 3 to 8) (size 9 to 14) (size 15 to 20)
#    0.000    1.714    1.429    3.429    0.000    4.571 
#    0.000    0.714    0.000    1.714    0.000    0.000 
#    0.000    0.000    0.000    0.000    0.000    0.000 
#
# Total GULP energy -312357.126810 kJ/mol
# GULP energy per Si atom -5577.805836 kJ/mol
# Density = 1.912948 g / cm^3
# Si number density = 19.173116 Si / 1000 Ang^3
#
#
#
# Elastic Constant Matrix: (Units=GPa)
#
#
# Indices 1 2 3 4 5 6 
#
# 1 67.2726 28.3191 44.5722 0.0000 0.0000 0.0000
# 2 28.3191 67.1481 32.7794 0.0000 0.0000 0.0000
# 3 44.5722 32.7794 128.3550 0.0000 0.0000 0.0000
# 4 0.0000 0.0000 0.0000 36.1117 0.0000 0.0000
# 5 0.0000 0.0000 0.0000 0.0000 26.8957 0.0000
# 6 0.0000 0.0000 0.0000 0.0000 0.0000 23.5803
#
#
#
# Elastic Compliance Matrix: (Units=1/GPa)
#
#
# Indices 1 2 3 4 5 6 
#
# 1 0.021315 -0.006142 -0.005833 0.000000 0.000000 0.000000
# 2 -0.006142 0.018783 -0.002664 0.000000 0.000000 0.000000
# 3 -0.005833 -0.002664 0.010497 0.000000 0.000000 0.000000
# 4 0.000000 0.000000 0.000000 0.027692 0.000000 0.000000
# 5 0.000000 0.000000 0.000000 0.000000 0.037181 0.000000
# 6 0.000000 0.000000 0.000000 0.000000 0.000000 0.042408
#
#
# Mechanical properties :
#
#
# Convention : Reuss Voigt Hill
#
# Bulk Modulus (GPa) = 46.91125 52.67966 49.79546
# Shear Modulus (GPa) = 25.73860 27.79119 26.76489
#
# Velocity S-wave (km/s) = 3.66790 3.81134 3.74031
# Velocity P-wave (km/s) = 6.51600 6.84864 6.68439
#
# Compressibility (1/GPa) = 0.02131685
#
# Stress axis : x y z
#
# Youngs Moduli (GPa) = 46.91451 53.23889 95.26592
#
# Poissons Ratio (x) = 0.32699 0.55572
# Poissons Ratio (y) = 0.28814 0.25379
# Poissons Ratio (z) = 0.27367 0.14183
#
# Static dielectric constant tensor:
#      x y z
#    x 1.649490 0.000000 0.000000 
#    y 0.000000 1.670810 0.000000 
#    z 0.000000 0.000000 1.686710 
# 
# From -- ./inp_files/30734.got.cif
#   From: 2010.05.17/outbox.cif.g08.bks.cpg/sg53_16_cif.got.tgz:30734.got - 2010.06.03 12:45:16.
