data_PCOD9415071
_publ_section_title
;
Structure prediction by ZEFSAII (Michael W. Deem and Ramdas Pophale) SiO2 
 PCOD9415071
Probable space group: P M N A
;
_chemical_formula_sum "Si O2"
_cell_formula_units_Z 56
_cell_length_a 15.089263
_cell_length_b 12.372594
_cell_length_c 13.553500
_cell_angle_alpha 90.000000
_cell_angle_beta 90.000000
_cell_angle_gamma 90.000000
_cell_volume 2530.347978
_symmetry_space_group_name_H-M "P M N A"
_symmetry_group_IT_number 53
_symmetry_cell_setting 'orthorhombic'
loop_
_space_group_symop_operation_xyz
x,y,z
1/2-x,-y,1/2+z
x,-y,-z
1/2-x,y,1/2-z
-x,-y,-z
1/2+x,y,1/2-z
-x,y,z
1/2+x,-y,1/2+z
loop_
_atom_site_type_symbol
_atom_site_label
_atom_site_fract_x
_atom_site_fract_y
_atom_site_fract_z
Si Si1 0.403215 0.278710 0.216212
Si Si2 0.825129 0.088127 0.165452
Si Si3 0.261239 0.748938 0.955031
Si Si4 0.904106 0.711746 0.376523
Si Si5 0.855080 0.484297 0.769274
Si Si6 0.649819 0.150662 0.705100
Si Si7 0.102855 0.661269 0.049655
O O1 0.500000 0.259771 0.171012
O O2 0.387275 0.185273 0.296973
O O3 0.323115 0.272819 0.138584
O O4 0.398353 0.399719 0.256047
O O5 0.750000 0.079546 0.250000
O O6 0.779011 0.131921 0.065942
O O7 0.866359 0.969698 0.165862
O O8 0.324586 0.732495 0.048259
O O9 0.178111 0.668854 0.966645
O O10 0.888221 0.604148 0.311202
O O11 0.905209 0.810500 0.299385
O O12 0.000000 0.702510 0.426027
O O13 0.750000 0.491767 0.750000
O O14 0.879426 0.437087 0.876101
O O15 0.750000 0.161728 0.750000
O O16 0.626857 0.234593 0.618490
O O17 0.000000 0.663844 0.019215
#
# Coordination Sequence:
#
# PCOD9415071 Si02
#       7
#     8   8   8   8   8   8   8
#     4  11  24  43  65  91 130 176 218 259 320 394
#     4   9  22  41  63  84 127 179 215 254 321 392
#     4  11  22  43  60  99 132 166 210 270 329 371
#     4  11  21  37  66 100 131 166 216 270 321 378
#     4  11  20  41  67  93 130 172 213 261 323 389
#     4  10  18  39  64  91 127 173 213 261 320 386
#     4  11  22  39  66  98 127 164 217 270 322 380
#
# _framework density 22.131343000000001
#
# number of rings (size 3 to 8) (size 9 to 14) (size 15 to 20)
#    0.000    1.429    2.857    5.143    0.000    2.857 
#    5.143    2.143    0.000    6.000    0.000    0.000 
#    0.000    0.000    0.000    0.000    0.000    0.000 
#
# Total GULP energy -312932.217958 kJ/mol
# GULP energy per Si atom -5588.075321 kJ/mol
# Density = 2.208097 g / cm^3
# Si number density = 22.131343 Si / 1000 Ang^3
#
#
#
# Elastic Constant Matrix: (Units=GPa)
#
#
# Indices 1 2 3 4 5 6 
#
# 1 171.6335 24.6372 23.2440 0.0000 0.0000 0.0000
# 2 24.6372 146.8401 16.0557 0.0000 0.0000 0.0000
# 3 23.2440 16.0557 44.6160 0.0000 0.0000 0.0000
# 4 0.0000 0.0000 0.0000 11.2529 0.0000 0.0000
# 5 0.0000 0.0000 0.0000 0.0000 15.4122 0.0000
# 6 0.0000 0.0000 0.0000 0.0000 0.0000 -9.4601
#
#
#
# Elastic Compliance Matrix: (Units=1/GPa)
#
#
# Indices 1 2 3 4 5 6 
#
# 1 0.006343 -0.000732 -0.003041 0.000000 0.000000 0.000000
# 2 -0.000732 0.007173 -0.002200 0.000000 0.000000 0.000000
# 3 -0.003041 -0.002200 0.024790 0.000000 0.000000 0.000000
# 4 0.000000 0.000000 0.000000 0.088866 0.000000 0.000000
# 5 0.000000 0.000000 0.000000 0.000000 0.064884 0.000000
# 6 0.000000 0.000000 0.000000 0.000000 0.000000 -0.105707
#
#
# Mechanical properties :
#
#
# Convention : Reuss Voigt Hill
#
# Bulk Modulus (GPa) = 37.93659 54.55149 46.24404
# Shear Modulus (GPa) = 46.69307 23.38452 35.03879
#
# Velocity S-wave (km/s) = 4.59826 3.25410 3.98329
# Velocity P-wave (km/s) = 6.73578 6.23068 6.48815
#
# Compressibility (1/GPa) = 0.02635977
#
# Stress axis : x y z
#
# Youngs Moduli (GPa) = 157.64671 139.40230 40.33919
#
# Poissons Ratio (x) = 0.10201 0.12269
# Poissons Ratio (y) = 0.11536 0.08876
# Poissons Ratio (z) = 0.47947 0.30672
#
# Static dielectric constant tensor:
#      x y z
#    x 1.836040 0.000000 0.000000 
#    y 0.000000 1.805520 0.000000 
#    z 0.000000 0.000000 1.829910 
# 
# From -- ./inp_files/22804.got.cif
#   From: 2010.05.17/outbox.cif.g08.bks.cpg/sg53_12_cif.got.tgz:22804.got - 2010.06.03 12:45:16.
