data_PCOD9415710
_publ_section_title
;
Structure prediction by ZEFSAII (Michael W. Deem and Ramdas Pophale) SiO2 
 PCOD9415710
Probable space group: P M N A
;
_chemical_formula_sum "Si O2"
_cell_formula_units_Z 64
_cell_length_a 8.691136
_cell_length_b 20.923853
_cell_length_c 21.038178
_cell_angle_alpha 90.000000
_cell_angle_beta 90.000000
_cell_angle_gamma 90.000000
_cell_volume 3825.835841
_symmetry_space_group_name_H-M "P M N A"
_symmetry_group_IT_number 53
_symmetry_cell_setting 'orthorhombic'
loop_
_space_group_symop_operation_xyz
x,y,z
1/2-x,-y,1/2+z
x,-y,-z
1/2-x,y,1/2-z
-x,-y,-z
1/2+x,y,1/2-z
-x,y,z
1/2+x,-y,1/2+z
loop_
_atom_site_type_symbol
_atom_site_label
_atom_site_fract_x
_atom_site_fract_y
_atom_site_fract_z
Si Si1 0.315675 0.451605 0.942242
Si Si2 0.314436 0.328531 0.496261
Si Si3 0.819016 0.349955 0.355367
Si Si4 0.816643 0.057140 0.453215
Si Si5 0.182391 0.482552 0.182868
Si Si6 0.314963 0.922817 0.684889
Si Si7 0.174065 0.190029 0.014159
Si Si8 0.825144 0.779880 0.835721
O O1 0.500000 0.444856 0.942044
O O2 0.237089 0.383790 0.956190
O O3 0.258579 0.481693 0.876620
O O4 0.274782 0.500000 0.000000
O O5 0.500000 0.329145 0.487490
O O6 0.232830 0.344661 0.429152
O O7 0.270282 0.256223 0.517328
O O8 0.725648 0.407934 0.325145
O O9 0.777033 0.281980 0.324217
O O10 0.000000 0.362945 0.351432
O O11 0.741676 0.051256 0.383145
O O12 0.770288 0.125153 0.484538
O O13 0.000000 0.055275 0.445278
O O14 0.768782 0.000000 0.500000
O O15 0.250000 0.504949 0.250000
O O16 0.000000 0.490295 0.181256
O O17 0.250000 0.952712 0.750000
O O18 0.500000 0.923351 0.685576
O O19 0.262410 0.848371 0.685116
O O20 0.000000 0.175611 0.992652
O O21 0.165457 0.211123 0.088091
O O22 0.000000 0.770329 0.812332
#
# Coordination Sequence:
#
# PCOD9415710 Si02
#       8
#     8   8   8   8   8   8   8   8
#     4  11  22  36  56  81 105 131 173 218 261 314
#     4  10  19  32  52  77 103 134 172 215 261 304
#     4  11  20  31  48  72 100 133 172 212 255 302
#     4  10  20  33  51  77 108 141 176 214 257 307
#     4  12  25  40  55  71  99 134 171 216 268 319
#     4  10  20  33  50  71  99 135 175 215 254 300
#     4   8  16  30  48  73 103 133 170 211 252 303
#     4   8  16  30  45  65  95 132 171 208 247 293
#
# _framework density 16.728370999999999
#
# number of rings (size 3 to 8) (size 9 to 14) (size 15 to 20)
#    0.000    2.000    1.250    5.250    0.000    7.500 
#    0.000    1.250    0.000    0.000    0.000    0.875 
#    0.000    2.000    0.000    0.000    0.000    0.000 
#
# Total GULP energy -356992.072525 kJ/mol
# GULP energy per Si atom -5578.001133 kJ/mol
# Density = 1.669030 g / cm^3
# Si number density = 16.728371 Si / 1000 Ang^3
#
#
#
# Elastic Constant Matrix: (Units=GPa)
#
#
# Indices 1 2 3 4 5 6 
#
# 1 46.5368 25.5297 23.6814 0.0000 0.0000 0.0000
# 2 25.5297 91.8871 48.6544 0.0000 0.0000 0.0000
# 3 23.6814 48.6544 93.4533 0.0000 0.0000 0.0000
# 4 0.0000 0.0000 0.0000 9.8169 0.0000 0.0000
# 5 0.0000 0.0000 0.0000 0.0000 21.1206 0.0000
# 6 0.0000 0.0000 0.0000 0.0000 0.0000 22.9214
#
#
#
# Elastic Compliance Matrix: (Units=1/GPa)
#
#
# Indices 1 2 3 4 5 6 
#
# 1 0.026373 -0.005231 -0.003960 0.000000 0.000000 0.000000
# 2 -0.005231 0.016062 -0.007037 0.000000 0.000000 0.000000
# 3 -0.003960 -0.007037 0.015368 0.000000 0.000000 0.000000
# 4 0.000000 0.000000 0.000000 0.101865 0.000000 0.000000
# 5 0.000000 0.000000 0.000000 0.000000 0.047347 0.000000
# 6 0.000000 0.000000 0.000000 0.000000 0.000000 0.043627
#
#
# Mechanical properties :
#
#
# Convention : Reuss Voigt Hill
#
# Bulk Modulus (GPa) = 39.45093 47.51201 43.48147
# Shear Modulus (GPa) = 17.14991 19.70588 18.42790
#
# Velocity S-wave (km/s) = 3.20535 3.43591 3.32263
# Velocity P-wave (km/s) = 6.11011 6.64864 6.38505
#
# Compressibility (1/GPa) = 0.02534794
#
# Stress axis : x y z
#
# Youngs Moduli (GPa) = 37.91768 62.25752 65.07196
#
# Poissons Ratio (x) = 0.32565 0.25767
# Poissons Ratio (y) = 0.19834 0.45791
# Poissons Ratio (z) = 0.15014 0.43811
#
# Static dielectric constant tensor:
#      x y z
#    x 1.562750 0.000000 0.000000 
#    y 0.000000 1.580120 0.000000 
#    z 0.000000 0.000000 1.591780 
# 
# From -- ./inp_files/26827.got.cif
#   From: 2010.05.17/outbox.cif.g08.bks.cpg/sg53_14_cif.got.tgz:26827.got - 2010.06.03 12:45:16.
