data_PCOD9415751
_publ_section_title
;
Structure prediction by ZEFSAII (Michael W. Deem and Ramdas Pophale) SiO2 
 PCOD9415751
Probable space group: P M N A
;
_chemical_formula_sum "Si O2"
_cell_formula_units_Z 48
_cell_length_a 7.810211
_cell_length_b 13.898236
_cell_length_c 19.835134
_cell_angle_alpha 90.000000
_cell_angle_beta 90.000000
_cell_angle_gamma 90.000000
_cell_volume 2153.067214
_symmetry_space_group_name_H-M "P M N A"
_symmetry_group_IT_number 53
_symmetry_cell_setting 'orthorhombic'
loop_
_space_group_symop_operation_xyz
x,y,z
1/2-x,-y,1/2+z
x,-y,-z
1/2-x,y,1/2-z
-x,-y,-z
1/2+x,y,1/2-z
-x,y,z
1/2+x,-y,1/2+z
loop_
_atom_site_type_symbol
_atom_site_label
_atom_site_fract_x
_atom_site_fract_y
_atom_site_fract_z
Si Si1 0.706498 0.091889 0.542767
Si Si2 0.706122 0.587313 0.171510
Si Si3 0.699492 0.594594 0.912814
Si Si4 0.294651 0.994696 0.673578
Si Si5 0.704978 0.306932 0.957357
Si Si6 0.705351 0.223156 0.328065
O O1 0.500000 0.090298 0.540259
O O2 0.767067 0.070425 0.618780
O O3 0.757317 0.198100 0.521234
O O4 0.766631 0.000000 0.500000
O O5 0.750000 0.597044 0.250000
O O6 0.500000 0.585914 0.170793
O O7 0.770409 0.488449 0.135990
O O8 0.765569 0.668921 0.118374
O O9 0.500000 0.569204 0.923018
O O10 0.712490 0.695148 0.873342
O O11 0.773365 0.617817 0.986851
O O12 0.250000 0.017953 0.750000
O O13 0.500000 0.990990 0.668965
O O14 0.234597 0.885948 0.657297
O O15 0.500000 0.317015 0.957289
O O16 0.750000 0.241334 0.250000
O O17 0.500000 0.227196 0.336965
#
# Coordination Sequence:
#
# PCOD9415751 Si02
#       6
#     8   8   8   8   8   8
#     4  10  21  38  58  81 111 146 184 228 278 328
#     4  10  22  40  60  83 113 148 185 226 274 329
#     4  10  20  36  58  82 110 145 184 227 276 329
#     4   9  19  34  52  75 106 144 182 224 275 329
#     4  10  22  39  59  83 111 145 185 229 276 327
#     4  10  19  32  52  80 113 147 185 230 279 330
#
# _framework density 22.293776999999999
#
# number of rings (size 3 to 8) (size 9 to 14) (size 15 to 20)
#    0.000    2.167    0.000    2.500    0.000    9.000 
#    0.000    3.333    0.000    3.000    0.000    0.000 
#    0.000    0.000    0.000    0.000    0.000    0.000 
#
# Total GULP energy -268028.910901 kJ/mol
# GULP energy per Si atom -5583.935644 kJ/mol
# Density = 2.224304 g / cm^3
# Si number density = 22.293777 Si / 1000 Ang^3
#
#
#
# Elastic Constant Matrix: (Units=GPa)
#
#
# Indices 1 2 3 4 5 6 
#
# 1 31.7076 2.8840 4.1787 0.0000 0.0000 0.0000
# 2 2.8840 91.1847 53.8901 0.0000 0.0000 0.0000
# 3 4.1787 53.8901 116.4653 0.0000 0.0000 0.0000
# 4 0.0000 0.0000 0.0000 36.3911 0.0000 0.0000
# 5 0.0000 0.0000 0.0000 0.0000 25.2713 0.0000
# 6 0.0000 0.0000 0.0000 0.0000 0.0000 448.8646
#
#
#
# Elastic Compliance Matrix: (Units=1/GPa)
#
#
# Indices 1 2 3 4 5 6 
#
# 1 0.031702 -0.000455 -0.000927 0.000000 0.000000 0.000000
# 2 -0.000455 0.015101 -0.006971 0.000000 0.000000 0.000000
# 3 -0.000927 -0.006971 0.011845 0.000000 0.000000 0.000000
# 4 0.000000 0.000000 0.000000 0.027479 0.000000 0.000000
# 5 0.000000 0.000000 0.000000 0.000000 0.039571 0.000000
# 6 0.000000 0.000000 0.000000 0.000000 0.000000 0.002228
#
#
# Mechanical properties :
#
#
# Convention : Reuss Voigt Hill
#
# Bulk Modulus (GPa) = 23.84241 40.14035 31.99138
# Shear Modulus (GPa) = 31.52340 113.99904 72.76122
#
# Velocity S-wave (km/s) = 3.76440 7.15863 5.71912
# Velocity P-wave (km/s) = 5.44170 9.29366 7.61526
#
# Compressibility (1/GPa) = 0.04194207
#
# Stress axis : x y z
#
# Youngs Moduli (GPa) = 31.54400 66.22040 84.42264
#
# Poissons Ratio (x) = 0.03012 0.07826
# Poissons Ratio (y) = 0.01435 0.58852
# Poissons Ratio (z) = 0.02924 0.46163
#
# Static dielectric constant tensor:
#      x y z
#    x 1.822890 0.000000 0.000000 
#    y 0.000000 1.807880 0.000000 
#    z 0.000000 0.000000 1.858230 
# 
# From -- ./inp_files/26242.got.cif
#   From: 2010.05.17/outbox.cif.g08.bks.cpg/sg53_14_cif.got.tgz:26242.got - 2010.06.03 12:45:16.
