data_PCOD9415741
_publ_section_title
;
Structure prediction by ZEFSAII (Michael W. Deem and Ramdas Pophale) SiO2 
 PCOD9415741
Probable space group: P M N A
;
_chemical_formula_sum "Si O2"
_cell_formula_units_Z 32
_cell_length_a 8.582206
_cell_length_b 10.546878
_cell_length_c 19.954282
_cell_angle_alpha 90.000000
_cell_angle_beta 90.000000
_cell_angle_gamma 90.000000
_cell_volume 1806.171406
_symmetry_space_group_name_H-M "P M N A"
_symmetry_group_IT_number 53
_symmetry_cell_setting 'orthorhombic'
loop_
_space_group_symop_operation_xyz
x,y,z
1/2-x,-y,1/2+z
x,-y,-z
1/2-x,y,1/2-z
-x,-y,-z
1/2+x,y,1/2-z
-x,y,z
1/2+x,-y,1/2+z
loop_
_atom_site_type_symbol
_atom_site_label
_atom_site_fract_x
_atom_site_fract_y
_atom_site_fract_z
Si Si1 0.187803 0.872756 0.036253
Si Si2 0.186907 0.485183 0.321512
Si Si3 0.812858 0.770992 0.177681
Si Si4 0.312360 0.372048 0.039441
O O1 0.238787 0.852753 0.113435
O O2 0.000000 0.877433 0.037329
O O3 0.238643 0.750083 0.994416
O O4 0.245712 0.000000 0.000000
O O5 0.250000 0.440565 0.250000
O O6 0.253155 0.626877 0.332674
O O7 0.231282 0.395778 0.383328
O O8 0.000000 0.494857 0.319434
O O9 0.750000 0.814062 0.250000
O O10 0.000000 0.768555 0.180241
O O11 0.500000 0.361077 0.035163
O O12 0.267345 0.500000 0.000000
#
# Coordination Sequence:
#
# PCOD9415741 Si02
#       4
#     8   8   8   8
#     4  10  22  38  55  79 110 144 182 223 267 319
#     4  10  19  32  52  79 110 139 175 221 269 317
#     4  10  19  32  53  78 105 138 177 219 267 317
#     4  10  20  35  55  80 109 139 175 222 269 316
#
# _framework density 17.717034000000002
#
# number of rings (size 3 to 8) (size 9 to 14) (size 15 to 20)
#    0.000    2.000    2.500    3.000    0.000    4.000 
#    0.000    1.250    0.000    6.000    0.000    0.000 
#    0.000    0.000    0.000    0.000    0.000    0.000 
#
# Total GULP energy -178566.757773 kJ/mol
# GULP energy per Si atom -5580.211180 kJ/mol
# Density = 1.767671 g / cm^3
# Si number density = 17.717034 Si / 1000 Ang^3
#
#
#
# Elastic Constant Matrix: (Units=GPa)
#
#
# Indices 1 2 3 4 5 6 
#
# 1 27.0660 12.6941 34.7881 0.0000 0.0000 0.0000
# 2 12.6941 102.5820 81.2564 0.0000 0.0000 0.0000
# 3 34.7881 81.2564 194.2760 0.0000 0.0000 0.0000
# 4 0.0000 0.0000 0.0000 26.3333 0.0000 0.0000
# 5 0.0000 0.0000 0.0000 0.0000 48.3201 0.0000
# 6 0.0000 0.0000 0.0000 0.0000 0.0000 -53.8650
#
#
#
# Elastic Compliance Matrix: (Units=1/GPa)
#
#
# Indices 1 2 3 4 5 6 
#
# 1 0.048108 0.001302 -0.009159 0.000000 0.000000 0.000000
# 2 0.001302 0.014613 -0.006345 0.000000 0.000000 0.000000
# 3 -0.009159 -0.006345 0.009441 0.000000 0.000000 0.000000
# 4 0.000000 0.000000 0.000000 0.037975 0.000000 0.000000
# 5 0.000000 0.000000 0.000000 0.000000 0.020695 0.000000
# 6 0.000000 0.000000 0.000000 0.000000 0.000000 -0.018565
#
#
# Mechanical properties :
#
#
# Convention : Reuss Voigt Hill
#
# Bulk Modulus (GPa) = 22.85294 64.60014 43.72654
# Shear Modulus (GPa) = 32.20432 17.17005 24.68718
#
# Velocity S-wave (km/s) = 4.26808 3.11646 3.73690
# Velocity P-wave (km/s) = 6.10045 7.03499 6.58432
#
# Compressibility (1/GPa) = 0.04375805
#
# Stress axis : x y z
#
# Youngs Moduli (GPa) = 20.78645 68.43099 105.91823
#
# Poissons Ratio (x) = -0.08908 0.97011
# Poissons Ratio (y) = -0.02706 0.67207
# Poissons Ratio (z) = 0.19038 0.43420
#
# Static dielectric constant tensor:
#      x y z
#    x 1.602610 0.000000 0.000000 
#    y 0.000000 1.564600 0.000000 
#    z 0.000000 0.000000 1.635790 
# 
# From -- ./inp_files/25741.got.cif
#   From: 2010.05.17/outbox.cif.g08.bks.cpg/sg53_13_cif.got.tgz:25741.got - 2010.06.03 12:45:16.
