data_PCOD9415308
_publ_section_title
;
Structure prediction by ZEFSAII (Michael W. Deem and Ramdas Pophale) SiO2 
 PCOD9415308
Probable space group: P M N A
;
_chemical_formula_sum "Si O2"
_cell_formula_units_Z 40
_cell_length_a 9.134580
_cell_length_b 12.891013
_cell_length_c 19.967813
_cell_angle_alpha 90.000000
_cell_angle_beta 90.000000
_cell_angle_gamma 90.000000
_cell_volume 2351.289643
_symmetry_space_group_name_H-M "P M N A"
_symmetry_group_IT_number 53
_symmetry_cell_setting 'orthorhombic'
loop_
_space_group_symop_operation_xyz
x,y,z
1/2-x,-y,1/2+z
x,-y,-z
1/2-x,y,1/2-z
-x,-y,-z
1/2+x,y,1/2-z
-x,y,z
1/2+x,-y,1/2+z
loop_
_atom_site_type_symbol
_atom_site_label
_atom_site_fract_x
_atom_site_fract_y
_atom_site_fract_z
Si Si1 0.672701 0.189035 0.897806
Si Si2 0.331299 0.979717 0.580412
Si Si3 0.172236 0.771043 0.557256
Si Si4 0.674495 0.445486 0.429854
Si Si5 0.674685 0.376611 0.678933
O O1 0.500000 0.188721 0.882702
O O2 0.756815 0.274317 0.854676
O O3 0.742002 0.075265 0.888645
O O4 0.689995 0.218117 0.976524
O O5 0.500000 0.979189 0.602369
O O6 0.254689 0.868914 0.589659
O O7 0.330523 0.000000 0.500000
O O8 0.240739 0.661841 0.578202
O O9 0.000000 0.775852 0.571750
O O10 0.716619 0.500000 0.500000
O O11 0.500000 0.424437 0.433109
O O12 0.702226 0.526950 0.370762
O O13 0.750000 0.394324 0.750000
O O14 0.500000 0.364530 0.685863
#
# Coordination Sequence:
#
# PCOD9415308 Si02
#       5
#     8   8   8   8   8
#     4  10  19  32  51  77 109 140 176 221 271 323
#     4   9  17  29  48  74 106 141 175 212 261 319
#     4  10  19  30  50  80 111 140 175 224 274 320
#     4  10  20  35  55  78 107 143 184 227 273 329
#     4  11  23  38  56  78 108 145 184 226 274 329
#
# _framework density 17.011941
#
# number of rings (size 3 to 8) (size 9 to 14) (size 15 to 20)
#    0.000    2.000    2.000    2.400    0.000    6.000 
#    0.000    0.000    0.000    1.200    0.000    5.600 
#    0.000    0.000    0.000    0.000    0.000    0.000 
#
# Total GULP energy -223281.122689 kJ/mol
# GULP energy per Si atom -5582.028067 kJ/mol
# Density = 1.697322 g / cm^3
# Si number density = 17.011941 Si / 1000 Ang^3
#
#
#
# Elastic Constant Matrix: (Units=GPa)
#
#
# Indices 1 2 3 4 5 6 
#
# 1 130.7946 108.6724 63.9779 0.0000 0.0000 0.0000
# 2 108.6724 177.6075 54.6393 0.0000 0.0000 0.0000
# 3 63.9779 54.6393 61.3358 0.0000 0.0000 0.0000
# 4 0.0000 0.0000 0.0000 11.6854 0.0000 0.0000
# 5 0.0000 0.0000 0.0000 0.0000 20.2452 0.0000
# 6 0.0000 0.0000 0.0000 0.0000 0.0000 31.8590
#
#
#
# Elastic Compliance Matrix: (Units=1/GPa)
#
#
# Indices 1 2 3 4 5 6 
#
# 1 0.023070 -0.009247 -0.015826 0.000000 0.000000 0.000000
# 2 -0.009247 0.011462 -0.000566 0.000000 0.000000 0.000000
# 3 -0.015826 -0.000566 0.033316 0.000000 0.000000 0.000000
# 4 0.000000 0.000000 0.000000 0.085577 0.000000 0.000000
# 5 0.000000 0.000000 0.000000 0.000000 0.049395 0.000000
# 6 0.000000 0.000000 0.000000 0.000000 0.000000 0.031388
#
#
# Mechanical properties :
#
#
# Convention : Reuss Voigt Hill
#
# Bulk Modulus (GPa) = 60.34961 91.59077 75.97019
# Shear Modulus (GPa) = 17.18163 22.25448 19.71805
#
# Velocity S-wave (km/s) = 3.18146 3.62078 3.40821
# Velocity P-wave (km/s) = 7.00339 8.45199 7.76156
#
# Compressibility (1/GPa) = 0.01657011
#
# Stress axis : x y z
#
# Youngs Moduli (GPa) = 43.34652 87.24249 30.01596
#
# Poissons Ratio (x) = 0.80673 0.47504
# Poissons Ratio (y) = 0.40082 0.01698
# Poissons Ratio (z) = 0.68602 0.04935
#
# Static dielectric constant tensor:
#      x y z
#    x 1.565280 0.000000 0.000000 
#    y 0.000000 1.551020 0.000000 
#    z 0.000000 0.000000 1.557850 
# 
# From -- ./inp_files/25843.got.cif
#   From: 2010.05.17/outbox.cif.g08.bks.cpg/sg53_13_cif.got.tgz:25843.got - 2010.06.03 12:45:16.
