data_PCOD9415206
_publ_section_title
;
Structure prediction by ZEFSAII (Michael W. Deem and Ramdas Pophale) SiO2 
 PCOD9415206
Probable space group: P M N A
;
_chemical_formula_sum "Si O2"
_cell_formula_units_Z 56
_cell_length_a 8.753894
_cell_length_b 20.988215
_cell_length_c 18.896758
_cell_angle_alpha 90.000000
_cell_angle_beta 90.000000
_cell_angle_gamma 90.000000
_cell_volume 3471.875069
_symmetry_space_group_name_H-M "P M N A"
_symmetry_group_IT_number 53
_symmetry_cell_setting 'orthorhombic'
loop_
_space_group_symop_operation_xyz
x,y,z
1/2-x,-y,1/2+z
x,-y,-z
1/2-x,y,1/2-z
-x,-y,-z
1/2+x,y,1/2-z
-x,y,z
1/2+x,-y,1/2+z
loop_
_atom_site_type_symbol
_atom_site_label
_atom_site_fract_x
_atom_site_fract_y
_atom_site_fract_z
Si Si1 0.676260 0.572397 0.469503
Si Si2 0.685474 0.520260 0.325820
Si Si3 0.182688 0.005800 0.328373
Si Si4 0.816892 0.245958 0.173714
Si Si5 0.682415 0.866462 0.915968
Si Si6 0.813396 0.617655 0.884484
Si Si7 0.323585 0.934077 0.455101
O O1 0.672836 0.500000 0.500000
O O2 0.500000 0.593007 0.461011
O O3 0.741437 0.564550 0.390904
O O4 0.743294 0.613009 0.534090
O O5 0.750000 0.538337 0.250000
O O6 0.500000 0.521836 0.325495
O O7 0.731572 0.447203 0.344300
O O8 0.250000 0.001956 0.250000
O O9 0.245969 0.951366 0.380814
O O10 0.000000 0.002198 0.325815
O O11 0.223953 0.073630 0.364932
O O12 0.750000 0.228374 0.250000
O O13 0.758903 0.196103 0.115832
O O14 0.766289 0.317600 0.153365
O O15 0.000000 0.244609 0.176749
O O16 0.500000 0.860524 0.915366
O O17 0.739164 0.883874 0.994557
O O18 0.000000 0.616864 0.887090
O O19 0.500000 0.916436 0.445181
O O20 0.318546 0.000000 0.500000
#
# Coordination Sequence:
#
# PCOD9415206 Si02
#       7
#     8   8   8   8   8   8   8
#     4   7  11  22  40  59  78 105 142 177 209 251
#     4   9  15  24  41  63  86 110 137 174 218 261
#     4  10  19  30  46  68  93 120 149 183 222 263
#     4  11  21  31  44  63  88 117 150 184 217 256
#     4  10  20  33  47  64  90 122 154 185 219 260
#     4   8  15  27  42  60  82 112 149 182 210 250
#     4   9  17  30  48  68  90 116 147 183 224 269
#
# _framework density 16.129612999999999
#
# number of rings (size 3 to 8) (size 9 to 14) (size 15 to 20)
#    0.000    2.857    0.000    4.286    0.000    4.571 
#    0.000    0.714    0.000    5.571    0.000    1.000 
#    0.000    4.571    0.000    0.000    0.000    0.000 
#
# Total GULP energy -311884.966246 kJ/mol
# GULP energy per Si atom -5569.374397 kJ/mol
# Density = 1.609290 g / cm^3
# Si number density = 16.129613 Si / 1000 Ang^3
#
#
#
# Elastic Constant Matrix: (Units=GPa)
#
#
# Indices 1 2 3 4 5 6 
#
# 1 28.0444 6.9129 17.1141 0.0000 0.0000 0.0000
# 2 6.9129 17.4103 -2.2848 0.0000 0.0000 0.0000
# 3 17.1141 -2.2848 92.5330 0.0000 0.0000 0.0000
# 4 0.0000 0.0000 0.0000 22.8390 0.0000 0.0000
# 5 0.0000 0.0000 0.0000 0.0000 28.3407 0.0000
# 6 0.0000 0.0000 0.0000 0.0000 0.0000 46.0044
#
#
#
# Elastic Compliance Matrix: (Units=1/GPa)
#
#
# Indices 1 2 3 4 5 6 
#
# 1 0.045917 -0.019409 -0.008972 0.000000 0.000000 0.000000
# 2 -0.019409 0.065828 0.005215 0.000000 0.000000 0.000000
# 3 -0.008972 0.005215 0.012595 0.000000 0.000000 0.000000
# 4 0.000000 0.000000 0.000000 0.043785 0.000000 0.000000
# 5 0.000000 0.000000 0.000000 0.000000 0.035285 0.000000
# 6 0.000000 0.000000 0.000000 0.000000 0.000000 0.021737
#
#
# Mechanical properties :
#
#
# Convention : Reuss Voigt Hill
#
# Bulk Modulus (GPa) = 12.81904 20.16357 16.49130
# Shear Modulus (GPa) = 16.80775 27.18650 21.99712
#
# Velocity S-wave (km/s) = 3.23157 4.10994 3.69694
# Velocity P-wave (km/s) = 4.67855 5.92033 5.33569
#
# Compressibility (1/GPa) = 0.07800896
#
# Stress axis : x y z
#
# Youngs Moduli (GPa) = 21.77835 15.19104 79.39630
#
# Poissons Ratio (x) = 0.29485 0.71232
# Poissons Ratio (y) = 0.42270 -0.41407
# Poissons Ratio (z) = 0.19539 -0.07922
#
# Static dielectric constant tensor:
#      x y z
#    x 1.547120 0.000000 0.000000 
#    y 0.000000 1.528770 0.000000 
#    z 0.000000 0.000000 1.557510 
# 
# From -- ./inp_files/26657.got.cif
#   From: 2010.05.17/outbox.cif.g08.bks.cpg/sg53_14_cif.got.tgz:26657.got - 2010.06.03 12:45:16.
