data_PCOD9415817
_publ_section_title
;
Structure prediction by ZEFSAII (Michael W. Deem and Ramdas Pophale) SiO2 
 PCOD9415817
Probable space group: P M N A
;
_chemical_formula_sum "Si O2"
_cell_formula_units_Z 48
_cell_length_a 8.635711
_cell_length_b 17.077439
_cell_length_c 18.501578
_cell_angle_alpha 90.000000
_cell_angle_beta 90.000000
_cell_angle_gamma 90.000000
_cell_volume 2728.535532
_symmetry_space_group_name_H-M "P M N A"
_symmetry_group_IT_number 53
_symmetry_cell_setting 'orthorhombic'
loop_
_space_group_symop_operation_xyz
x,y,z
1/2-x,-y,1/2+z
x,-y,-z
1/2-x,y,1/2-z
-x,-y,-z
1/2+x,y,1/2-z
-x,y,z
1/2+x,-y,1/2+z
loop_
_atom_site_type_symbol
_atom_site_label
_atom_site_fract_x
_atom_site_fract_y
_atom_site_fract_z
Si Si1 0.311663 0.415291 0.474913
Si Si2 0.314821 0.180944 0.103026
Si Si3 0.314867 0.666129 0.672883
Si Si4 0.813015 0.994652 0.584539
Si Si5 0.315050 0.856570 0.330164
Si Si6 0.687124 0.745882 0.457448
O O1 0.254778 0.500000 0.500000
O O2 0.500000 0.418442 0.473545
O O3 0.262448 0.387524 0.394814
O O4 0.269435 0.344417 0.528843
O O5 0.500000 0.186180 0.108657
O O6 0.239991 0.245660 0.154780
O O7 0.268107 0.090902 0.114518
O O8 0.263175 0.204868 0.022190
O O9 0.250000 0.641010 0.750000
O O10 0.500000 0.665076 0.674506
O O11 0.000000 0.000361 0.586796
O O12 0.766783 0.000000 0.500000
O O13 0.743018 0.064979 0.630309
O O14 0.250000 0.850646 0.250000
O O15 0.500000 0.858467 0.326918
O O16 0.268471 0.783879 0.381519
O O17 0.500000 0.751532 0.465352
#
# Coordination Sequence:
#
# PCOD9415817 Si02
#       6
#     8   8   8   8   8   8
#     4   8  15  31  56  81 103 132 171 212 255 310
#     4  10  19  32  54  78 102 135 172 213 259 312
#     4  10  20  34  53  78 109 140 174 215 262 315
#     4  10  20  35  54  77 104 137 177 219 265 314
#     4  11  23  36  52  74 105 141 179 222 262 306
#     4   9  18  33  53  77 102 134 175 213 255 311
#
# _framework density 17.591854000000001
#
# number of rings (size 3 to 8) (size 9 to 14) (size 15 to 20)
#    0.000    2.333    1.667    2.500    0.000    3.000 
#    0.000    0.833    0.000   12.500    0.000    0.000 
#    0.000    0.000    0.000    0.000    0.000    0.000 
#
# Total GULP energy -267759.414675 kJ/mol
# GULP energy per Si atom -5578.321139 kJ/mol
# Density = 1.755181 g / cm^3
# Si number density = 17.591854 Si / 1000 Ang^3
#
#
#
# Elastic Constant Matrix: (Units=GPa)
#
#
# Indices 1 2 3 4 5 6 
#
# 1 24.2481 29.5526 27.0051 0.0000 0.0000 0.0000
# 2 29.5526 160.1090 85.5150 0.0000 0.0000 0.0000
# 3 27.0051 85.5150 136.9778 0.0000 0.0000 0.0000
# 4 0.0000 0.0000 0.0000 15.7769 0.0000 0.0000
# 5 0.0000 0.0000 0.0000 0.0000 26.6153 0.0000
# 6 0.0000 0.0000 0.0000 0.0000 0.0000 -13.6687
#
#
#
# Elastic Compliance Matrix: (Units=1/GPa)
#
#
# Indices 1 2 3 4 5 6 
#
# 1 0.057424 -0.006830 -0.007057 0.000000 0.000000 0.000000
# 2 -0.006830 0.010182 -0.005010 0.000000 0.000000 0.000000
# 3 -0.007057 -0.005010 0.011820 0.000000 0.000000 0.000000
# 4 0.000000 0.000000 0.000000 0.063384 0.000000 0.000000
# 5 0.000000 0.000000 0.000000 0.000000 0.037572 0.000000
# 6 0.000000 0.000000 0.000000 0.000000 0.000000 -0.073160
#
#
# Mechanical properties :
#
#
# Convention : Reuss Voigt Hill
#
# Bulk Modulus (GPa) = 24.02047 67.27559 45.64803
# Shear Modulus (GPa) = 31.46742 17.69552 24.58147
#
# Velocity S-wave (km/s) = 4.23395 3.17502 3.74213
# Velocity P-wave (km/s) = 6.13072 7.19489 6.68402
#
# Compressibility (1/GPa) = 0.04163116
#
# Stress axis : x y z
#
# Youngs Moduli (GPa) = 17.41434 98.20799 84.60418
#
# Poissons Ratio (x) = 0.67075 0.59707
# Poissons Ratio (y) = 0.11894 0.42390
# Poissons Ratio (z) = 0.12290 0.49206
#
# Static dielectric constant tensor:
#      x y z
#    x 1.591910 0.000000 0.000000 
#    y 0.000000 1.599890 0.000000 
#    z 0.000000 0.000000 1.590920 
# 
# From -- ./inp_files/26410.got.cif
#   From: 2010.05.17/outbox.cif.g08.bks.cpg/sg53_14_cif.got.tgz:26410.got - 2010.06.03 12:45:16.
