data_PCOD9415082
_publ_section_title
;
Structure prediction by ZEFSAII (Michael W. Deem and Ramdas Pophale) SiO2 
 PCOD9415082
Probable space group: P M N A
;
_chemical_formula_sum "Si O2"
_cell_formula_units_Z 64
_cell_length_a 8.705174
_cell_length_b 19.071857
_cell_length_c 27.149605
_cell_angle_alpha 90.000000
_cell_angle_beta 90.000000
_cell_angle_gamma 90.000000
_cell_volume 4507.481505
_symmetry_space_group_name_H-M "P M N A"
_symmetry_group_IT_number 53
_symmetry_cell_setting 'orthorhombic'
loop_
_space_group_symop_operation_xyz
x,y,z
1/2-x,-y,1/2+z
x,-y,-z
1/2-x,y,1/2-z
-x,-y,-z
1/2+x,y,1/2-z
-x,y,z
1/2+x,-y,1/2+z
loop_
_atom_site_type_symbol
_atom_site_label
_atom_site_fract_x
_atom_site_fract_y
_atom_site_fract_z
Si Si1 0.313365 0.091215 0.395288
Si Si2 0.182666 0.590342 0.900984
Si Si3 0.813835 0.174067 0.004543
Si Si4 0.184647 0.328658 0.197011
Si Si5 0.822605 0.459846 0.552764
Si Si6 0.678458 0.957052 0.448397
Si Si7 0.183642 0.826771 0.696623
Si Si8 0.315356 0.670901 0.995079
O O1 0.500000 0.090274 0.391750
O O2 0.275046 0.141213 0.441924
O O3 0.241812 0.122333 0.346196
O O4 0.257893 0.012516 0.409128
O O5 0.226474 0.619709 0.847513
O O6 0.231042 0.510161 0.910790
O O7 0.258913 0.637883 0.943490
O O8 0.000000 0.596953 0.906253
O O9 0.747510 0.251203 0.999109
O O10 0.000000 0.176253 0.002226
O O11 0.756601 0.118688 0.963108
O O12 0.250000 0.350831 0.250000
O O13 0.251986 0.251418 0.186433
O O14 0.000000 0.323376 0.199827
O O15 0.820582 0.500000 0.500000
O O16 0.764410 0.382532 0.538577
O O17 0.000000 0.455958 0.568756
O O18 0.500000 0.945841 0.434966
O O19 0.678358 0.000000 0.500000
O O20 0.250000 0.847344 0.750000
O O21 0.000000 0.824539 0.698495
O O22 0.500000 0.670518 0.994950
#
# Coordination Sequence:
#
# PCOD9415082 Si02
#       8
#     8   8   8   8   8   8   8   8
#     4   9  16  28  44  60  81 108 138 170 202 238
#     4  10  19  29  43  61  79 103 137 172 202 236
#     4   9  16  26  42  62  82 108 140 168 196 234
#     4  10  20  32  44  60  81 105 135 169 204 239
#     4   8  16  29  41  55  78 107 136 164 198 240
#     4   7  12  24  41  59  79 105 135 165 197 234
#     4  11  21  31  43  59  80 107 139 172 205 238
#     4  10  19  28  39  58  84 112 138 165 200 239
#
# _framework density 14.198615999999999
#
# number of rings (size 3 to 8) (size 9 to 14) (size 15 to 20)
#    0.000    2.750    0.000    6.000    0.000    8.250 
#    0.000    0.625    0.000    2.250    0.000    0.000 
#    0.000    1.000    0.000    9.000    0.000    5.750 
#
# Total GULP energy -356387.660159 kJ/mol
# GULP energy per Si atom -5568.557190 kJ/mol
# Density = 1.416630 g / cm^3
# Si number density = 14.198616 Si / 1000 Ang^3
#
#
#
# Elastic Constant Matrix: (Units=GPa)
#
#
# Indices 1 2 3 4 5 6 
#
# 1 39.1746 33.5487 34.8172 0.0000 0.0000 0.0000
# 2 33.5487 127.2110 67.3288 0.0000 0.0000 0.0000
# 3 34.8172 67.3288 94.3904 0.0000 0.0000 0.0000
# 4 0.0000 0.0000 0.0000 27.3098 0.0000 0.0000
# 5 0.0000 0.0000 0.0000 0.0000 15.4105 0.0000
# 6 0.0000 0.0000 0.0000 0.0000 0.0000 20.6562
#
#
#
# Elastic Compliance Matrix: (Units=1/GPa)
#
#
# Indices 1 2 3 4 5 6 
#
# 1 0.039412 -0.004337 -0.011444 0.000000 0.000000 0.000000
# 2 -0.004337 0.013106 -0.007749 0.000000 0.000000 0.000000
# 3 -0.011444 -0.007749 0.020343 0.000000 0.000000 0.000000
# 4 0.000000 0.000000 0.000000 0.036617 0.000000 0.000000
# 5 0.000000 0.000000 0.000000 0.000000 0.064891 0.000000
# 6 0.000000 0.000000 0.000000 0.000000 0.000000 0.048412
#
#
# Mechanical properties :
#
#
# Convention : Reuss Voigt Hill
#
# Bulk Modulus (GPa) = 38.75791 59.12949 48.94370
# Shear Modulus (GPa) = 17.95718 21.01404 19.48561
#
# Velocity S-wave (km/s) = 3.56014 3.85126 3.70856
# Velocity P-wave (km/s) = 6.65249 7.84291 7.27210
#
# Compressibility (1/GPa) = 0.02580118
#
# Stress axis : x y z
#
# Youngs Moduli (GPa) = 25.37289 76.30193 49.15744
#
# Poissons Ratio (x) = 0.33091 0.56257
# Poissons Ratio (y) = 0.11004 0.38090
# Poissons Ratio (z) = 0.29037 0.59124
#
# Static dielectric constant tensor:
#      x y z
#    x 1.479340 0.000000 0.000000 
#    y 0.000000 1.484510 0.000000 
#    z 0.000000 0.000000 1.453250 
# 
# From -- ./inp_files/36475.got.cif
#   From: 2010.05.17/outbox.cif.g08.bks.cpg/sg53_19_cif.got.tgz:36475.got - 2010.06.03 12:45:16.
