data_PCOD9415170
_publ_section_title
;
Structure prediction by ZEFSAII (Michael W. Deem and Ramdas Pophale) SiO2 
 PCOD9415170
Probable space group: P M N A
;
_chemical_formula_sum "Si O2"
_cell_formula_units_Z 48
_cell_length_a 26.389818
_cell_length_b 22.229235
_cell_length_c 5.102847
_cell_angle_alpha 90.000000
_cell_angle_beta 90.000000
_cell_angle_gamma 90.000000
_cell_volume 2993.459999
_symmetry_space_group_name_H-M "P M N A"
_symmetry_group_IT_number 53
_symmetry_cell_setting 'orthorhombic'
loop_
_space_group_symop_operation_xyz
x,y,z
1/2-x,-y,1/2+z
x,-y,-z
1/2-x,y,1/2-z
-x,-y,-z
1/2+x,y,1/2-z
-x,y,z
1/2+x,-y,1/2+z
loop_
_atom_site_type_symbol
_atom_site_label
_atom_site_fract_x
_atom_site_fract_y
_atom_site_fract_z
Si Si1 0.059223 0.744346 0.427890
Si Si2 0.058881 0.334986 0.055554
Si Si3 0.441369 0.070236 0.428921
Si Si4 0.058458 0.460297 0.261302
Si Si5 0.285582 0.930093 0.999947
Si Si6 0.107605 0.125875 0.573906
O O1 0.059696 0.712037 0.707756
O O2 0.090968 0.805118 0.444195
O O3 0.000000 0.759079 0.364310
O O4 0.078512 0.697896 0.205078
O O5 0.081833 0.396711 0.170820
O O6 0.000000 0.350099 0.989399
O O7 0.500000 0.088309 0.465285
O O8 0.406092 0.104566 0.634348
O O9 0.437186 0.000000 0.500000
O O10 0.424549 0.086839 0.135952
O O11 0.080565 0.500000 0.500000
O O12 0.000000 0.446508 0.345909
O O13 0.057152 0.500000 0.000000
O O14 0.250000 0.921030 0.750000
O O15 0.250000 0.922007 0.250000
O O16 0.334094 0.887624 0.011609
O O17 0.303705 0.000000 0.000000
#
# Coordination Sequence:
#
# PCOD9415170 Si02
#       6
#     8   8   8   8   8   8
#     4  10  19  30  44  63  90 123 155 186 223 275
#     4   9  17  28  40  58  87 120 155 194 227 257
#     4  11  22  34  49  71  97 122 151 191 236 283
#     4   9  15  23  37  56  78 110 155 199 229 251
#     4  10  21  37  55  73  91 113 149 200 252 296
#     4  12  22  35  53  71  93 124 159 192 238 293
#
# _framework density 16.034955
#
# number of rings (size 3 to 8) (size 9 to 14) (size 15 to 20)
#    0.000    1.833    0.000    6.000    0.000    8.000 
#    0.000    0.000    0.000    0.000    0.000    0.000 
#    0.000    0.000    0.000    0.000    0.000   46.667 
#
# Total GULP energy -267737.694999 kJ/mol
# GULP energy per Si atom -5577.868646 kJ/mol
# Density = 1.599846 g / cm^3
# Si number density = 16.034955 Si / 1000 Ang^3
#
#
#
# Elastic Constant Matrix: (Units=GPa)
#
#
# Indices 1 2 3 4 5 6 
#
# 1 49.0468 26.7268 4.3489 0.0000 0.0000 0.0000
# 2 26.7268 63.2224 -1.1125 0.0000 0.0000 0.0000
# 3 4.3489 -1.1125 67.5833 0.0000 0.0000 0.0000
# 4 0.0000 0.0000 0.0000 26.0414 0.0000 0.0000
# 5 0.0000 0.0000 0.0000 0.0000 2.3375 0.0000
# 6 0.0000 0.0000 0.0000 0.0000 0.0000 -10.2348
#
#
#
# Elastic Compliance Matrix: (Units=1/GPa)
#
#
# Indices 1 2 3 4 5 6 
#
# 1 0.026735 -0.011335 -0.001907 0.000000 0.000000 0.000000
# 2 -0.011335 0.020628 0.001069 0.000000 0.000000 0.000000
# 3 -0.001907 0.001069 0.014937 0.000000 0.000000 0.000000
# 4 0.000000 0.000000 0.000000 0.038400 0.000000 0.000000
# 5 0.000000 0.000000 0.000000 0.000000 0.427810 0.000000
# 6 0.000000 0.000000 0.000000 0.000000 0.000000 -0.097706
#
#
# Mechanical properties :
#
#
# Convention : Reuss Voigt Hill
#
# Bulk Modulus (GPa) = 26.34858 26.64211 26.49534
# Shear Modulus (GPa) = 10.68828 13.62143 12.15486
#
# Velocity S-wave (km/s) = 2.58459 2.91775 2.75621
# Velocity P-wave (km/s) = 5.03730 5.29170 5.16607
#
# Compressibility (1/GPa) = 0.03795272
#
# Stress axis : x y z
#
# Youngs Moduli (GPa) = 37.40447 48.47785 66.94845
#
# Poissons Ratio (x) = 0.54952 0.12767
# Poissons Ratio (y) = 0.42400 -0.07157
# Poissons Ratio (z) = 0.07133 -0.05182
#
# Static dielectric constant tensor:
#      x y z
#    x 1.502190 0.000000 0.000000 
#    y 0.000000 1.648060 0.000000 
#    z 0.000000 0.000000 1.546280 
# 
# From -- ./inp_files/3749.got.cif
#   From: 2010.05.17/outbox.cif.g08.bks.cpg/sg53_2_cif.got.tgz:3749.got - 2010.06.03 12:45:16.
