data_PCOD9415980
_publ_section_title
;
Structure prediction by ZEFSAII (Michael W. Deem and Ramdas Pophale) SiO2 
 PCOD9415980
Probable space group: P M N A
;
_chemical_formula_sum "Si O2"
_cell_formula_units_Z 64
_cell_length_a 8.776950
_cell_length_b 26.465182
_cell_length_c 14.239282
_cell_angle_alpha 90.000000
_cell_angle_beta 90.000000
_cell_angle_gamma 90.000000
_cell_volume 3307.551388
_symmetry_space_group_name_H-M "P M N A"
_symmetry_group_IT_number 53
_symmetry_cell_setting 'orthorhombic'
loop_
_space_group_symop_operation_xyz
x,y,z
1/2-x,-y,1/2+z
x,-y,-z
1/2-x,y,1/2-z
-x,-y,-z
1/2+x,y,1/2-z
-x,y,z
1/2+x,-y,1/2+z
loop_
_atom_site_type_symbol
_atom_site_label
_atom_site_fract_x
_atom_site_fract_y
_atom_site_fract_z
Si Si1 0.817910 0.819750 0.030881
Si Si2 0.671888 0.484970 0.609699
Si Si3 0.683910 0.086192 0.855659
Si Si4 0.180680 0.589360 0.654879
Si Si5 0.683161 0.618149 0.055911
Si Si6 0.817063 0.863665 0.645749
Si Si7 0.317109 0.719105 0.353793
Si Si8 0.316482 0.975844 0.855256
O O1 0.778166 0.767974 0.083615
O O2 0.749794 0.823749 0.926825
O O3 0.000000 0.823999 0.027373
O O4 0.748543 0.668900 0.100000
O O5 0.661164 0.500000 0.500000
O O6 0.500000 0.483324 0.648521
O O7 0.768280 0.530814 0.651155
O O8 0.750971 0.430553 0.610721
O O9 0.750000 0.088236 0.750000
O O10 0.500000 0.089486 0.853705
O O11 0.750207 0.133049 0.911915
O O12 0.726009 0.030509 0.897154
O O13 0.250000 0.612174 0.750000
O O14 0.228742 0.612929 0.554488
O O15 0.000000 0.592383 0.660158
O O16 0.500000 0.617147 0.060584
O O17 0.750000 0.858155 0.750000
O O18 0.772686 0.920290 0.608828
O O19 0.000000 0.860879 0.648732
O O20 0.250000 0.725599 0.250000
O O21 0.500000 0.714918 0.348688
O O22 0.250000 0.976918 0.750000
O O23 0.500000 0.975763 0.851879
#
# Coordination Sequence:
#
# PCOD9415980 Si02
#       8
#     8   8   8   8   8   8   8   8
#     4  11  24  40  58  83 112 146 189 235 284 339
#     4   9  17  31  53  81 115 154 193 233 277 326
#     4  10  19  33  54  81 114 150 187 230 280 336
#     4  10  20  34  55  86 123 160 195 234 279 331
#     4  10  21  38  60  86 117 152 194 241 288 339
#     4  10  20  37  60  84 113 148 185 229 279 335
#     4  11  25  44  65  86 111 143 184 235 287 339
#     4   8  16  30  50  78 111 146 183 223 272 330
#
# _framework density 19.349661999999999
#
# number of rings (size 3 to 8) (size 9 to 14) (size 15 to 20)
#    0.000    2.125    0.000    3.000    0.000    8.000 
#    0.000    5.625    0.000    1.500    0.000    0.000 
#    0.000    0.000    0.000    0.000    0.000    0.000 
#
# Total GULP energy -357245.881637 kJ/mol
# GULP energy per Si atom -5581.966901 kJ/mol
# Density = 1.930562 g / cm^3
# Si number density = 19.349662 Si / 1000 Ang^3
#
#
#
# Elastic Constant Matrix: (Units=GPa)
#
#
# Indices 1 2 3 4 5 6 
#
# 1 55.9367 49.9038 34.6631 0.0000 0.0000 0.0000
# 2 49.9038 137.0731 63.6871 0.0000 0.0000 0.0000
# 3 34.6631 63.6871 104.4965 0.0000 0.0000 0.0000
# 4 0.0000 0.0000 0.0000 23.4811 0.0000 0.0000
# 5 0.0000 0.0000 0.0000 0.0000 27.7070 0.0000
# 6 0.0000 0.0000 0.0000 0.0000 0.0000 60.8992
#
#
#
# Elastic Compliance Matrix: (Units=1/GPa)
#
#
# Indices 1 2 3 4 5 6 
#
# 1 0.027770 -0.008133 -0.004255 0.000000 0.000000 0.000000
# 2 -0.008133 0.012559 -0.004957 0.000000 0.000000 0.000000
# 3 -0.004255 -0.004957 0.014002 0.000000 0.000000 0.000000
# 4 0.000000 0.000000 0.000000 0.042588 0.000000 0.000000
# 5 0.000000 0.000000 0.000000 0.000000 0.036092 0.000000
# 6 0.000000 0.000000 0.000000 0.000000 0.000000 0.016421
#
#
# Mechanical properties :
#
#
# Convention : Reuss Voigt Hill
#
# Bulk Modulus (GPa) = 50.91113 66.00160 58.45636
# Shear Modulus (GPa) = 26.22357 32.36761 29.29559
#
# Velocity S-wave (km/s) = 3.68536 4.09439 3.89525
# Velocity P-wave (km/s) = 6.66914 7.51905 7.10681
#
# Compressibility (1/GPa) = 0.01964207
#
# Stress axis : x y z
#
# Youngs Moduli (GPa) = 36.00998 79.62175 71.41873
#
# Poissons Ratio (x) = 0.64759 0.30387
# Poissons Ratio (y) = 0.29288 0.35399
# Poissons Ratio (z) = 0.15321 0.39465
#
# Static dielectric constant tensor:
#      x y z
#    x 1.655380 0.000000 0.000000 
#    y 0.000000 1.662350 0.000000 
#    z 0.000000 0.000000 1.710250 
# 
# From -- ./inp_files/26992.got.cif
#   From: 2010.05.17/outbox.cif.g08.bks.cpg/sg53_14_cif.got.tgz:26992.got - 2010.06.03 12:45:16.
