data_PCOD9415223
_publ_section_title
;
Structure prediction by ZEFSAII (Michael W. Deem and Ramdas Pophale) SiO2 
 PCOD9415223
Probable space group: P M N A
;
_chemical_formula_sum "Si O2"
_cell_formula_units_Z 40
_cell_length_a 7.868844
_cell_length_b 14.191133
_cell_length_c 18.567280
_cell_angle_alpha 90.000000
_cell_angle_beta 90.000000
_cell_angle_gamma 90.000000
_cell_volume 2073.367528
_symmetry_space_group_name_H-M "P M N A"
_symmetry_group_IT_number 53
_symmetry_cell_setting 'orthorhombic'
loop_
_space_group_symop_operation_xyz
x,y,z
1/2-x,-y,1/2+z
x,-y,-z
1/2-x,y,1/2-z
-x,-y,-z
1/2+x,y,1/2-z
-x,y,z
1/2+x,-y,1/2+z
loop_
_atom_site_type_symbol
_atom_site_label
_atom_site_fract_x
_atom_site_fract_y
_atom_site_fract_z
Si Si1 0.794197 0.875035 0.878204
Si Si2 0.707820 0.801510 0.466801
Si Si3 0.197975 0.398680 0.018982
Si Si4 0.204549 0.919563 0.169376
Si Si5 0.803103 0.329293 0.329678
O O1 0.727411 0.782871 0.837698
O O2 0.000000 0.872109 0.874001
O O3 0.733817 0.973953 0.846377
O O4 0.747081 0.862022 0.962252
O O5 0.500000 0.798976 0.465835
O O6 0.770187 0.694957 0.480667
O O7 0.766205 0.850118 0.393505
O O8 0.206846 0.377893 0.104147
O O9 0.000000 0.402224 0.997175
O O10 0.275051 0.500000 0.000000
O O11 0.250000 0.890677 0.250000
O O12 0.000000 0.922309 0.163891
O O13 0.750000 0.359142 0.250000
O O14 0.000000 0.349075 0.340478
#
# Coordination Sequence:
#
# PCOD9415223 Si02
#       5
#     8   8   8   8   8
#     4   9  17  31  51  72  95 127 167 205 243 289
#     4   8  15  30  51  72  94 125 164 201 241 295
#     4   9  18  35  58  78  97 126 166 210 255 302
#     4  10  19  30  46  69  99 133 165 198 238 289
#     4  11  21  33  51  76 105 132 162 204 252 297
#
# _framework density 19.292286000000001
#
# number of rings (size 3 to 8) (size 9 to 14) (size 15 to 20)
#    0.000    2.600    0.000    4.200    0.000    5.200 
#    0.000    5.000    0.000    8.400    0.000    0.000 
#    0.000    0.000    0.000    0.000    0.000    0.000 
#
# Total GULP energy -223148.675019 kJ/mol
# GULP energy per Si atom -5578.716875 kJ/mol
# Density = 1.924838 g / cm^3
# Si number density = 19.292286 Si / 1000 Ang^3
#
#
#
# Elastic Constant Matrix: (Units=GPa)
#
#
# Indices 1 2 3 4 5 6 
#
# 1 22.6488 -6.6989 -15.4189 0.0000 0.0000 0.0000
# 2 -6.6989 74.0495 37.9043 0.0000 0.0000 0.0000
# 3 -15.4189 37.9043 96.8647 0.0000 0.0000 0.0000
# 4 0.0000 0.0000 0.0000 11.1606 0.0000 0.0000
# 5 0.0000 0.0000 0.0000 0.0000 21.5368 0.0000
# 6 0.0000 0.0000 0.0000 0.0000 0.0000 7.7267
#
#
#
# Elastic Compliance Matrix: (Units=1/GPa)
#
#
# Indices 1 2 3 4 5 6 
#
# 1 0.049537 0.000557 0.007667 0.000000 0.000000 0.000000
# 2 0.000557 0.016893 -0.006522 0.000000 0.000000 0.000000
# 3 0.007667 -0.006522 0.014096 0.000000 0.000000 0.000000
# 4 0.000000 0.000000 0.000000 0.089601 0.000000 0.000000
# 5 0.000000 0.000000 0.000000 0.000000 0.046432 0.000000
# 6 0.000000 0.000000 0.000000 0.000000 0.000000 0.129421
#
#
# Mechanical properties :
#
#
# Convention : Reuss Voigt Hill
#
# Bulk Modulus (GPa) = 11.91460 25.01511 18.46485
# Shear Modulus (GPa) = 13.49333 19.93660 16.71497
#
# Velocity S-wave (km/s) = 2.64752 3.21814 2.94667
# Velocity P-wave (km/s) = 3.94145 5.17717 4.60098
#
# Compressibility (1/GPa) = 0.08393063
#
# Stress axis : x y z
#
# Youngs Moduli (GPa) = 20.18699 59.19517 70.94062
#
# Poissons Ratio (x) = -0.03295 -0.54394
# Poissons Ratio (y) = -0.01124 0.46267
# Poissons Ratio (z) = -0.15478 0.38607
#
# Static dielectric constant tensor:
#      x y z
#    x 1.711540 0.000000 0.000000 
#    y 0.000000 1.677020 0.000000 
#    z 0.000000 0.000000 1.661850 
# 
# From -- ./inp_files/19857.got.cif
#   From: 2010.05.17/outbox.cif.g08.bks.cpg/sg53_10_cif.got.tgz:19857.got - 2010.06.03 12:45:16.
