data_PCOD9415627
_publ_section_title
;
Structure prediction by ZEFSAII (Michael W. Deem and Ramdas Pophale) SiO2 
 PCOD9415627
Probable space group: P M N A
;
_chemical_formula_sum "Si O2"
_cell_formula_units_Z 56
_cell_length_a 8.780009
_cell_length_b 15.522214
_cell_length_c 21.212344
_cell_angle_alpha 90.000000
_cell_angle_beta 90.000000
_cell_angle_gamma 90.000000
_cell_volume 2890.928091
_symmetry_space_group_name_H-M "P M N A"
_symmetry_group_IT_number 53
_symmetry_cell_setting 'orthorhombic'
loop_
_space_group_symop_operation_xyz
x,y,z
1/2-x,-y,1/2+z
x,-y,-z
1/2-x,y,1/2-z
-x,-y,-z
1/2+x,y,1/2-z
-x,y,z
1/2+x,-y,1/2+z
loop_
_atom_site_type_symbol
_atom_site_label
_atom_site_fract_x
_atom_site_fract_y
_atom_site_fract_z
Si Si1 0.183982 0.943401 0.560866
Si Si2 0.180458 0.550019 0.682241
Si Si3 0.676847 0.763164 0.985753
Si Si4 0.821569 0.034252 0.817589
Si Si5 0.675335 0.365079 0.689702
Si Si6 0.671547 0.797746 0.392514
Si Si7 0.317618 0.418345 0.455102
O O1 0.230363 0.842713 0.557374
O O2 0.244244 0.984275 0.624878
O O3 0.000000 0.944677 0.559717
O O4 0.236459 0.000000 0.500000
O O5 0.250000 0.580669 0.750000
O O6 0.223436 0.448867 0.679382
O O7 0.249991 0.582126 0.616004
O O8 0.000000 0.563788 0.683037
O O9 0.500000 0.744379 0.973556
O O10 0.768517 0.674154 0.982776
O O11 0.701278 0.804120 0.054737
O O12 0.750000 0.016597 0.750000
O O13 0.000000 0.014023 0.816023
O O14 0.805233 0.134691 0.836710
O O15 0.750000 0.320053 0.750000
O O16 0.500000 0.391300 0.701507
O O17 0.675647 0.298745 0.633288
O O18 0.500000 0.814180 0.418395
O O19 0.268109 0.500000 0.500000
O O20 0.500000 0.424502 0.450775
#
# Coordination Sequence:
#
# PCOD9415627 Si02
#       7
#     8   8   8   8   8   8   8
#     4  10  21  41  64  89 122 160 201 250 303 360
#     4  11  22  38  60  85 116 157 206 255 309 370
#     4  11  23  38  62  91 118 156 204 252 305 366
#     4  11  23  38  60  89 123 163 206 255 309 366
#     4  10  19  32  50  76 112 153 196 242 298 361
#     4  10  21  35  53  82 119 157 197 245 303 367
#     4  11  24  42  63  90 127 165 204 257 314 368
#
# _framework density 19.370943
#
# number of rings (size 3 to 8) (size 9 to 14) (size 15 to 20)
#    0.000    1.429    1.429    5.143    0.000    7.714 
#    0.000    0.714    0.000    3.429    0.000    0.000 
#    0.000    0.000    0.000    0.000    0.000    0.000 
#
# Total GULP energy -312412.989474 kJ/mol
# GULP energy per Si atom -5578.803383 kJ/mol
# Density = 1.932685 g / cm^3
# Si number density = 19.370943 Si / 1000 Ang^3
#
#
#
# Elastic Constant Matrix: (Units=GPa)
#
#
# Indices 1 2 3 4 5 6 
#
# 1 62.2361 27.0571 36.9785 0.0000 0.0000 0.0000
# 2 27.0571 77.5777 37.7501 0.0000 0.0000 0.0000
# 3 36.9785 37.7501 124.6360 0.0000 0.0000 0.0000
# 4 0.0000 0.0000 0.0000 29.8848 0.0000 0.0000
# 5 0.0000 0.0000 0.0000 0.0000 34.7637 0.0000
# 6 0.0000 0.0000 0.0000 0.0000 0.0000 28.4491
#
#
#
# Elastic Compliance Matrix: (Units=1/GPa)
#
#
# Indices 1 2 3 4 5 6 
#
# 1 0.021069 -0.005051 -0.004721 0.000000 0.000000 0.000000
# 2 -0.005051 0.016329 -0.003447 0.000000 0.000000 0.000000
# 3 -0.004721 -0.003447 0.010468 0.000000 0.000000 0.000000
# 4 0.000000 0.000000 0.000000 0.033462 0.000000 0.000000
# 5 0.000000 0.000000 0.000000 0.000000 0.028766 0.000000
# 6 0.000000 0.000000 0.000000 0.000000 0.000000 0.035151
#
#
# Mechanical properties :
#
#
# Convention : Reuss Voigt Hill
#
# Bulk Modulus (GPa) = 46.66846 52.00236 49.33541
# Shear Modulus (GPa) = 27.96013 29.46376 28.71195
#
# Velocity S-wave (km/s) = 3.80334 3.90427 3.85413
# Velocity P-wave (km/s) = 6.59026 6.87228 6.73275
#
# Compressibility (1/GPa) = 0.02142775
#
# Stress axis : x y z
#
# Youngs Moduli (GPa) = 47.46336 61.23907 95.52717
#
# Poissons Ratio (x) = 0.30931 0.45100
# Poissons Ratio (y) = 0.23973 0.32931
# Poissons Ratio (z) = 0.22408 0.21111
#
# Static dielectric constant tensor:
#      x y z
#    x 1.672240 0.000000 0.000000 
#    y 0.000000 1.694620 0.000000 
#    z 0.000000 0.000000 1.739380 
# 
# From -- ./inp_files/30840.got.cif
#   From: 2010.05.17/outbox.cif.g08.bks.cpg/sg53_16_cif.got.tgz:30840.got - 2010.06.03 12:45:16.
