data_PCOD9415794
_publ_section_title
;
Structure prediction by ZEFSAII (Michael W. Deem and Ramdas Pophale) SiO2 
 PCOD9415794
Probable space group: P M N A
;
_chemical_formula_sum "Si O2"
_cell_formula_units_Z 42
_cell_length_a 7.674951
_cell_length_b 11.069359
_cell_length_c 24.521969
_cell_angle_alpha 90.000000
_cell_angle_beta 90.000000
_cell_angle_gamma 90.000000
_cell_volume 2083.307720
_symmetry_space_group_name_H-M "P M N A"
_symmetry_group_IT_number 53
_symmetry_cell_setting 'orthorhombic'
loop_
_space_group_symop_operation_xyz
x,y,z
1/2-x,-y,1/2+z
x,-y,-z
1/2-x,y,1/2-z
-x,-y,-z
1/2+x,y,1/2-z
-x,y,z
1/2+x,-y,1/2+z
loop_
_atom_site_type_symbol
_atom_site_label
_atom_site_fract_x
_atom_site_fract_y
_atom_site_fract_z
Si Si1 0.000000 0.000000 0.000000
Si Si2 0.212826 0.573084 0.417970
Si Si3 0.799931 0.058958 0.426459
Si Si4 0.208475 0.709015 0.310282
Si Si5 0.788442 0.321302 0.467433
Si Si6 0.197617 0.010906 0.811137
O O1 0.843323 0.974142 0.045611
O O2 0.270440 0.627560 0.360596
O O3 0.266498 0.652782 0.470373
O O4 0.267891 0.436124 0.431410
O O5 0.000000 0.573016 0.417655
O O6 0.734916 0.192383 0.444306
O O7 0.000000 0.040297 0.444162
O O8 0.800015 0.044206 0.361576
O O9 0.250000 0.660005 0.250000
O O10 0.284487 0.843769 0.313808
O O11 0.000000 0.721899 0.314585
O O12 0.000000 0.321210 0.467131
O O13 0.250000 0.975227 0.750000
O O14 0.000000 0.975012 0.819555
#
# Coordination Sequence:
#
# PCOD9415794 Si02
#       6
#     2   8   8   8   8   8
#     4  12  26  40  56  92 128 156 198 254 286 362
#     4   8  15  30  54  81 107 142 187 231 285 344
#     4  11  23  40  61  88 122 159 199 244 301 353
#     4  10  19  32  53  80 111 146 187 235 286 345
#     4   8  16  32  56  82 109 145 187 234 288 350
#     4  11  22  39  59  84 118 156 200 248 295 354
#
# _framework density 20.160249
#
# number of rings (size 3 to 8) (size 9 to 14) (size 15 to 20)
#    0.000    2.286    0.952    4.857    2.667    0.000 
#    0.000    0.952    4.190    3.429    0.000    0.000 
#    0.000    0.000    0.000    0.000    0.000    0.000 
#
# Total GULP energy -233899.592063 kJ/mol
# GULP energy per Si atom -5569.037906 kJ/mol
# Density = 2.011436 g / cm^3
# Si number density = 20.160249 Si / 1000 Ang^3
#
#
#
# Elastic Constant Matrix: (Units=GPa)
#
#
# Indices 1 2 3 4 5 6 
#
# 1 92.5082 1.9899 9.2932 0.0000 0.0000 0.0000
# 2 1.9899 63.0543 61.9392 0.0000 0.0000 0.0000
# 3 9.2932 61.9392 176.9791 0.0000 0.0000 0.0000
# 4 0.0000 0.0000 0.0000 27.6149 0.0000 0.0000
# 5 0.0000 0.0000 0.0000 0.0000 29.5812 0.0000
# 6 0.0000 0.0000 0.0000 0.0000 0.0000 -14.3980
#
#
#
# Elastic Compliance Matrix: (Units=1/GPa)
#
#
# Indices 1 2 3 4 5 6 
#
# 1 0.010872 0.000332 -0.000687 0.000000 0.000000 0.000000
# 2 0.000332 0.024178 -0.008479 0.000000 0.000000 0.000000
# 3 -0.000687 -0.008479 0.008654 0.000000 0.000000 0.000000
# 4 0.000000 0.000000 0.000000 0.036212 0.000000 0.000000
# 5 0.000000 0.000000 0.000000 0.000000 0.033805 0.000000
# 6 0.000000 0.000000 0.000000 0.000000 0.000000 -0.069454
#
#
# Mechanical properties :
#
#
# Convention : Reuss Voigt Hill
#
# Bulk Modulus (GPa) = 38.40996 53.22066 45.81531
# Shear Modulus (GPa) = 70.80663 25.84757 48.32710
#
# Velocity S-wave (km/s) = 5.93280 3.58454 4.90138
# Velocity P-wave (km/s) = 8.12555 6.60212 7.40313
#
# Compressibility (1/GPa) = 0.02603491
#
# Stress axis : x y z
#
# Youngs Moduli (GPa) = 91.98164 41.35947 115.55273
#
# Poissons Ratio (x) = -0.01372 0.07938
# Poissons Ratio (y) = -0.03051 0.97981
# Poissons Ratio (z) = 0.06319 0.35070
#
# Static dielectric constant tensor:
#      x y z
#    x 1.767260 0.000000 0.000000 
#    y 0.000000 1.722910 0.000000 
#    z 0.000000 0.000000 1.756250 
# 
# From -- ./inp_files/33759.got.cif
#   From: 2010.05.17/outbox.cif.g08.bks.cpg/sg53_17_cif.got.tgz:33759.got - 2010.06.03 12:45:16.
