data_PCOD9415894
_publ_section_title
;
Structure prediction by ZEFSAII (Michael W. Deem and Ramdas Pophale) SiO2 
 PCOD9415894
Probable space group: P M N A
;
_chemical_formula_sum "Si O2"
_cell_formula_units_Z 64
_cell_length_a 9.280156
_cell_length_b 15.325295
_cell_length_c 23.600143
_cell_angle_alpha 90.000000
_cell_angle_beta 90.000000
_cell_angle_gamma 90.000000
_cell_volume 3356.438967
_symmetry_space_group_name_H-M "P M N A"
_symmetry_group_IT_number 53
_symmetry_cell_setting 'orthorhombic'
loop_
_space_group_symop_operation_xyz
x,y,z
1/2-x,-y,1/2+z
x,-y,-z
1/2-x,y,1/2-z
-x,-y,-z
1/2+x,y,1/2-z
-x,y,z
1/2+x,-y,1/2+z
loop_
_atom_site_type_symbol
_atom_site_label
_atom_site_fract_x
_atom_site_fract_y
_atom_site_fract_z
Si Si1 0.165148 0.632122 0.494653
Si Si2 0.666280 0.838784 0.988762
Si Si3 0.172964 0.904111 0.391142
Si Si4 0.171664 0.801940 0.875302
Si Si5 0.172009 0.256892 0.691840
Si Si6 0.828347 0.033431 0.192200
Si Si7 0.328211 0.434952 0.867838
Si Si8 0.327892 0.604784 0.609190
O O1 0.170005 0.737194 0.491942
O O2 0.197214 0.593953 0.433097
O O3 0.270792 0.602402 0.544344
O O4 0.000000 0.607918 0.510207
O O5 0.500000 0.861162 0.976227
O O6 0.713858 0.894178 0.043024
O O7 0.756754 0.841529 0.931667
O O8 0.199839 0.813539 0.357484
O O9 0.000000 0.920367 0.388512
O O10 0.262074 0.976567 0.358292
O O11 0.202780 0.865760 0.823358
O O12 0.217046 0.701114 0.868978
O O13 0.000000 0.801415 0.883876
O O14 0.250000 0.232957 0.750000
O O15 0.216335 0.353327 0.670978
O O16 0.000000 0.257721 0.700776
O O17 0.750000 0.008251 0.250000
O O18 0.000000 0.020983 0.196523
O O19 0.500000 0.447400 0.861469
O O20 0.244908 0.524716 0.858298
O O21 0.500000 0.597665 0.610861
#
# Coordination Sequence:
#
# PCOD9415894 Si02
#       8
#     8   8   8   8   8   8   8   8
#     4   9  16  30  51  76 108 147 182 215 261 319
#     4   9  17  32  57  86 115 149 185 221 267 328
#     4  10  20  37  60  87 117 145 180 226 274 330
#     4   9  21  40  57  78 114 150 181 228 285 334
#     4  10  21  37  55  77 110 148 185 226 274 326
#     4  11  24  42  62  83 107 142 187 233 282 333
#     4  10  19  33  52  75 106 145 184 221 264 319
#     4  10  20  33  51  78 110 141 178 226 274 320
#
# _framework density 19.067827000000001
#
# number of rings (size 3 to 8) (size 9 to 14) (size 15 to 20)
#    0.000    2.250    1.250    1.500    0.000    6.500 
#    0.000    3.125    0.000    3.000    0.000    0.000 
#    0.000    0.000    0.000    0.000    0.000    0.000 
#
# Total GULP energy -357298.199411 kJ/mol
# GULP energy per Si atom -5582.784366 kJ/mol
# Density = 1.902443 g / cm^3
# Si number density = 19.067827 Si / 1000 Ang^3
#
#
#
# Elastic Constant Matrix: (Units=GPa)
#
#
# Indices 1 2 3 4 5 6 
#
# 1 20.9825 29.9624 9.8070 0.0000 0.0000 0.0000
# 2 29.9624 65.3465 22.2837 0.0000 0.0000 0.0000
# 3 9.8070 22.2837 20.0253 0.0000 0.0000 0.0000
# 4 0.0000 0.0000 0.0000 17.3861 0.0000 0.0000
# 5 0.0000 0.0000 0.0000 0.0000 16.3880 0.0000
# 6 0.0000 0.0000 0.0000 0.0000 0.0000 27.2033
#
#
#
# Elastic Compliance Matrix: (Units=1/GPa)
#
#
# Indices 1 2 3 4 5 6 
#
# 1 0.138298 -0.064969 0.004567 0.000000 0.000000 0.000000
# 2 -0.064969 0.055182 -0.029588 0.000000 0.000000 0.000000
# 3 0.004567 -0.029588 0.080625 0.000000 0.000000 0.000000
# 4 0.000000 0.000000 0.000000 0.057517 0.000000 0.000000
# 5 0.000000 0.000000 0.000000 0.000000 0.061020 0.000000
# 6 0.000000 0.000000 0.000000 0.000000 0.000000 0.036760
#
#
# Mechanical properties :
#
#
# Convention : Reuss Voigt Hill
#
# Bulk Modulus (GPa) = 10.62413 25.60672 18.11543
# Shear Modulus (GPa) = 7.80328 15.14890 11.47609
#
# Velocity S-wave (km/s) = 2.02516 2.82170 2.45594
# Velocity P-wave (km/s) = 3.32449 4.90657 4.19086
#
# Compressibility (1/GPa) = 0.09412534
#
# Stress axis : x y z
#
# Youngs Moduli (GPa) = 7.23077 18.12183 12.40316
#
# Poissons Ratio (x) = 1.17736 -0.05665
# Poissons Ratio (y) = 0.46978 0.36698
# Poissons Ratio (z) = -0.03303 0.53619
#
# Static dielectric constant tensor:
#      x y z
#    x 1.631390 0.000000 0.000000 
#    y 0.000000 1.711980 0.000000 
#    z 0.000000 0.000000 1.625130 
# 
# From -- ./inp_files/34273.got.cif
#   From: 2010.05.17/outbox.cif.g08.bks.cpg/sg53_18_cif.got.tgz:34273.got - 2010.06.03 12:45:16.
