data_PCOD9415907
_publ_section_title
;
Structure prediction by ZEFSAII (Michael W. Deem and Ramdas Pophale) SiO2 
 PCOD9415907
Probable space group: P M N A
;
_chemical_formula_sum "Si O2"
_cell_formula_units_Z 64
_cell_length_a 16.671804
_cell_length_b 21.875902
_cell_length_c 9.520953
_cell_angle_alpha 90.000000
_cell_angle_beta 90.000000
_cell_angle_gamma 90.000000
_cell_volume 3472.393914
_symmetry_space_group_name_H-M "P M N A"
_symmetry_group_IT_number 53
_symmetry_cell_setting 'orthorhombic'
loop_
_space_group_symop_operation_xyz
x,y,z
1/2-x,-y,1/2+z
x,-y,-z
1/2-x,y,1/2-z
-x,-y,-z
1/2+x,y,1/2-z
-x,y,z
1/2+x,-y,1/2+z
loop_
_atom_site_type_symbol
_atom_site_label
_atom_site_fract_x
_atom_site_fract_y
_atom_site_fract_z
Si Si1 0.596519 0.258595 0.230371
Si Si2 0.156092 0.543197 0.723361
Si Si3 0.162634 0.001356 0.172006
Si Si4 0.096602 0.593304 0.227329
Si Si5 0.096171 0.362453 0.482223
Si Si6 0.595485 0.357176 0.438819
Si Si7 0.591728 0.934130 0.077857
Si Si8 0.839876 0.876314 0.690168
O O1 0.500000 0.260035 0.231613
O O2 0.623170 0.302932 0.102989
O O3 0.626530 0.295033 0.368194
O O4 0.621960 0.189257 0.216717
O O5 0.250000 0.547907 0.750000
O O6 0.129342 0.473921 0.741915
O O7 0.134725 0.575601 0.577472
O O8 0.110412 0.586992 0.833102
O O9 0.250000 0.000276 0.250000
O O10 0.117244 0.948015 0.260577
O O11 0.124609 0.066396 0.220666
O O12 0.167282 0.000000 0.000000
O O13 0.113465 0.638808 0.354456
O O14 0.130635 0.621887 0.085706
O O15 0.000000 0.586681 0.215765
O O16 0.000000 0.368091 0.462629
O O17 0.500000 0.349439 0.455882
O O18 0.500000 0.910914 0.072531
O O19 0.648343 0.893799 0.974979
O O20 0.593373 0.000000 0.000000
O O21 0.750000 0.871690 0.750000
#
# Coordination Sequence:
#
# PCOD9415907 Si02
#       8
#     8   8   8   8   8   8   8   8
#     4   9  18  34  53  72  99 136 177 217 257 308
#     4  11  21  31  47  73 102 130 162 205 260 319
#     4  10  19  34  56  83 116 150 184 222 268 323
#     4  10  19  33  53  73  95 126 166 212 262 316
#     4   9  19  35  53  71  93 128 172 214 257 308
#     4   9  19  35  53  72  97 132 171 211 258 313
#     4   9  18  33  54  81 112 145 182 225 269 312
#     4  10  19  33  55  80 106 143 183 217 264 322
#
# _framework density 18.431087999999999
#
# number of rings (size 3 to 8) (size 9 to 14) (size 15 to 20)
#    0.000    2.375    0.000    4.875    0.000    6.750 
#    0.000    1.250    0.000    1.500    0.000    0.000 
#    0.000    0.000    0.000    0.000    0.000    0.000 
#
# Total GULP energy -356392.312891 kJ/mol
# GULP energy per Si atom -5568.629889 kJ/mol
# Density = 1.838914 g / cm^3
# Si number density = 18.431088 Si / 1000 Ang^3
#
#
#
# Elastic Constant Matrix: (Units=GPa)
#
#
# Indices 1 2 3 4 5 6 
#
# 1 13.9380 6.8502 6.9505 0.0000 0.0000 0.0000
# 2 6.8502 106.4725 36.4048 0.0000 0.0000 0.0000
# 3 6.9505 36.4048 110.9898 0.0000 0.0000 0.0000
# 4 0.0000 0.0000 0.0000 0.7739 0.0000 0.0000
# 5 0.0000 0.0000 0.0000 0.0000 7.7885 0.0000
# 6 0.0000 0.0000 0.0000 0.0000 0.0000 54.0527
#
#
#
# Elastic Compliance Matrix: (Units=1/GPa)
#
#
# Indices 1 2 3 4 5 6 
#
# 1 0.075291 -0.003640 -0.003521 0.000000 0.000000 0.000000
# 2 -0.003640 0.010754 -0.003300 0.000000 0.000000 0.000000
# 3 -0.003521 -0.003300 0.010313 0.000000 0.000000 0.000000
# 4 0.000000 0.000000 0.000000 1.292089 0.000000 0.000000
# 5 0.000000 0.000000 0.000000 0.000000 0.128394 0.000000
# 6 0.000000 0.000000 0.000000 0.000000 0.000000 0.018500
#
#
# Mechanical properties :
#
#
# Convention : Reuss Voigt Hill
#
# Bulk Modulus (GPa) = 13.25614 36.86791 25.06202
# Shear Modulus (GPa) = 3.16174 24.60268 13.88221
#
# Velocity S-wave (km/s) = 1.31117 3.65752 2.74742
# Velocity P-wave (km/s) = 3.08222 6.15493 4.86740
#
# Compressibility (1/GPa) = 0.07543677
#
# Stress axis : x y z
#
# Youngs Moduli (GPa) = 13.28180 92.98469 96.96891
#
# Poissons Ratio (x) = 0.33848 0.34143
# Poissons Ratio (y) = 0.04835 0.31995
# Poissons Ratio (z) = 0.04677 0.30680
#
# Static dielectric constant tensor:
#      x y z
#    x 1.622510 0.000000 0.000000 
#    y 0.000000 1.611990 0.000000 
#    z 0.000000 0.000000 1.485320 
# 
# From -- ./inp_files/10248.got.cif
#   From: 2010.05.17/outbox.cif.g08.bks.cpg/sg53_6_cif.got.tgz:10248.got - 2010.06.03 12:45:16.
