data_PCOD9415577
_publ_section_title
;
Structure prediction by ZEFSAII (Michael W. Deem and Ramdas Pophale) SiO2 
 PCOD9415577
Probable space group: P M N A
;
_chemical_formula_sum "Si O2"
_cell_formula_units_Z 48
_cell_length_a 8.760851
_cell_length_b 15.520324
_cell_length_c 21.910127
_cell_angle_alpha 90.000000
_cell_angle_beta 90.000000
_cell_angle_gamma 90.000000
_cell_volume 2979.147269
_symmetry_space_group_name_H-M "P M N A"
_symmetry_group_IT_number 53
_symmetry_cell_setting 'orthorhombic'
loop_
_space_group_symop_operation_xyz
x,y,z
1/2-x,-y,1/2+z
x,-y,-z
1/2-x,y,1/2-z
-x,-y,-z
1/2+x,y,1/2-z
-x,y,z
1/2+x,-y,1/2+z
loop_
_atom_site_type_symbol
_atom_site_label
_atom_site_fract_x
_atom_site_fract_y
_atom_site_fract_z
Si Si1 0.682695 0.944515 0.917047
Si Si2 0.180780 0.298377 0.537018
Si Si3 0.683954 0.657494 0.596231
Si Si4 0.823901 0.470221 0.928891
Si Si5 0.317343 0.198393 0.182820
Si Si6 0.317758 0.117919 0.545831
O O1 0.500000 0.947684 0.925694
O O2 0.716841 0.884793 0.859234
O O3 0.756995 0.902061 0.977325
O O4 0.749056 0.040712 0.913797
O O5 0.245754 0.312542 0.468434
O O6 0.224789 0.384341 0.574240
O O7 0.257805 0.212232 0.562692
O O8 0.000000 0.287521 0.533699
O O9 0.500000 0.661874 0.591379
O O10 0.725407 0.556813 0.605944
O O11 0.744864 0.719797 0.648418
O O12 0.000000 0.449997 0.913927
O O13 0.821305 0.500000 0.000000
O O14 0.250000 0.189269 0.250000
O O15 0.500000 0.208323 0.185197
O O16 0.500000 0.114689 0.546096
#
# Coordination Sequence:
#
# PCOD9415577 Si02
#       6
#     8   8   8   8   8   8
#     4  10  20  34  49  70  98 128 164 209 252 298
#     4  11  19  28  45  71 101 132 163 199 243 296
#     4  10  19  32  49  68  97 130 165 205 245 294
#     4   8  16  29  44  66  95 128 160 195 238 286
#     4  11  23  36  53  73  99 133 170 209 250 294
#     4  11  20  30  49  72  98 133 165 202 251 305
#
# _framework density 16.111992000000001
#
# number of rings (size 3 to 8) (size 9 to 14) (size 15 to 20)
#    0.000    1.833    1.667    6.500    0.000    5.667 
#    0.000    0.000    0.000    0.000    0.000    1.167 
#    0.000    2.667    0.000    0.000    0.000    0.000 
#
# Total GULP energy -267819.483059 kJ/mol
# GULP energy per Si atom -5579.572564 kJ/mol
# Density = 1.607532 g / cm^3
# Si number density = 16.111992 Si / 1000 Ang^3
#
#
#
# Elastic Constant Matrix: (Units=GPa)
#
#
# Indices 1 2 3 4 5 6 
#
# 1 104.8043 70.5897 36.8422 0.0000 0.0000 0.0000
# 2 70.5897 157.1960 51.9277 0.0000 0.0000 0.0000
# 3 36.8422 51.9277 65.7339 0.0000 0.0000 0.0000
# 4 0.0000 0.0000 0.0000 14.5011 0.0000 0.0000
# 5 0.0000 0.0000 0.0000 0.0000 0.2063 0.0000
# 6 0.0000 0.0000 0.0000 0.0000 0.0000 -19.3202
#
#
#
# Elastic Compliance Matrix: (Units=1/GPa)
#
#
# Indices 1 2 3 4 5 6 
#
# 1 0.014422 -0.005150 -0.004015 0.000000 0.000000 0.000000
# 2 -0.005150 0.010447 -0.005366 0.000000 0.000000 0.000000
# 3 -0.004015 -0.005366 0.021702 0.000000 0.000000 0.000000
# 4 0.000000 0.000000 0.000000 0.068960 0.000000 0.000000
# 5 0.000000 0.000000 0.000000 0.000000 4.848131 0.000000
# 6 0.000000 0.000000 0.000000 0.000000 0.000000 -0.051759
#
#
# Mechanical properties :
#
#
# Convention : Reuss Voigt Hill
#
# Bulk Modulus (GPa) = 57.11392 71.82815 64.47104
# Shear Modulus (GPa) = 1.01075 10.30240 5.65658
#
# Velocity S-wave (km/s) = 0.79290 2.53143 1.87574
# Velocity P-wave (km/s) = 6.03020 7.29531 6.69271
#
# Compressibility (1/GPa) = 0.01750887
#
# Stress axis : x y z
#
# Youngs Moduli (GPa) = 69.34086 95.72390 46.07847
#
# Poissons Ratio (x) = 0.49296 0.18499
# Poissons Ratio (y) = 0.35710 0.24727
# Poissons Ratio (z) = 0.27838 0.51367
#
# Static dielectric constant tensor:
#      x y z
#    x 1.535840 0.000000 0.000000 
#    y 0.000000 1.577780 0.000000 
#    z 0.000000 0.000000 1.501680 
# 
# From -- ./inp_files/30511.got.cif
#   From: 2010.05.17/outbox.cif.g08.bks.cpg/sg53_16_cif.got.tgz:30511.got - 2010.06.03 12:45:16.
