data_PCOD9415517
_publ_section_title
;
Structure prediction by ZEFSAII (Michael W. Deem and Ramdas Pophale) SiO2 
 PCOD9415517
Probable space group: P M N A
;
_chemical_formula_sum "Si O2"
_cell_formula_units_Z 64
_cell_length_a 14.721318
_cell_length_b 35.892697
_cell_length_c 5.382401
_cell_angle_alpha 90.000000
_cell_angle_beta 90.000000
_cell_angle_gamma 90.000000
_cell_volume 2843.995058
_symmetry_space_group_name_H-M "P M N A"
_symmetry_group_IT_number 53
_symmetry_cell_setting 'orthorhombic'
loop_
_space_group_symop_operation_xyz
x,y,z
1/2-x,-y,1/2+z
x,-y,-z
1/2-x,y,1/2-z
-x,-y,-z
1/2+x,y,1/2-z
-x,y,z
1/2+x,-y,1/2+z
loop_
_atom_site_type_symbol
_atom_site_label
_atom_site_fract_x
_atom_site_fract_y
_atom_site_fract_z
Si Si1 0.641279 0.392964 0.750059
Si Si2 0.892165 0.893159 0.814849
Si Si3 0.611130 0.228870 0.679010
Si Si4 0.140980 0.646157 0.749620
Si Si5 0.859062 0.019766 0.249876
Si Si6 0.888883 0.855409 0.314135
Si Si7 0.392019 0.266779 0.178300
Si Si8 0.108364 0.480908 0.750409
O O1 0.750000 0.387981 0.750000
O O2 0.606459 0.372616 0.502579
O O3 0.623592 0.436857 0.746260
O O4 0.606252 0.374444 0.003096
O O5 0.879142 0.936527 0.758591
O O6 0.855913 0.869227 0.582761
O O7 0.000000 0.885822 0.824256
O O8 0.857639 0.881575 0.086826
O O9 0.500000 0.230139 0.669474
O O10 0.636226 0.186710 0.746034
O O11 0.644013 0.242854 0.410724
O O12 0.642402 0.254928 0.906792
O O13 0.250000 0.641872 0.750000
O O14 0.121564 0.689865 0.733850
O O15 0.750000 0.015798 0.250000
O O16 0.893126 0.000000 0.500000
O O17 0.893391 0.000000 0.000000
O O18 0.000000 0.856683 0.324038
O O19 0.500000 0.259702 0.169305
O O20 0.144310 0.500000 0.500000
O O21 0.000000 0.487033 0.750171
O O22 0.144706 0.500000 0.000000
#
# Coordination Sequence:
#
# PCOD9415517 Si02
#       8
#     8   8   8   8   8   8   8   8
#     4  10  21  36  54  75  99 133 172 204 242 294
#     4  10  19  31  51  76  98 125 162 202 244 288
#     4   9  17  30  49  74 102 129 162 203 242 289
#     4  10  21  36  52  73 103 134 165 206 252 292
#     4  10  21  36  52  70  96 131 164 196 242 294
#     4   9  17  30  49  74 102 129 158 198 248 292
#     4  10  19  31  51  76  98 128 169 205 240 287
#     4  10  21  36  54  78 106 133 162 202 252 296
#
# _framework density 22.503554999999999
#
# number of rings (size 3 to 8) (size 9 to 14) (size 15 to 20)
#    0.000    2.250    0.000    3.000    0.000    5.000 
#    0.000    0.000    0.000    4.500    0.000    0.000 
#    0.000    0.000    0.000    0.000    0.000    0.000 
#
# Total GULP energy -357862.858437 kJ/mol
# GULP energy per Si atom -5591.607163 kJ/mol
# Density = 2.245234 g / cm^3
# Si number density = 22.503555 Si / 1000 Ang^3
#
#
#
# Elastic Constant Matrix: (Units=GPa)
#
#
# Indices 1 2 3 4 5 6 
#
# 1 65.6293 -37.4998 -1.2700 0.0000 0.0000 0.0000
# 2 -37.4998 94.8759 45.4968 0.0000 0.0000 0.0000
# 3 -1.2700 45.4968 176.9260 0.0000 0.0000 0.0000
# 4 0.0000 0.0000 0.0000 52.8828 0.0000 0.0000
# 5 0.0000 0.0000 0.0000 0.0000 -10.5093 0.0000
# 6 0.0000 0.0000 0.0000 0.0000 0.0000 31.0814
#
#
#
# Elastic Compliance Matrix: (Units=1/GPa)
#
#
# Indices 1 2 3 4 5 6 
#
# 1 0.020405 0.009120 -0.002199 0.000000 0.000000 0.000000
# 2 0.009120 0.016098 -0.004074 0.000000 0.000000 0.000000
# 3 -0.002199 -0.004074 0.006684 0.000000 0.000000 0.000000
# 4 0.000000 0.000000 0.000000 0.018910 0.000000 0.000000
# 5 0.000000 0.000000 0.000000 0.000000 -0.095154 0.000000
# 6 0.000000 0.000000 0.000000 0.000000 0.000000 0.032174
#
#
# Mechanical properties :
#
#
# Convention : Reuss Voigt Hill
#
# Bulk Modulus (GPa) = 20.45781 38.98725 29.72253
# Shear Modulus (GPa) = 514.54740 36.73795 275.64268
#
# Velocity S-wave (km/s) = 15.13763 4.04485 11.07946
# Velocity P-wave (km/s) = 17.73813 6.25915 13.30072
#
# Compressibility (1/GPa) = 0.04888109
#
# Stress axis : x y z
#
# Youngs Moduli (GPa) = 49.00674 62.11806 149.61105
#
# Poissons Ratio (x) = -0.56649 0.32894
# Poissons Ratio (y) = -0.44692 0.60955
# Poissons Ratio (z) = 0.10775 0.25309
#
# Static dielectric constant tensor:
#      x y z
#    x 1.862070 0.000000 0.000000 
#    y 0.000000 1.745850 0.000000 
#    z 0.000000 0.000000 1.812280 
# 
# From -- ./inp_files/2316.got.cif
#   From: 2010.05.17/outbox.cif.g08.bks.cpg/sg53_2_cif.got.tgz:2316.got - 2010.06.03 12:45:16.
