data_PCOD9415610
_publ_section_title
;
Structure prediction by ZEFSAII (Michael W. Deem and Ramdas Pophale) SiO2 
 PCOD9415610
Probable space group: P M N A
;
_chemical_formula_sum "Si O2"
_cell_formula_units_Z 64
_cell_length_a 9.036107
_cell_length_b 22.206403
_cell_length_c 19.187307
_cell_angle_alpha 90.000000
_cell_angle_beta 90.000000
_cell_angle_gamma 90.000000
_cell_volume 3850.114155
_symmetry_space_group_name_H-M "P M N A"
_symmetry_group_IT_number 53
_symmetry_cell_setting 'orthorhombic'
loop_
_space_group_symop_operation_xyz
x,y,z
1/2-x,-y,1/2+z
x,-y,-z
1/2-x,y,1/2-z
-x,-y,-z
1/2+x,y,1/2-z
-x,y,z
1/2+x,-y,1/2+z
loop_
_atom_site_type_symbol
_atom_site_label
_atom_site_fract_x
_atom_site_fract_y
_atom_site_fract_z
Si Si1 0.677121 0.003675 0.322897
Si Si2 0.671655 0.408764 0.539536
Si Si3 0.177740 0.862798 0.175269
Si Si4 0.322687 0.362540 0.177204
Si Si5 0.322594 0.698564 0.968267
Si Si6 0.175017 0.064234 0.038089
Si Si7 0.827563 0.473901 0.111704
Si Si8 0.677284 0.176061 0.963466
O O1 0.750000 0.018726 0.250000
O O2 0.500000 0.005956 0.317678
O O3 0.722024 0.049268 0.383314
O O4 0.713433 0.933688 0.339482
O O5 0.500000 0.395003 0.554271
O O6 0.762023 0.348671 0.525112
O O7 0.723281 0.457612 0.596822
O O8 0.675574 0.442698 0.464677
O O9 0.250000 0.848446 0.250000
O O10 0.246130 0.824984 0.112213
O O11 0.000000 0.856959 0.177940
O O12 0.250000 0.343069 0.250000
O O13 0.500000 0.360829 0.182501
O O14 0.275562 0.322602 0.109606
O O15 0.268212 0.430566 0.160151
O O16 0.500000 0.695127 0.968320
O O17 0.279166 0.765455 0.991348
O O18 0.000000 0.080134 0.035315
O O19 0.267951 0.116317 0.002690
O O20 0.189475 0.000000 0.000000
O O21 0.000000 0.474528 0.134148
O O22 0.500000 0.175607 0.955455
#
# Coordination Sequence:
#
# PCOD9415610 Si02
#       8
#     8   8   8   8   8   8   8   8
#     4   9  18  32  51  73 100 129 159 201 255 313
#     4   8  14  26  47  72  97 124 157 196 242 293
#     4  10  19  34  54  78 103 129 160 202 254 313
#     4  10  19  32  50  72 100 138 179 220 261 303
#     4   9  20  35  49  70 103 138 176 218 259 306
#     4  10  19  35  53  73 102 134 168 215 269 316
#     4   8  14  26  45  72 100 123 153 199 246 292
#     4  11  22  35  52  77 105 137 176 218 261 313
#
# _framework density 16.622883999999999
#
# number of rings (size 3 to 8) (size 9 to 14) (size 15 to 20)
#    0.000    2.625    1.250    1.875    0.000    3.250 
#    0.000    3.125    0.000    3.750    0.000    5.250 
#    0.000    0.000    0.000    0.000    0.000    0.000 
#
# Total GULP energy -356519.248694 kJ/mol
# GULP energy per Si atom -5570.613261 kJ/mol
# Density = 1.658505 g / cm^3
# Si number density = 16.622884 Si / 1000 Ang^3
#
#
#
# Elastic Constant Matrix: (Units=GPa)
#
#
# Indices 1 2 3 4 5 6 
#
# 1 39.8215 35.0144 41.1903 0.0000 0.0000 0.0000
# 2 35.0144 82.9931 52.1480 0.0000 0.0000 0.0000
# 3 41.1903 52.1480 106.8088 0.0000 0.0000 0.0000
# 4 0.0000 0.0000 0.0000 19.2171 0.0000 0.0000
# 5 0.0000 0.0000 0.0000 0.0000 26.0778 0.0000
# 6 0.0000 0.0000 0.0000 0.0000 0.0000 18.5308
#
#
#
# Elastic Compliance Matrix: (Units=1/GPa)
#
#
# Indices 1 2 3 4 5 6 
#
# 1 0.049811 -0.012904 -0.012909 0.000000 0.000000 0.000000
# 2 -0.012904 0.020724 -0.005142 0.000000 0.000000 0.000000
# 3 -0.012909 -0.005142 0.016852 0.000000 0.000000 0.000000
# 4 0.000000 0.000000 0.000000 0.052037 0.000000 0.000000
# 5 0.000000 0.000000 0.000000 0.000000 0.038347 0.000000
# 6 0.000000 0.000000 0.000000 0.000000 0.000000 0.053964
#
#
# Mechanical properties :
#
#
# Convention : Reuss Voigt Hill
#
# Bulk Modulus (GPa) = 39.25161 54.03652 46.64407
# Shear Modulus (GPa) = 16.54879 19.51654 18.03266
#
# Velocity S-wave (km/s) = 3.15864 3.43020 3.29722
# Velocity P-wave (km/s) = 6.08005 6.94739 6.52814
#
# Compressibility (1/GPa) = 0.02547666
#
# Stress axis : x y z
#
# Youngs Moduli (GPa) = 20.07583 48.25301 59.34163
#
# Poissons Ratio (x) = 0.62263 0.76607
# Poissons Ratio (y) = 0.25905 0.30514
# Poissons Ratio (z) = 0.25917 0.24812
#
# Static dielectric constant tensor:
#      x y z
#    x 1.554190 0.000000 0.000000 
#    y 0.000000 1.561270 0.000000 
#    z 0.000000 0.000000 1.574310 
# 
# From -- ./inp_files/26881.got.cif
#   From: 2010.05.17/outbox.cif.g08.bks.cpg/sg53_14_cif.got.tgz:26881.got - 2010.06.03 12:45:16.
