data_PCOD9415837
_publ_section_title
;
Structure prediction by ZEFSAII (Michael W. Deem and Ramdas Pophale) SiO2 
 PCOD9415837
Probable space group: P M N A
;
_chemical_formula_sum "Si O2"
_cell_formula_units_Z 64
_cell_length_a 7.943882
_cell_length_b 13.756646
_cell_length_c 27.173066
_cell_angle_alpha 90.000000
_cell_angle_beta 90.000000
_cell_angle_gamma 90.000000
_cell_volume 2969.504514
_symmetry_space_group_name_H-M "P M N A"
_symmetry_group_IT_number 53
_symmetry_cell_setting 'orthorhombic'
loop_
_space_group_symop_operation_xyz
x,y,z
1/2-x,-y,1/2+z
x,-y,-z
1/2-x,y,1/2-z
-x,-y,-z
1/2+x,y,1/2-z
-x,y,z
1/2+x,-y,1/2+z
loop_
_atom_site_type_symbol
_atom_site_label
_atom_site_fract_x
_atom_site_fract_y
_atom_site_fract_z
Si Si1 0.200401 0.788830 0.305536
Si Si2 0.693613 0.920733 0.456952
Si Si3 0.796232 0.205147 0.145276
Si Si4 0.306286 0.220832 0.465953
Si Si5 0.701713 0.990918 0.352038
Si Si6 0.793437 0.601647 0.366962
Si Si7 0.806020 0.607315 0.479588
Si Si8 0.800106 0.588858 0.693003
O O1 0.250000 0.766104 0.250000
O O2 0.261932 0.896667 0.319479
O O3 0.262704 0.700585 0.339862
O O4 0.000000 0.790759 0.310069
O O5 0.500000 0.893508 0.444074
O O6 0.774401 0.831894 0.486517
O O7 0.768076 0.963246 0.406873
O O8 0.690332 0.000000 0.500000
O O9 0.734811 0.207629 0.088363
O O10 0.746157 0.303877 0.172845
O O11 0.000000 0.206869 0.145045
O O12 0.739150 0.098472 0.164669
O O13 0.500000 0.184990 0.462632
O O14 0.300349 0.331077 0.482048
O O15 0.500000 0.000683 0.355675
O O16 0.741800 0.607376 0.423797
O O17 0.734991 0.502843 0.339434
O O18 0.000000 0.599778 0.366454
O O19 0.809604 0.500000 0.500000
O O20 0.000000 0.643099 0.479831
O O21 0.750000 0.578840 0.750000
O O22 0.000000 0.582796 0.690379
#
# Coordination Sequence:
#
# PCOD9415837 Si02
#       8
#     8   8   8   8   8   8   8   8
#     4  11  23  40  61  84 113 147 191 245 297 345
#     4   9  15  29  54  82 110 145 184 221 268 323
#     4  10  21  37  57  84 119 155 190 231 278 333
#     4  10  19  32  54  84 115 148 188 231 271 316
#     4  10  20  36  59  86 118 155 194 233 281 340
#     4   9  20  39  61  85 114 149 189 235 286 342
#     4  10  20  35  55  80 115 156 188 218 271 339
#     4  11  23  41  64  86 109 142 187 238 291 345
#
# _framework density 21.552416000000001
#
# number of rings (size 3 to 8) (size 9 to 14) (size 15 to 20)
#    0.000    2.000    1.250    2.625    0.000    2.750 
#    0.000    3.750    0.000    0.750    0.000    0.000 
#    0.000    0.000    0.000    0.000    0.000    0.000 
#
# Total GULP energy -356957.079519 kJ/mol
# GULP energy per Si atom -5577.454367 kJ/mol
# Density = 2.150336 g / cm^3
# Si number density = 21.552416 Si / 1000 Ang^3
#
#
#
# Elastic Constant Matrix: (Units=GPa)
#
#
# Indices 1 2 3 4 5 6 
#
# 1 24.4222 13.8421 1.4691 0.0000 0.0000 0.0000
# 2 13.8421 132.4029 27.6552 0.0000 0.0000 0.0000
# 3 1.4691 27.6552 78.7242 0.0000 0.0000 0.0000
# 4 0.0000 0.0000 0.0000 34.4313 0.0000 0.0000
# 5 0.0000 0.0000 0.0000 0.0000 -18.9483 0.0000
# 6 0.0000 0.0000 0.0000 0.0000 0.0000 -100.5864
#
#
#
# Elastic Compliance Matrix: (Units=1/GPa)
#
#
# Indices 1 2 3 4 5 6 
#
# 1 0.043578 -0.004733 0.000850 0.000000 0.000000 0.000000
# 2 -0.004733 0.008665 -0.002956 0.000000 0.000000 0.000000
# 3 0.000850 -0.002956 0.013725 0.000000 0.000000 0.000000
# 4 0.000000 0.000000 0.000000 0.029043 0.000000 0.000000
# 5 0.000000 0.000000 0.000000 0.000000 -0.052775 0.000000
# 6 0.000000 0.000000 0.000000 0.000000 0.000000 -0.009942
#
#
# Mechanical properties :
#
#
# Convention : Reuss Voigt Hill
#
# Bulk Modulus (GPa) = 19.12441 35.72023 27.42232
# Shear Modulus (GPa) = 78.86098 -4.18182 37.33958
#
# Velocity S-wave (km/s) = 6.05556 -1.39446 4.16685
# Velocity P-wave (km/s) = 7.60169 3.74392 5.99177
#
# Compressibility (1/GPa) = 0.05228920
#
# Stress axis : x y z
#
# Youngs Moduli (GPa) = 22.94737 115.40829 72.85982
#
# Poissons Ratio (x) = 0.54626 -0.06190
# Poissons Ratio (y) = 0.10862 0.21534
# Poissons Ratio (z) = -0.01950 0.34110
#
# Static dielectric constant tensor:
#      x y z
#    x 1.855200 0.000000 0.000000 
#    y 0.000000 2.147870 0.000000 
#    z 0.000000 0.000000 1.757860 
# 
# From -- ./inp_files/38141.got.cif
#   From: 2010.05.17/outbox.cif.g08.bks.cpg/sg53_20_cif.got.tgz:38141.got - 2010.06.03 12:45:16.
