data_PCOD9415647
_publ_section_title
;
Structure prediction by ZEFSAII (Michael W. Deem and Ramdas Pophale) SiO2 
 PCOD9415647
Probable space group: P M N A
;
_chemical_formula_sum "Si O2"
_cell_formula_units_Z 48
_cell_length_a 13.938818
_cell_length_b 28.569759
_cell_length_c 5.290352
_cell_angle_alpha 90.000000
_cell_angle_beta 90.000000
_cell_angle_gamma 90.000000
_cell_volume 2106.769846
_symmetry_space_group_name_H-M "P M N A"
_symmetry_group_IT_number 53
_symmetry_cell_setting 'orthorhombic'
loop_
_space_group_symop_operation_xyz
x,y,z
1/2-x,-y,1/2+z
x,-y,-z
1/2-x,y,1/2-z
-x,-y,-z
1/2+x,y,1/2-z
-x,y,z
1/2+x,-y,1/2+z
loop_
_atom_site_type_symbol
_atom_site_label
_atom_site_fract_x
_atom_site_fract_y
_atom_site_fract_z
Si Si1 0.113149 0.847777 0.613421
Si Si2 0.382027 0.796567 0.384342
Si Si3 0.387405 0.470916 0.258125
Si Si4 0.815331 0.949370 0.501633
Si Si5 0.616832 0.688808 0.382309
Si Si6 0.116773 0.632970 0.617130
O O1 0.150557 0.817329 0.381555
O O2 0.127028 0.901961 0.544452
O O3 0.000000 0.839204 0.623865
O O4 0.149706 0.829713 0.883870
O O5 0.500000 0.796903 0.384697
O O6 0.352046 0.742632 0.399216
O O7 0.346499 0.500000 0.500000
O O8 0.500000 0.463462 0.324771
O O9 0.350908 0.419699 0.179275
O O10 0.382980 0.500000 0.000000
O O11 0.750000 0.952289 0.750000
O O12 0.867661 0.000000 0.500000
O O13 0.750000 0.944891 0.250000
O O14 0.500000 0.689773 0.369653
O O15 0.642653 0.663377 0.640379
O O16 0.648708 0.658918 0.138535
O O17 0.000000 0.631103 0.599034
#
# Coordination Sequence:
#
# PCOD9415647 Si02
#       6
#     8   8   8   8   8   8
#     4  10  19  32  51  74  98 125 159 197 240 287
#     4   9  17  28  43  65  91 116 144 186 238 285
#     4   9  15  21  27  36  53  79 117 168 220 264
#     4  10  21  37  55  75 101 132 163 196 237 283
#     4   9  15  23  34  49  71  97 127 166 218 278
#     4   9  15  21  30  43  60  89 127 166 217 277
#
# _framework density 22.783691999999999
#
# number of rings (size 3 to 8) (size 9 to 14) (size 15 to 20)
#    0.000    2.667    0.000    3.000    0.000    8.333 
#    0.000    0.000    0.000    6.000    0.000    0.000 
#    0.000    0.000    0.000    0.000    0.000    0.000 
#
# Total GULP energy -268174.031763 kJ/mol
# GULP energy per Si atom -5586.958995 kJ/mol
# Density = 2.273184 g / cm^3
# Si number density = 22.783692 Si / 1000 Ang^3
#
#
#
# Elastic Constant Matrix: (Units=GPa)
#
#
# Indices 1 2 3 4 5 6 
#
# 1 60.5226 -1.4232 9.5837 0.0000 0.0000 0.0000
# 2 -1.4232 175.3628 63.8950 0.0000 0.0000 0.0000
# 3 9.5837 63.8950 166.1931 0.0000 0.0000 0.0000
# 4 0.0000 0.0000 0.0000 40.5124 0.0000 0.0000
# 5 0.0000 0.0000 0.0000 0.0000 17.3538 0.0000
# 6 0.0000 0.0000 0.0000 0.0000 0.0000-1067.2934
#
#
#
# Elastic Compliance Matrix: (Units=1/GPa)
#
#
# Indices 1 2 3 4 5 6 
#
# 1 0.016723 0.000566 -0.001182 0.000000 0.000000 0.000000
# 2 0.000566 0.006651 -0.002590 0.000000 0.000000 0.000000
# 3 -0.001182 -0.002590 0.007081 0.000000 0.000000 0.000000
# 4 0.000000 0.000000 0.000000 0.024684 0.000000 0.000000
# 5 0.000000 0.000000 0.000000 0.000000 0.057624 0.000000
# 6 0.000000 0.000000 0.000000 0.000000 0.000000 -0.000937
#
#
# Mechanical properties :
#
#
# Convention : Reuss Voigt Hill
#
# Bulk Modulus (GPa) = 41.59008 60.68772 51.13890
# Shear Modulus (GPa) = 39.60363 -179.88390 -70.14014
#
# Velocity S-wave (km/s) = 4.17375 -8.89519 -5.55446
# Velocity P-wave (km/s) = 6.44367 8.87721 4.31763
#
# Compressibility (1/GPa) = 0.02404419
#
# Stress axis : x y z
#
# Youngs Moduli (GPa) = 59.79690 150.36258 141.22581
#
# Poissons Ratio (x) = -0.08517 0.16695
# Poissons Ratio (y) = -0.03387 0.36571
# Poissons Ratio (z) = 0.07069 0.38937
#
# Static dielectric constant tensor:
#      x y z
#    x 1.934630 0.000000 0.000000 
#    y 0.000000 1.850380 0.000000 
#    z 0.000000 0.000000 1.770640 
# 
# From -- ./inp_files/2223.got.cif
#   From: 2010.05.17/outbox.cif.g08.bks.cpg/sg53_2_cif.got.tgz:2223.got - 2010.06.03 12:45:16.
