data_PCOD9415113
_publ_section_title
;
Structure prediction by ZEFSAII (Michael W. Deem and Ramdas Pophale) SiO2 
 PCOD9415113
Probable space group: P M N A
;
_chemical_formula_sum "Si O2"
_cell_formula_units_Z 56
_cell_length_a 8.575175
_cell_length_b 14.003845
_cell_length_c 29.330510
_cell_angle_alpha 90.000000
_cell_angle_beta 90.000000
_cell_angle_gamma 90.000000
_cell_volume 3522.166658
_symmetry_space_group_name_H-M "P M N A"
_symmetry_group_IT_number 53
_symmetry_cell_setting 'orthorhombic'
loop_
_space_group_symop_operation_xyz
x,y,z
1/2-x,-y,1/2+z
x,-y,-z
1/2-x,y,1/2-z
-x,-y,-z
1/2+x,y,1/2-z
-x,y,z
1/2+x,-y,1/2+z
loop_
_atom_site_type_symbol
_atom_site_label
_atom_site_fract_x
_atom_site_fract_y
_atom_site_fract_z
Si Si1 0.313118 0.005442 0.299710
Si Si2 0.813394 0.081004 0.609194
Si Si3 0.688959 0.288684 0.395224
Si Si4 0.186574 0.104754 0.447520
Si Si5 0.313568 0.205159 0.534384
Si Si6 0.189846 0.602426 0.982836
Si Si7 0.812637 0.227538 0.200935
O O1 0.250000 0.977296 0.250000
O O2 0.500000 0.003317 0.299613
O O3 0.250626 0.940644 0.340633
O O4 0.263145 0.116713 0.307053
O O5 0.753216 0.174446 0.583072
O O6 0.000000 0.081837 0.610649
O O7 0.761926 0.991579 0.577486
O O8 0.500000 0.280667 0.396917
O O9 0.760109 0.192343 0.415960
O O10 0.734278 0.371370 0.430800
O O11 0.735782 0.291144 0.342350
O O12 0.257897 0.128347 0.496660
O O13 0.000000 0.102244 0.452177
O O14 0.500000 0.204802 0.535979
O O15 0.261889 0.308476 0.514819
O O16 0.000000 0.600766 0.984073
O O17 0.246408 0.500000 0.000000
O O18 0.750000 0.257935 0.250000
O O19 0.000000 0.227427 0.202916
#
# Coordination Sequence:
#
# PCOD9415113 Si02
#       7
#     8   8   8   8   8   8   8
#     4  10  19  31  46  64  91 124 160 193 224 265
#     4  11  21  31  44  64  92 124 157 190 226 265
#     4   9  16  28  45  66  90 119 152 185 226 273
#     4  10  19  29  42  62  91 123 153 184 221 264
#     4  10  20  31  46  66  89 118 153 189 228 275
#     4   8  15  29  49  70  90 112 146 192 236 281
#     4   9  17  27  41  62  89 120 152 184 216 260
#
# _framework density 15.899304000000001
#
# number of rings (size 3 to 8) (size 9 to 14) (size 15 to 20)
#    0.000    2.429    1.429    3.000    0.000    4.571 
#    0.000    0.000    0.000   10.714    0.000    1.000 
#    0.000    2.286    0.000    0.000    0.000    0.000 
#
# Total GULP energy -312117.914967 kJ/mol
# GULP energy per Si atom -5573.534196 kJ/mol
# Density = 1.586312 g / cm^3
# Si number density = 15.899304 Si / 1000 Ang^3
#
#
#
# Elastic Constant Matrix: (Units=GPa)
#
#
# Indices 1 2 3 4 5 6 
#
# 1 21.8976 14.1587 30.2449 0.0000 0.0000 0.0000
# 2 14.1587 63.7737 68.4752 0.0000 0.0000 0.0000
# 3 30.2449 68.4752 159.8754 0.0000 0.0000 0.0000
# 4 0.0000 0.0000 0.0000 16.7539 0.0000 0.0000
# 5 0.0000 0.0000 0.0000 0.0000 28.3027 0.0000
# 6 0.0000 0.0000 0.0000 0.0000 0.0000 5.8254
#
#
#
# Elastic Compliance Matrix: (Units=1/GPa)
#
#
# Indices 1 2 3 4 5 6 
#
# 1 0.061982 -0.002168 -0.010797 0.000000 0.000000 0.000000
# 2 -0.002168 0.029107 -0.012057 0.000000 0.000000 0.000000
# 3 -0.010797 -0.012057 0.013461 0.000000 0.000000 0.000000
# 4 0.000000 0.000000 0.000000 0.059688 0.000000 0.000000
# 5 0.000000 0.000000 0.000000 0.000000 0.035332 0.000000
# 6 0.000000 0.000000 0.000000 0.000000 0.000000 0.171663
#
#
# Mechanical properties :
#
#
# Convention : Reuss Voigt Hill
#
# Bulk Modulus (GPa) = 18.34620 52.36714 35.35667
# Shear Modulus (GPa) = 11.37799 19.02092 15.19945
#
# Velocity S-wave (km/s) = 2.67802 3.46256 3.09525
# Velocity P-wave (km/s) = 4.59635 6.99957 5.92117
#
# Compressibility (1/GPa) = 0.05450719
#
# Stress axis : x y z
#
# Youngs Moduli (GPa) = 16.13383 34.35579 74.28682
#
# Poissons Ratio (x) = 0.07447 0.80208
# Poissons Ratio (y) = 0.03497 0.89565
# Poissons Ratio (z) = 0.17420 0.41421
#
# Static dielectric constant tensor:
#      x y z
#    x 1.535370 0.000000 0.000000 
#    y 0.000000 1.524730 0.000000 
#    z 0.000000 0.000000 1.554610 
# 
# From -- ./inp_files/38367.got.cif
#   From: 2010.05.17/outbox.cif.g08.bks.cpg/sg53_20_cif.got.tgz:38367.got - 2010.06.03 12:45:16.
