data_PCOD9415757
_publ_section_title
;
Structure prediction by ZEFSAII (Michael W. Deem and Ramdas Pophale) SiO2 
 PCOD9415757
Probable space group: P M N A
;
_chemical_formula_sum "Si O2"
_cell_formula_units_Z 64
_cell_length_a 8.976749
_cell_length_b 12.736896
_cell_length_c 29.637214
_cell_angle_alpha 90.000000
_cell_angle_beta 90.000000
_cell_angle_gamma 90.000000
_cell_volume 3388.598082
_symmetry_space_group_name_H-M "P M N A"
_symmetry_group_IT_number 53
_symmetry_cell_setting 'orthorhombic'
loop_
_space_group_symop_operation_xyz
x,y,z
1/2-x,-y,1/2+z
x,-y,-z
1/2-x,y,1/2-z
-x,-y,-z
1/2+x,y,1/2-z
-x,y,z
1/2+x,-y,1/2+z
loop_
_atom_site_type_symbol
_atom_site_label
_atom_site_fract_x
_atom_site_fract_y
_atom_site_fract_z
Si Si1 0.325940 0.078360 0.796381
Si Si2 0.677003 0.438651 0.394530
Si Si3 0.178345 0.343767 0.944283
Si Si4 0.824362 0.157339 0.327751
Si Si5 0.178834 0.866484 0.109151
Si Si6 0.678148 0.906798 0.577864
Si Si7 0.676615 0.282574 0.036108
Si Si8 0.822508 0.630463 0.795019
O O1 0.250000 0.112975 0.750000
O O2 0.500000 0.104002 0.795859
O O3 0.252040 0.123304 0.841737
O O4 0.311697 0.951737 0.800769
O O5 0.500000 0.417327 0.400756
O O6 0.710352 0.551311 0.416203
O O7 0.767333 0.350554 0.421372
O O8 0.706828 0.432726 0.341194
O O9 0.219429 0.240393 0.915903
O O10 0.000000 0.340838 0.952748
O O11 0.262291 0.339201 0.991583
O O12 0.737523 0.137634 0.374418
O O13 0.750926 0.255498 0.303033
O O14 0.000000 0.176583 0.336271
O O15 0.000000 0.868778 0.114877
O O16 0.218381 0.969979 0.079783
O O17 0.500000 0.897062 0.575050
O O18 0.752488 0.833455 0.540455
O O19 0.500000 0.275664 0.035852
O O20 0.750000 0.583940 0.750000
O O21 0.000000 0.640965 0.789466
#
# Coordination Sequence:
#
# PCOD9415757 Si02
#       8
#     8   8   8   8   8   8   8   8
#     4  10  20  33  53  81 114 151 193 237 286 341
#     4  10  22  41  63  85 114 153 194 238 288 343
#     4  10  22  42  64  84 111 151 198 242 290 347
#     4  10  19  32  52  82 117 151 185 230 285 342
#     4   9  20  38  60  84 113 151 194 240 289 344
#     4  10  19  34  57  85 118 153 188 229 283 344
#     4  12  24  37  59  90 120 150 190 239 293 345
#     4  11  22  35  55  83 115 152 190 231 284 344
#
# _framework density 18.886866999999999
#
# number of rings (size 3 to 8) (size 9 to 14) (size 15 to 20)
#    0.000    1.750    1.250    3.375    0.000    6.500 
#    0.000    3.125    0.000    1.500    0.000    0.000 
#    0.000    0.000    0.000    0.000    0.000    0.000 
#
# Total GULP energy -357565.838038 kJ/mol
# GULP energy per Si atom -5586.966219 kJ/mol
# Density = 1.884388 g / cm^3
# Si number density = 18.886867 Si / 1000 Ang^3
#
#
#
# Elastic Constant Matrix: (Units=GPa)
#
#
# Indices 1 2 3 4 5 6 
#
# 1 60.3013 37.4980 37.9109 0.0000 0.0000 0.0000
# 2 37.4980 76.1816 25.5573 0.0000 0.0000 0.0000
# 3 37.9109 25.5573 71.5814 0.0000 0.0000 0.0000
# 4 0.0000 0.0000 0.0000 -330.8846 0.0000 0.0000
# 5 0.0000 0.0000 0.0000 0.0000 28.0469 0.0000
# 6 0.0000 0.0000 0.0000 0.0000 0.0000 12.2089
#
#
#
# Elastic Compliance Matrix: (Units=1/GPa)
#
#
# Indices 1 2 3 4 5 6 
#
# 1 0.031585 -0.011287 -0.012698 0.000000 0.000000 0.000000
# 2 -0.011287 0.018946 -0.000787 0.000000 0.000000 0.000000
# 3 -0.012698 -0.000787 0.020976 0.000000 0.000000 0.000000
# 4 0.000000 0.000000 0.000000 -0.003022 0.000000 0.000000
# 5 0.000000 0.000000 0.000000 0.000000 0.035655 0.000000
# 6 0.000000 0.000000 0.000000 0.000000 0.000000 0.081908
#
#
# Mechanical properties :
#
#
# Convention : Reuss Voigt Hill
#
# Bulk Modulus (GPa) = 45.52947 45.55519 45.54233
# Shear Modulus (GPa) = 20.58351 -50.98588 -15.20119
#
# Velocity S-wave (km/s) = 3.30484 -5.20135 -2.84007
# Velocity P-wave (km/s) = 6.22265 3.44958 3.66209
#
# Compressibility (1/GPa) = 0.02196380
#
# Stress axis : x y z
#
# Youngs Moduli (GPa) = 31.66020 52.78140 47.67282
#
# Poissons Ratio (x) = 0.59574 0.60537
# Poissons Ratio (y) = 0.35734 0.03751
# Poissons Ratio (z) = 0.40203 0.04152
#
# Static dielectric constant tensor:
#      x y z
#    x 1.629520 0.000000 0.000000 
#    y 0.000000 1.649880 0.000000 
#    z 0.000000 0.000000 1.656420 
# 
# From -- ./inp_files/38269.got.cif
#   From: 2010.05.17/outbox.cif.g08.bks.cpg/sg53_20_cif.got.tgz:38269.got - 2010.06.03 12:45:16.
