data_PCOD9415525
_publ_section_title
;
Structure prediction by ZEFSAII (Michael W. Deem and Ramdas Pophale) SiO2 
 PCOD9415525
Probable space group: P M N A
;
_chemical_formula_sum "Si O2"
_cell_formula_units_Z 40
_cell_length_a 13.929852
_cell_length_b 5.424272
_cell_length_c 20.010831
_cell_angle_alpha 90.000000
_cell_angle_beta 90.000000
_cell_angle_gamma 90.000000
_cell_volume 1512.004506
_symmetry_space_group_name_H-M "P M N A"
_symmetry_group_IT_number 53
_symmetry_cell_setting 'orthorhombic'
loop_
_space_group_symop_operation_xyz
x,y,z
1/2-x,-y,1/2+z
x,-y,-z
1/2-x,y,1/2-z
-x,-y,-z
1/2+x,y,1/2-z
-x,y,z
1/2+x,-y,1/2+z
loop_
_atom_site_type_symbol
_atom_site_label
_atom_site_fract_x
_atom_site_fract_y
_atom_site_fract_z
Si Si1 0.135848 0.772272 0.258422
Si Si2 0.163266 0.735865 0.692732
Si Si3 0.884502 0.654239 0.932425
Si Si4 0.393257 0.165442 0.612847
Si Si5 0.384819 0.748951 0.957343
O O1 0.250000 0.744958 0.250000
O O2 0.105311 0.501258 0.280562
O O3 0.099176 0.891782 0.190094
O O4 0.117448 0.991594 0.309043
O O5 0.250000 0.757640 0.750000
O O6 0.171792 0.703392 0.612491
O O7 0.851159 0.440816 0.882265
O O8 0.000000 0.688727 0.922851
O O9 0.847979 0.932328 0.924100
O O10 0.867636 0.500000 0.000000
O O11 0.500000 0.195733 0.582784
O O12 0.500000 0.759460 0.943725
O O13 0.366758 0.500000 0.000000
O O14 0.361281 0.000000 0.000000
#
# Coordination Sequence:
#
# PCOD9415525 Si02
#       5
#     8   8   8   8   8
#     4  10  21  36  55  77 111 150 189 243 300 347
#     4  10  21  38  61  86 119 162 207 252 307 382
#     4   9  17  30  49  74 105 140 177 222 277 335
#     4  10  19  31  51  79 107 138 183 234 285 340
#     4  10  21  38  63  97 133 166 205 263 333 393
#
# _framework density 26.454948000000002
#
# number of rings (size 3 to 8) (size 9 to 14) (size 15 to 20)
#    0.000    2.200    0.000    3.000    0.000    4.000 
#    0.000    0.000    0.000   48.000    0.000    0.000 
#    0.000    1.600    0.000    0.000    0.000    0.000 
#
# Total GULP energy -222736.966132 kJ/mol
# GULP energy per Si atom -5568.424153 kJ/mol
# Density = 2.639474 g / cm^3
# Si number density = 26.454948 Si / 1000 Ang^3
#
#
#
# Elastic Constant Matrix: (Units=GPa)
#
#
# Indices 1 2 3 4 5 6 
#
# 1 130.0592 40.5405 26.8296 0.0000 0.0000 0.0000
# 2 40.5405 197.4260 27.9529 0.0000 0.0000 0.0000
# 3 26.8296 27.9529 138.6921 0.0000 0.0000 0.0000
# 4 0.0000 0.0000 0.0000 56.1819 0.0000 0.0000
# 5 0.0000 0.0000 0.0000 0.0000 22.7893 0.0000
# 6 0.0000 0.0000 0.0000 0.0000 0.0000 -7.5590
#
#
#
# Elastic Compliance Matrix: (Units=1/GPa)
#
#
# Indices 1 2 3 4 5 6 
#
# 1 0.008444 -0.001547 -0.001322 0.000000 0.000000 0.000000
# 2 -0.001547 0.005497 -0.000809 0.000000 0.000000 0.000000
# 3 -0.001322 -0.000809 0.007629 0.000000 0.000000 0.000000
# 4 0.000000 0.000000 0.000000 0.017799 0.000000 0.000000
# 5 0.000000 0.000000 0.000000 0.000000 0.043880 0.000000
# 6 0.000000 0.000000 0.000000 0.000000 0.000000 -0.132292
#
#
# Mechanical properties :
#
#
# Convention : Reuss Voigt Hill
#
# Bulk Modulus (GPa) = 70.34564 72.98036 71.66300
# Shear Modulus (GPa) = -135.31830 39.00605 -48.15613
#
# Velocity S-wave (km/s) = -7.15971 3.84400 -4.27113
# Velocity P-wave (km/s) = 6.45757 6.88101 1.68049
#
# Compressibility (1/GPa) = 0.01421552
#
# Stress axis : x y z
#
# Youngs Moduli (GPa) = 118.43329 181.90715 131.08074
#
# Poissons Ratio (x) = 0.28136 0.17324
# Poissons Ratio (y) = 0.18318 0.10601
# Poissons Ratio (z) = 0.15653 0.14712
#
# Static dielectric constant tensor:
#      x y z
#    x 2.245260 0.000000 0.000000 
#    y 0.000000 2.213140 0.000000 
#    z 0.000000 0.000000 2.310890 
# 
# From -- ./inp_files/28741.got.cif
#   From: 2010.05.17/outbox.cif.g08.bks.cpg/sg53_15_cif.got.tgz:28741.got - 2010.06.03 12:45:16.
