data_PCOD9415260
_publ_section_title
;
Structure prediction by ZEFSAII (Michael W. Deem and Ramdas Pophale) SiO2 
 PCOD9415260
Probable space group: P M N A
;
_chemical_formula_sum "Si O2"
_cell_formula_units_Z 56
_cell_length_a 9.187950
_cell_length_b 21.246485
_cell_length_c 14.936191
_cell_angle_alpha 90.000000
_cell_angle_beta 90.000000
_cell_angle_gamma 90.000000
_cell_volume 2915.718368
_symmetry_space_group_name_H-M "P M N A"
_symmetry_group_IT_number 53
_symmetry_cell_setting 'orthorhombic'
loop_
_space_group_symop_operation_xyz
x,y,z
1/2-x,-y,1/2+z
x,-y,-z
1/2-x,y,1/2-z
-x,-y,-z
1/2+x,y,1/2-z
-x,y,z
1/2+x,-y,1/2+z
loop_
_atom_site_type_symbol
_atom_site_label
_atom_site_fract_x
_atom_site_fract_y
_atom_site_fract_z
Si Si1 0.665310 0.552924 0.419901
Si Si2 0.174228 0.108461 0.839256
Si Si3 0.674948 0.028171 0.158991
Si Si4 0.157869 0.546565 0.677179
Si Si5 0.164106 0.649735 0.525748
Si Si6 0.667775 0.124800 0.459830
Si Si7 0.671230 0.747594 0.653462
O O1 0.660657 0.500000 0.500000
O O2 0.500000 0.563580 0.392702
O O3 0.762074 0.517249 0.347713
O O4 0.739242 0.618347 0.448474
O O5 0.250000 0.136476 0.750000
O O6 0.000000 0.101501 0.824199
O O7 0.251654 0.040426 0.850958
O O8 0.194760 0.141466 0.935781
O O9 0.750000 0.054579 0.250000
O O10 0.500000 0.024641 0.167361
O O11 0.723724 0.071952 0.077072
O O12 0.250000 0.583434 0.750000
O O13 0.147288 0.589842 0.591291
O O14 0.000000 0.534098 0.714572
O O15 0.248396 0.701059 0.584223
O O16 0.000000 0.669783 0.499957
O O17 0.500000 0.100958 0.455368
O O18 0.678800 0.184399 0.394396
O O19 0.750000 0.747837 0.750000
O O20 0.500000 0.730774 0.664195
#
# Coordination Sequence:
#
# PCOD9415260 Si02
#       7
#     8   8   8   8   8   8   8
#     4   9  17  30  49  72  98 129 165 206 253 303
#     4  10  20  36  57  80 107 138 175 220 269 320
#     4  11  21  33  53  81 112 144 178 217 264 320
#     4  10  19  30  47  73 104 135 168 208 255 307
#     4  10  20  34  52  74 102 136 173 212 255 306
#     4  10  22  38  55  77 108 144 179 221 271 319
#     4  11  23  38  55  77 105 139 179 219 264 318
#
# _framework density 19.206244000000002
#
# number of rings (size 3 to 8) (size 9 to 14) (size 15 to 20)
#    0.000    1.857    0.000    5.571    0.000    9.714 
#    0.000    0.000    0.000    0.857    0.000    4.000 
#    0.000    0.000    0.000    0.000    0.000    0.000 
#
# Total GULP energy -312197.424765 kJ/mol
# GULP energy per Si atom -5574.954014 kJ/mol
# Density = 1.916253 g / cm^3
# Si number density = 19.206244 Si / 1000 Ang^3
#
#
#
# Elastic Constant Matrix: (Units=GPa)
#
#
# Indices 1 2 3 4 5 6 
#
# 1 148.5949 23.4632 21.4977 0.0000 0.0000 0.0000
# 2 23.4632 33.2527 5.5907 0.0000 0.0000 0.0000
# 3 21.4977 5.5907 55.3090 0.0000 0.0000 0.0000
# 4 0.0000 0.0000 0.0000 28.1712 0.0000 0.0000
# 5 0.0000 0.0000 0.0000 0.0000 27.8183 0.0000
# 6 0.0000 0.0000 0.0000 0.0000 0.0000 15.1589
#
#
#
# Elastic Compliance Matrix: (Units=1/GPa)
#
#
# Indices 1 2 3 4 5 6 
#
# 1 0.007913 -0.005154 -0.002555 0.000000 0.000000 0.000000
# 2 -0.005154 0.033950 -0.001428 0.000000 0.000000 0.000000
# 3 -0.002555 -0.001428 0.019218 0.000000 0.000000 0.000000
# 4 0.000000 0.000000 0.000000 0.035497 0.000000 0.000000
# 5 0.000000 0.000000 0.000000 0.000000 0.035948 0.000000
# 6 0.000000 0.000000 0.000000 0.000000 0.000000 0.065968
#
#
# Mechanical properties :
#
#
# Convention : Reuss Voigt Hill
#
# Bulk Modulus (GPa) = 23.36119 37.58444 30.47282
# Shear Modulus (GPa) = 21.64167 26.67002 24.15585
#
# Velocity S-wave (km/s) = 3.36043 3.73045 3.55027
# Velocity P-wave (km/s) = 5.21981 6.17789 5.71895
#
# Compressibility (1/GPa) = 0.04280603
#
# Stress axis : x y z
#
# Youngs Moduli (GPa) = 126.37224 29.45548 52.03557
#
# Poissons Ratio (x) = 0.15181 0.13294
# Poissons Ratio (y) = 0.65132 0.07433
# Poissons Ratio (z) = 0.32285 0.04207
#
# Static dielectric constant tensor:
#      x y z
#    x 1.687540 0.000000 0.000000 
#    y 0.000000 1.649850 0.000000 
#    z 0.000000 0.000000 1.769090 
# 
# From -- ./inp_files/20464.got.cif
#   From: 2010.05.17/outbox.cif.g08.bks.cpg/sg53_11_cif.got.tgz:20464.got - 2010.06.03 12:45:16.
