data_PCOD9415559
_publ_section_title
;
Structure prediction by ZEFSAII (Michael W. Deem and Ramdas Pophale) SiO2 
 PCOD9415559
Probable space group: P M N A
;
_chemical_formula_sum "Si O2"
_cell_formula_units_Z 64
_cell_length_a 15.099117
_cell_length_b 11.726693
_cell_length_c 17.645882
_cell_angle_alpha 90.000000
_cell_angle_beta 90.000000
_cell_angle_gamma 90.000000
_cell_volume 3124.427681
_symmetry_space_group_name_H-M "P M N A"
_symmetry_group_IT_number 53
_symmetry_cell_setting 'orthorhombic'
loop_
_space_group_symop_operation_xyz
x,y,z
1/2-x,-y,1/2+z
x,-y,-z
1/2-x,y,1/2-z
-x,-y,-z
1/2+x,y,1/2-z
-x,y,z
1/2+x,-y,1/2+z
loop_
_atom_site_type_symbol
_atom_site_label
_atom_site_fract_x
_atom_site_fract_y
_atom_site_fract_z
Si Si1 0.097884 0.229366 0.923809
Si Si2 0.747378 0.394553 0.546518
Si Si3 0.791061 0.073803 0.423660
Si Si4 0.814137 0.524733 0.687479
Si Si5 0.402605 0.026629 0.373643
Si Si6 0.393894 0.688500 0.939033
Si Si7 0.900725 0.696613 0.252042
Si Si8 0.345342 0.062775 0.783335
O O1 0.182141 0.288020 0.961332
O O2 0.104502 0.093147 0.919106
O O3 0.101636 0.273890 0.836919
O O4 0.000000 0.259685 0.953943
O O5 0.707833 0.500000 0.500000
O O6 0.759141 0.443379 0.630333
O O7 0.843588 0.368011 0.510899
O O8 0.845388 0.190105 0.432010
O O9 0.786675 0.000000 0.500000
O O10 0.689021 0.090894 0.393694
O O11 0.846760 0.999716 0.362746
O O12 0.750000 0.580859 0.750000
O O13 0.867016 0.612547 0.634603
O O14 0.872177 0.431114 0.731111
O O15 0.500000 0.078299 0.390938
O O16 0.404395 0.987093 0.284963
O O17 0.500000 0.694520 0.946935
O O18 0.849778 0.800604 0.291828
O O19 0.000000 0.710857 0.279789
O O20 0.250000 0.037831 0.750000
#
# Coordination Sequence:
#
# PCOD9415559 Si02
#       8
#     8   8   8   8   8   8   8   8
#     4   9  17  33  60  96 126 148 192 258 320 375
#     4  10  22  39  61  85 122 169 207 249 306 373
#     4  11  24  41  62  89 128 170 215 262 318 375
#     4  11  22  39  66  91 121 159 209 258 315 373
#     4   9  19  37  64  93 120 154 205 265 326 381
#     4  11  27  46  61  87 128 175 219 259 311 379
#     4  10  19  31  58  94 120 149 199 261 320 371
#     4   9  19  34  58  89 120 157 202 259 319 372
#
# _framework density 20.483751000000002
#
# number of rings (size 3 to 8) (size 9 to 14) (size 15 to 20)
#    0.000    2.000    1.250    2.625    5.250    6.000 
#    0.000    0.625    0.000    1.500    0.000    0.000 
#    0.000    0.000    0.000    0.000    0.000    0.000 
#
# Total GULP energy -356937.108378 kJ/mol
# GULP energy per Si atom -5577.142318 kJ/mol
# Density = 2.043713 g / cm^3
# Si number density = 20.483751 Si / 1000 Ang^3
#
#
#
# Elastic Constant Matrix: (Units=GPa)
#
#
# Indices 1 2 3 4 5 6 
#
# 1 140.1082 40.3033 38.8343 0.0000 0.0000 0.0000
# 2 40.3033 69.7470 25.1893 0.0000 0.0000 0.0000
# 3 38.8343 25.1893 73.6153 0.0000 0.0000 0.0000
# 4 0.0000 0.0000 0.0000 28.3217 0.0000 0.0000
# 5 0.0000 0.0000 0.0000 0.0000 41.3584 0.0000
# 6 0.0000 0.0000 0.0000 0.0000 0.0000 41.7500
#
#
#
# Elastic Compliance Matrix: (Units=1/GPa)
#
#
# Indices 1 2 3 4 5 6 
#
# 1 0.009287 -0.004104 -0.003495 0.000000 0.000000 0.000000
# 2 -0.004104 0.018173 -0.004053 0.000000 0.000000 0.000000
# 3 -0.003495 -0.004053 0.016815 0.000000 0.000000 0.000000
# 4 0.000000 0.000000 0.000000 0.035309 0.000000 0.000000
# 5 0.000000 0.000000 0.000000 0.000000 0.024179 0.000000
# 6 0.000000 0.000000 0.000000 0.000000 0.000000 0.023952
#
#
# Mechanical properties :
#
#
# Convention : Reuss Voigt Hill
#
# Bulk Modulus (GPa) = 47.68706 54.68046 51.18376
# Shear Modulus (GPa) = 31.64401 34.22891 32.93646
#
# Velocity S-wave (km/s) = 3.93470 4.09226 4.01425
# Velocity P-wave (km/s) = 6.63125 7.00580 6.82110
#
# Compressibility (1/GPa) = 0.02097005
#
# Stress axis : x y z
#
# Youngs Moduli (GPa) = 107.68271 55.02675 59.47223
#
# Poissons Ratio (x) = 0.22584 0.20783
# Poissons Ratio (y) = 0.44195 0.24106
# Poissons Ratio (z) = 0.37631 0.22304
#
# Static dielectric constant tensor:
#      x y z
#    x 1.775300 0.000000 0.000000 
#    y 0.000000 1.618280 0.000000 
#    z 0.000000 0.000000 1.816600 
# 
# From -- ./inp_files/28547.got.cif
#   From: 2010.05.17/outbox.cif.g08.bks.cpg/sg53_15_cif.got.tgz:28547.got - 2010.06.03 12:45:16.
