data_PCOD9415547
_publ_section_title
;
Structure prediction by ZEFSAII (Michael W. Deem and Ramdas Pophale) SiO2 
 PCOD9415547
Probable space group: P M N A
;
_chemical_formula_sum "Si O2"
_cell_formula_units_Z 64
_cell_length_a 10.185250
_cell_length_b 10.326699
_cell_length_c 29.095735
_cell_angle_alpha 90.000000
_cell_angle_beta 90.000000
_cell_angle_gamma 90.000000
_cell_volume 3060.289727
_symmetry_space_group_name_H-M "P M N A"
_symmetry_group_IT_number 53
_symmetry_cell_setting 'orthorhombic'
loop_
_space_group_symop_operation_xyz
x,y,z
1/2-x,-y,1/2+z
x,-y,-z
1/2-x,y,1/2-z
-x,-y,-z
1/2+x,y,1/2-z
-x,y,z
1/2+x,-y,1/2+z
loop_
_atom_site_type_symbol
_atom_site_label
_atom_site_fract_x
_atom_site_fract_y
_atom_site_fract_z
Si Si1 0.144584 0.111084 0.616552
Si Si2 0.348526 0.639884 0.290559
Si Si3 0.149458 0.769188 0.788580
Si Si4 0.355405 0.029456 0.553381
Si Si5 0.141270 0.590834 0.360822
Si Si6 0.355612 0.055125 0.687180
Si Si7 0.848979 0.430823 0.452379
Si Si8 0.650498 0.750132 0.602220
O O1 0.132498 0.255142 0.635494
O O2 0.230312 0.039856 0.654822
O O3 0.000000 0.056059 0.608761
O O4 0.235587 0.113363 0.571885
O O5 0.250000 0.606479 0.250000
O O6 0.500000 0.602554 0.285485
O O7 0.276785 0.572234 0.333717
O O8 0.348176 0.798720 0.293357
O O9 0.250000 0.718832 0.750000
O O10 0.184429 0.747511 0.842920
O O11 0.000000 0.721394 0.781945
O O12 0.143243 0.926488 0.782431
O O13 0.500000 0.090294 0.559416
O O14 0.351340 0.895761 0.582015
O O15 0.340074 0.000000 0.500000
O O16 0.147574 0.535892 0.411741
O O17 0.000000 0.544756 0.340202
O O18 0.500000 0.051464 0.663332
O O19 0.809368 0.500000 0.500000
O O20 0.750422 0.325850 0.430866
O O21 0.000000 0.381930 0.458467
O O22 0.500000 0.701180 0.598454
#
# Coordination Sequence:
#
# PCOD9415547 Si02
#       8
#     8   8   8   8   8   8   8   8
#     4  10  19  31  53  83 115 149 188 236 283 336
#     4  10  19  31  53  83 115 154 195 238 289 342
#     4  10  20  35  56  82 117 155 194 238 286 344
#     4  10  21  37  57  82 118 159 192 231 293 355
#     4   9  20  38  56  80 115 150 189 238 287 339
#     4   9  17  32  51  75 115 160 193 229 279 340
#     4  10  23  43  66  87 112 149 191 241 298 349
#     4  10  22  41  61  86 121 156 197 249 292 348
#
# _framework density 20.913052
#
# number of rings (size 3 to 8) (size 9 to 14) (size 15 to 20)
#    0.000    2.250    1.250    1.125    1.750    3.500 
#    0.000    0.625    0.000    1.500    0.000    0.000 
#    0.000    0.000    0.000    0.000    0.000    0.000 
#
# Total GULP energy -356502.732758 kJ/mol
# GULP energy per Si atom -5570.355199 kJ/mol
# Density = 2.086545 g / cm^3
# Si number density = 20.913052 Si / 1000 Ang^3
#
#
#
# Elastic Constant Matrix: (Units=GPa)
#
#
# Indices 1 2 3 4 5 6 
#
# 1 159.9125 14.9155 59.5314 0.0000 0.0000 0.0000
# 2 14.9155 43.0099 1.2913 0.0000 0.0000 0.0000
# 3 59.5314 1.2913 99.1764 0.0000 0.0000 0.0000
# 4 0.0000 0.0000 0.0000 8.9910 0.0000 0.0000
# 5 0.0000 0.0000 0.0000 0.0000 34.6466 0.0000
# 6 0.0000 0.0000 0.0000 0.0000 0.0000 -9.8627
#
#
#
# Elastic Compliance Matrix: (Units=1/GPa)
#
#
# Indices 1 2 3 4 5 6 
#
# 1 0.008366 -0.002752 -0.004986 0.000000 0.000000 0.000000
# 2 -0.002752 0.024165 0.001337 0.000000 0.000000 0.000000
# 3 -0.004986 0.001337 0.013059 0.000000 0.000000 0.000000
# 4 0.000000 0.000000 0.000000 0.111223 0.000000 0.000000
# 5 0.000000 0.000000 0.000000 0.000000 0.028863 0.000000
# 6 0.000000 0.000000 0.000000 0.000000 0.000000 -0.101392
#
#
# Mechanical properties :
#
#
# Convention : Reuss Voigt Hill
#
# Bulk Modulus (GPa) = 30.49889 50.39724 40.44807
# Shear Modulus (GPa) = 46.29034 21.84567 34.06801
#
# Velocity S-wave (km/s) = 4.70985 3.23553 4.04050
# Velocity P-wave (km/s) = 6.64773 6.17324 6.41487
#
# Compressibility (1/GPa) = 0.03278808
#
# Stress axis : x y z
#
# Youngs Moduli (GPa) = 119.52759 41.38287 76.57806
#
# Poissons Ratio (x) = 0.11387 0.38183
# Poissons Ratio (y) = 0.32890 -0.10239
# Poissons Ratio (z) = 0.59598 -0.05533
#
# Static dielectric constant tensor:
#      x y z
#    x 1.801440 0.000000 0.000000 
#    y 0.000000 1.787810 0.000000 
#    z 0.000000 0.000000 1.772120 
# 
# From -- ./inp_files/38191.got.cif
#   From: 2010.05.17/outbox.cif.g08.bks.cpg/sg53_20_cif.got.tgz:38191.got - 2010.06.03 12:45:16.
