data_PCOD9415009
_publ_section_title
;
Structure prediction by ZEFSAII (Michael W. Deem and Ramdas Pophale) SiO2 
 PCOD9415009
Probable space group: P M N A
;
_chemical_formula_sum "Si O2"
_cell_formula_units_Z 36
_cell_length_a 8.547420
_cell_length_b 22.739900
_cell_length_c 9.159572
_cell_angle_alpha 90.000000
_cell_angle_beta 90.000000
_cell_angle_gamma 90.000000
_cell_volume 1780.322891
_symmetry_space_group_name_H-M "P M N A"
_symmetry_group_IT_number 53
_symmetry_cell_setting 'orthorhombic'
loop_
_space_group_symop_operation_xyz
x,y,z
1/2-x,-y,1/2+z
x,-y,-z
1/2-x,y,1/2-z
-x,-y,-z
1/2+x,y,1/2-z
-x,y,z
1/2+x,-y,1/2+z
loop_
_atom_site_type_symbol
_atom_site_label
_atom_site_fract_x
_atom_site_fract_y
_atom_site_fract_z
Si Si1 0.688118 0.327566 0.085735
Si Si2 0.821261 0.918972 0.484053
Si Si3 0.187896 0.788294 0.414718
Si Si4 0.812167 0.440801 0.914387
Si Si5 0.250000 0.002326 0.250000
O O1 0.750000 0.329866 0.250000
O O2 0.500000 0.327706 0.087829
O O3 0.743985 0.267863 0.005940
O O4 0.746628 0.383885 0.996588
O O5 0.774136 0.851106 0.487986
O O6 0.705963 0.954676 0.376106
O O7 0.000000 0.922988 0.421858
O O8 0.829855 0.951308 0.639470
O O9 0.250000 0.787546 0.250000
O O10 0.000000 0.784732 0.408829
O O11 0.750000 0.442707 0.750000
O O12 0.000000 0.437795 0.912663
O O13 0.765180 0.500000 0.000000
#
# Coordination Sequence:
#
# PCOD9415009 Si02
#       5
#     8   8   8   8   4
#     4  11  24  41  65  92 126 165 209 260 311 367
#     4  10  21  38  56  81 116 149 193 249 301 364
#     4  10  22  41  61  85 118 159 202 250 307 365
#     4  11  24  42  67  98 134 172 211 255 305 361
#     4  10  18  34  60  78 110 150 190 240 306 360
#
# _framework density 20.221052
#
# number of rings (size 3 to 8) (size 9 to 14) (size 15 to 20)
#    0.000    1.556    1.111    4.000    1.556    7.111 
#    0.000   11.111    0.000    0.000    0.000    0.000 
#    0.000    0.000    0.000    0.000    0.000    0.000 
#
# Total GULP energy -200636.571385 kJ/mol
# GULP energy per Si atom -5573.238094 kJ/mol
# Density = 2.017503 g / cm^3
# Si number density = 20.221052 Si / 1000 Ang^3
#
#
#
# Elastic Constant Matrix: (Units=GPa)
#
#
# Indices 1 2 3 4 5 6 
#
# 1 34.4567 45.6952 38.2569 0.0000 0.0000 0.0000
# 2 45.6952 241.9033 111.2028 0.0000 0.0000 0.0000
# 3 38.2569 111.2028 141.6259 0.0000 0.0000 0.0000
# 4 0.0000 0.0000 0.0000 42.7378 0.0000 0.0000
# 5 0.0000 0.0000 0.0000 0.0000 33.3163 0.0000
# 6 0.0000 0.0000 0.0000 0.0000 0.0000 114.7308
#
#
#
# Elastic Compliance Matrix: (Units=1/GPa)
#
#
# Indices 1 2 3 4 5 6 
#
# 1 0.044372 -0.004494 -0.008457 0.000000 0.000000 0.000000
# 2 -0.004494 0.006924 -0.004223 0.000000 0.000000 0.000000
# 3 -0.008457 -0.004223 0.012661 0.000000 0.000000 0.000000
# 4 0.000000 0.000000 0.000000 0.023398 0.000000 0.000000
# 5 0.000000 0.000000 0.000000 0.000000 0.030015 0.000000
# 6 0.000000 0.000000 0.000000 0.000000 0.000000 0.008716
#
#
# Mechanical properties :
#
#
# Convention : Reuss Voigt Hill
#
# Bulk Modulus (GPa) = 33.77380 89.81063 61.79222
# Shear Modulus (GPa) = 29.35924 53.01238 41.18581
#
# Velocity S-wave (km/s) = 3.81453 5.12575 4.51796
# Velocity P-wave (km/s) = 6.01161 8.91863 7.60531
#
# Compressibility (1/GPa) = 0.02960875
#
# Stress axis : x y z
#
# Youngs Moduli (GPa) = 22.53684 144.42663 78.98264
#
# Poissons Ratio (x) = 0.64904 0.66799
# Poissons Ratio (y) = 0.10128 0.33352
# Poissons Ratio (z) = 0.19060 0.60986
#
# Static dielectric constant tensor:
#      x y z
#    x 1.741370 0.000000 0.000000 
#    y 0.000000 1.715600 0.000000 
#    z 0.000000 0.000000 1.674750 
# 
# From -- ./inp_files/6133.got.cif
#   From: 2010.05.17/outbox.cif.g08.bks.cpg/sg53_4_cif.got.tgz:6133.got - 2010.06.03 12:45:16.
