data_PCOD9415101
_publ_section_title
;
Structure prediction by ZEFSAII (Michael W. Deem and Ramdas Pophale) SiO2 
 PCOD9415101
Probable space group: P M N A
;
_chemical_formula_sum "Si O2"
_cell_formula_units_Z 56
_cell_length_a 14.479113
_cell_length_b 7.093446
_cell_length_c 19.332727
_cell_angle_alpha 90.000000
_cell_angle_beta 90.000000
_cell_angle_gamma 90.000000
_cell_volume 1985.602645
_symmetry_space_group_name_H-M "P M N A"
_symmetry_group_IT_number 53
_symmetry_cell_setting 'orthorhombic'
loop_
_space_group_symop_operation_xyz
x,y,z
1/2-x,-y,1/2+z
x,-y,-z
1/2-x,y,1/2-z
-x,-y,-z
1/2+x,y,1/2-z
-x,y,z
1/2+x,-y,1/2+z
loop_
_atom_site_type_symbol
_atom_site_label
_atom_site_fract_x
_atom_site_fract_y
_atom_site_fract_z
Si Si1 0.889470 0.978296 0.201102
Si Si2 0.387735 0.875138 0.152100
Si Si3 0.397807 0.499793 0.578701
Si Si4 0.108607 0.681388 0.633347
Si Si5 0.853032 0.904827 0.937720
Si Si6 0.841726 0.207384 0.505237
Si Si7 0.888399 0.427227 0.224610
O O1 0.841906 0.956139 0.126754
O O2 0.872236 0.199694 0.218825
O O3 0.000000 0.955291 0.192475
O O4 0.862080 0.853032 0.267051
O O5 0.500000 0.854385 0.148675
O O6 0.347533 0.759818 0.087126
O O7 0.363294 0.097819 0.140740
O O8 0.357548 0.500000 0.500000
O O9 0.500000 0.410620 0.573915
O O10 0.405952 0.724056 0.587605
O O11 0.354648 0.463442 0.655080
O O12 0.121501 0.648376 0.551864
O O13 0.146609 0.552103 0.695762
O O14 0.000000 0.678666 0.645679
O O15 0.759806 0.831566 0.974171
O O16 0.904506 0.000000 0.000000
O O17 0.890998 0.000000 0.500000
O O18 0.000000 0.461732 0.222528
#
# Coordination Sequence:
#
# PCOD9415101 Si02
#       7
#     8   8   8   8   8   8   8
#     4   8  14  25  40  56  78 113 152 187 224 269
#     4   8  13  23  39  57  81 117 158 193 226 273
#     4   9  17  30  47  63  82 116 159 194 224 271
#     4   8  12  20  36  57  84 116 147 184 227 267
#     4  10  19  29  41  66  99 122 146 187 242 295
#     4   9  16  24  34  58  92 122 150 181 231 290
#     4   7  11  21  37  58  80 102 137 183 223 257
#
# _framework density 28.203026999999999
#
# number of rings (size 3 to 8) (size 9 to 14) (size 15 to 20)
#    0.000    3.571    0.000    3.429    0.000    2.857 
#    0.000   17.857    0.000    0.000    0.000    4.000 
#    0.000    4.571    0.000    0.000    0.000    0.857 
#
# Total GULP energy -311989.050597 kJ/mol
# GULP energy per Si atom -5571.233046 kJ/mol
# Density = 2.813884 g / cm^3
# Si number density = 28.203027 Si / 1000 Ang^3
#
#
#
# Elastic Constant Matrix: (Units=GPa)
#
#
# Indices 1 2 3 4 5 6 
#
# 1 97.7528 0.4407 45.9351 0.0000 0.0000 0.0000
# 2 0.4407 92.0951 59.6185 0.0000 0.0000 0.0000
# 3 45.9351 59.6185 393.4917 0.0000 0.0000 0.0000
# 4 0.0000 0.0000 0.0000 60.4747 0.0000 0.0000
# 5 0.0000 0.0000 0.0000 0.0000 10.1084 0.0000
# 6 0.0000 0.0000 0.0000 0.0000 0.0000 75.7907
#
#
#
# Elastic Compliance Matrix: (Units=1/GPa)
#
#
# Indices 1 2 3 4 5 6 
#
# 1 0.010884 0.000854 -0.001400 0.000000 0.000000 0.000000
# 2 0.000854 0.012106 -0.001934 0.000000 0.000000 0.000000
# 3 -0.001400 -0.001934 0.002998 0.000000 0.000000 0.000000
# 4 0.000000 0.000000 0.000000 0.016536 0.000000 0.000000
# 5 0.000000 0.000000 0.000000 0.000000 0.098927 0.000000
# 6 0.000000 0.000000 0.000000 0.000000 0.000000 0.013194
#
#
# Mechanical properties :
#
#
# Convention : Reuss Voigt Hill
#
# Bulk Modulus (GPa) = 47.55462 88.36982 67.96222
# Shear Modulus (GPa) = 30.00945 61.09779 45.55362
#
# Velocity S-wave (km/s) = 3.26552 4.65946 4.02332
# Velocity P-wave (km/s) = 5.57820 7.76846 6.76259
#
# Compressibility (1/GPa) = 0.02102845
#
# Stress axis : x y z
#
# Youngs Moduli (GPa) = 91.87882 82.60225 333.57864
#
# Poissons Ratio (x) = -0.07056 0.46700
# Poissons Ratio (y) = -0.07848 0.64512
# Poissons Ratio (z) = 0.12863 0.15975
#
# Static dielectric constant tensor:
#      x y z
#    x 2.181180 0.000000 0.000000 
#    y 0.000000 2.721860 0.000000 
#    z 0.000000 0.000000 1.945280 
# 
# From -- ./inp_files/29078.got.cif
#   From: 2010.05.17/outbox.cif.g08.bks.cpg/sg53_15_cif.got.tgz:29078.got - 2010.06.03 12:45:16.
