data_PCOD9415391
_publ_section_title
;
Structure prediction by ZEFSAII (Michael W. Deem and Ramdas Pophale) SiO2 
 PCOD9415391
Probable space group: P M N A
;
_chemical_formula_sum "Si O2"
_cell_formula_units_Z 56
_cell_length_a 8.885481
_cell_length_b 20.806571
_cell_length_c 18.621175
_cell_angle_alpha 90.000000
_cell_angle_beta 90.000000
_cell_angle_gamma 90.000000
_cell_volume 3442.615636
_symmetry_space_group_name_H-M "P M N A"
_symmetry_group_IT_number 53
_symmetry_cell_setting 'orthorhombic'
loop_
_space_group_symop_operation_xyz
x,y,z
1/2-x,-y,1/2+z
x,-y,-z
1/2-x,y,1/2-z
-x,-y,-z
1/2+x,y,1/2-z
-x,y,z
1/2+x,-y,1/2+z
loop_
_atom_site_type_symbol
_atom_site_label
_atom_site_fract_x
_atom_site_fract_y
_atom_site_fract_z
Si Si1 0.678408 0.513625 0.171932
Si Si2 0.181305 0.021747 0.173842
Si Si3 0.173144 0.436903 0.051470
Si Si4 0.672033 0.074744 0.475134
Si Si5 0.180124 0.242376 0.825977
Si Si6 0.181136 0.632294 0.085512
Si Si7 0.678715 0.111388 0.883110
O O1 0.750000 0.506386 0.250000
O O2 0.500000 0.517466 0.177039
O O3 0.727877 0.455653 0.119379
O O4 0.741564 0.578710 0.135229
O O5 0.250000 0.041101 0.250000
O O6 0.248371 0.952021 0.152784
O O7 0.000000 0.016842 0.177050
O O8 0.218382 0.070013 0.108026
O O9 0.000000 0.426125 0.073706
O O10 0.174083 0.500000 0.000000
O O11 0.224332 0.380921 0.997304
O O12 0.500000 0.098943 0.481057
O O13 0.776689 0.109527 0.532590
O O14 0.669086 0.000000 0.500000
O O15 0.250000 0.262779 0.750000
O O16 0.213905 0.297369 0.884385
O O17 0.251819 0.174727 0.847989
O O18 0.000000 0.236064 0.819710
O O19 0.000000 0.622009 0.089484
O O20 0.500000 0.109411 0.873823
#
# Coordination Sequence:
#
# PCOD9415391 Si02
#       7
#     8   8   8   8   8   8   8
#     4  11  20  29  45  69  96 124 153 189 231 273
#     4  10  19  31  48  70  96 123 152 189 232 276
#     4   8  15  30  48  66  90 118 150 187 230 277
#     4   8  16  31  48  66  90 120 152 188 231 275
#     4  11  22  35  49  67  93 125 160 192 226 267
#     4   9  19  34  50  67  91 124 156 190 230 273
#     4  11  21  32  47  67  93 125 159 193 228 269
#
# _framework density 16.266701000000001
#
# number of rings (size 3 to 8) (size 9 to 14) (size 15 to 20)
#    0.000    2.286    0.000    6.000    0.000    8.000 
#    0.000    0.000    0.000    0.000    0.000    1.000 
#    0.000    4.571    0.000    0.000    0.000    0.000 
#
# Total GULP energy -312281.290057 kJ/mol
# GULP energy per Si atom -5576.451608 kJ/mol
# Density = 1.622968 g / cm^3
# Si number density = 16.266701 Si / 1000 Ang^3
#
#
#
# Elastic Constant Matrix: (Units=GPa)
#
#
# Indices 1 2 3 4 5 6 
#
# 1 61.3904 6.8677 23.0566 0.0000 0.0000 0.0000
# 2 6.8677 15.2691 -8.7616 0.0000 0.0000 0.0000
# 3 23.0566 -8.7616 70.6350 0.0000 0.0000 0.0000
# 4 0.0000 0.0000 0.0000 23.3421 0.0000 0.0000
# 5 0.0000 0.0000 0.0000 0.0000 29.3069 0.0000
# 6 0.0000 0.0000 0.0000 0.0000 0.0000 32.4813
#
#
#
# Elastic Compliance Matrix: (Units=1/GPa)
#
#
# Indices 1 2 3 4 5 6 
#
# 1 0.021190 -0.014534 -0.008720 0.000000 0.000000 0.000000
# 2 -0.014534 0.080480 0.014727 0.000000 0.000000 0.000000
# 3 -0.008720 0.014727 0.018830 0.000000 0.000000 0.000000
# 4 0.000000 0.000000 0.000000 0.042841 0.000000 0.000000
# 5 0.000000 0.000000 0.000000 0.000000 0.034122 0.000000
# 6 0.000000 0.000000 0.000000 0.000000 0.000000 0.030787
#
#
# Mechanical properties :
#
#
# Convention : Reuss Voigt Hill
#
# Bulk Modulus (GPa) = 9.66688 21.06887 15.36788
# Shear Modulus (GPa) = 17.87085 25.43485 21.65285
#
# Velocity S-wave (km/s) = 3.31813 3.95855 3.65240
# Velocity P-wave (km/s) = 4.54265 5.82011 5.22060
#
# Compressibility (1/GPa) = 0.10344597
#
# Stress axis : x y z
#
# Youngs Moduli (GPa) = 47.19217 12.42552 53.10603
#
# Poissons Ratio (x) = 0.18059 0.46306
# Poissons Ratio (y) = 0.68590 -0.78209
# Poissons Ratio (z) = 0.41150 -0.18299
#
# Static dielectric constant tensor:
#      x y z
#    x 1.543040 0.000000 0.000000 
#    y 0.000000 1.529780 0.000000 
#    z 0.000000 0.000000 1.576710 
# 
# From -- ./inp_files/26663.got.cif
#   From: 2010.05.17/outbox.cif.g08.bks.cpg/sg53_14_cif.got.tgz:26663.got - 2010.06.03 12:45:16.
