data_PCOD9415137
_publ_section_title
;
Structure prediction by ZEFSAII (Michael W. Deem and Ramdas Pophale) SiO2 
 PCOD9415137
Probable space group: P M N A
;
_chemical_formula_sum "Si O2"
_cell_formula_units_Z 64
_cell_length_a 9.217972
_cell_length_b 19.640218
_cell_length_c 21.732339
_cell_angle_alpha 90.000000
_cell_angle_beta 90.000000
_cell_angle_gamma 90.000000
_cell_volume 3934.487406
_symmetry_space_group_name_H-M "P M N A"
_symmetry_group_IT_number 53
_symmetry_cell_setting 'orthorhombic'
loop_
_space_group_symop_operation_xyz
x,y,z
1/2-x,-y,1/2+z
x,-y,-z
1/2-x,y,1/2-z
-x,-y,-z
1/2+x,y,1/2-z
-x,y,z
1/2+x,-y,1/2+z
loop_
_atom_site_type_symbol
_atom_site_label
_atom_site_fract_x
_atom_site_fract_y
_atom_site_fract_z
Si Si1 0.330667 0.284948 0.813521
Si Si2 0.670808 0.165403 0.626729
Si Si3 0.173869 0.955473 0.560152
Si Si4 0.824922 0.668016 0.990791
Si Si5 0.829616 0.175065 0.017606
Si Si6 0.166283 0.467564 0.069156
Si Si7 0.332214 0.407038 0.896834
Si Si8 0.174946 0.962501 0.314257
O O1 0.250000 0.274617 0.750000
O O2 0.500000 0.265840 0.810671
O O3 0.245775 0.237336 0.860893
O O4 0.321404 0.362656 0.835473
O O5 0.500000 0.166161 0.642449
O O6 0.684203 0.153108 0.553927
O O7 0.756255 0.110064 0.666756
O O8 0.242878 0.880852 0.555648
O O9 0.000000 0.950319 0.555816
O O10 0.221711 0.000000 0.500000
O O11 0.207333 0.990832 0.625675
O O12 0.792222 0.611428 0.938517
O O13 0.000000 0.667514 0.999895
O O14 0.781701 0.745840 0.977558
O O15 0.750906 0.636899 0.051322
O O16 0.000000 0.172790 0.033601
O O17 0.265521 0.518088 0.107616
O O18 0.000000 0.471792 0.089944
O O19 0.171124 0.500000 0.000000
O O20 0.500000 0.411807 0.915199
O O21 0.250000 0.984282 0.250000
O O22 0.000000 0.958300 0.307203
#
# Coordination Sequence:
#
# PCOD9415137 Si02
#       8
#     8   8   8   8   8   8   8   8
#     4  11  23  35  47  66  95 134 174 214 253 298
#     4  11  21  34  53  75 101 136 174 213 253 301
#     4  10  21  37  55  76 105 137 170 213 263 312
#     4   9  17  31  47  69  98 128 161 195 239 295
#     4  10  20  32  52  78 104 135 171 210 252 305
#     4   8  15  27  45  65  91 125 156 188 231 285
#     4  10  19  29  44  67  94 124 162 205 247 288
#     4  11  23  39  57  77 104 137 174 217 261 311
#
# _framework density 16.266414999999999
#
# number of rings (size 3 to 8) (size 9 to 14) (size 15 to 20)
#    0.000    2.000    2.500    2.625    0.000    6.000 
#    0.000    0.000    0.000    0.000    0.000    0.875 
#    0.000    0.000    0.000    0.000    0.000    0.000 
#
# Total GULP energy -356691.785850 kJ/mol
# GULP energy per Si atom -5573.309154 kJ/mol
# Density = 1.622939 g / cm^3
# Si number density = 16.266415 Si / 1000 Ang^3
#
#
#
# Elastic Constant Matrix: (Units=GPa)
#
#
# Indices 1 2 3 4 5 6 
#
# 1 57.2386 36.8875 36.7671 0.0000 0.0000 0.0000
# 2 36.8875 105.6555 34.1231 0.0000 0.0000 0.0000
# 3 36.7671 34.1231 54.7076 0.0000 0.0000 0.0000
# 4 0.0000 0.0000 0.0000 19.8200 0.0000 0.0000
# 5 0.0000 0.0000 0.0000 0.0000 26.4283 0.0000
# 6 0.0000 0.0000 0.0000 0.0000 0.0000 27.9268
#
#
#
# Elastic Compliance Matrix: (Units=1/GPa)
#
#
# Indices 1 2 3 4 5 6 
#
# 1 0.033090 -0.005473 -0.018825 0.000000 0.000000 0.000000
# 2 -0.005473 0.012757 -0.004279 0.000000 0.000000 0.000000
# 3 -0.018825 -0.004279 0.033600 0.000000 0.000000 0.000000
# 4 0.000000 0.000000 0.000000 0.050454 0.000000 0.000000
# 5 0.000000 0.000000 0.000000 0.000000 0.037838 0.000000
# 6 0.000000 0.000000 0.000000 0.000000 0.000000 0.035808
#
#
# Mechanical properties :
#
#
# Convention : Reuss Voigt Hill
#
# Bulk Modulus (GPa) = 44.85701 48.12858 46.49279
# Shear Modulus (GPa) = 18.64753 22.15663 20.40208
#
# Velocity S-wave (km/s) = 3.38950 3.69468 3.54537
# Velocity P-wave (km/s) = 6.55398 6.91757 6.73823
#
# Compressibility (1/GPa) = 0.02229306
#
# Stress axis : x y z
#
# Youngs Moduli (GPa) = 30.22076 78.38529 29.76220
#
# Poissons Ratio (x) = 0.42899 0.56027
# Poissons Ratio (y) = 0.16539 0.12736
# Poissons Ratio (z) = 0.56890 0.33543
#
# Static dielectric constant tensor:
#      x y z
#    x 1.545410 0.000000 0.000000 
#    y 0.000000 1.561810 0.000000 
#    z 0.000000 0.000000 1.492440 
# 
# From -- ./inp_files/34496.got.cif
#   From: 2010.05.17/outbox.cif.g08.bks.cpg/sg53_18_cif.got.tgz:34496.got - 2010.06.03 12:45:16.
