data_PCOD9415594
_publ_section_title
;
Structure prediction by ZEFSAII (Michael W. Deem and Ramdas Pophale) SiO2 
 PCOD9415594
Probable space group: P M N A
;
_chemical_formula_sum "Si O2"
_cell_formula_units_Z 56
_cell_length_a 8.749242
_cell_length_b 13.963648
_cell_length_c 24.569933
_cell_angle_alpha 90.000000
_cell_angle_beta 90.000000
_cell_angle_gamma 90.000000
_cell_volume 3001.741529
_symmetry_space_group_name_H-M "P M N A"
_symmetry_group_IT_number 53
_symmetry_cell_setting 'orthorhombic'
loop_
_space_group_symop_operation_xyz
x,y,z
1/2-x,-y,1/2+z
x,-y,-z
1/2-x,y,1/2-z
-x,-y,-z
1/2+x,y,1/2-z
-x,y,z
1/2+x,-y,1/2+z
loop_
_atom_site_type_symbol
_atom_site_label
_atom_site_fract_x
_atom_site_fract_y
_atom_site_fract_z
Si Si1 0.682160 0.326644 0.088859
Si Si2 0.817115 0.159228 0.872734
Si Si3 0.319712 0.336736 0.807893
Si Si4 0.182366 0.223432 0.192182
Si Si5 0.319727 0.451882 0.916127
Si Si6 0.682584 0.011169 0.191771
Si Si7 0.818699 0.724671 0.021070
O O1 0.500000 0.321339 0.096411
O O2 0.764863 0.289095 0.142555
O O3 0.722791 0.437737 0.077917
O O4 0.732952 0.267309 0.035977
O O5 0.762478 0.242678 0.831732
O O6 0.776389 0.196949 0.933120
O O7 0.000000 0.149453 0.869607
O O8 0.737304 0.062015 0.854230
O O9 0.250000 0.363195 0.750000
O O10 0.500000 0.316907 0.802475
O O11 0.300747 0.418321 0.853656
O O12 0.250000 0.257253 0.250000
O O13 0.250298 0.117076 0.182905
O O14 0.000000 0.218032 0.195722
O O15 0.500000 0.441130 0.930223
O O16 0.226166 0.377504 0.952418
O O17 0.750000 0.977411 0.250000
O O18 0.500000 0.015136 0.194963
O O19 0.000000 0.729011 0.012370
#
# Coordination Sequence:
#
# PCOD9415594 Si02
#       7
#     8   8   8   8   8   8   8
#     4  11  22  38  59  82 110 146 186 227 275 326
#     4  10  20  35  54  79 111 145 181 222 271 324
#     4  10  19  32  49  74 108 143 181 223 272 325
#     4  11  23  41  62  85 113 143 181 227 273 322
#     4   9  20  36  54  77 108 147 187 229 275 326
#     4  11  21  36  59  85 112 144 182 222 270 325
#     4  10  21  36  56  83 113 145 184 229 274 324
#
# _framework density 18.655837999999999
#
# number of rings (size 3 to 8) (size 9 to 14) (size 15 to 20)
#    0.000    1.714    0.000    6.000    0.000    5.714 
#    0.000    2.143    0.000    4.286    0.000    0.000 
#    0.000    0.000    0.000    0.000    0.000    0.000 
#
# Total GULP energy -312947.351913 kJ/mol
# GULP energy per Si atom -5588.345570 kJ/mol
# Density = 1.861338 g / cm^3
# Si number density = 18.655838 Si / 1000 Ang^3
#
#
#
# Elastic Constant Matrix: (Units=GPa)
#
#
# Indices 1 2 3 4 5 6 
#
# 1 102.6922 21.6733 44.3619 0.0000 0.0000 0.0000
# 2 21.6733 27.7897 16.2596 0.0000 0.0000 0.0000
# 3 44.3619 16.2596 94.4743 0.0000 0.0000 0.0000
# 4 0.0000 0.0000 0.0000 16.5767 0.0000 0.0000
# 5 0.0000 0.0000 0.0000 0.0000 29.8336 0.0000
# 6 0.0000 0.0000 0.0000 0.0000 0.0000 25.9622
#
#
#
# Elastic Compliance Matrix: (Units=1/GPa)
#
#
# Indices 1 2 3 4 5 6 
#
# 1 0.013518 -0.007593 -0.005041 0.000000 0.000000 0.000000
# 2 -0.007593 0.044279 -0.004055 0.000000 0.000000 0.000000
# 3 -0.005041 -0.004055 0.013650 0.000000 0.000000 0.000000
# 4 0.000000 0.000000 0.000000 0.060326 0.000000 0.000000
# 5 0.000000 0.000000 0.000000 0.000000 0.033519 0.000000
# 6 0.000000 0.000000 0.000000 0.000000 0.000000 0.038518
#
#
# Mechanical properties :
#
#
# Convention : Reuss Voigt Hill
#
# Bulk Modulus (GPa) = 26.26839 43.28287 34.77563
# Shear Modulus (GPa) = 20.00980 23.98526 21.99753
#
# Velocity S-wave (km/s) = 3.27857 3.58951 3.43756
# Velocity P-wave (km/s) = 5.33321 6.35850 5.86829
#
# Compressibility (1/GPa) = 0.03806856
#
# Stress axis : x y z
#
# Youngs Moduli (GPa) = 73.97567 22.58386 73.26147
#
# Poissons Ratio (x) = 0.17149 0.36929
# Poissons Ratio (y) = 0.56173 0.29709
# Poissons Ratio (z) = 0.37289 0.09158
#
# Static dielectric constant tensor:
#      x y z
#    x 1.622630 0.000000 0.000000 
#    y 0.000000 1.627660 0.000000 
#    z 0.000000 0.000000 1.644840 
# 
# From -- ./inp_files/30750.got.cif
#   From: 2010.05.17/outbox.cif.g08.bks.cpg/sg53_16_cif.got.tgz:30750.got - 2010.06.03 12:45:16.
