data_PCOD9415469
_publ_section_title
;
Structure prediction by ZEFSAII (Michael W. Deem and Ramdas Pophale) SiO2 
 PCOD9415469
Probable space group: P M N A
;
_chemical_formula_sum "Si O2"
_cell_formula_units_Z 56
_cell_length_a 8.752406
_cell_length_b 20.380298
_cell_length_c 15.962190
_cell_angle_alpha 90.000000
_cell_angle_beta 90.000000
_cell_angle_gamma 90.000000
_cell_volume 2847.281859
_symmetry_space_group_name_H-M "P M N A"
_symmetry_group_IT_number 53
_symmetry_cell_setting 'orthorhombic'
loop_
_space_group_symop_operation_xyz
x,y,z
1/2-x,-y,1/2+z
x,-y,-z
1/2-x,y,1/2-z
-x,-y,-z
1/2+x,y,1/2-z
-x,y,z
1/2+x,-y,1/2+z
loop_
_atom_site_type_symbol
_atom_site_label
_atom_site_fract_x
_atom_site_fract_y
_atom_site_fract_z
Si Si1 0.318266 0.077123 0.490077
Si Si2 0.176288 0.877449 0.336103
Si Si3 0.179221 0.706937 0.933656
Si Si4 0.826540 0.621141 0.322310
Si Si5 0.173678 0.250030 0.873166
Si Si6 0.317113 0.168528 0.157210
Si Si7 0.824861 0.571977 0.510965
O O1 0.500000 0.085542 0.480235
O O2 0.264752 0.103988 0.579681
O O3 0.240420 0.115815 0.412825
O O4 0.283186 0.000000 0.500000
O O5 0.250000 0.903153 0.250000
O O6 0.200505 0.799326 0.338174
O O7 0.000000 0.895974 0.341000
O O8 0.262714 0.759038 0.873464
O O9 0.246033 0.632893 0.940674
O O10 0.000000 0.704027 0.912357
O O11 0.191422 0.738479 0.027135
O O12 0.750000 0.577337 0.250000
O O13 0.708514 0.680755 0.332136
O O14 0.832813 0.592786 0.414513
O O15 0.000000 0.639554 0.302376
O O16 0.000000 0.226960 0.856843
O O17 0.250000 0.155059 0.250000
O O18 0.500000 0.166407 0.160126
O O19 0.750737 0.500000 0.500000
O O20 0.000000 0.564493 0.543312
#
# Coordination Sequence:
#
# PCOD9415469 Si02
#       7
#     8   8   8   8   8   8   8
#     4  11  25  46  69  94 128 167 210 264 324 387
#     4  12  24  38  60  89 124 162 202 247 303 367
#     4  10  20  36  61  90 123 160 205 260 317 376
#     4  10  19  31  49  75 108 143 187 234 290 356
#     4  10  19  33  55  82 117 152 189 237 293 356
#     4  12  25  43  70  99 131 171 221 275 329 391
#     4   9  19  36  57  81 114 159 207 255 313 381
#
# _framework density 19.66788
#
# number of rings (size 3 to 8) (size 9 to 14) (size 15 to 20)
#    0.000    1.429    1.429    4.714    0.000    3.714 
#    0.000    0.714    0.000    1.714    0.000    0.000 
#    0.000    0.000    0.000    0.000    0.000    0.000 
#
# Total GULP energy -312250.857512 kJ/mol
# GULP energy per Si atom -5575.908170 kJ/mol
# Density = 1.962311 g / cm^3
# Si number density = 19.667880 Si / 1000 Ang^3
#
#
#
# Elastic Constant Matrix: (Units=GPa)
#
#
# Indices 1 2 3 4 5 6 
#
# 1 83.8272 54.8527 36.4266 0.0000 0.0000 0.0000
# 2 54.8527 105.4036 47.0152 0.0000 0.0000 0.0000
# 3 36.4266 47.0152 110.7864 0.0000 0.0000 0.0000
# 4 0.0000 0.0000 0.0000 0.2089 0.0000 0.0000
# 5 0.0000 0.0000 0.0000 0.0000 22.2075 0.0000
# 6 0.0000 0.0000 0.0000 0.0000 0.0000 31.9740
#
#
#
# Elastic Compliance Matrix: (Units=1/GPa)
#
#
# Indices 1 2 3 4 5 6 
#
# 1 0.018626 -0.008587 -0.002480 0.000000 0.000000 0.000000
# 2 -0.008587 0.015661 -0.003823 0.000000 0.000000 0.000000
# 3 -0.002480 -0.003823 0.011464 0.000000 0.000000 0.000000
# 4 0.000000 0.000000 0.000000 4.786581 0.000000 0.000000
# 5 0.000000 0.000000 0.000000 0.000000 0.045030 0.000000
# 6 0.000000 0.000000 0.000000 0.000000 0.000000 0.031275
#
#
# Mechanical properties :
#
#
# Convention : Reuss Voigt Hill
#
# Bulk Modulus (GPa) = 62.61127 64.06737 63.33932
# Shear Modulus (GPa) = 1.01138 21.65959 11.33548
#
# Velocity S-wave (km/s) = 0.71788 3.32213 2.40332
# Velocity P-wave (km/s) = 5.70881 6.88192 6.32263
#
# Compressibility (1/GPa) = 0.01597157
#
# Stress axis : x y z
#
# Youngs Moduli (GPa) = 53.68901 63.85232 87.22794
#
# Poissons Ratio (x) = 0.54828 0.21634
# Poissons Ratio (y) = 0.46101 0.33347
# Poissons Ratio (z) = 0.13316 0.24410
#
# Static dielectric constant tensor:
#      x y z
#    x 1.684160 0.000000 0.000000 
#    y 0.000000 1.770560 0.000000 
#    z 0.000000 0.000000 1.788170 
# 
# From -- ./inp_files/20564.got.cif
#   From: 2010.05.17/outbox.cif.g08.bks.cpg/sg53_11_cif.got.tgz:20564.got - 2010.06.03 12:45:16.
