data_PCOD9415686
_publ_section_title
;
Structure prediction by ZEFSAII (Michael W. Deem and Ramdas Pophale) SiO2 
 PCOD9415686
Probable space group: P M N A
;
_chemical_formula_sum "Si O2"
_cell_formula_units_Z 40
_cell_length_a 16.175290
_cell_length_b 7.891432
_cell_length_c 17.374774
_cell_angle_alpha 90.000000
_cell_angle_beta 90.000000
_cell_angle_gamma 90.000000
_cell_volume 2217.823896
_symmetry_space_group_name_H-M "P M N A"
_symmetry_group_IT_number 53
_symmetry_cell_setting 'orthorhombic'
loop_
_space_group_symop_operation_xyz
x,y,z
1/2-x,-y,1/2+z
x,-y,-z
1/2-x,y,1/2-z
-x,-y,-z
1/2+x,y,1/2-z
-x,y,z
1/2+x,-y,1/2+z
loop_
_atom_site_type_symbol
_atom_site_label
_atom_site_fract_x
_atom_site_fract_y
_atom_site_fract_z
Si Si1 0.708385 0.927347 0.915586
Si Si2 0.330504 0.782176 0.695604
Si Si3 0.401580 0.592987 0.919860
Si Si4 0.598307 0.553329 0.248078
Si Si5 0.903963 0.922413 0.288185
O O1 0.795708 0.862139 0.882367
O O2 0.648083 0.765962 0.917012
O O3 0.660764 0.055392 0.857866
O O4 0.716619 0.000000 0.000000
O O5 0.250000 0.786857 0.750000
O O6 0.360543 0.588769 0.698285
O O7 0.394648 0.910131 0.735854
O O8 0.500000 0.625044 0.918863
O O9 0.381669 0.491809 0.841337
O O10 0.382283 0.500000 0.000000
O O11 0.500000 0.535203 0.257025
O O12 0.618600 0.751185 0.258017
O O13 0.000000 0.905925 0.314305
#
# Coordination Sequence:
#
# PCOD9415686 Si02
#       5
#     8   8   8   8   8
#     4  11  22  36  51  81 120 151 181 226 290 338
#     4  10  20  35  53  78 111 149 186 229 272 335
#     4  10  19  32  51  80 114 147 181 216 267 332
#     4  10  19  34  56  79 105 143 186 227 274 325
#     4  10  20  35  59  85 107 142 190 233 272 329
#
# _framework density 18.035698
#
# number of rings (size 3 to 8) (size 9 to 14) (size 15 to 20)
#    0.000    1.800    4.000    2.400    0.000    5.600 
#    3.600    0.000    0.000    2.400    0.000    2.800 
#    0.000    0.000    0.000    0.000    0.000    0.000 
#
# Total GULP energy -223069.328792 kJ/mol
# GULP energy per Si atom -5576.733220 kJ/mol
# Density = 1.799465 g / cm^3
# Si number density = 18.035698 Si / 1000 Ang^3
#
#
#
# Elastic Constant Matrix: (Units=GPa)
#
#
# Indices 1 2 3 4 5 6 
#
# 1 33.9892 48.3181 4.7346 0.0000 0.0000 0.0000
# 2 48.3181 56.2859 65.4816 0.0000 0.0000 0.0000
# 3 4.7346 65.4816 8.6913 0.0000 0.0000 0.0000
# 4 0.0000 0.0000 0.0000 24.0786 0.0000 0.0000
# 5 0.0000 0.0000 0.0000 0.0000 15.0869 0.0000
# 6 0.0000 0.0000 0.0000 0.0000 0.000081341.6828
#
#
#
# Elastic Compliance Matrix: (Units=1/GPa)
#
#
# Indices 1 2 3 4 5 6 
#
# 1 0.031470 0.000911 -0.024004 0.000000 0.000000 0.000000
# 2 0.000911 -0.002262 0.016544 0.000000 0.000000 0.000000
# 3 -0.024004 0.016544 0.003492 0.000000 0.000000 0.000000
# 4 0.000000 0.000000 0.000000 0.041531 0.000000 0.000000
# 5 0.000000 0.000000 0.000000 0.000000 0.066283 0.000000
# 6 0.000000 0.000000 0.000000 0.000000 0.000000 0.000012
#
#
# Mechanical properties :
#
#
# Convention : Reuss Voigt Hill
#
# Bulk Modulus (GPa) = 51.01890 37.33722 44.17806
# Shear Modulus (GPa) = 31.21868 16274.86514 8153.04191
#
# Velocity S-wave (km/s) = 4.16497 95.09619 67.30762
# Velocity P-wave (km/s) = 7.17485 109.90205 77.87792
#
# Compressibility (1/GPa) = 0.01960058
#
# Stress axis : x y z
#
# Youngs Moduli (GPa) = 31.77594 -442.15426 286.35187
#
# Poissons Ratio (x) = 0.40263 6.87370
# Poissons Ratio (y) = -0.02894 -4.73729
# Poissons Ratio (z) = 0.76276 7.31482
#
# Static dielectric constant tensor:
#      x y z
#    x 1.630870 0.000000 0.000000 
#    y 0.000000 1.647130 0.000000 
#    z 0.000000 0.000000 1.642480 
# 
# From -- ./inp_files/28065.got.cif
#   From: 2010.05.17/outbox.cif.g08.bks.cpg/sg53_15_cif.got.tgz:28065.got - 2010.06.03 12:45:16.
