data_PCOD9415669
_publ_section_title
;
Structure prediction by ZEFSAII (Michael W. Deem and Ramdas Pophale) SiO2 
 PCOD9415669
Probable space group: P M N A
;
_chemical_formula_sum "Si O2"
_cell_formula_units_Z 40
_cell_length_a 8.040398
_cell_length_b 14.924047
_cell_length_c 15.342423
_cell_angle_alpha 90.000000
_cell_angle_beta 90.000000
_cell_angle_gamma 90.000000
_cell_volume 1841.018308
_symmetry_space_group_name_H-M "P M N A"
_symmetry_group_IT_number 53
_symmetry_cell_setting 'orthorhombic'
loop_
_space_group_symop_operation_xyz
x,y,z
1/2-x,-y,1/2+z
x,-y,-z
1/2-x,y,1/2-z
-x,-y,-z
1/2+x,y,1/2-z
-x,y,z
1/2+x,-y,1/2+z
loop_
_atom_site_type_symbol
_atom_site_label
_atom_site_fract_x
_atom_site_fract_y
_atom_site_fract_z
Si Si1 0.200188 0.732212 0.149364
Si Si2 0.295966 0.602914 0.504656
Si Si3 0.188527 0.077165 0.436728
Si Si4 0.696567 0.739773 0.648963
Si Si5 0.302838 0.922539 0.344019
O O1 0.250000 0.713420 0.250000
O O2 0.244425 0.830410 0.106054
O O3 0.000000 0.734654 0.150523
O O4 0.257428 0.657214 0.081564
O O5 0.242920 0.500000 0.500000
O O6 0.500000 0.603956 0.505125
O O7 0.238162 0.656745 0.590791
O O8 0.263464 0.169478 0.404621
O O9 0.000000 0.090710 0.466525
O O10 0.272432 0.000000 0.500000
O O11 0.196148 0.011593 0.353877
O O12 0.750000 0.743853 0.750000
O O13 0.500000 0.731329 0.651032
O O14 0.250000 0.888774 0.250000
O O15 0.500000 0.939871 0.351015
#
# Coordination Sequence:
#
# PCOD9415669 Si02
#       5
#     8   8   8   8   8
#     4   9  18  33  55  83 112 144 183 230 286 345
#     4   9  19  37  60  84 111 147 192 240 293 356
#     4  11  23  37  55  81 114 151 192 238 286 339
#     4  11  23  40  62  87 120 161 204 250 300 358
#     4  10  19  32  51  76 107 141 179 219 266 327
#
# _framework density 21.727105000000002
#
# number of rings (size 3 to 8) (size 9 to 14) (size 15 to 20)
#    0.000    2.000    0.000    3.600    0.000    4.800 
#    0.000    2.000    0.000    4.200    0.000    0.000 
#    0.000    0.000    0.000    0.000    0.000    0.000 
#
# Total GULP energy -222669.771917 kJ/mol
# GULP energy per Si atom -5566.744298 kJ/mol
# Density = 2.167765 g / cm^3
# Si number density = 21.727105 Si / 1000 Ang^3
#
#
#
# Elastic Constant Matrix: (Units=GPa)
#
#
# Indices 1 2 3 4 5 6 
#
# 1 55.0281 14.9093 17.0016 0.0000 0.0000 0.0000
# 2 14.9093 166.9658 49.5667 0.0000 0.0000 0.0000
# 3 17.0016 49.5667 114.1649 0.0000 0.0000 0.0000
# 4 0.0000 0.0000 0.0000 20.3921 0.0000 0.0000
# 5 0.0000 0.0000 0.0000 0.0000 24.2748 0.0000
# 6 0.0000 0.0000 0.0000 0.0000 0.0000 -4.8720
#
#
#
# Elastic Compliance Matrix: (Units=1/GPa)
#
#
# Indices 1 2 3 4 5 6 
#
# 1 0.019191 -0.000993 -0.002427 0.000000 0.000000 0.000000
# 2 -0.000993 0.006927 -0.002859 0.000000 0.000000 0.000000
# 3 -0.002427 -0.002859 0.010362 0.000000 0.000000 0.000000
# 4 0.000000 0.000000 0.000000 0.049039 0.000000 0.000000
# 5 0.000000 0.000000 0.000000 0.000000 0.041195 0.000000
# 6 0.000000 0.000000 0.000000 0.000000 0.000000 -0.205253
#
#
# Mechanical properties :
#
#
# Convention : Reuss Voigt Hill
#
# Bulk Modulus (GPa) = 41.80365 55.45709 48.63037
# Shear Modulus (GPa) = -86.19831 24.93773 -30.63029
#
# Velocity S-wave (km/s) = -6.30550 3.39155 -3.75877
# Velocity P-wave (km/s) = 5.80778 6.39661 1.89556
#
# Compressibility (1/GPa) = 0.02392136
#
# Stress axis : x y z
#
# Youngs Moduli (GPa) = 52.10659 144.36613 96.50502
#
# Poissons Ratio (x) = 0.14340 0.23420
# Poissons Ratio (y) = 0.05176 0.27595
# Poissons Ratio (z) = 0.12645 0.41281
#
# Static dielectric constant tensor:
#      x y z
#    x 2.020300 0.000000 0.000000 
#    y 0.000000 2.093540 0.000000 
#    z 0.000000 0.000000 1.283480 
# 
# From -- ./inp_files/19866.got.cif
#   From: 2010.05.17/outbox.cif.g08.bks.cpg/sg53_10_cif.got.tgz:19866.got - 2010.06.03 12:45:16.
