data_PCOD9415032
_publ_section_title
;
Structure prediction by ZEFSAII (Michael W. Deem and Ramdas Pophale) SiO2 
 PCOD9415032
Probable space group: P M N A
;
_chemical_formula_sum "Si O2"
_cell_formula_units_Z 64
_cell_length_a 19.695815
_cell_length_b 14.355070
_cell_length_c 12.683322
_cell_angle_alpha 90.000000
_cell_angle_beta 90.000000
_cell_angle_gamma 90.000000
_cell_volume 3586.016547
_symmetry_space_group_name_H-M "P M N A"
_symmetry_group_IT_number 53
_symmetry_cell_setting 'orthorhombic'
loop_
_space_group_symop_operation_xyz
x,y,z
1/2-x,-y,1/2+z
x,-y,-z
1/2-x,y,1/2-z
-x,-y,-z
1/2+x,y,1/2-z
-x,y,z
1/2+x,-y,1/2+z
loop_
_atom_site_type_symbol
_atom_site_label
_atom_site_fract_x
_atom_site_fract_y
_atom_site_fract_z
Si Si1 0.208851 0.208665 0.482016
Si Si2 0.365264 0.202275 0.413168
Si Si3 0.647529 0.402092 0.304044
Si Si4 0.173834 0.879919 0.296829
Si Si5 0.710244 0.415656 0.078329
Si Si6 0.579532 0.231058 0.633575
Si Si7 0.829591 0.094274 0.283882
Si Si8 0.920632 0.559535 0.099582
O O1 0.288748 0.188922 0.459172
O O2 0.180627 0.166167 0.588968
O O3 0.207208 0.319908 0.485671
O O4 0.168478 0.163297 0.383656
O O5 0.372806 0.305001 0.360049
O O6 0.412604 0.192115 0.514600
O O7 0.371480 0.131515 0.316094
O O8 0.665252 0.394320 0.181510
O O9 0.715827 0.431043 0.367955
O O10 0.593513 0.484968 0.310549
O O11 0.250000 0.878035 0.250000
O O12 0.123962 0.825777 0.217352
O O13 0.153019 0.987925 0.308630
O O14 0.693490 0.500000 0.000000
O O15 0.500000 0.232081 0.663607
O O16 0.607278 0.337990 0.622837
O O17 0.750000 0.096484 0.250000
O O18 0.000000 0.575125 0.080382
O O19 0.894325 0.500000 0.000000
#
# Coordination Sequence:
#
# PCOD9415032 Si02
#       8
#     8   8   8   8   8   8   8   8
#     4  10  19  35  56  83 117 150 189 238 287 343
#     4  10  18  35  58  80 115 150 195 237 285 343
#     4  10  19  33  53  76 112 151 187 227 278 343
#     4  11  22  36  58  88 113 150 197 241 294 349
#     4  10  21  31  49  85 116 145 177 232 295 334
#     4  11  24  39  56  85 123 155 188 242 298 347
#     4   9  19  35  58  83 112 147 191 244 293 340
#     4  10  20  34  54  77 105 148 190 220 266 341
#
# _framework density 17.847100000000001
#
# number of rings (size 3 to 8) (size 9 to 14) (size 15 to 20)
#    0.000    1.875    3.750    0.750    3.500    0.500 
#    0.000    1.250    0.000    3.375    0.000    0.000 
#    0.000    0.000    0.000    0.000    0.000    0.000 
#
# Total GULP energy -356537.023241 kJ/mol
# GULP energy per Si atom -5570.890988 kJ/mol
# Density = 1.780648 g / cm^3
# Si number density = 17.847100 Si / 1000 Ang^3
#
#
#
# Elastic Constant Matrix: (Units=GPa)
#
#
# Indices 1 2 3 4 5 6 
#
# 1 22.8363 24.4441 15.3454 0.0000 0.0000 0.0000
# 2 24.4441 113.9241 58.4833 0.0000 0.0000 0.0000
# 3 15.3454 58.4833 109.7556 0.0000 0.0000 0.0000
# 4 0.0000 0.0000 0.0000 33.4059 0.0000 0.0000
# 5 0.0000 0.0000 0.0000 0.0000 18.9256 0.0000
# 6 0.0000 0.0000 0.0000 0.0000 0.0000 13.8417
#
#
#
# Elastic Compliance Matrix: (Units=1/GPa)
#
#
# Indices 1 2 3 4 5 6 
#
# 1 0.057165 -0.011236 -0.002005 0.000000 0.000000 0.000000
# 2 -0.011236 0.014291 -0.006044 0.000000 0.000000 0.000000
# 3 -0.002005 -0.006044 0.012612 0.000000 0.000000 0.000000
# 4 0.000000 0.000000 0.000000 0.029935 0.000000 0.000000
# 5 0.000000 0.000000 0.000000 0.000000 0.052838 0.000000
# 6 0.000000 0.000000 0.000000 0.000000 0.000000 0.072246
#
#
# Mechanical properties :
#
#
# Convention : Reuss Voigt Hill
#
# Bulk Modulus (GPa) = 21.97941 49.22906 35.60423
# Shear Modulus (GPa) = 17.07508 23.11751 20.09630
#
# Velocity S-wave (km/s) = 3.09648 3.60294 3.35927
# Velocity P-wave (km/s) = 5.01262 6.70462 5.91939
#
# Compressibility (1/GPa) = 0.04549713
#
# Stress axis : x y z
#
# Youngs Moduli (GPa) = 17.49330 69.97178 79.28841
#
# Poissons Ratio (x) = 0.78621 0.15899
# Poissons Ratio (y) = 0.19656 0.47924
# Poissons Ratio (z) = 0.03508 0.42293
#
# Static dielectric constant tensor:
#      x y z
#    x 1.622960 0.000000 0.000000 
#    y 0.000000 1.633930 0.000000 
#    z 0.000000 0.000000 1.732030 
# 
# From -- ./inp_files/18477.got.cif
#   From: 2010.05.17/outbox.cif.g08.bks.cpg/sg53_10_cif.got.tgz:18477.got - 2010.06.03 12:45:16.
