data_PCOD9415485
_publ_section_title
;
Structure prediction by ZEFSAII (Michael W. Deem and Ramdas Pophale) SiO2 
 PCOD9415485
Probable space group: P M N A
;
_chemical_formula_sum "Si O2"
_cell_formula_units_Z 64
_cell_length_a 9.421111
_cell_length_b 22.406720
_cell_length_c 16.670036
_cell_angle_alpha 90.000000
_cell_angle_beta 90.000000
_cell_angle_gamma 90.000000
_cell_volume 3518.981191
_symmetry_space_group_name_H-M "P M N A"
_symmetry_group_IT_number 53
_symmetry_cell_setting 'orthorhombic'
loop_
_space_group_symop_operation_xyz
x,y,z
1/2-x,-y,1/2+z
x,-y,-z
1/2-x,y,1/2-z
-x,-y,-z
1/2+x,y,1/2-z
-x,y,z
1/2+x,-y,1/2+z
loop_
_atom_site_type_symbol
_atom_site_label
_atom_site_fract_x
_atom_site_fract_y
_atom_site_fract_z
Si Si1 0.665744 0.104588 0.168389
Si Si2 0.660613 0.380383 0.818113
Si Si3 0.670715 0.128766 0.667031
Si Si4 0.337613 0.751507 0.827075
Si Si5 0.837854 0.317551 0.043728
Si Si6 0.664475 0.071401 0.494146
Si Si7 0.838412 0.732314 0.135950
Si Si8 0.164904 0.568805 0.495615
O O1 0.750000 0.085004 0.250000
O O2 0.500000 0.084678 0.170386
O O3 0.665276 0.176664 0.169746
O O4 0.742932 0.087545 0.084591
O O5 0.750000 0.412565 0.750000
O O6 0.500000 0.376103 0.792210
O O7 0.727884 0.315111 0.830227
O O8 0.667264 0.412965 0.902533
O O9 0.750000 0.110194 0.750000
O O10 0.500000 0.120479 0.676898
O O11 0.710550 0.097035 0.581932
O O12 0.699368 0.199313 0.653255
O O13 0.250000 0.732029 0.750000
O O14 0.500000 0.732210 0.822889
O O15 0.259345 0.723493 0.901906
O O16 0.766184 0.382720 0.036972
O O17 0.000000 0.321821 0.072462
O O18 0.840923 0.284666 0.957757
O O19 0.500000 0.091859 0.481649
O O20 0.664609 0.000000 0.500000
O O21 0.000000 0.723284 0.165634
O O22 0.209094 0.500000 0.500000
O O23 0.000000 0.573851 0.523669
#
# Coordination Sequence:
#
# PCOD9415485 Si02
#       8
#     8   8   8   8   8   8   8   8
#     4  10  21  37  60  87 113 144 183 230 281 334
#     4  10  19  31  50  75 101 129 163 205 252 301
#     4  10  21  36  54  78 109 144 179 219 268 322
#     4  10  20  34  53  79 109 139 174 217 269 327
#     4  10  19  32  53  79 106 137 173 218 270 321
#     4  10  22  40  59  80 110 148 189 232 277 325
#     4   9  18  32  51  76 105 135 167 206 256 314
#     4   9  19  36  54  71  97 137 180 218 257 305
#
# _framework density 18.187082
#
# number of rings (size 3 to 8) (size 9 to 14) (size 15 to 20)
#    0.000    2.250    0.000    2.625    0.000    6.500 
#    0.000    1.875    0.000    1.500    0.000    0.000 
#    0.000    0.000    0.000    0.000    0.000    0.000 
#
# Total GULP energy -356726.826284 kJ/mol
# GULP energy per Si atom -5573.856661 kJ/mol
# Density = 1.814569 g / cm^3
# Si number density = 18.187082 Si / 1000 Ang^3
#
#
#
# Elastic Constant Matrix: (Units=GPa)
#
#
# Indices 1 2 3 4 5 6 
#
# 1 127.0469 22.3969 64.6001 0.0000 0.0000 0.0000
# 2 22.3969 44.8541 30.6584 0.0000 0.0000 0.0000
# 3 64.6001 30.6584 111.8055 0.0000 0.0000 0.0000
# 4 0.0000 0.0000 0.0000 -7.2512 0.0000 0.0000
# 5 0.0000 0.0000 0.0000 0.0000 63.1328 0.0000
# 6 0.0000 0.0000 0.0000 0.0000 0.0000 83.4178
#
#
#
# Elastic Compliance Matrix: (Units=1/GPa)
#
#
# Indices 1 2 3 4 5 6 
#
# 1 0.011221 -0.001442 -0.006088 0.000000 0.000000 0.000000
# 2 -0.001442 0.027622 -0.006741 0.000000 0.000000 0.000000
# 3 -0.006088 -0.006741 0.014310 0.000000 0.000000 0.000000
# 4 0.000000 0.000000 0.000000 -0.137908 0.000000 0.000000
# 5 0.000000 0.000000 0.000000 0.000000 0.015840 0.000000
# 6 0.000000 0.000000 0.000000 0.000000 0.000000 0.011988
#
#
# Mechanical properties :
#
#
# Convention : Reuss Voigt Hill
#
# Bulk Modulus (GPa) = 40.63176 57.66857 49.15017
# Shear Modulus (GPa) = -247.75636 38.92996 -104.41320
#
# Velocity S-wave (km/s) = -11.68428 4.63160 -7.58520
# Velocity P-wave (km/s) = 12.63488 7.77044 7.04487
#
# Compressibility (1/GPa) = 0.02461129
#
# Stress axis : x y z
#
# Youngs Moduli (GPa) = 89.12001 36.20279 69.88010
#
# Poissons Ratio (x) = 0.05219 0.42543
# Poissons Ratio (y) = 0.12848 0.47109
# Poissons Ratio (z) = 0.54256 0.24406
#
# Static dielectric constant tensor:
#      x y z
#    x 1.645290 0.000000 0.000000 
#    y 0.000000 1.598120 0.000000 
#    z 0.000000 0.000000 1.643360 
# 
# From -- ./inp_files/20993.got.cif
#   From: 2010.05.17/outbox.cif.g08.bks.cpg/sg53_11_cif.got.tgz:20993.got - 2010.06.03 12:45:16.
