data_PCOD9415146
_publ_section_title
;
Structure prediction by ZEFSAII (Michael W. Deem and Ramdas Pophale) SiO2 
 PCOD9415146
Probable space group: P M N A
;
_chemical_formula_sum "Si O2"
_cell_formula_units_Z 64
_cell_length_a 26.049674
_cell_length_b 9.757199
_cell_length_c 16.298648
_cell_angle_alpha 90.000000
_cell_angle_beta 90.000000
_cell_angle_gamma 90.000000
_cell_volume 4142.657565
_symmetry_space_group_name_H-M "P M N A"
_symmetry_group_IT_number 53
_symmetry_cell_setting 'orthorhombic'
loop_
_space_group_symop_operation_xyz
x,y,z
1/2-x,-y,1/2+z
x,-y,-z
1/2-x,y,1/2-z
-x,-y,-z
1/2+x,y,1/2-z
-x,y,z
1/2+x,-y,1/2+z
loop_
_atom_site_type_symbol
_atom_site_label
_atom_site_fract_x
_atom_site_fract_y
_atom_site_fract_z
Si Si1 0.720860 0.955251 0.672720
Si Si2 0.198237 0.440961 0.800467
Si Si3 0.558940 0.790031 0.546863
Si Si4 0.811395 0.090987 0.572513
Si Si5 0.662547 0.700154 0.610336
Si Si6 0.851844 0.828230 0.254380
Si Si7 0.247433 0.355257 0.971382
Si Si8 0.440945 0.912150 0.367966
O O1 0.750000 0.888195 0.750000
O O2 0.678174 0.851008 0.641249
O O3 0.762802 0.002201 0.606583
O O4 0.693839 0.090117 0.708239
O O5 0.250000 0.465015 0.750000
O O6 0.171528 0.583898 0.822039
O O7 0.161808 0.331570 0.755607
O O8 0.217915 0.376048 0.885883
O O9 0.500000 0.740880 0.553983
O O10 0.604613 0.695495 0.578276
O O11 0.569098 0.826368 0.451474
O O12 0.562619 0.930947 0.599760
O O13 0.847006 0.124669 0.650995
O O14 0.787604 0.232553 0.538461
O O15 0.835305 0.000000 0.500000
O O16 0.703643 0.675052 0.538225
O O17 0.902489 0.871452 0.204488
O O18 0.271605 0.500000 0.000000
O O19 0.500000 0.888757 0.343616
#
# Coordination Sequence:
#
# PCOD9415146 Si02
#       8
#     8   8   8   8   8   8   8   8
#     4  10  19  29  45  72  98 129 166 209 246 297
#     4  11  20  33  46  68 103 141 171 197 251 307
#     4   9  18  32  50  76 106 134 174 215 250 296
#     4  11  20  32  49  74  98 134 168 217 259 300
#     4  11  20  30  49  70 101 140 172 204 244 299
#     4  11  19  33  52  70 103 131 170 210 259 306
#     4  10  20  31  44  66 100 138 165 198 245 312
#     4   9  18  32  53  77 101 134 169 212 262 305
#
# _framework density 15.449020000000001
#
# number of rings (size 3 to 8) (size 9 to 14) (size 15 to 20)
#    0.000    1.750    5.000    2.250    0.000    0.000 
#    0.000    0.625    0.000    5.250    0.000    0.000 
#    0.000    0.500    0.000    0.250    0.000    0.000 
#
# Total GULP energy -356741.116925 kJ/mol
# GULP energy per Si atom -5574.079952 kJ/mol
# Density = 1.541386 g / cm^3
# Si number density = 15.449020 Si / 1000 Ang^3
#
#
#
# Elastic Constant Matrix: (Units=GPa)
#
#
# Indices 1 2 3 4 5 6 
#
# 1 84.4929 24.3364 43.5394 0.0000 0.0000 0.0000
# 2 24.3364 64.6066 34.3340 0.0000 0.0000 0.0000
# 3 43.5394 34.3340 83.5909 0.0000 0.0000 0.0000
# 4 0.0000 0.0000 0.0000 -12.5174 0.0000 0.0000
# 5 0.0000 0.0000 0.0000 0.0000 29.1254 0.0000
# 6 0.0000 0.0000 0.0000 0.0000 0.0000 -0.2263
#
#
#
# Elastic Compliance Matrix: (Units=1/GPa)
#
#
# Indices 1 2 3 4 5 6 
#
# 1 0.016396 -0.002095 -0.007680 0.000000 0.000000 0.000000
# 2 -0.002095 0.020068 -0.007151 0.000000 0.000000 0.000000
# 3 -0.007680 -0.007151 0.018900 0.000000 0.000000 0.000000
# 4 0.000000 0.000000 0.000000 -0.079889 0.000000 0.000000
# 5 0.000000 0.000000 0.000000 0.000000 0.034334 0.000000
# 6 0.000000 0.000000 0.000000 0.000000 0.000000 -4.419173
#
#
# Mechanical properties :
#
#
# Convention : Reuss Voigt Hill
#
# Bulk Modulus (GPa) = 46.48500 48.56777 47.52638
# Shear Modulus (GPa) = -1.14460 11.97506 5.41523
#
# Velocity S-wave (km/s) = -0.86168 2.78714 1.87426
# Velocity P-wave (km/s) = 5.40043 6.47018 5.95936
#
# Compressibility (1/GPa) = 0.02151232
#
# Stress axis : x y z
#
# Youngs Moduli (GPa) = 60.99032 49.83068 52.90881
#
# Poissons Ratio (x) = 0.10439 0.40632
# Poissons Ratio (y) = 0.12777 0.37838
# Poissons Ratio (z) = 0.46838 0.35636
#
# Static dielectric constant tensor:
#      x y z
#    x 1.520730 0.000000 0.000000 
#    y 0.000000 1.541380 0.000000 
#    z 0.000000 0.000000 1.547170 
# 
# From -- ./inp_files/25236.got.cif
#   From: 2010.05.17/outbox.cif.g08.bks.cpg/sg53_13_cif.got.tgz:25236.got - 2010.06.03 12:45:16.
