data_PCOD9415064
_publ_section_title
;
Structure prediction by ZEFSAII (Michael W. Deem and Ramdas Pophale) SiO2 
 PCOD9415064
Probable space group: P M N A
;
_chemical_formula_sum "Si O2"
_cell_formula_units_Z 48
_cell_length_a 16.598856
_cell_length_b 9.848964
_cell_length_c 15.697240
_cell_angle_alpha 90.000000
_cell_angle_beta 90.000000
_cell_angle_gamma 90.000000
_cell_volume 2566.208893
_symmetry_space_group_name_H-M "P M N A"
_symmetry_group_IT_number 53
_symmetry_cell_setting 'orthorhombic'
loop_
_space_group_symop_operation_xyz
x,y,z
1/2-x,-y,1/2+z
x,-y,-z
1/2-x,y,1/2-z
-x,-y,-z
1/2+x,y,1/2-z
-x,y,z
1/2+x,-y,1/2+z
loop_
_atom_site_type_symbol
_atom_site_label
_atom_site_fract_x
_atom_site_fract_y
_atom_site_fract_z
Si Si1 0.590500 0.647035 0.546356
Si Si2 0.803007 0.975782 0.592454
Si Si3 0.706968 0.393499 0.842970
Si Si4 0.251545 0.315452 0.148721
Si Si5 0.405495 0.166567 0.788132
Si Si6 0.336904 0.813052 0.401601
O O1 0.596797 0.500000 0.500000
O O2 0.500000 0.656650 0.581669
O O3 0.661074 0.659945 0.614995
O O4 0.605313 0.766513 0.477346
O O5 0.788484 0.818078 0.607395
O O6 0.841603 0.000000 0.500000
O O7 0.854283 0.047258 0.666793
O O8 0.716296 0.051783 0.589818
O O9 0.750000 0.399470 0.750000
O O10 0.699677 0.547345 0.872455
O O11 0.627015 0.305354 0.831279
O O12 0.769469 0.306506 0.898557
O O13 0.250000 0.295069 0.250000
O O14 0.500000 0.147463 0.798367
O O15 0.382066 0.177891 0.688607
#
# Coordination Sequence:
#
# PCOD9415064 Si02
#       6
#     8   8   8   8   8   8
#     4  11  22  36  62  98 129 152 188 251 312 354
#     4  11  22  38  63  84 118 163 210 244 290 362
#     4   8  17  33  58  82 110 151 199 230 284 358
#     4  11  21  39  58  86 121 164 200 237 294 371
#     4  10  21  38  61  88 118 154 204 257 296 348
#     4  10  18  38  60  90 116 157 194 239 299 368
#
# _framework density 18.704636000000001
#
# number of rings (size 3 to 8) (size 9 to 14) (size 15 to 20)
#    0.000    1.833    3.333    3.000    0.000    0.333 
#    0.000    5.833    0.000    1.000    0.000    0.000 
#    0.000    0.000    0.000    0.000    0.000    0.000 
#
# Total GULP energy -267916.714449 kJ/mol
# GULP energy per Si atom -5581.598218 kJ/mol
# Density = 1.866206 g / cm^3
# Si number density = 18.704636 Si / 1000 Ang^3
#
#
#
# Elastic Constant Matrix: (Units=GPa)
#
#
# Indices 1 2 3 4 5 6 
#
# 1 104.5057 33.7575 33.7736 0.0000 0.0000 0.0000
# 2 33.7575 124.2990 11.1737 0.0000 0.0000 0.0000
# 3 33.7736 11.1737 69.6844 0.0000 0.0000 0.0000
# 4 0.0000 0.0000 0.0000 22.6420 0.0000 0.0000
# 5 0.0000 0.0000 0.0000 0.0000 21.3693 0.0000
# 6 0.0000 0.0000 0.0000 0.0000 0.0000 5.8286
#
#
#
# Elastic Compliance Matrix: (Units=1/GPa)
#
#
# Indices 1 2 3 4 5 6 
#
# 1 0.012258 -0.002836 -0.005486 0.000000 0.000000 0.000000
# 2 -0.002836 0.008819 -0.000040 0.000000 0.000000 0.000000
# 3 -0.005486 -0.000040 0.017016 0.000000 0.000000 0.000000
# 4 0.000000 0.000000 0.000000 0.044166 0.000000 0.000000
# 5 0.000000 0.000000 0.000000 0.000000 0.046796 0.000000
# 6 0.000000 0.000000 0.000000 0.000000 0.000000 0.171568
#
#
# Mechanical properties :
#
#
# Convention : Reuss Voigt Hill
#
# Bulk Modulus (GPa) = 46.79671 50.65541 48.72606
# Shear Modulus (GPa) = 15.40981 24.62028 20.01504
#
# Velocity S-wave (km/s) = 2.87339 3.63197 3.27472
# Velocity P-wave (km/s) = 6.00680 6.68796 6.35651
#
# Compressibility (1/GPa) = 0.02136903
#
# Stress axis : x y z
#
# Youngs Moduli (GPa) = 81.57991 113.39340 58.76902
#
# Poissons Ratio (x) = 0.32157 0.32242
# Poissons Ratio (y) = 0.23135 0.00233
# Poissons Ratio (z) = 0.44757 0.00449
#
# Static dielectric constant tensor:
#      x y z
#    x 1.610030 0.000000 0.000000 
#    y 0.000000 1.667780 0.000000 
#    z 0.000000 0.000000 1.687030 
# 
# From -- ./inp_files/28257.got.cif
#   From: 2010.05.17/outbox.cif.g08.bks.cpg/sg53_15_cif.got.tgz:28257.got - 2010.06.03 12:45:16.
