data_PCOD9415691
_publ_section_title
;
Structure prediction by ZEFSAII (Michael W. Deem and Ramdas Pophale) SiO2 
 PCOD9415691
Probable space group: P M N A
;
_chemical_formula_sum "Si O2"
_cell_formula_units_Z 56
_cell_length_a 17.526107
_cell_length_b 13.535578
_cell_length_c 13.347318
_cell_angle_alpha 90.000000
_cell_angle_beta 90.000000
_cell_angle_gamma 90.000000
_cell_volume 3166.330704
_symmetry_space_group_name_H-M "P M N A"
_symmetry_group_IT_number 53
_symmetry_cell_setting 'orthorhombic'
loop_
_space_group_symop_operation_xyz
x,y,z
1/2-x,-y,1/2+z
x,-y,-z
1/2-x,y,1/2-z
-x,-y,-z
1/2+x,y,1/2-z
-x,y,z
1/2+x,-y,1/2+z
loop_
_atom_site_type_symbol
_atom_site_label
_atom_site_fract_x
_atom_site_fract_y
_atom_site_fract_z
Si Si1 0.829778 0.907321 0.427101
Si Si2 0.088464 0.460257 0.615136
Si Si3 0.590810 0.721167 0.994651
Si Si4 0.163388 0.357331 0.290151
Si Si5 0.159168 0.110591 0.953062
Si Si6 0.590532 0.198163 0.354436
Si Si7 0.588693 0.981286 0.266978
O O1 0.889135 0.830977 0.474064
O O2 0.744805 0.862857 0.421082
O O3 0.825748 0.000000 0.500000
O O4 0.857876 0.945554 0.321173
O O5 0.093366 0.500000 0.500000
O O6 0.108772 0.346947 0.592092
O O7 0.136686 0.529745 0.688523
O O8 0.000000 0.467433 0.645815
O O9 0.500000 0.707762 0.971077
O O10 0.641919 0.692428 0.897966
O O11 0.250000 0.354265 0.250000
O O12 0.117267 0.292303 0.209080
O O13 0.103536 0.092209 0.859906
O O14 0.129804 0.184897 0.037719
O O15 0.161738 0.000000 0.000000
O O16 0.500000 0.201134 0.367845
O O17 0.608004 0.094687 0.296830
O O18 0.500000 0.979220 0.238193
#
# Coordination Sequence:
#
# PCOD9415691 Si02
#       7
#     8   8   8   8   8   8   8
#     4  11  21  32  50  78 110 140 175 222 268 309
#     4   8  16  33  54  72  95 130 168 206 252 308
#     4  10  20  35  54  77 109 144 174 210 264 325
#     4  11  20  31  51  80 108 130 164 218 272 313
#     4   9  19  34  49  69 102 141 177 216 264 315
#     4  10  19  32  52  75 101 136 176 217 263 319
#     4  10  20  33  49  70 100 140 182 217 256 320
#
# _framework density 17.686087000000001
#
# number of rings (size 3 to 8) (size 9 to 14) (size 15 to 20)
#    0.000    2.143    0.000    5.143    0.000    6.286 
#    0.000    1.429    0.000    0.000    0.000    0.000 
#    0.000   41.714    0.000    0.000    0.000    0.000 
#
# Total GULP energy -312007.944192 kJ/mol
# GULP energy per Si atom -5571.570432 kJ/mol
# Density = 1.764583 g / cm^3
# Si number density = 17.686087 Si / 1000 Ang^3
#
#
#
# Elastic Constant Matrix: (Units=GPa)
#
#
# Indices 1 2 3 4 5 6 
#
# 1 100.4275 35.4236 55.2660 0.0000 0.0000 0.0000
# 2 35.4236 67.4637 29.0785 0.0000 0.0000 0.0000
# 3 55.2660 29.0785 79.9570 0.0000 0.0000 0.0000
# 4 0.0000 0.0000 0.0000 29.5599 0.0000 0.0000
# 5 0.0000 0.0000 0.0000 0.0000 27.1357 0.0000
# 6 0.0000 0.0000 0.0000 0.0000 0.0000 15.4069
#
#
#
# Elastic Compliance Matrix: (Units=1/GPa)
#
#
# Indices 1 2 3 4 5 6 
#
# 1 0.017212 -0.004637 -0.010211 0.000000 0.000000 0.000000
# 2 -0.004637 0.018827 -0.003642 0.000000 0.000000 0.000000
# 3 -0.010211 -0.003642 0.020889 0.000000 0.000000 0.000000
# 4 0.000000 0.000000 0.000000 0.033830 0.000000 0.000000
# 5 0.000000 0.000000 0.000000 0.000000 0.036852 0.000000
# 6 0.000000 0.000000 0.000000 0.000000 0.000000 0.064906
#
#
# Mechanical properties :
#
#
# Convention : Reuss Voigt Hill
#
# Bulk Modulus (GPa) = 50.12736 54.15380 52.14058
# Shear Modulus (GPa) = 21.17355 22.95916 22.06635
#
# Velocity S-wave (km/s) = 3.46379 3.60689 3.53607
# Velocity P-wave (km/s) = 6.66344 6.93052 6.79829
#
# Compressibility (1/GPa) = 0.01994918
#
# Stress axis : x y z
#
# Youngs Moduli (GPa) = 58.09968 53.11456 47.87252
#
# Poissons Ratio (x) = 0.24627 0.48880
# Poissons Ratio (y) = 0.26938 0.17436
# Poissons Ratio (z) = 0.59323 0.19346
#
# Static dielectric constant tensor:
#      x y z
#    x 1.608470 0.000000 0.000000 
#    y 0.000000 1.620910 0.000000 
#    z 0.000000 0.000000 1.598890 
# 
# From -- ./inp_files/16084.got.cif
#   From: 2010.05.17/outbox.cif.g08.bks.cpg/sg53_9_cif.got.tgz:16084.got - 2010.06.03 12:45:16.
