data_PCOD9415287
_publ_section_title
;
Structure prediction by ZEFSAII (Michael W. Deem and Ramdas Pophale) SiO2 
 PCOD9415287
Probable space group: P M N A
;
_chemical_formula_sum "Si O2"
_cell_formula_units_Z 48
_cell_length_a 9.092503
_cell_length_b 13.223028
_cell_length_c 19.127880
_cell_angle_alpha 90.000000
_cell_angle_beta 90.000000
_cell_angle_gamma 90.000000
_cell_volume 2299.753080
_symmetry_space_group_name_H-M "P M N A"
_symmetry_group_IT_number 53
_symmetry_cell_setting 'orthorhombic'
loop_
_space_group_symop_operation_xyz
x,y,z
1/2-x,-y,1/2+z
x,-y,-z
1/2-x,y,1/2-z
-x,-y,-z
1/2+x,y,1/2-z
-x,y,z
1/2+x,-y,1/2+z
loop_
_atom_site_type_symbol
_atom_site_label
_atom_site_fract_x
_atom_site_fract_y
_atom_site_fract_z
Si Si1 0.823483 0.293151 0.448758
Si Si2 0.177030 0.399874 0.172768
Si Si3 0.161890 0.071330 0.815252
Si Si4 0.835008 0.690877 0.184888
Si Si5 0.666014 0.103224 0.957049
Si Si6 0.173765 0.423793 0.580362
O O1 0.736737 0.309088 0.376809
O O2 0.779048 0.193056 0.491915
O O3 0.799332 0.391402 0.499789
O O4 0.000000 0.288538 0.436193
O O5 0.250000 0.398735 0.250000
O O6 0.235024 0.495451 0.126301
O O7 0.000000 0.399799 0.178003
O O8 0.250000 0.026115 0.750000
O O9 0.146373 0.191141 0.799988
O O10 0.242762 0.074411 0.888875
O O11 0.000000 0.026125 0.820747
O O12 0.750000 0.642629 0.250000
O O13 0.726501 0.677672 0.120181
O O14 0.000000 0.650148 0.173894
O O15 0.500000 0.133351 0.935616
O O16 0.658444 0.000000 0.000000
O O17 0.000000 0.443425 0.588186
#
# Coordination Sequence:
#
# PCOD9415287 Si02
#       6
#     8   8   8   8   8   8
#     4  10  22  41  64  91 124 161 201 250 306 363
#     4  12  26  43  63  88 122 163 209 255 300 360
#     4  10  20  34  56  85 121 158 198 248 305 365
#     4  10  19  30  48  78 116 155 193 236 288 348
#     4  10  21  40  66  94 124 161 205 254 311 373
#     4  11  21  36  60  88 122 160 198 245 299 360
#
# _framework density 20.871804000000001
#
# number of rings (size 3 to 8) (size 9 to 14) (size 15 to 20)
#    0.000    1.500    1.667    4.000    0.000    5.667 
#    0.000    0.833    0.000    0.000    0.000    0.000 
#    0.000    0.000    0.000    0.000    0.000    0.000 
#
# Total GULP energy -267606.375898 kJ/mol
# GULP energy per Si atom -5575.132831 kJ/mol
# Density = 2.082430 g / cm^3
# Si number density = 20.871804 Si / 1000 Ang^3
#
#
#
# Elastic Constant Matrix: (Units=GPa)
#
#
# Indices 1 2 3 4 5 6 
#
# 1 141.4315 20.0715 106.7013 0.0000 0.0000 0.0000
# 2 20.0715 50.8915 29.8336 0.0000 0.0000 0.0000
# 3 106.7013 29.8336 170.0691 0.0000 0.0000 0.0000
# 4 0.0000 0.0000 0.0000 2.7245 0.0000 0.0000
# 5 0.0000 0.0000 0.0000 0.0000 42.6004 0.0000
# 6 0.0000 0.0000 0.0000 0.0000 0.0000 18.4148
#
#
#
# Elastic Compliance Matrix: (Units=1/GPa)
#
#
# Indices 1 2 3 4 5 6 
#
# 1 0.013432 -0.000398 -0.008358 0.000000 0.000000 0.000000
# 2 -0.000398 0.021914 -0.003594 0.000000 0.000000 0.000000
# 3 -0.008358 -0.003594 0.011754 0.000000 0.000000 0.000000
# 4 0.000000 0.000000 0.000000 0.367035 0.000000 0.000000
# 5 0.000000 0.000000 0.000000 0.000000 0.023474 0.000000
# 6 0.000000 0.000000 0.000000 0.000000 0.000000 0.054304
#
#
# Mechanical properties :
#
#
# Convention : Reuss Voigt Hill
#
# Bulk Modulus (GPa) = 44.64311 75.06721 59.85516
# Shear Modulus (GPa) = 9.54053 26.46698 18.00375
#
# Velocity S-wave (km/s) = 2.14031 3.56487 2.94017
# Velocity P-wave (km/s) = 5.24819 7.27930 6.34554
#
# Compressibility (1/GPa) = 0.02239987
#
# Stress axis : x y z
#
# Youngs Moduli (GPa) = 74.44687 45.63348 85.07722
#
# Poissons Ratio (x) = 0.01818 0.71104
# Poissons Ratio (y) = 0.02965 0.30578
# Poissons Ratio (z) = 0.62220 0.16402
#
# Static dielectric constant tensor:
#      x y z
#    x 1.759120 0.000000 0.000000 
#    y 0.000000 1.874020 0.000000 
#    z 0.000000 0.000000 1.801100 
# 
# From -- ./inp_files/26291.got.cif
#   From: 2010.05.17/outbox.cif.g08.bks.cpg/sg53_14_cif.got.tgz:26291.got - 2010.06.03 12:45:16.
