data_PCOD9415266
_publ_section_title
;
Structure prediction by ZEFSAII (Michael W. Deem and Ramdas Pophale) SiO2 
 PCOD9415266
Probable space group: P M N A
;
_chemical_formula_sum "Si O2"
_cell_formula_units_Z 64
_cell_length_a 8.913420
_cell_length_b 15.955749
_cell_length_c 29.278369
_cell_angle_alpha 90.000000
_cell_angle_beta 90.000000
_cell_angle_gamma 90.000000
_cell_volume 4163.978196
_symmetry_space_group_name_H-M "P M N A"
_symmetry_group_IT_number 53
_symmetry_cell_setting 'orthorhombic'
loop_
_space_group_symop_operation_xyz
x,y,z
1/2-x,-y,1/2+z
x,-y,-z
1/2-x,y,1/2-z
-x,-y,-z
1/2+x,y,1/2-z
-x,y,z
1/2+x,-y,1/2+z
loop_
_atom_site_type_symbol
_atom_site_label
_atom_site_fract_x
_atom_site_fract_y
_atom_site_fract_z
Si Si1 0.680790 0.001129 0.053140
Si Si2 0.327367 0.499777 0.944561
Si Si3 0.180148 0.091284 0.202404
Si Si4 0.180433 0.158911 0.105144
Si Si5 0.680202 0.168668 0.894318
Si Si6 0.180283 0.093538 0.702329
Si Si7 0.180699 0.325668 0.052623
Si Si8 0.820748 0.675027 0.054338
O O1 0.500000 0.007025 0.055989
O O2 0.750309 0.080665 0.078325
O O3 0.725811 0.914655 0.077654
O O4 0.723880 0.000000 0.000000
O O5 0.500000 0.497211 0.930036
O O6 0.250196 0.586788 0.930906
O O7 0.242918 0.415143 0.930574
O O8 0.323345 0.500000 0.000000
O O9 0.250000 0.121990 0.250000
O O10 0.216800 0.147797 0.158577
O O11 0.000000 0.083976 0.206470
O O12 0.249925 0.998842 0.194355
O O13 0.229380 0.246164 0.082503
O O14 0.000000 0.154376 0.100880
O O15 0.500000 0.176929 0.898481
O O16 0.715423 0.150759 0.841318
O O17 0.756215 0.249861 0.915643
O O18 0.250000 0.124211 0.750000
O O19 0.000000 0.085747 0.706074
O O20 0.000000 0.332229 0.054393
O O21 0.222301 0.312237 0.999218
O O22 0.000000 0.673936 0.056549
#
# Coordination Sequence:
#
# PCOD9415266 Si02
#       8
#     8   8   8   8   8   8   8   8
#     4  10  20  32  45  63  93 131 164 193 228 272
#     4   9  17  30  48  69  93 122 156 194 235 278
#     4  10  19  31  48  68  90 120 157 198 242 281
#     4  10  20  32  47  68  94 125 159 196 235 277
#     4  10  20  32  45  66  95 125 157 195 235 275
#     4  10  19  32  49  67  90 120 155 200 244 280
#     4   9  18  32  47  68  97 125 157 195 233 276
#     4  10  19  30  48  70  94 126 159 193 232 277
#
# _framework density 15.369918
#
# number of rings (size 3 to 8) (size 9 to 14) (size 15 to 20)
#    0.000    2.250    1.250    3.000    0.000    4.750 
#    0.000    0.000    0.000    0.000    0.000    0.875 
#    0.000    4.000    0.000    0.000    0.000    0.000 
#
# Total GULP energy -356951.334513 kJ/mol
# GULP energy per Si atom -5577.364602 kJ/mol
# Density = 1.533494 g / cm^3
# Si number density = 15.369918 Si / 1000 Ang^3
#
#
#
# Elastic Constant Matrix: (Units=GPa)
#
#
# Indices 1 2 3 4 5 6 
#
# 1 42.8075 48.2825 45.6473 0.0000 0.0000 0.0000
# 2 48.2825 146.4430 79.1022 0.0000 0.0000 0.0000
# 3 45.6473 79.1022 115.9511 0.0000 0.0000 0.0000
# 4 0.0000 0.0000 0.0000 7.8611 0.0000 0.0000
# 5 0.0000 0.0000 0.0000 0.0000 11.0993 0.0000
# 6 0.0000 0.0000 0.0000 0.0000 0.0000 23.5437
#
#
#
# Elastic Compliance Matrix: (Units=1/GPa)
#
#
# Indices 1 2 3 4 5 6 
#
# 1 0.046168 -0.008558 -0.012337 0.000000 0.000000 0.000000
# 2 -0.008558 0.012399 -0.005090 0.000000 0.000000 0.000000
# 3 -0.012337 -0.005090 0.016954 0.000000 0.000000 0.000000
# 4 0.000000 0.000000 0.000000 0.127209 0.000000 0.000000
# 5 0.000000 0.000000 0.000000 0.000000 0.090096 0.000000
# 6 0.000000 0.000000 0.000000 0.000000 0.000000 0.042474
#
#
# Mechanical properties :
#
#
# Convention : Reuss Voigt Hill
#
# Bulk Modulus (GPa) = 42.46027 72.36283 57.41155
# Shear Modulus (GPa) = 12.65438 17.31214 14.98326
#
# Velocity S-wave (km/s) = 2.87247 3.35978 3.12564
# Velocity P-wave (km/s) = 6.21989 7.88884 7.10355
#
# Compressibility (1/GPa) = 0.02355143
#
# Stress axis : x y z
#
# Youngs Moduli (GPa) = 21.65991 80.64863 58.98438
#
# Poissons Ratio (x) = 0.69016 0.72771
# Poissons Ratio (y) = 0.18536 0.30023
# Poissons Ratio (z) = 0.26722 0.41050
#
# Static dielectric constant tensor:
#      x y z
#    x 1.516730 0.000000 0.000000 
#    y 0.000000 1.485090 0.000000 
#    z 0.000000 0.000000 1.511270 
# 
# From -- ./inp_files/38442.got.cif
#   From: 2010.05.17/outbox.cif.g08.bks.cpg/sg53_20_cif.got.tgz:38442.got - 2010.06.03 12:45:16.
