data_PCOD9415965
_publ_section_title
;
Structure prediction by ZEFSAII (Michael W. Deem and Ramdas Pophale) SiO2 
 PCOD9415965
Probable space group: P M N A
;
_chemical_formula_sum "Si O2"
_cell_formula_units_Z 48
_cell_length_a 7.721795
_cell_length_b 10.347060
_cell_length_c 24.321436
_cell_angle_alpha 90.000000
_cell_angle_beta 90.000000
_cell_angle_gamma 90.000000
_cell_volume 1943.231082
_symmetry_space_group_name_H-M "P M N A"
_symmetry_group_IT_number 53
_symmetry_cell_setting 'orthorhombic'
loop_
_space_group_symop_operation_xyz
x,y,z
1/2-x,-y,1/2+z
x,-y,-z
1/2-x,y,1/2-z
-x,-y,-z
1/2+x,y,1/2-z
-x,y,z
1/2+x,-y,1/2+z
loop_
_atom_site_type_symbol
_atom_site_label
_atom_site_fract_x
_atom_site_fract_y
_atom_site_fract_z
Si Si1 0.205933 0.123531 0.310067
Si Si2 0.291638 0.768422 0.070048
Si Si3 0.788233 0.407873 0.343540
Si Si4 0.292075 0.313981 0.810019
Si Si5 0.696076 0.055922 0.426305
Si Si6 0.302344 0.333590 0.039525
O O1 0.250000 0.074594 0.250000
O O2 0.264209 0.273450 0.315638
O O3 0.291474 0.049268 0.360166
O O4 0.000000 0.117292 0.318114
O O5 0.500000 0.753104 0.070459
O O6 0.227975 0.744930 0.132100
O O7 0.253010 0.916035 0.053454
O O8 0.225292 0.673240 0.021727
O O9 0.731127 0.536699 0.313144
O O10 0.726236 0.404056 0.407095
O O11 0.000000 0.408337 0.344837
O O12 0.250000 0.258366 0.750000
O O13 0.500000 0.311217 0.813462
O O14 0.500000 0.082744 0.442978
O O15 0.804063 0.182429 0.442039
O O16 0.500000 0.379251 0.035052
#
# Coordination Sequence:
#
# PCOD9415965 Si02
#       6
#     8   8   8   8   8   8
#     4  10  19  33  54  80 109 140 179 226 274 322
#     4  10  21  36  55  78 107 144 181 220 267 320
#     4   8  16  32  55  82 108 135 171 217 268 322
#     4  10  21  37  56  79 108 143 181 217 259 315
#     4  11  22  35  53  78 109 144 181 223 270 322
#     4   9  18  35  58  82 108 137 173 222 276 324
#
# _framework density 24.701129000000002
#
# number of rings (size 3 to 8) (size 9 to 14) (size 15 to 20)
#    0.000    2.333    0.000    4.000    0.000    4.667 
#    0.000    8.333    0.000    0.000    0.000    7.000 
#    0.000    0.000    0.000    0.000    0.000    0.000 
#
# Total GULP energy -268236.188548 kJ/mol
# GULP energy per Si atom -5588.253928 kJ/mol
# Density = 2.464491 g / cm^3
# Si number density = 24.701129 Si / 1000 Ang^3
#
#
#
# Elastic Constant Matrix: (Units=GPa)
#
#
# Indices 1 2 3 4 5 6 
#
# 1 56.8286 -7.3603 4.4539 0.0000 0.0000 0.0000
# 2 -7.3603 46.3075 21.8349 0.0000 0.0000 0.0000
# 3 4.4539 21.8349 173.5800 0.0000 0.0000 0.0000
# 4 0.0000 0.0000 0.0000 27.5908 0.0000 0.0000
# 5 0.0000 0.0000 0.0000 0.0000 18.6870 0.0000
# 6 0.0000 0.0000 0.0000 0.0000 0.0000 -0.9423
#
#
#
# Elastic Compliance Matrix: (Units=1/GPa)
#
#
# Indices 1 2 3 4 5 6 
#
# 1 0.018092 0.003290 -0.000878 0.000000 0.000000 0.000000
# 2 0.003290 0.023555 -0.003047 0.000000 0.000000 0.000000
# 3 -0.000878 -0.003047 0.006167 0.000000 0.000000 0.000000
# 4 0.000000 0.000000 0.000000 0.036244 0.000000 0.000000
# 5 0.000000 0.000000 0.000000 0.000000 0.053513 0.000000
# 6 0.000000 0.000000 0.000000 0.000000 0.000000 -1.061242
#
#
# Mechanical properties :
#
#
# Convention : Reuss Voigt Hill
#
# Bulk Modulus (GPa) = 21.48627 34.95257 28.21942
# Shear Modulus (GPa) = -5.51337 26.25296 10.36979
#
# Velocity S-wave (km/s) = -1.49562 3.26364 2.05115
# Velocity P-wave (km/s) = 2.39476 5.32754 4.13023
#
# Compressibility (1/GPa) = 0.04654135
#
# Stress axis : x y z
#
# Youngs Moduli (GPa) = 55.27421 42.45473 162.15624
#
# Poissons Ratio (x) = -0.13966 0.14237
# Poissons Ratio (y) = -0.18183 0.49415
# Poissons Ratio (z) = 0.04853 0.12937
#
# Static dielectric constant tensor:
#      x y z
#    x 1.925510 0.000000 0.000000 
#    y 0.000000 1.927740 0.000000 
#    z 0.000000 0.000000 2.014090 
# 
# From -- ./inp_files/33843.got.cif
#   From: 2010.05.17/outbox.cif.g08.bks.cpg/sg53_17_cif.got.tgz:33843.got - 2010.06.03 12:45:16.
