data_PCOD9415748
_publ_section_title
;
Structure prediction by ZEFSAII (Michael W. Deem and Ramdas Pophale) SiO2 
 PCOD9415748
Probable space group: P M N A
;
_chemical_formula_sum "Si O2"
_cell_formula_units_Z 64
_cell_length_a 9.079744
_cell_length_b 11.202895
_cell_length_c 34.552383
_cell_angle_alpha 90.000000
_cell_angle_beta 90.000000
_cell_angle_gamma 90.000000
_cell_volume 3514.648312
_symmetry_space_group_name_H-M "P M N A"
_symmetry_group_IT_number 53
_symmetry_cell_setting 'orthorhombic'
loop_
_space_group_symop_operation_xyz
x,y,z
1/2-x,-y,1/2+z
x,-y,-z
1/2-x,y,1/2-z
-x,-y,-z
1/2+x,y,1/2-z
-x,y,z
1/2+x,-y,1/2+z
loop_
_atom_site_type_symbol
_atom_site_label
_atom_site_fract_x
_atom_site_fract_y
_atom_site_fract_z
Si Si1 0.675003 0.282478 0.443895
Si Si2 0.171798 0.328520 0.861570
Si Si3 0.174593 0.784006 0.481055
Si Si4 0.322879 0.161118 0.127484
Si Si5 0.823452 0.104195 0.598714
Si Si6 0.324235 0.457375 0.790515
Si Si7 0.171065 0.559016 0.055785
Si Si8 0.323925 0.738846 0.790246
O O1 0.500000 0.268234 0.442235
O O2 0.743189 0.203810 0.478340
O O3 0.746590 0.247531 0.403263
O O4 0.705964 0.421994 0.452685
O O5 0.240615 0.205197 0.876861
O O6 0.258945 0.381925 0.825600
O O7 0.181209 0.417907 0.898249
O O8 0.000000 0.313318 0.852008
O O9 0.213908 0.875943 0.446643
O O10 0.224044 0.655407 0.464061
O O11 0.000000 0.788624 0.487398
O O12 0.500000 0.177017 0.125244
O O13 0.277370 0.190048 0.171416
O O14 0.288440 0.026524 0.114416
O O15 0.000000 0.122976 0.601980
O O16 0.250000 0.422177 0.750000
O O17 0.500000 0.444265 0.788396
O O18 0.290597 0.598264 0.796516
O O19 0.000000 0.582992 0.044255
O O20 0.250000 0.776551 0.750000
O O21 0.500000 0.750196 0.786221
#
# Coordination Sequence:
#
# PCOD9415748 Si02
#       8
#     8   8   8   8   8   8   8   8
#     4  11  22  34  51  77 108 139 171 215 269 318
#     4  10  19  33  54  77 102 134 172 213 259 311
#     4  10  20  34  53  76 102 137 179 220 263 311
#     4  10  21  38  57  77 103 138 181 221 257 304
#     4   9  20  38  56  73 100 140 181 221 262 305
#     4  10  19  32  52  80 111 137 165 204 254 312
#     4   9  19  34  51  74 105 137 169 211 266 323
#     4   9  19  35  57  83 109 137 167 206 256 308
#
# _framework density 18.209502000000001
#
# number of rings (size 3 to 8) (size 9 to 14) (size 15 to 20)
#    0.000    2.250    0.000    2.625    0.000    5.500 
#    0.000    3.125    0.000    1.500    0.000    0.000 
#    0.000    0.000    0.000    0.000    0.000    0.000 
#
# Total GULP energy -357331.638536 kJ/mol
# GULP energy per Si atom -5583.306852 kJ/mol
# Density = 1.816806 g / cm^3
# Si number density = 18.209502 Si / 1000 Ang^3
#
#
#
# Elastic Constant Matrix: (Units=GPa)
#
#
# Indices 1 2 3 4 5 6 
#
# 1 23.0364 9.6322 23.1332 0.0000 0.0000 0.0000
# 2 9.6322 23.2623 14.8602 0.0000 0.0000 0.0000
# 3 23.1332 14.8602 109.2359 0.0000 0.0000 0.0000
# 4 0.0000 0.0000 0.0000 18.1493 0.0000 0.0000
# 5 0.0000 0.0000 0.0000 0.0000 30.9892 0.0000
# 6 0.0000 0.0000 0.0000 0.0000 0.0000 30.3228
#
#
#
# Elastic Compliance Matrix: (Units=1/GPa)
#
#
# Indices 1 2 3 4 5 6 
#
# 1 0.061891 -0.018897 -0.010536 0.000000 0.000000 0.000000
# 2 -0.018897 0.052849 -0.003188 0.000000 0.000000 0.000000
# 3 -0.010536 -0.003188 0.011819 0.000000 0.000000 0.000000
# 4 0.000000 0.000000 0.000000 0.055099 0.000000 0.000000
# 5 0.000000 0.000000 0.000000 0.000000 0.032269 0.000000
# 6 0.000000 0.000000 0.000000 0.000000 0.000000 0.032979
#
#
# Mechanical properties :
#
#
# Convention : Reuss Voigt Hill
#
# Bulk Modulus (GPa) = 16.30826 27.86508 22.08667
# Shear Modulus (GPa) = 15.03370 23.08620 19.05995
#
# Velocity S-wave (km/s) = 2.87644 3.56450 3.23879
# Velocity P-wave (km/s) = 4.47294 5.68125 5.11291
#
# Compressibility (1/GPa) = 0.06131862
#
# Stress axis : x y z
#
# Youngs Moduli (GPa) = 16.15740 18.92188 84.60652
#
# Poissons Ratio (x) = 0.35756 0.89143
# Poissons Ratio (y) = 0.30532 0.26970
# Poissons Ratio (z) = 0.17024 0.06032
#
# Static dielectric constant tensor:
#      x y z
#    x 1.605560 0.000000 0.000000 
#    y 0.000000 1.608650 0.000000 
#    z 0.000000 0.000000 1.620970 
# 
# From -- ./inp_files/38161.got.cif
#   From: 2010.05.17/outbox.cif.g08.bks.cpg/sg53_20_cif.got.tgz:38161.got - 2010.06.03 12:45:16.
