data_PCOD9415675
_publ_section_title
;
Structure prediction by ZEFSAII (Michael W. Deem and Ramdas Pophale) SiO2 
 PCOD9415675
Probable space group: P M N A
;
_chemical_formula_sum "Si O2"
_cell_formula_units_Z 64
_cell_length_a 9.181815
_cell_length_b 21.556356
_cell_length_c 17.209124
_cell_angle_alpha 90.000000
_cell_angle_beta 90.000000
_cell_angle_gamma 90.000000
_cell_volume 3406.141214
_symmetry_space_group_name_H-M "P M N A"
_symmetry_group_IT_number 53
_symmetry_cell_setting 'orthorhombic'
loop_
_space_group_symop_operation_xyz
x,y,z
1/2-x,-y,1/2+z
x,-y,-z
1/2-x,y,1/2-z
-x,-y,-z
1/2+x,y,1/2-z
-x,y,z
1/2+x,-y,1/2+z
loop_
_atom_site_type_symbol
_atom_site_label
_atom_site_fract_x
_atom_site_fract_y
_atom_site_fract_z
Si Si1 0.166405 0.398739 0.672216
Si Si2 0.672296 0.190080 0.535772
Si Si3 0.668356 0.106395 0.324434
Si Si4 0.173091 0.928277 0.518125
Si Si5 0.168411 0.425788 0.499391
Si Si6 0.333894 0.247221 0.365788
Si Si7 0.325156 0.628499 0.830833
Si Si8 0.335301 0.749915 0.175314
O O1 0.250000 0.421810 0.750000
O O2 0.231752 0.408758 0.585100
O O3 0.157934 0.324510 0.680551
O O4 0.000000 0.424182 0.672332
O O5 0.500000 0.182360 0.545490
O O6 0.748771 0.122992 0.535073
O O7 0.694777 0.225912 0.454306
O O8 0.744234 0.231285 0.601092
O O9 0.750000 0.081071 0.250000
O O10 0.500000 0.087662 0.330252
O O11 0.758549 0.085770 0.398498
O O12 0.670049 0.181500 0.322181
O O13 0.000000 0.917880 0.517137
O O14 0.201515 0.000000 0.500000
O O15 0.169553 0.500000 0.500000
O O16 0.222977 0.401946 0.414507
O O17 0.000000 0.597040 0.497650
O O18 0.500000 0.272004 0.359649
O O19 0.222014 0.299373 0.339072
O O20 0.250000 0.605649 0.750000
O O21 0.500000 0.621538 0.824365
O O22 0.250000 0.774022 0.250000
O O23 0.500000 0.773560 0.171235
#
# Coordination Sequence:
#
# PCOD9415675 Si02
#       8
#     8   8   8   8   8   8   8   8
#     4   9  18  33  55  81 105 135 175 219 270 323
#     4  10  20  34  54  79 106 138 175 217 267 317
#     4  10  20  34  54  80 108 138 172 213 261 309
#     4  10  21  37  56  77 103 138 179 218 257 305
#     4   9  19  36  55  75 103 141 183 222 263 318
#     4   9  19  34  53  79 109 139 171 210 259 317
#     4  11  22  35  54  79 108 143 179 219 268 320
#     4  10  19  32  51  77 108 137 171 216 268 325
#
# _framework density 18.78959
#
# number of rings (size 3 to 8) (size 9 to 14) (size 15 to 20)
#    0.000    2.250    0.000    3.750    0.000    7.000 
#    0.000    1.875    0.000    5.625    0.000    0.000 
#    0.000    0.000    0.000    0.000    0.000    0.000 
#
# Total GULP energy -356595.573936 kJ/mol
# GULP energy per Si atom -5571.805843 kJ/mol
# Density = 1.874682 g / cm^3
# Si number density = 18.789590 Si / 1000 Ang^3
#
#
#
# Elastic Constant Matrix: (Units=GPa)
#
#
# Indices 1 2 3 4 5 6 
#
# 1 55.8601 22.0588 53.3721 0.0000 0.0000 0.0000
# 2 22.0588 30.7731 8.8661 0.0000 0.0000 0.0000
# 3 53.3721 8.8661 117.3119 0.0000 0.0000 0.0000
# 4 0.0000 0.0000 0.0000 11.9393 0.0000 0.0000
# 5 0.0000 0.0000 0.0000 0.0000 24.5076 0.0000
# 6 0.0000 0.0000 0.0000 0.0000 0.0000 14.2845
#
#
#
# Elastic Compliance Matrix: (Units=1/GPa)
#
#
# Indices 1 2 3 4 5 6 
#
# 1 0.048112 -0.028808 -0.019712 0.000000 0.000000 0.000000
# 2 -0.028808 0.050469 0.009292 0.000000 0.000000 0.000000
# 3 -0.019712 0.009292 0.016790 0.000000 0.000000 0.000000
# 4 0.000000 0.000000 0.000000 0.083757 0.000000 0.000000
# 5 0.000000 0.000000 0.000000 0.000000 0.040804 0.000000
# 6 0.000000 0.000000 0.000000 0.000000 0.000000 0.070006
#
#
# Mechanical properties :
#
#
# Convention : Reuss Voigt Hill
#
# Bulk Modulus (GPa) = 27.08890 41.39323 34.24107
# Shear Modulus (GPa) = 12.47825 18.12284 15.30054
#
# Velocity S-wave (km/s) = 2.57982 3.10903 2.85671
# Velocity P-wave (km/s) = 4.82931 5.91319 5.39852
#
# Compressibility (1/GPa) = 0.03691549
#
# Stress axis : x y z
#
# Youngs Moduli (GPa) = 20.78496 19.81415 59.55932
#
# Poissons Ratio (x) = 0.57081 1.17401
# Poissons Ratio (y) = 0.59878 -0.55344
# Poissons Ratio (z) = 0.40971 -0.18412
#
# Static dielectric constant tensor:
#      x y z
#    x 1.651680 0.000000 0.000000 
#    y 0.000000 1.635490 0.000000 
#    z 0.000000 0.000000 1.675380 
# 
# From -- ./inp_files/20960.got.cif
#   From: 2010.05.17/outbox.cif.g08.bks.cpg/sg53_11_cif.got.tgz:20960.got - 2010.06.03 12:45:16.
