data_PCOD9415057
_publ_section_title
;
Structure prediction by ZEFSAII (Michael W. Deem and Ramdas Pophale) SiO2 
 PCOD9415057
Probable space group: P M N A
;
_chemical_formula_sum "Si O2"
_cell_formula_units_Z 40
_cell_length_a 18.700525
_cell_length_b 11.231259
_cell_length_c 8.987192
_cell_angle_alpha 90.000000
_cell_angle_beta 90.000000
_cell_angle_gamma 90.000000
_cell_volume 1887.583888
_symmetry_space_group_name_H-M "P M N A"
_symmetry_group_IT_number 53
_symmetry_cell_setting 'orthorhombic'
loop_
_space_group_symop_operation_xyz
x,y,z
1/2-x,-y,1/2+z
x,-y,-z
1/2-x,y,1/2-z
-x,-y,-z
1/2+x,y,1/2-z
-x,y,z
1/2+x,-y,1/2+z
loop_
_atom_site_type_symbol
_atom_site_label
_atom_site_fract_x
_atom_site_fract_y
_atom_site_fract_z
Si Si1 0.154089 0.895035 0.119379
Si Si2 0.817062 0.181712 0.575923
Si Si3 0.334230 0.436230 0.778695
Si Si4 0.081877 0.675071 0.015584
Si Si5 0.834135 0.697976 0.709696
O O1 0.158706 0.913418 0.298699
O O2 0.230620 0.831562 0.079293
O O3 0.090499 0.802596 0.095689
O O4 0.147938 0.000000 0.000000
O O5 0.840118 0.311261 0.637148
O O6 0.844434 0.194763 0.407357
O O7 0.250000 0.445160 0.750000
O O8 0.377432 0.416331 0.625318
O O9 0.352203 0.564178 0.849338
O O10 0.120939 0.700003 0.860071
O O11 0.000000 0.641830 0.995580
O O12 0.750000 0.701595 0.750000
#
# Coordination Sequence:
#
# PCOD9415057 Si02
#       5
#     8   8   8   8   8
#     4  10  21  39  61  85 117 161 214 275 329 378
#     4  10  19  37  60  91 120 154 215 270 314 374
#     4  10  18  36  59  89 124 165 207 248 305 389
#     4  11  23  39  59  91 132 169 212 260 319 387
#     4  11  20  32  61  91 127 165 202 252 316 382
#
# _framework density 21.191110999999999
#
# number of rings (size 3 to 8) (size 9 to 14) (size 15 to 20)
#    0.000    1.600    6.000    1.200    0.000    8.400 
#    0.000    4.000    0.000    7.200    0.000    0.000 
#    0.000    0.000    0.000    0.000    0.000    0.000 
#
# Total GULP energy -222728.082878 kJ/mol
# GULP energy per Si atom -5568.202072 kJ/mol
# Density = 2.114288 g / cm^3
# Si number density = 21.191111 Si / 1000 Ang^3
#
#
#
# Elastic Constant Matrix: (Units=GPa)
#
#
# Indices 1 2 3 4 5 6 
#
# 1 103.8122 6.3284 50.1236 0.0000 0.0000 0.0000
# 2 6.3284 91.0860 52.4719 0.0000 0.0000 0.0000
# 3 50.1236 52.4719 124.1581 0.0000 0.0000 0.0000
# 4 0.0000 0.0000 0.0000 57.3729 0.0000 0.0000
# 5 0.0000 0.0000 0.0000 0.0000 20.1771 0.0000
# 6 0.0000 0.0000 0.0000 0.0000 0.0000 -10.8883
#
#
#
# Elastic Compliance Matrix: (Units=1/GPa)
#
#
# Indices 1 2 3 4 5 6 
#
# 1 0.012442 0.002682 -0.006156 0.000000 0.000000 0.000000
# 2 0.002682 0.015090 -0.007460 0.000000 0.000000 0.000000
# 3 -0.006156 -0.007460 0.013692 0.000000 0.000000 0.000000
# 4 0.000000 0.000000 0.000000 0.017430 0.000000 0.000000
# 5 0.000000 0.000000 0.000000 0.000000 0.049561 0.000000
# 6 0.000000 0.000000 0.000000 0.000000 0.000000 -0.091842
#
#
# Mechanical properties :
#
#
# Convention : Reuss Voigt Hill
#
# Bulk Modulus (GPa) = 51.66546 59.65602 55.66074
# Shear Modulus (GPa) = 111.87288 27.34116 69.60702
#
# Velocity S-wave (km/s) = 7.27372 3.59586 5.73747
# Velocity P-wave (km/s) = 9.74558 6.74187 8.37941
#
# Compressibility (1/GPa) = 0.01935529
#
# Stress axis : x y z
#
# Youngs Moduli (GPa) = 80.37469 66.26987 73.03331
#
# Poissons Ratio (x) = -0.17774 0.44962
# Poissons Ratio (y) = -0.21557 0.54483
# Poissons Ratio (z) = 0.49481 0.49438
#
# Static dielectric constant tensor:
#      x y z
#    x 1.712040 0.000000 0.000000 
#    y 0.000000 1.840120 0.000000 
#    z 0.000000 0.000000 1.770510 
# 
# From -- ./inp_files/9616.got.cif
#   From: 2010.05.17/outbox.cif.g08.bks.cpg/sg53_5_cif.got.tgz:9616.got - 2010.06.03 12:45:16.
