data_PCOD9415097
_publ_section_title
;
Structure prediction by ZEFSAII (Michael W. Deem and Ramdas Pophale) SiO2 
 PCOD9415097
Probable space group: P M N A
;
_chemical_formula_sum "Si O2"
_cell_formula_units_Z 64
_cell_length_a 8.566380
_cell_length_b 12.842619
_cell_length_c 31.893260
_cell_angle_alpha 90.000000
_cell_angle_beta 90.000000
_cell_angle_gamma 90.000000
_cell_volume 3508.729171
_symmetry_space_group_name_H-M "P M N A"
_symmetry_group_IT_number 53
_symmetry_cell_setting 'orthorhombic'
loop_
_space_group_symop_operation_xyz
x,y,z
1/2-x,-y,1/2+z
x,-y,-z
1/2-x,y,1/2-z
-x,-y,-z
1/2+x,y,1/2-z
-x,y,z
1/2+x,-y,1/2+z
loop_
_atom_site_type_symbol
_atom_site_label
_atom_site_fract_x
_atom_site_fract_y
_atom_site_fract_z
Si Si1 0.180323 0.066363 0.882514
Si Si2 0.689402 0.702964 0.385482
Si Si3 0.813586 0.161609 0.370386
Si Si4 0.313433 0.304342 0.296508
Si Si5 0.313377 0.655600 0.931731
Si Si6 0.313330 0.693734 0.482908
Si Si7 0.324724 0.905820 0.031482
Si Si8 0.188845 0.514995 0.856836
O O1 0.244321 0.182177 0.871033
O O2 0.199587 0.072973 0.932674
O O3 0.000000 0.059414 0.869852
O O4 0.262269 0.958591 0.870648
O O5 0.500000 0.709911 0.385463
O O6 0.732344 0.675152 0.434058
O O7 0.736658 0.605537 0.357198
O O8 0.749794 0.219097 0.329168
O O9 0.762091 0.233252 0.410377
O O10 0.000000 0.165559 0.370391
O O11 0.250000 0.290883 0.250000
O O12 0.500000 0.298162 0.295901
O O13 0.267787 0.416121 0.316599
O O14 0.500000 0.657327 0.936112
O O15 0.261961 0.571688 0.897116
O O16 0.238831 0.628103 0.976768
O O17 0.500000 0.702178 0.483578
O O18 0.226445 0.802340 0.491895
O O19 0.500000 0.893817 0.049698
O O20 0.328720 0.000000 0.000000
O O21 0.000000 0.519062 0.861119
#
# Coordination Sequence:
#
# PCOD9415097 Si02
#       8
#     8   8   8   8   8   8   8   8
#     4  10  19  31  49  72  98 131 171 209 248 295
#     4   8  17  33  50  70  97 133 177 218 251 290
#     4  10  20  34  52  75 105 136 166 204 250 300
#     4  10  20  35  59  86 107 128 155 194 245 302
#     4  10  20  32  46  69 101 133 168 216 267 305
#     4  10  19  30  45  65  92 130 175 219 258 299
#     4  10  19  29  41  60  90 128 169 214 260 299
#     4   9  18  35  56  74  96 131 171 205 246 302
#
# _framework density 18.240221999999999
#
# number of rings (size 3 to 8) (size 9 to 14) (size 15 to 20)
#    0.000    2.375    0.000    3.750    0.000    6.500 
#    0.000    6.250    0.000    0.750    0.000    1.750 
#    0.000    0.000    0.000    0.000    0.000    0.000 
#
# Total GULP energy -356520.815440 kJ/mol
# GULP energy per Si atom -5570.637741 kJ/mol
# Density = 1.819871 g / cm^3
# Si number density = 18.240222 Si / 1000 Ang^3
#
#
#
# Elastic Constant Matrix: (Units=GPa)
#
#
# Indices 1 2 3 4 5 6 
#
# 1 29.2649 13.1529 8.2060 0.0000 0.0000 0.0000
# 2 13.1529 109.6401 34.0309 0.0000 0.0000 0.0000
# 3 8.2060 34.0309 59.7927 0.0000 0.0000 0.0000
# 4 0.0000 0.0000 0.0000 13.4779 0.0000 0.0000
# 5 0.0000 0.0000 0.0000 0.0000 19.0912 0.0000
# 6 0.0000 0.0000 0.0000 0.0000 0.0000 52.2054
#
#
#
# Elastic Compliance Matrix: (Units=1/GPa)
#
#
# Indices 1 2 3 4 5 6 
#
# 1 0.036574 -0.003437 -0.003063 0.000000 0.000000 0.000000
# 2 -0.003437 0.011401 -0.006017 0.000000 0.000000 0.000000
# 3 -0.003063 -0.006017 0.020569 0.000000 0.000000 0.000000
# 4 0.000000 0.000000 0.000000 0.074195 0.000000 0.000000
# 5 0.000000 0.000000 0.000000 0.000000 0.052380 0.000000
# 6 0.000000 0.000000 0.000000 0.000000 0.000000 0.019155
#
#
# Mechanical properties :
#
#
# Convention : Reuss Voigt Hill
#
# Bulk Modulus (GPa) = 22.98326 34.38638 28.68482
# Shear Modulus (GPa) = 19.69957 26.50877 23.10417
#
# Velocity S-wave (km/s) = 3.28991 3.81637 3.56288
# Velocity P-wave (km/s) = 5.20183 6.18971 5.71714
#
# Compressibility (1/GPa) = 0.04350994
#
# Stress axis : x y z
#
# Youngs Moduli (GPa) = 27.34160 87.71436 48.61581
#
# Poissons Ratio (x) = 0.30145 0.14893
# Poissons Ratio (y) = 0.09397 0.29252
# Poissons Ratio (z) = 0.08376 0.52778
#
# Static dielectric constant tensor:
#      x y z
#    x 1.621270 0.000000 0.000000 
#    y 0.000000 1.688760 0.000000 
#    z 0.000000 0.000000 1.615190 
# 
# From -- ./inp_files/38119.got.cif
#   From: 2010.05.17/outbox.cif.g08.bks.cpg/sg53_20_cif.got.tgz:38119.got - 2010.06.03 12:45:16.
