data_PCOD9415753
_publ_section_title
;
Structure prediction by ZEFSAII (Michael W. Deem and Ramdas Pophale) SiO2 
 PCOD9415753
Probable space group: P M N A
;
_chemical_formula_sum "Si O2"
_cell_formula_units_Z 56
_cell_length_a 9.032469
_cell_length_b 21.262376
_cell_length_c 15.620535
_cell_angle_alpha 90.000000
_cell_angle_beta 90.000000
_cell_angle_gamma 90.000000
_cell_volume 2999.951115
_symmetry_space_group_name_H-M "P M N A"
_symmetry_group_IT_number 53
_symmetry_cell_setting 'orthorhombic'
loop_
_space_group_symop_operation_xyz
x,y,z
1/2-x,-y,1/2+z
x,-y,-z
1/2-x,y,1/2-z
-x,-y,-z
1/2+x,y,1/2-z
-x,y,z
1/2+x,-y,1/2+z
loop_
_atom_site_type_symbol
_atom_site_label
_atom_site_fract_x
_atom_site_fract_y
_atom_site_fract_z
Si Si1 0.331376 0.030925 0.904866
Si Si2 0.177408 0.377011 0.837076
Si Si3 0.824414 0.088009 0.164825
Si Si4 0.175541 0.485545 0.100810
Si Si5 0.176877 0.356391 0.341358
Si Si6 0.177990 0.291419 0.998302
Si Si7 0.323717 0.146337 0.519095
O O1 0.500000 0.033453 0.873750
O O2 0.235156 0.982677 0.849883
O O3 0.261910 0.099528 0.917856
O O4 0.332389 0.000000 0.000000
O O5 0.250000 0.353458 0.750000
O O6 0.216117 0.450122 0.851388
O O7 0.000000 0.373049 0.830538
O O8 0.220771 0.337885 0.921112
O O9 0.750000 0.114544 0.250000
O O10 0.786842 0.126197 0.078597
O O11 0.000000 0.087646 0.174348
O O12 0.269148 0.426397 0.131858
O O13 0.000000 0.472144 0.114273
O O14 0.194522 0.500000 0.000000
O O15 0.250000 0.341277 0.250000
O O16 0.238524 0.311094 0.415682
O O17 0.000000 0.353817 0.335929
O O18 0.208538 0.219763 0.971656
O O19 0.000000 0.297575 0.012332
O O20 0.500000 0.136169 0.529912
#
# Coordination Sequence:
#
# PCOD9415753 Si02
#       7
#     8   8   8   8   8   8   8
#     4   9  17  31  52  77 105 137 173 215 262 316
#     4  10  21  37  60  84 111 146 186 235 287 344
#     4  10  19  32  52  81 111 140 178 226 277 331
#     4  10  19  37  62  86 113 147 185 234 296 350
#     4  12  25  39  58  85 117 153 193 240 291 349
#     4  10  21  41  61  81 113 156 198 238 289 343
#     4   9  19  35  57  79 106 146 187 227 275 334
#
# _framework density 18.666971
#
# number of rings (size 3 to 8) (size 9 to 14) (size 15 to 20)
#    0.000    2.000    1.429    2.571    0.000    6.000 
#    0.000    2.143    0.000    1.714    0.000    0.000 
#    0.000    0.000    0.000    0.000    0.000    0.000 
#
# Total GULP energy -312719.244756 kJ/mol
# GULP energy per Si atom -5584.272228 kJ/mol
# Density = 1.862448 g / cm^3
# Si number density = 18.666971 Si / 1000 Ang^3
#
#
#
# Elastic Constant Matrix: (Units=GPa)
#
#
# Indices 1 2 3 4 5 6 
#
# 1 43.2748 17.3637 13.3457 0.0000 0.0000 0.0000
# 2 17.3637 65.7484 -2.9447 0.0000 0.0000 0.0000
# 3 13.3457 -2.9447 53.8597 0.0000 0.0000 0.0000
# 4 0.0000 0.0000 0.0000 6.5349 0.0000 0.0000
# 5 0.0000 0.0000 0.0000 0.0000 31.1781 0.0000
# 6 0.0000 0.0000 0.0000 0.0000 0.0000 14.3394
#
#
#
# Elastic Compliance Matrix: (Units=1/GPa)
#
#
# Indices 1 2 3 4 5 6 
#
# 1 0.028591 -0.007887 -0.007516 0.000000 0.000000 0.000000
# 2 -0.007887 0.017423 0.002907 0.000000 0.000000 0.000000
# 3 -0.007516 0.002907 0.020588 0.000000 0.000000 0.000000
# 4 0.000000 0.000000 0.000000 0.153026 0.000000 0.000000
# 5 0.000000 0.000000 0.000000 0.000000 0.032074 0.000000
# 6 0.000000 0.000000 0.000000 0.000000 0.000000 0.069738
#
#
# Mechanical properties :
#
#
# Convention : Reuss Voigt Hill
#
# Bulk Modulus (GPa) = 24.03300 24.26802 24.15051
# Shear Modulus (GPa) = 13.87732 19.41836 16.64784
#
# Velocity S-wave (km/s) = 2.72952 3.22879 2.98960
# Velocity P-wave (km/s) = 4.77873 5.18930 4.98824
#
# Compressibility (1/GPa) = 0.04160946
#
# Stress axis : x y z
#
# Youngs Moduli (GPa) = 34.97653 57.39655 48.57211
#
# Poissons Ratio (x) = 0.45270 0.36505
# Poissons Ratio (y) = 0.27587 -0.14119
# Poissons Ratio (z) = 0.26287 -0.16685
#
# Static dielectric constant tensor:
#      x y z
#    x 1.626540 0.000000 0.000000 
#    y 0.000000 1.631460 0.000000 
#    z 0.000000 0.000000 1.645150 
# 
# From -- ./inp_files/20542.got.cif
#   From: 2010.05.17/outbox.cif.g08.bks.cpg/sg53_11_cif.got.tgz:20542.got - 2010.06.03 12:45:16.
