data_PCOD9415638
_publ_section_title
;
Structure prediction by ZEFSAII (Michael W. Deem and Ramdas Pophale) SiO2 
 PCOD9415638
Probable space group: P M N A
;
_chemical_formula_sum "Si O2"
_cell_formula_units_Z 48
_cell_length_a 8.981882
_cell_length_b 18.723117
_cell_length_c 16.772892
_cell_angle_alpha 90.000000
_cell_angle_beta 90.000000
_cell_angle_gamma 90.000000
_cell_volume 2820.677583
_symmetry_space_group_name_H-M "P M N A"
_symmetry_group_IT_number 53
_symmetry_cell_setting 'orthorhombic'
loop_
_space_group_symop_operation_xyz
x,y,z
1/2-x,-y,1/2+z
x,-y,-z
1/2-x,y,1/2-z
-x,-y,-z
1/2+x,y,1/2-z
-x,y,z
1/2+x,-y,1/2+z
loop_
_atom_site_type_symbol
_atom_site_label
_atom_site_fract_x
_atom_site_fract_y
_atom_site_fract_z
Si Si1 0.676498 0.584072 0.987182
Si Si2 0.670202 0.796370 0.580804
Si Si3 0.320039 0.657042 0.666061
Si Si4 0.171535 0.703462 0.082815
Si Si5 0.178743 0.918876 0.491543
Si Si6 0.321580 0.831650 0.167016
O O1 0.500000 0.599411 0.982203
O O2 0.755720 0.609754 0.905988
O O3 0.697428 0.500000 0.000000
O O4 0.747395 0.630419 0.058792
O O5 0.500000 0.816248 0.598204
O O6 0.723470 0.739540 0.646291
O O7 0.670802 0.749350 0.499434
O O8 0.762615 0.866508 0.560526
O O9 0.250000 0.635661 0.750000
O O10 0.500000 0.653350 0.666263
O O11 0.258235 0.753418 0.144611
O O12 0.000000 0.692208 0.106552
O O13 0.220512 0.883889 0.406364
O O14 0.000000 0.919148 0.494881
O O15 0.232721 0.000000 0.500000
O O16 0.250000 0.855068 0.250000
O O17 0.500000 0.829389 0.172506
#
# Coordination Sequence:
#
# PCOD9415638 Si02
#       6
#     8   8   8   8   8   8
#     4  10  20  34  53  77 105 136 169 204 247 301
#     4   8  16  30  48  71  95 123 160 199 241 290
#     4  10  20  34  53  76 102 132 169 212 256 300
#     4   9  17  31  51  73  97 126 164 204 242 291
#     4   9  18  32  50  72  98 131 168 204 247 300
#     4  10  19  32  51  73  99 130 166 210 257 302
#
# _framework density 17.017188000000001
#
# number of rings (size 3 to 8) (size 9 to 14) (size 15 to 20)
#    0.000    2.667    0.000    3.000    0.000    7.000 
#    0.000    1.667    0.000    8.000    0.000    0.000 
#    0.000    0.000    0.000    0.000    0.000    0.000 
#
# Total GULP energy -267474.561084 kJ/mol
# GULP energy per Si atom -5572.386689 kJ/mol
# Density = 1.697846 g / cm^3
# Si number density = 17.017188 Si / 1000 Ang^3
#
#
#
# Elastic Constant Matrix: (Units=GPa)
#
#
# Indices 1 2 3 4 5 6 
#
# 1 73.3470 54.9309 36.1069 0.0000 0.0000 0.0000
# 2 54.9309 111.2425 32.7649 0.0000 0.0000 0.0000
# 3 36.1069 32.7649 71.2728 0.0000 0.0000 0.0000
# 4 0.0000 0.0000 0.0000 15.0858 0.0000 0.0000
# 5 0.0000 0.0000 0.0000 0.0000 15.7423 0.0000
# 6 0.0000 0.0000 0.0000 0.0000 0.0000 25.8163
#
#
#
# Elastic Compliance Matrix: (Units=1/GPa)
#
#
# Indices 1 2 3 4 5 6 
#
# 1 0.025139 -0.010019 -0.008130 0.000000 0.000000 0.000000
# 2 -0.010019 0.014390 -0.001540 0.000000 0.000000 0.000000
# 3 -0.008130 -0.001540 0.018857 0.000000 0.000000 0.000000
# 4 0.000000 0.000000 0.000000 0.066287 0.000000 0.000000
# 5 0.000000 0.000000 0.000000 0.000000 0.063523 0.000000
# 6 0.000000 0.000000 0.000000 0.000000 0.000000 0.038735
#
#
# Mechanical properties :
#
#
# Convention : Reuss Voigt Hill
#
# Bulk Modulus (GPa) = 52.60528 55.94085 54.27307
# Shear Modulus (GPa) = 18.33879 20.13285 19.23582
#
# Velocity S-wave (km/s) = 3.28634 3.44334 3.36575
# Velocity P-wave (km/s) = 6.73648 6.98235 6.86052
#
# Compressibility (1/GPa) = 0.01900950
#
# Stress axis : x y z
#
# Youngs Moduli (GPa) = 39.77811 69.49143 53.03087
#
# Poissons Ratio (x) = 0.69625 0.43113
# Poissons Ratio (y) = 0.39854 0.08165
# Poissons Ratio (z) = 0.32339 0.10699
#
# Static dielectric constant tensor:
#      x y z
#    x 1.574030 0.000000 0.000000 
#    y 0.000000 1.573510 0.000000 
#    z 0.000000 0.000000 1.579540 
# 
# From -- ./inp_files/20206.got.cif
#   From: 2010.05.17/outbox.cif.g08.bks.cpg/sg53_11_cif.got.tgz:20206.got - 2010.06.03 12:45:16.
