data_PCOD9415904
_publ_section_title
;
Structure prediction by ZEFSAII (Michael W. Deem and Ramdas Pophale) SiO2 
 PCOD9415904
Probable space group: P M N A
;
_chemical_formula_sum "Si O2"
_cell_formula_units_Z 32
_cell_length_a 33.909130
_cell_length_b 5.329768
_cell_length_c 7.159913
_cell_angle_alpha 90.000000
_cell_angle_beta 90.000000
_cell_angle_gamma 90.000000
_cell_volume 1293.995296
_symmetry_space_group_name_H-M "P M N A"
_symmetry_group_IT_number 53
_symmetry_cell_setting 'orthorhombic'
loop_
_space_group_symop_operation_xyz
x,y,z
1/2-x,-y,1/2+z
x,-y,-z
1/2-x,y,1/2-z
-x,-y,-z
1/2+x,y,1/2-z
-x,y,z
1/2+x,-y,1/2+z
loop_
_atom_site_type_symbol
_atom_site_label
_atom_site_fract_x
_atom_site_fract_y
_atom_site_fract_z
Si Si1 0.455253 0.507740 0.773362
Si Si2 0.705186 0.707219 0.718984
Si Si3 0.911715 0.008866 0.726419
Si Si4 0.825579 0.206741 0.797013
O O1 0.500000 0.563796 0.716112
O O2 0.441912 0.229236 0.717887
O O3 0.426187 0.732902 0.714273
O O4 0.454693 0.500000 0.000000
O O5 0.750000 0.627388 0.750000
O O6 0.692879 0.748631 0.502498
O O7 0.677757 0.482162 0.791130
O O8 0.698981 0.984891 0.798471
O O9 0.869592 0.100744 0.799505
O O10 0.909156 0.000000 0.500000
#
# Coordination Sequence:
#
# PCOD9415904 Si02
#       4
#     8   8   8   8
#     4   9  17  30  52  81 118 157 192 232 280 333
#     4  10  21  40  60  79 107 142 202 242 292 352
#     4  10  19  33  52  84 120 149 189 238 289 351
#     4  10  21  38  58  84 111 151 191 241 302 349
#
# _framework density 24.729610999999998
#
# number of rings (size 3 to 8) (size 9 to 14) (size 15 to 20)
#    0.000    2.250    0.000    3.000    0.000    3.000 
#   13.500    0.000    0.000    0.000    0.000   70.000 
#    0.000    0.000    0.000    0.000    0.000    0.000 
#
# Total GULP energy -178872.328974 kJ/mol
# GULP energy per Si atom -5589.760280 kJ/mol
# Density = 2.467332 g / cm^3
# Si number density = 24.729611 Si / 1000 Ang^3
#
#
#
# Elastic Constant Matrix: (Units=GPa)
#
#
# Indices 1 2 3 4 5 6 
#
# 1 152.9507 48.9601 10.6643 0.0000 0.0000 0.0000
# 2 48.9601 218.4124 13.2802 0.0000 0.0000 0.0000
# 3 10.6643 13.2802 134.3106 0.0000 0.0000 0.0000
# 4 0.0000 0.0000 0.0000 -17.6724 0.0000 0.0000
# 5 0.0000 0.0000 0.0000 0.0000 15.5788 0.0000
# 6 0.0000 0.0000 0.0000 0.0000 0.0000 50.2592
#
#
#
# Elastic Compliance Matrix: (Units=1/GPa)
#
#
# Indices 1 2 3 4 5 6 
#
# 1 0.007065 -0.001559 -0.000407 0.000000 0.000000 0.000000
# 2 -0.001559 0.004950 -0.000366 0.000000 0.000000 0.000000
# 3 -0.000407 -0.000366 0.007514 0.000000 0.000000 0.000000
# 4 0.000000 0.000000 0.000000 -0.056586 0.000000 0.000000
# 5 0.000000 0.000000 0.000000 0.000000 0.064190 0.000000
# 6 0.000000 0.000000 0.000000 0.000000 0.000000 0.019897
#
#
# Mechanical properties :
#
#
# Convention : Reuss Voigt Hill
#
# Bulk Modulus (GPa) = 67.26580 72.38698 69.82639
# Shear Modulus (GPa) = 88.26226 38.48441 63.37334
#
# Velocity S-wave (km/s) = 5.98067 3.94916 5.06775
# Velocity P-wave (km/s) = 8.65741 7.08021 7.90823
#
# Compressibility (1/GPa) = 0.01486640
#
# Stress axis : x y z
#
# Youngs Moduli (GPa) = 141.53299 202.01125 133.08690
#
# Poissons Ratio (x) = 0.31495 0.05415
# Poissons Ratio (y) = 0.22066 0.04867
# Poissons Ratio (z) = 0.05758 0.07387
#
# Static dielectric constant tensor:
#      x y z
#    x 1.910340 0.000000 0.000000 
#    y 0.000000 1.816220 0.000000 
#    z 0.000000 0.000000 3.839790 
# 
# From -- ./inp_files/12741.got.cif
#   From: 2010.05.17/outbox.cif.g08.bks.cpg/sg53_7_cif.got.tgz:12741.got - 2010.06.03 12:45:16.
