data_PCOD9415597
_publ_section_title
;
Structure prediction by ZEFSAII (Michael W. Deem and Ramdas Pophale) SiO2 
 PCOD9415597
Probable space group: P M N A
;
_chemical_formula_sum "Si O2"
_cell_formula_units_Z 48
_cell_length_a 7.740829
_cell_length_b 9.846453
_cell_length_c 31.083729
_cell_angle_alpha 90.000000
_cell_angle_beta 90.000000
_cell_angle_gamma 90.000000
_cell_volume 2369.192777
_symmetry_space_group_name_H-M "P M N A"
_symmetry_group_IT_number 53
_symmetry_cell_setting 'orthorhombic'
loop_
_space_group_symop_operation_xyz
x,y,z
1/2-x,-y,1/2+z
x,-y,-z
1/2-x,y,1/2-z
-x,-y,-z
1/2+x,y,1/2-z
-x,y,z
1/2+x,-y,1/2+z
loop_
_atom_site_type_symbol
_atom_site_label
_atom_site_fract_x
_atom_site_fract_y
_atom_site_fract_z
Si Si1 0.293613 0.634389 0.700589
Si Si2 0.301180 0.324420 0.799707
Si Si3 0.287928 0.160044 0.372750
Si Si4 0.300179 0.854381 0.377387
Si Si5 0.289656 0.656500 0.548058
Si Si6 0.288468 0.347106 0.550011
O O1 0.250000 0.666579 0.750000
O O2 0.500000 0.624131 0.696963
O O3 0.224150 0.483990 0.690507
O O4 0.231253 0.748606 0.667631
O O5 0.250000 0.304993 0.750000
O O6 0.500000 0.289249 0.804509
O O7 0.203475 0.230415 0.833374
O O8 0.500000 0.159943 0.371377
O O9 0.234007 0.236082 0.416400
O O10 0.226268 0.004949 0.371752
O O11 0.500000 0.875616 0.389821
O O12 0.223821 0.759610 0.414898
O O13 0.500000 0.656595 0.548223
O O14 0.235488 0.502510 0.559317
O O15 0.236861 0.685839 0.498983
O O16 0.500000 0.347680 0.551181
#
# Coordination Sequence:
#
# PCOD9415597 Si02
#       6
#     8   8   8   8   8   8
#     4  10  19  34  54  76  99 128 164 208 252 298
#     4  11  22  37  56  77  98 128 167 210 252 299
#     4   9  18  29  46  73 107 138 168 205 251 300
#     4  10  19  32  49  75 107 139 168 203 250 301
#     4   8  13  24  41  69 102 134 170 210 250 290
#     4   8  14  24  44  70 101 135 169 208 250 290
#
# _framework density 20.260065000000001
#
# number of rings (size 3 to 8) (size 9 to 14) (size 15 to 20)
#    0.000    2.667    0.000    5.000    0.000    4.000 
#    0.000    6.667    0.000    0.000    0.000   12.833 
#    0.000    0.000    0.000    0.000    0.000    0.000 
#
# Total GULP energy -267876.664004 kJ/mol
# GULP energy per Si atom -5580.763833 kJ/mol
# Density = 2.021395 g / cm^3
# Si number density = 20.260065 Si / 1000 Ang^3
#
#
#
# Elastic Constant Matrix: (Units=GPa)
#
#
# Indices 1 2 3 4 5 6 
#
# 1 31.9065 -12.1480 -13.7615 0.0000 0.0000 0.0000
# 2 -12.1480 170.7797 124.2609 0.0000 0.0000 0.0000
# 3 -13.7615 124.2609 130.6374 0.0000 0.0000 0.0000
# 4 0.0000 0.0000 0.0000 0.6547 0.0000 0.0000
# 5 0.0000 0.0000 0.0000 0.0000 8.3735 0.0000
# 6 0.0000 0.0000 0.0000 0.0000 0.0000 4.3072
#
#
#
# Elastic Compliance Matrix: (Units=1/GPa)
#
#
# Indices 1 2 3 4 5 6 
#
# 1 0.032852 -0.000588 0.004020 0.000000 0.000000 0.000000
# 2 -0.000588 0.019028 -0.018161 0.000000 0.000000 0.000000
# 3 0.004020 -0.018161 0.025353 0.000000 0.000000 0.000000
# 4 0.000000 0.000000 0.000000 1.527371 0.000000 0.000000
# 5 0.000000 0.000000 0.000000 0.000000 0.119425 0.000000
# 6 0.000000 0.000000 0.000000 0.000000 0.000000 0.232172
#
#
# Mechanical properties :
#
#
# Convention : Reuss Voigt Hill
#
# Bulk Modulus (GPa) = 20.93191 58.89182 39.91186
# Shear Modulus (GPa) = 2.49802 18.33188 10.41495
#
# Velocity S-wave (km/s) = 1.11160 3.01130 2.26976
# Velocity P-wave (km/s) = 3.46433 6.42040 5.15864
#
# Compressibility (1/GPa) = 0.04777394
#
# Stress axis : x y z
#
# Youngs Moduli (GPa) = 30.43996 52.55496 39.44345
#
# Poissons Ratio (x) = 0.03092 -0.15857
# Poissons Ratio (y) = 0.01791 0.71633
# Poissons Ratio (z) = -0.12238 0.95445
#
# Static dielectric constant tensor:
#      x y z
#    x 1.778480 0.000000 0.000000 
#    y 0.000000 1.693920 0.000000 
#    z 0.000000 0.000000 2.008470 
# 
# From -- ./inp_files/37779.got.cif
#   From: 2010.05.17/outbox.cif.g08.bks.cpg/sg53_19_cif.got.tgz:37779.got - 2010.06.03 12:45:16.
