data_PCOD9415922
_publ_section_title
;
Structure prediction by ZEFSAII (Michael W. Deem and Ramdas Pophale) SiO2 
 PCOD9415922
Probable space group: P M N A
;
_chemical_formula_sum "Si O2"
_cell_formula_units_Z 56
_cell_length_a 8.470375
_cell_length_b 18.121677
_cell_length_c 16.771533
_cell_angle_alpha 90.000000
_cell_angle_beta 90.000000
_cell_angle_gamma 90.000000
_cell_volume 2574.386706
_symmetry_space_group_name_H-M "P M N A"
_symmetry_group_IT_number 53
_symmetry_cell_setting 'orthorhombic'
loop_
_space_group_symop_operation_xyz
x,y,z
1/2-x,-y,1/2+z
x,-y,-z
1/2-x,y,1/2-z
-x,-y,-z
1/2+x,y,1/2-z
-x,y,z
1/2+x,-y,1/2+z
loop_
_atom_site_type_symbol
_atom_site_label
_atom_site_fract_x
_atom_site_fract_y
_atom_site_fract_z
Si Si1 0.813225 0.327019 0.839194
Si Si2 0.821767 0.794255 0.667333
Si Si3 0.818714 0.889333 0.958913
Si Si4 0.809984 0.994096 0.334047
Si Si5 0.682223 0.588264 0.005696
Si Si6 0.822335 0.618408 0.666324
Si Si7 0.815191 0.164625 0.621503
O O1 0.750000 0.345404 0.750000
O O2 0.752967 0.377746 0.913179
O O3 0.767586 0.241742 0.858743
O O4 0.000000 0.333469 0.836583
O O5 0.750000 0.819277 0.750000
O O6 0.701018 0.821619 0.601698
O O7 0.832801 0.706547 0.671717
O O8 0.000000 0.823315 0.653052
O O9 0.758591 0.959931 0.908653
O O10 0.000000 0.899637 0.983959
O O11 0.710287 0.862553 0.031105
O O12 0.750000 0.024769 0.250000
O O13 0.000000 0.994966 0.338505
O O14 0.754191 0.909030 0.335556
O O15 0.500000 0.615925 0.004402
O O16 0.681138 0.500000 0.000000
O O17 0.758861 0.607791 0.919760
O O18 0.750000 0.591427 0.750000
O O19 0.000000 0.586657 0.661182
O O20 0.000000 0.175246 0.638627
#
# Coordination Sequence:
#
# PCOD9415922 Si02
#       7
#     8   8   8   8   8   8   8
#     4  12  26  45  71 101 135 177 225 277 333 395
#     4  10  19  33  53  78 112 152 197 248 304 369
#     4  12  24  37  57  86 121 160 205 258 319 386
#     4  11  24  41  61  85 117 159 207 263 326 390
#     4  10  22  42  67  97 134 173 214 264 322 383
#     4   9  19  35  58  87 120 160 203 252 310 374
#     4  11  24  43  66  91 122 161 211 269 328 390
#
# _framework density 21.752755000000001
#
# number of rings (size 3 to 8) (size 9 to 14) (size 15 to 20)
#    0.000    1.286    0.000    6.000    0.000    8.286 
#    0.000    1.429    0.000    0.000    0.000    0.000 
#    0.000    0.000    0.000    0.000    0.000    0.000 
#
# Total GULP energy -312548.779791 kJ/mol
# GULP energy per Si atom -5581.228211 kJ/mol
# Density = 2.170325 g / cm^3
# Si number density = 21.752755 Si / 1000 Ang^3
#
#
#
# Elastic Constant Matrix: (Units=GPa)
#
#
# Indices 1 2 3 4 5 6 
#
# 1 74.8967 14.7087 20.2150 0.0000 0.0000 0.0000
# 2 14.7087 53.1020 37.8232 0.0000 0.0000 0.0000
# 3 20.2150 37.8232 173.8279 0.0000 0.0000 0.0000
# 4 0.0000 0.0000 0.0000 -17.0280 0.0000 0.0000
# 5 0.0000 0.0000 0.0000 0.0000 29.8243 0.0000
# 6 0.0000 0.0000 0.0000 0.0000 0.0000 23.4691
#
#
#
# Elastic Compliance Matrix: (Units=1/GPa)
#
#
# Indices 1 2 3 4 5 6 
#
# 1 0.014250 -0.003274 -0.000945 0.000000 0.000000 0.000000
# 2 -0.003274 0.023038 -0.004632 0.000000 0.000000 0.000000
# 3 -0.000945 -0.004632 0.006871 0.000000 0.000000 0.000000
# 4 0.000000 0.000000 0.000000 -0.058727 0.000000 0.000000
# 5 0.000000 0.000000 0.000000 0.000000 0.033530 0.000000
# 6 0.000000 0.000000 0.000000 0.000000 0.000000 0.042609
#
#
# Mechanical properties :
#
#
# Convention : Reuss Voigt Hill
#
# Bulk Modulus (GPa) = 37.79810 49.70227 43.75018
# Shear Modulus (GPa) = 56.75971 22.52507 39.64239
#
# Velocity S-wave (km/s) = 5.11368 3.22142 4.27360
# Velocity P-wave (km/s) = 7.23051 6.06094 6.67141
#
# Compressibility (1/GPa) = 0.02645636
#
# Stress axis : x y z
#
# Youngs Moduli (GPa) = 70.17687 43.40683 145.54840
#
# Poissons Ratio (x) = 0.14212 0.13750
# Poissons Ratio (y) = 0.22977 0.67419
# Poissons Ratio (z) = 0.06630 0.20106
#
# Static dielectric constant tensor:
#      x y z
#    x 1.782190 0.000000 0.000000 
#    y 0.000000 1.806850 0.000000 
#    z 0.000000 0.000000 1.487930 
# 
# From -- ./inp_files/20454.got.cif
#   From: 2010.05.17/outbox.cif.g08.bks.cpg/sg53_11_cif.got.tgz:20454.got - 2010.06.03 12:45:16.
