data_PCOD9415846
_publ_section_title
;
Structure prediction by ZEFSAII (Michael W. Deem and Ramdas Pophale) SiO2 
 PCOD9415846
Probable space group: P M N A
;
_chemical_formula_sum "Si O2"
_cell_formula_units_Z 24
_cell_length_a 13.930824
_cell_length_b 9.182983
_cell_length_c 8.250803
_cell_angle_alpha 90.000000
_cell_angle_beta 90.000000
_cell_angle_gamma 90.000000
_cell_volume 1055.496515
_symmetry_space_group_name_H-M "P M N A"
_symmetry_group_IT_number 53
_symmetry_cell_setting 'orthorhombic'
loop_
_space_group_symop_operation_xyz
x,y,z
1/2-x,-y,1/2+z
x,-y,-z
1/2-x,y,1/2-z
-x,-y,-z
1/2+x,y,1/2-z
-x,y,z
1/2+x,-y,1/2+z
loop_
_atom_site_type_symbol
_atom_site_label
_atom_site_fract_x
_atom_site_fract_y
_atom_site_fract_z
Si Si1 0.611773 0.590459 0.330194
Si Si2 0.288762 0.172708 0.492114
Si Si3 0.114394 0.302225 0.330058
O O1 0.620027 0.500000 0.500000
O O2 0.500000 0.621299 0.304100
O O3 0.665624 0.259794 0.641018
O O4 0.640966 0.472529 0.195687
O O5 0.181117 0.230932 0.464388
O O6 0.352104 0.221293 0.335274
O O7 0.290237 0.000000 0.500000
O O8 0.000000 0.291423 0.352174
#
# Coordination Sequence:
#
# PCOD9415846 Si02
#       3
#     8   8   8
#     4   8  15  31  55  77 101 140 181 215 258 320
#     4  10  19  32  55  84 110 137 177 229 276 311
#     4   9  19  36  55  77 108 144 181 218 263 327
#
# _framework density 22.738113999999999
#
# number of rings (size 3 to 8) (size 9 to 14) (size 15 to 20)
#    0.000    3.000    0.000    3.000    0.000    3.333 
#    0.000   20.000    0.000   27.000    0.000    0.000 
#    0.000    0.000    0.000    0.000    0.000    0.000 
#
# Total GULP energy -134216.860353 kJ/mol
# GULP energy per Si atom -5592.369181 kJ/mol
# Density = 2.268636 g / cm^3
# Si number density = 22.738114 Si / 1000 Ang^3
#
#
#
# Elastic Constant Matrix: (Units=GPa)
#
#
# Indices 1 2 3 4 5 6 
#
# 1 146.5779 97.8352 27.0738 0.0000 0.0000 0.0000
# 2 97.8352 258.4936 50.7506 0.0000 0.0000 0.0000
# 3 27.0738 50.7506 69.0068 0.0000 0.0000 0.0000
# 4 0.0000 0.0000 0.0000 8.5186 0.0000 0.0000
# 5 0.0000 0.0000 0.0000 0.0000 19.1066 0.0000
# 6 0.0000 0.0000 0.0000 0.0000 0.0000 34.0993
#
#
#
# Elastic Compliance Matrix: (Units=1/GPa)
#
#
# Indices 1 2 3 4 5 6 
#
# 1 0.009216 -0.003247 -0.001228 0.000000 0.000000 0.000000
# 2 -0.003247 0.005666 -0.002893 0.000000 0.000000 0.000000
# 3 -0.001228 -0.002893 0.017100 0.000000 0.000000 0.000000
# 4 0.000000 0.000000 0.000000 0.117390 0.000000 0.000000
# 5 0.000000 0.000000 0.000000 0.000000 0.052338 0.000000
# 6 0.000000 0.000000 0.000000 0.000000 0.000000 0.029326
#
#
# Mechanical properties :
#
#
# Convention : Reuss Voigt Hill
#
# Bulk Modulus (GPa) = 57.98091 91.71082 74.84587
# Shear Modulus (GPa) = 19.87909 32.23948 26.05928
#
# Velocity S-wave (km/s) = 2.96000 3.76953 3.38903
# Velocity P-wave (km/s) = 6.10221 7.70499 6.94996
#
# Compressibility (1/GPa) = 0.01724706
#
# Stress axis : x y z
#
# Youngs Moduli (GPa) = 108.50119 176.50680 58.47805
#
# Poissons Ratio (x) = 0.57316 0.07180
# Poissons Ratio (y) = 0.35233 0.16916
# Poissons Ratio (z) = 0.13322 0.51057
#
# Static dielectric constant tensor:
#      x y z
#    x 1.820630 0.000000 0.000000 
#    y 0.000000 1.795270 0.000000 
#    z 0.000000 0.000000 2.004070 
# 
# From -- ./inp_files/7786.got.cif
#   From: 2010.05.17/outbox.cif.g08.bks.cpg/sg53_4_cif.got.tgz:7786.got - 2010.06.03 12:45:16.
