data_PCOD9415021
_publ_section_title
;
Structure prediction by ZEFSAII (Michael W. Deem and Ramdas Pophale) SiO2 
 PCOD9415021
Probable space group: P M N A
;
_chemical_formula_sum "Si O2"
_cell_formula_units_Z 52
_cell_length_a 20.065430
_cell_length_b 9.092259
_cell_length_c 14.670901
_cell_angle_alpha 90.000000
_cell_angle_beta 90.000000
_cell_angle_gamma 90.000000
_cell_volume 2676.560448
_symmetry_space_group_name_H-M "P M N A"
_symmetry_group_IT_number 53
_symmetry_cell_setting 'orthorhombic'
loop_
_space_group_symop_operation_xyz
x,y,z
1/2-x,-y,1/2+z
x,-y,-z
1/2-x,y,1/2-z
-x,-y,-z
1/2+x,y,1/2-z
-x,y,z
1/2+x,-y,1/2+z
loop_
_atom_site_type_symbol
_atom_site_label
_atom_site_fract_x
_atom_site_fract_y
_atom_site_fract_z
Si Si1 0.500000 0.663701 0.041977
Si Si2 0.753570 0.160803 0.648500
Si Si3 0.244497 0.194562 0.353715
Si Si4 0.000000 0.705333 0.241095
Si Si5 0.107620 0.202691 0.081263
Si Si6 0.861655 0.179130 0.500279
Si Si7 0.602306 0.868360 0.378382
Si Si8 0.500000 0.436361 0.396335
O O1 0.500000 0.669739 0.152560
O O2 0.500000 0.500000 0.000000
O O3 0.566677 0.747953 0.009886
O O4 0.750000 0.221549 0.750000
O O5 0.812587 0.216710 0.585019
O O6 0.678888 0.179668 0.614016
O O7 0.761103 0.983348 0.651736
O O8 0.250000 0.250192 0.250000
O O9 0.313199 0.229829 0.406952
O O10 0.179279 0.234747 0.411636
O O11 0.063843 0.797626 0.205535
O O12 0.000000 0.563331 0.177481
O O13 0.064689 0.335330 0.119048
O O14 0.097331 0.044513 0.129011
O O15 0.079220 0.178980 0.978907
O O16 0.867608 0.000000 0.500000
O O17 0.500000 0.500000 0.500000
#
# Coordination Sequence:
#
# PCOD9415021 Si02
#       8
#     4   8   8   4   8   8   8   4
#     4  12  29  48  61  83 125 174 213 259 306 360
#     4   9  16  30  58  95 123 150 193 251 311 364
#     4   9  18  33  59  94 126 152 192 250 309 364
#     4  12  25  41  60  87 125 171 218 255 300 364
#     4  10  19  35  59  94 127 161 193 251 320 365
#     4  10  20  41  69  93 119 157 207 256 307 369
#     4  10  18  34  62  93 125 155 199 259 314 365
#     4  12  23  37  56  84 129 172 205 247 298 371
#
# _framework density 19.427918999999999
#
# number of rings (size 3 to 8) (size 9 to 14) (size 15 to 20)
#    0.000    1.846    3.077    1.615    0.000    3.692 
#    0.000    3.846    0.000    1.846    0.000    0.000 
#    0.000    0.000    0.000    0.000    0.000    0.000 
#
# Total GULP energy -289904.549027 kJ/mol
# GULP energy per Si atom -5575.087481 kJ/mol
# Density = 1.938370 g / cm^3
# Si number density = 19.427919 Si / 1000 Ang^3
#
#
#
# Elastic Constant Matrix: (Units=GPa)
#
#
# Indices 1 2 3 4 5 6 
#
# 1 160.5265 54.7366 76.8164 0.0000 0.0000 0.0000
# 2 54.7366 65.5755 38.0118 0.0000 0.0000 0.0000
# 3 76.8164 38.0118 139.4622 0.0000 0.0000 0.0000
# 4 0.0000 0.0000 0.0000 16.0030 0.0000 0.0000
# 5 0.0000 0.0000 0.0000 0.0000 71.0967 0.0000
# 6 0.0000 0.0000 0.0000 0.0000 0.0000 -32.0075
#
#
#
# Elastic Compliance Matrix: (Units=1/GPa)
#
#
# Indices 1 2 3 4 5 6 
#
# 1 0.010254 -0.006277 -0.003937 0.000000 0.000000 0.000000
# 2 -0.006277 0.021953 -0.002526 0.000000 0.000000 0.000000
# 3 -0.003937 -0.002526 0.010028 0.000000 0.000000 0.000000
# 4 0.000000 0.000000 0.000000 0.062488 0.000000 0.000000
# 5 0.000000 0.000000 0.000000 0.000000 0.014065 0.000000
# 6 0.000000 0.000000 0.000000 0.000000 0.000000 -0.031243
#
#
# Mechanical properties :
#
#
# Convention : Reuss Voigt Hill
#
# Bulk Modulus (GPa) = 59.68602 78.29933 68.99267
# Shear Modulus (GPa) = 42.15489 24.08509 33.11999
#
# Velocity S-wave (km/s) = 4.66318 3.52478 4.13336
# Velocity P-wave (km/s) = 7.73189 7.54688 7.63994
#
# Compressibility (1/GPa) = 0.01675434
#
# Stress axis : x y z
#
# Youngs Moduli (GPa) = 97.52556 45.55127 99.72575
#
# Poissons Ratio (x) = 0.28591 0.39262
# Poissons Ratio (y) = 0.61214 0.25194
# Poissons Ratio (z) = 0.38396 0.11508
#
# Static dielectric constant tensor:
#      x y z
#    x 1.836110 0.000000 0.000000 
#    y 0.000000 1.663880 0.000000 
#    z 0.000000 0.000000 1.743480 
# 
# From -- ./inp_files/24292.got.cif
#   From: 2010.05.17/outbox.cif.g08.bks.cpg/sg53_13_cif.got.tgz:24292.got - 2010.06.03 12:45:16.
