data_PCOD9415453
_publ_section_title
;
Structure prediction by ZEFSAII (Michael W. Deem and Ramdas Pophale) SiO2 
 PCOD9415453
Probable space group: P M N A
;
_chemical_formula_sum "Si O2"
_cell_formula_units_Z 64
_cell_length_a 19.041245
_cell_length_b 21.293236
_cell_length_c 8.141393
_cell_angle_alpha 90.000000
_cell_angle_beta 90.000000
_cell_angle_gamma 90.000000
_cell_volume 3300.925541
_symmetry_space_group_name_H-M "P M N A"
_symmetry_group_IT_number 53
_symmetry_cell_setting 'orthorhombic'
loop_
_space_group_symop_operation_xyz
x,y,z
1/2-x,-y,1/2+z
x,-y,-z
1/2-x,y,1/2-z
-x,-y,-z
1/2+x,y,1/2-z
-x,y,z
1/2+x,-y,1/2+z
loop_
_atom_site_type_symbol
_atom_site_label
_atom_site_fract_x
_atom_site_fract_y
_atom_site_fract_z
Si Si1 0.418687 0.740796 0.700365
Si Si2 0.581184 0.500000 0.299109
Si Si3 0.579992 0.118297 0.697790
Si Si4 0.669327 0.621623 0.698491
Si Si5 0.920008 0.118297 0.197790
Si Si6 0.918687 0.740796 0.200365
Si Si7 0.329952 1.000000 0.806372
Si Si8 0.669327 0.378377 0.698491
O O1 0.500000 0.728928 0.747255
O O2 0.367220 0.685978 0.757578
O O3 0.399336 0.811479 0.753913
O O4 0.417418 0.740316 0.500000
O O5 0.580467 0.500000 0.500000
O O6 0.500000 0.500000 0.246001
O O7 0.623343 0.438024 0.246109
O O8 0.623343 0.561976 0.246109
O O9 0.500000 0.106240 0.754905
O O10 0.578156 0.120126 0.500000
O O11 0.600664 0.188521 0.753913
O O12 0.630455 0.062363 0.746872
O O13 0.750000 0.616601 0.750000
O O14 0.667117 0.621981 0.500000
O O15 0.869545 0.062363 0.246872
O O16 0.000000 0.106240 0.254905
O O17 0.867220 0.685978 0.257578
O O18 0.000000 0.728928 0.247255
O O19 0.250000 1.000000 0.750000
O O20 0.331907 0.000000 0.000000
O O21 0.750000 0.383399 0.750000
#
# Coordination Sequence:
#
# PCOD9415453 Si02
#       8
#     8   8   8   8   8   8   8   8
#     4   8  15  30  53  77  99 129 170 209 243 288
#     4   9  17  30  51  75  96 127 174 218 248 285
#     4   9  18  35  58  80 103 133 169 209 255 307
#     4  10  19  31  49  74 104 134 166 206 251 298
#     4   9  18  35  58  80 103 133 169 209 255 307
#     4   8  15  30  53  77  99 129 170 209 243 288
#     4  12  25  38  53  75 105 137 171 212 257 306
#     4  10  19  31  49  74 104 134 166 206 251 298
#
# _framework density 19.388501000000002
#
# number of rings (size 3 to 8) (size 9 to 14) (size 15 to 20)
#    0.000    2.625    0.000    4.125    0.000    6.000 
#    0.000    3.750    0.000    5.250    0.000    0.000 
#    0.000    0.000    0.000    0.000    0.000    0.000 
#
# Total GULP energy -357143.823088 kJ/mol
# GULP energy per Si atom -5580.372236 kJ/mol
# Density = 1.934437 g / cm^3
# Si number density = 19.388501 Si / 1000 Ang^3
#
#
#
# Elastic Constant Matrix: (Units=GPa)
#
#
# Indices 1 2 3 4 5 6 
#
# 1 180.1732 152.2988 11.1673 0.0000 0.0000 0.0000
# 2 152.2988 214.8937 19.8997 0.0000 0.0000 0.0000
# 3 11.1673 19.8997 11.4227 0.0000 0.0000 0.0000
# 4 0.0000 0.0000 0.0000 -5.0171 0.0000 0.0000
# 5 0.0000 0.0000 0.0000 0.0000 27.0398 0.0000
# 6 0.0000 0.0000 0.0000 0.0000 0.0000 -3.7271
#
#
#
# Elastic Compliance Matrix: (Units=1/GPa)
#
#
# Indices 1 2 3 4 5 6 
#
# 1 0.014018 -0.010333 0.004296 0.000000 0.000000 0.000000
# 2 -0.010333 0.013165 -0.012833 0.000000 0.000000 0.000000
# 3 0.004296 -0.012833 0.105701 0.000000 0.000000 0.000000
# 4 0.000000 0.000000 0.000000 -0.199319 0.000000 0.000000
# 5 0.000000 0.000000 0.000000 0.000000 0.036983 0.000000
# 6 0.000000 0.000000 0.000000 0.000000 0.000000 -0.268305
#
#
# Mechanical properties :
#
#
# Convention : Reuss Voigt Hill
#
# Bulk Modulus (GPa) = 10.51025 85.91347 48.21186
# Shear Modulus (GPa) = -21.90072 18.53404 -1.68334
#
# Velocity S-wave (km/s) = -3.36456 3.09517 -0.93279
# Velocity P-wave (km/s) = 3.10822 7.56182 4.87443
#
# Compressibility (1/GPa) = 0.09514523
#
# Stress axis : x y z
#
# Youngs Moduli (GPa) = 71.33669 75.96042 9.46061
#
# Poissons Ratio (x) = 0.78487 -0.04064
# Poissons Ratio (y) = 0.73710 0.12141
# Poissons Ratio (z) = -0.30647 0.97480
#
# Static dielectric constant tensor:
#      x y z
#    x 1.628380 0.000000 0.000000 
#    y 0.000000 1.703770 0.000000 
#    z 0.000000 0.000000 1.696050 
# 
# From -- ./inp_files/10196.got.cif
#   From: 2010.05.17/outbox.cif.g08.bks.cpg/sg53_6_cif.got.tgz:10196.got - 2010.06.03 12:45:16.
