data_PCOD9415409
_publ_section_title
;
Structure prediction by ZEFSAII (Michael W. Deem and Ramdas Pophale) SiO2 
 PCOD9415409
Probable space group: P M N A
;
_chemical_formula_sum "Si O2"
_cell_formula_units_Z 64
_cell_length_a 8.628162
_cell_length_b 12.623607
_cell_length_c 31.627814
_cell_angle_alpha 90.000000
_cell_angle_beta 90.000000
_cell_angle_gamma 90.000000
_cell_volume 3444.854888
_symmetry_space_group_name_H-M "P M N A"
_symmetry_group_IT_number 53
_symmetry_cell_setting 'orthorhombic'
loop_
_space_group_symop_operation_xyz
x,y,z
1/2-x,-y,1/2+z
x,-y,-z
1/2-x,y,1/2-z
-x,-y,-z
1/2+x,y,1/2-z
-x,y,z
1/2+x,-y,1/2+z
loop_
_atom_site_type_symbol
_atom_site_label
_atom_site_fract_x
_atom_site_fract_y
_atom_site_fract_z
Si Si1 0.685318 0.848222 0.872591
Si Si2 0.679848 0.328445 0.978385
Si Si3 0.814761 0.305568 0.617417
Si Si4 0.176267 0.889057 0.019268
Si Si5 0.814611 0.708107 0.796638
Si Si6 0.188161 0.655556 0.569819
Si Si7 0.185112 0.484974 0.146082
Si Si8 0.325503 0.919247 0.380372
O O1 0.500000 0.849786 0.873200
O O2 0.744341 0.789358 0.830585
O O3 0.735847 0.772068 0.912053
O O4 0.746123 0.967939 0.872728
O O5 0.500000 0.359935 0.975563
O O6 0.745506 0.335042 0.930625
O O7 0.702335 0.203691 0.988473
O O8 0.743510 0.375411 0.022483
O O9 0.756325 0.398754 0.647298
O O10 0.758866 0.189876 0.632060
O O11 0.000000 0.304079 0.614736
O O12 0.167033 0.907288 0.069093
O O13 0.000000 0.861679 0.004431
O O14 0.224137 0.000000 0.000000
O O15 0.750000 0.724163 0.750000
O O16 0.775225 0.591319 0.814737
O O17 0.000000 0.718913 0.796816
O O18 0.248082 0.573705 0.604593
O O19 0.000000 0.653205 0.568991
O O20 0.000000 0.491113 0.142700
O O21 0.500000 0.921090 0.363124
#
# Coordination Sequence:
#
# PCOD9415409 Si02
#       8
#     8   8   8   8   8   8   8   8
#     4  10  19  32  53  80 108 138 172 209 256 312
#     4   9  18  30  44  65  94 132 179 225 263 300
#     4  10  20  34  51  71 100 141 186 225 261 305
#     4   9  17  27  40  61  91 129 172 217 262 304
#     4  10  21  38  61  87 111 133 160 200 252 310
#     4   9  18  32  49  71 101 137 177 222 268 311
#     4  10  21  36  54  77 104 134 170 213 261 312
#     4  10  19  31  48  71 102 138 175 215 258 303
#
# _framework density 18.578430999999998
#
# number of rings (size 3 to 8) (size 9 to 14) (size 15 to 20)
#    0.000    2.375    0.000    2.625    0.000    4.250 
#    0.000    2.500    0.000    0.750    0.000    3.500 
#    0.000    0.000    0.000    0.000    0.000    0.000 
#
# Total GULP energy -356708.707287 kJ/mol
# GULP energy per Si atom -5573.573551 kJ/mol
# Density = 1.853615 g / cm^3
# Si number density = 18.578431 Si / 1000 Ang^3
#
#
#
# Elastic Constant Matrix: (Units=GPa)
#
#
# Indices 1 2 3 4 5 6 
#
# 1 37.7486 26.4379 15.8928 0.0000 0.0000 0.0000
# 2 26.4379 101.6469 20.6174 0.0000 0.0000 0.0000
# 3 15.8928 20.6174 59.5630 0.0000 0.0000 0.0000
# 4 0.0000 0.0000 0.0000 14.2156 0.0000 0.0000
# 5 0.0000 0.0000 0.0000 0.0000 7.2697 0.0000
# 6 0.0000 0.0000 0.0000 0.0000 0.0000 31.1492
#
#
#
# Elastic Compliance Matrix: (Units=1/GPa)
#
#
# Indices 1 2 3 4 5 6 
#
# 1 0.034638 -0.007673 -0.006586 0.000000 0.000000 0.000000
# 2 -0.007673 0.012281 -0.002203 0.000000 0.000000 0.000000
# 3 -0.006586 -0.002203 0.019309 0.000000 0.000000 0.000000
# 4 0.000000 0.000000 0.000000 0.070345 0.000000 0.000000
# 5 0.000000 0.000000 0.000000 0.000000 0.137558 0.000000
# 6 0.000000 0.000000 0.000000 0.000000 0.000000 0.032104
#
#
# Mechanical properties :
#
#
# Convention : Reuss Voigt Hill
#
# Bulk Modulus (GPa) = 30.02834 36.09497 33.06166
# Shear Modulus (GPa) = 14.27506 19.59424 16.93465
#
# Velocity S-wave (km/s) = 2.77495 3.25110 3.02242
# Velocity P-wave (km/s) = 5.14444 5.79340 5.47854
#
# Compressibility (1/GPa) = 0.03330187
#
# Stress axis : x y z
#
# Youngs Moduli (GPa) = 28.86991 81.42852 51.78929
#
# Poissons Ratio (x) = 0.62483 0.34110
# Poissons Ratio (y) = 0.22153 0.11412
# Poissons Ratio (z) = 0.19014 0.17943
#
# Static dielectric constant tensor:
#      x y z
#    x 1.657450 0.000000 0.000000 
#    y 0.000000 1.664020 0.000000 
#    z 0.000000 0.000000 1.645970 
# 
# From -- ./inp_files/38105.got.cif
#   From: 2010.05.17/outbox.cif.g08.bks.cpg/sg53_20_cif.got.tgz:38105.got - 2010.06.03 12:45:16.
