data_PCOD9415337
_publ_section_title
;
Structure prediction by ZEFSAII (Michael W. Deem and Ramdas Pophale) SiO2 
 PCOD9415337
Probable space group: P M N A
;
_chemical_formula_sum "Si O2"
_cell_formula_units_Z 64
_cell_length_a 9.399317
_cell_length_b 21.981936
_cell_length_c 19.246024
_cell_angle_alpha 90.000000
_cell_angle_beta 90.000000
_cell_angle_gamma 90.000000
_cell_volume 3976.520804
_symmetry_space_group_name_H-M "P M N A"
_symmetry_group_IT_number 53
_symmetry_cell_setting 'orthorhombic'
loop_
_space_group_symop_operation_xyz
x,y,z
1/2-x,-y,1/2+z
x,-y,-z
1/2-x,y,1/2-z
-x,-y,-z
1/2+x,y,1/2-z
-x,y,z
1/2+x,-y,1/2+z
loop_
_atom_site_type_symbol
_atom_site_label
_atom_site_fract_x
_atom_site_fract_y
_atom_site_fract_z
Si Si1 0.335215 0.582794 0.064617
Si Si2 0.663701 0.665159 0.629849
Si Si3 0.836443 0.301615 0.964070
Si Si4 0.334879 0.449857 0.100276
Si Si5 0.830949 0.933437 0.972355
Si Si6 0.838211 0.219570 0.346049
Si Si7 0.168172 0.098726 0.185833
Si Si8 0.838469 0.814379 0.490680
O O1 0.500000 0.596343 0.081044
O O2 0.237626 0.641439 0.073503
O O3 0.293078 0.520787 0.104073
O O4 0.331593 0.566567 0.982158
O O5 0.500000 0.667576 0.652998
O O6 0.664385 0.682074 0.547018
O O7 0.733071 0.598668 0.636581
O O8 0.762891 0.715931 0.664721
O O9 0.000000 0.294332 0.943755
O O10 0.749480 0.239392 0.954281
O O11 0.500000 0.443134 0.122086
O O12 0.807492 0.931136 0.889287
O O13 0.743001 0.878637 0.006932
O O14 0.000000 0.923029 0.983893
O O15 0.793201 0.000000 0.000000
O O16 0.736439 0.165727 0.320948
O O17 0.847257 0.207538 0.428922
O O18 0.000000 0.216844 0.318641
O O19 0.250000 0.068266 0.250000
O O20 0.000000 0.101547 0.198619
O O21 0.000000 0.820075 0.464762
#
# Coordination Sequence:
#
# PCOD9415337 Si02
#       8
#     8   8   8   8   8   8   8   8
#     4   8  13  20  28  38  55  81 115 154 194 235
#     4   9  15  21  30  45  64  87 118 157 198 237
#     4   9  15  21  30  44  63  88 119 156 197 239
#     4   8  13  20  28  38  55  82 115 152 194 237
#     4   9  18  32  48  65  86 112 141 174 212 255
#     4   9  16  26  39  54  73  98 129 164 202 242
#     4  10  19  31  47  66  88 112 140 174 212 254
#     4   9  16  25  38  55  74  97 127 164 203 243
#
# _framework density 16.094470999999999
#
# number of rings (size 3 to 8) (size 9 to 14) (size 15 to 20)
#    0.000    3.125    0.000    2.625    0.000    7.250 
#    0.000    2.500    0.000    0.000    0.000    0.000 
#    0.000    0.000    0.000    0.000    0.000    1.250 
#
# Total GULP energy -356361.838592 kJ/mol
# GULP energy per Si atom -5568.153728 kJ/mol
# Density = 1.605784 g / cm^3
# Si number density = 16.094471 Si / 1000 Ang^3
#
#
#
# Elastic Constant Matrix: (Units=GPa)
#
#
# Indices 1 2 3 4 5 6 
#
# 1 121.1012 90.4606 23.1951 0.0000 0.0000 0.0000
# 2 90.4606 143.4330 26.4888 0.0000 0.0000 0.0000
# 3 23.1951 26.4888 19.2138 0.0000 0.0000 0.0000
# 4 0.0000 0.0000 0.0000 3.8168 0.0000 0.0000
# 5 0.0000 0.0000 0.0000 0.0000 4.2385 0.0000
# 6 0.0000 0.0000 0.0000 0.0000 0.0000 23.8289
#
#
#
# Elastic Compliance Matrix: (Units=1/GPa)
#
#
# Indices 1 2 3 4 5 6 
#
# 1 0.016364 -0.008951 -0.007414 0.000000 0.000000 0.000000
# 2 -0.008951 0.014250 -0.008839 0.000000 0.000000 0.000000
# 3 -0.007414 -0.008839 0.073182 0.000000 0.000000 0.000000
# 4 0.000000 0.000000 0.000000 0.262001 0.000000 0.000000
# 5 0.000000 0.000000 0.000000 0.000000 0.235933 0.000000
# 6 0.000000 0.000000 0.000000 0.000000 0.000000 0.041966
#
#
# Mechanical properties :
#
#
# Convention : Reuss Voigt Hill
#
# Bulk Modulus (GPa) = 18.73121 62.67077 40.70099
# Shear Modulus (GPa) = 7.02344 15.95039 11.48692
#
# Velocity S-wave (km/s) = 2.09126 3.15151 2.67445
# Velocity P-wave (km/s) = 4.18267 7.22956 5.90598
#
# Compressibility (1/GPa) = 0.05338683
#
# Stress axis : x y z
#
# Youngs Moduli (GPa) = 61.10919 70.17705 13.66450
#
# Poissons Ratio (x) = 0.62818 0.10131
# Poissons Ratio (y) = 0.54701 0.12078
# Poissons Ratio (z) = 0.45309 0.62029
#
# Static dielectric constant tensor:
#      x y z
#    x 1.547080 0.000000 0.000000 
#    y 0.000000 1.532740 0.000000 
#    z 0.000000 0.000000 1.560100 
# 
# From -- ./inp_files/31421.got.cif
#   From: 2010.05.17/outbox.cif.g08.bks.cpg/sg53_16_cif.got.tgz:31421.got - 2010.06.03 12:45:16.
