data_PCOD9415908
_publ_section_title
;
Structure prediction by ZEFSAII (Michael W. Deem and Ramdas Pophale) SiO2 
 PCOD9415908
Probable space group: P M N A
;
_chemical_formula_sum "Si O2"
_cell_formula_units_Z 56
_cell_length_a 14.733782
_cell_length_b 9.453826
_cell_length_c 21.710982
_cell_angle_alpha 90.000000
_cell_angle_beta 90.000000
_cell_angle_gamma 90.000000
_cell_volume 3024.135956
_symmetry_space_group_name_H-M "P M N A"
_symmetry_group_IT_number 53
_symmetry_cell_setting 'orthorhombic'
loop_
_space_group_symop_operation_xyz
x,y,z
1/2-x,-y,1/2+z
x,-y,-z
1/2-x,y,1/2-z
-x,-y,-z
1/2+x,y,1/2-z
-x,y,z
1/2+x,-y,1/2+z
loop_
_atom_site_type_symbol
_atom_site_label
_atom_site_fract_x
_atom_site_fract_y
_atom_site_fract_z
Si Si1 0.604419 0.165693 0.482129
Si Si2 0.103259 0.048682 0.392565
Si Si3 0.605637 0.281591 0.897356
Si Si4 0.798145 0.266488 0.477414
Si Si5 0.902668 0.323336 0.145217
Si Si6 0.847279 0.216500 0.272867
Si Si7 0.283964 0.462409 0.139642
O O1 0.500000 0.207691 0.500545
O O2 0.696364 0.244381 0.505000
O O3 0.611195 0.208163 0.409389
O O4 0.612379 0.000000 0.500000
O O5 0.171304 0.126184 0.439644
O O6 0.111163 0.120018 0.325673
O O7 0.000000 0.066963 0.415955
O O8 0.121343 0.883546 0.385024
O O9 0.500000 0.316044 0.886197
O O10 0.672180 0.384553 0.860331
O O11 0.631619 0.297226 0.968876
O O12 0.802418 0.389349 0.426568
O O13 0.900551 0.245029 0.210556
O O14 0.823424 0.438886 0.146241
O O15 0.000000 0.390709 0.134272
O O16 0.750000 0.159168 0.250000
O O17 0.827936 0.364618 0.307708
#
# Coordination Sequence:
#
# PCOD9415908 Si02
#       7
#     8   8   8   8   8   8   8
#     4   9  17  30  51  79 106 131 164 212 266 311
#     4  10  20  33  52  79 107 136 172 215 262 308
#     4  11  22  34  50  75 108 141 171 212 266 313
#     4  10  19  33  53  75 103 140 179 213 251 311
#     4   9  17  32  55  77  99 133 176 216 255 309
#     4   9  18  34  55  77 101 135 176 212 251 306
#     4   9  20  34  49  74 104 135 174 215 255 302
#
# _framework density 18.517685
#
# number of rings (size 3 to 8) (size 9 to 14) (size 15 to 20)
#    0.000    2.429    0.000    3.429    0.000    5.143 
#    0.000    2.857    0.000    4.286    0.000    0.000 
#    0.000    0.000    0.000    0.000    0.000    0.000 
#
# Total GULP energy -311964.077320 kJ/mol
# GULP energy per Si atom -5570.787095 kJ/mol
# Density = 1.847554 g / cm^3
# Si number density = 18.517685 Si / 1000 Ang^3
#
#
#
# Elastic Constant Matrix: (Units=GPa)
#
#
# Indices 1 2 3 4 5 6 
#
# 1 92.9303 47.6885 14.5358 0.0000 0.0000 0.0000
# 2 47.6885 50.9984 10.7431 0.0000 0.0000 0.0000
# 3 14.5358 10.7431 44.4878 0.0000 0.0000 0.0000
# 4 0.0000 0.0000 0.0000 4.5258 0.0000 0.0000
# 5 0.0000 0.0000 0.0000 0.0000 18.2782 0.0000
# 6 0.0000 0.0000 0.0000 0.0000 0.0000 -50.6515
#
#
#
# Elastic Compliance Matrix: (Units=1/GPa)
#
#
# Indices 1 2 3 4 5 6 
#
# 1 0.020895 -0.019070 -0.002222 0.000000 0.000000 0.000000
# 2 -0.019070 0.038065 -0.002961 0.000000 0.000000 0.000000
# 3 -0.002222 -0.002961 0.023919 0.000000 0.000000 0.000000
# 4 0.000000 0.000000 0.000000 0.220953 0.000000 0.000000
# 5 0.000000 0.000000 0.000000 0.000000 0.054710 0.000000
# 6 0.000000 0.000000 0.000000 0.000000 0.000000 -0.019743
#
#
# Mechanical properties :
#
#
# Convention : Reuss Voigt Hill
#
# Bulk Modulus (GPa) = 29.09349 37.15014 33.12182
# Shear Modulus (GPa) = 12.53877 2.12710 7.33294
#
# Velocity S-wave (km/s) = 2.60498 1.07293 1.99212
# Velocity P-wave (km/s) = 4.97928 4.65193 4.81838
#
# Compressibility (1/GPa) = 0.03437195
#
# Stress axis : x y z
#
# Youngs Moduli (GPa) = 47.85943 26.27091 41.80767
#
# Poissons Ratio (x) = 0.50100 0.09289
# Poissons Ratio (y) = 0.91270 0.12380
# Poissons Ratio (z) = 0.10633 0.07779
#
# Static dielectric constant tensor:
#      x y z
#    x 1.715140 0.000000 0.000000 
#    y 0.000000 1.625200 0.000000 
#    z 0.000000 0.000000 1.637940 
# 
# From -- ./inp_files/32483.got.cif
#   From: 2010.05.17/outbox.cif.g08.bks.cpg/sg53_17_cif.got.tgz:32483.got - 2010.06.03 12:45:16.
