data_PCOD9415867
_publ_section_title
;
Structure prediction by ZEFSAII (Michael W. Deem and Ramdas Pophale) SiO2 
 PCOD9415867
Probable space group: P M N A
;
_chemical_formula_sum "Si O2"
_cell_formula_units_Z 64
_cell_length_a 28.389265
_cell_length_b 8.760166
_cell_length_c 15.105189
_cell_angle_alpha 90.000000
_cell_angle_beta 90.000000
_cell_angle_gamma 90.000000
_cell_volume 3756.580054
_symmetry_space_group_name_H-M "P M N A"
_symmetry_group_IT_number 53
_symmetry_cell_setting 'orthorhombic'
loop_
_space_group_symop_operation_xyz
x,y,z
1/2-x,-y,1/2+z
x,-y,-z
1/2-x,y,1/2-z
-x,-y,-z
1/2+x,y,1/2-z
-x,y,z
1/2+x,-y,1/2+z
loop_
_atom_site_type_symbol
_atom_site_label
_atom_site_fract_x
_atom_site_fract_y
_atom_site_fract_z
Si Si1 0.324730 0.066636 0.593718
Si Si2 0.946187 0.433432 0.596237
Si Si3 0.279979 0.064711 0.094791
Si Si4 0.359784 0.568768 0.216511
Si Si5 0.268021 0.398827 0.151705
Si Si6 0.174862 0.568615 0.092055
Si Si7 0.139617 0.063362 0.718905
Si Si8 0.053917 0.065193 0.596182
O O1 0.322113 0.249112 0.586317
O O2 0.356797 0.025206 0.677539
O O3 0.340836 0.000000 0.500000
O O4 0.272187 0.002358 0.610952
O O5 0.933817 0.500000 0.500000
O O6 0.908018 0.479424 0.669373
O O7 0.945381 0.249284 0.590999
O O8 0.000000 0.480559 0.616710
O O9 0.276399 0.247155 0.095506
O O10 0.316594 0.012222 0.168707
O O11 0.295805 0.000000 0.000000
O O12 0.315612 0.493299 0.166642
O O13 0.355270 0.528579 0.320373
O O14 0.355652 0.752710 0.210831
O O15 0.250000 0.351642 0.250000
O O16 0.226778 0.500451 0.110070
O O17 0.156895 0.500000 0.000000
O O18 0.091574 0.017434 0.669895
O O19 0.000000 0.017647 0.615448
O O20 0.066961 0.000000 0.500000
#
# Coordination Sequence:
#
# PCOD9415867 Si02
#       8
#     8   8   8   8   8   8   8   8
#     4  10  20  33  49  69  94 128 164 198 238 281
#     4   9  18  33  52  73  97 124 154 191 235 283
#     4  11  21  31  46  71 100 130 162 195 236 282
#     4   9  20  33  49  72  95 126 162 197 239 284
#     4  10  20  33  48  69  97 130 165 199 236 279
#     4  10  19  33  50  68  95 127 162 201 238 279
#     4  10  19  33  50  70  98 127 159 198 238 283
#     4   9  18  33  52  74  98 124 155 190 233 283
#
# _framework density 17.036771999999999
#
# number of rings (size 3 to 8) (size 9 to 14) (size 15 to 20)
#    0.000    2.250    0.000    3.750    0.000    6.500 
#    0.000    0.000    0.000    0.750    0.000    0.000 
#    0.000    0.000    0.000    0.000    0.000    2.125 
#
# Total GULP energy -357163.784988 kJ/mol
# GULP energy per Si atom -5580.684140 kJ/mol
# Density = 1.699800 g / cm^3
# Si number density = 17.036772 Si / 1000 Ang^3
#
#
#
# Elastic Constant Matrix: (Units=GPa)
#
#
# Indices 1 2 3 4 5 6 
#
# 1 93.5771 26.7199 83.2916 0.0000 0.0000 0.0000
# 2 26.7199 39.4050 47.7849 0.0000 0.0000 0.0000
# 3 83.2916 47.7849 150.8382 0.0000 0.0000 0.0000
# 4 0.0000 0.0000 0.0000 30.9945 0.0000 0.0000
# 5 0.0000 0.0000 0.0000 0.0000 29.8650 0.0000
# 6 0.0000 0.0000 0.0000 0.0000 0.0000 11.4720
#
#
#
# Elastic Compliance Matrix: (Units=1/GPa)
#
#
# Indices 1 2 3 4 5 6 
#
# 1 0.021017 -0.000289 -0.011514 0.000000 0.000000 0.000000
# 2 -0.000289 0.041212 -0.012896 0.000000 0.000000 0.000000
# 3 -0.011514 -0.012896 0.017073 0.000000 0.000000 0.000000
# 4 0.000000 0.000000 0.000000 0.032264 0.000000 0.000000
# 5 0.000000 0.000000 0.000000 0.000000 0.033484 0.000000
# 6 0.000000 0.000000 0.000000 0.000000 0.000000 0.087169
#
#
# Mechanical properties :
#
#
# Convention : Reuss Voigt Hill
#
# Bulk Modulus (GPa) = 33.44020 66.60146 50.02083
# Shear Modulus (GPa) = 17.14759 22.86789 20.00774
#
# Velocity S-wave (km/s) = 3.17599 3.66767 3.43065
# Velocity P-wave (km/s) = 5.75500 7.55734 6.71690
#
# Compressibility (1/GPa) = 0.02990413
#
# Stress axis : x y z
#
# Youngs Moduli (GPa) = 47.57954 24.26462 58.57144
#
# Poissons Ratio (x) = 0.00701 0.67440
# Poissons Ratio (y) = 0.01374 0.75536
# Poissons Ratio (z) = 0.54784 0.31293
#
# Static dielectric constant tensor:
#      x y z
#    x 1.557680 0.000000 0.000000 
#    y 0.000000 1.577670 0.000000 
#    z 0.000000 0.000000 1.588650 
# 
# From -- ./inp_files/25231.got.cif
#   From: 2010.05.17/outbox.cif.g08.bks.cpg/sg53_13_cif.got.tgz:25231.got - 2010.06.03 12:45:16.
