data_PCOD9415963
_publ_section_title
;
Structure prediction by ZEFSAII (Michael W. Deem and Ramdas Pophale) SiO2 
 PCOD9415963
Probable space group: P M N A
;
_chemical_formula_sum "Si O2"
_cell_formula_units_Z 64
_cell_length_a 8.167742
_cell_length_b 12.952370
_cell_length_c 29.775330
_cell_angle_alpha 90.000000
_cell_angle_beta 90.000000
_cell_angle_gamma 90.000000
_cell_volume 3149.980291
_symmetry_space_group_name_H-M "P M N A"
_symmetry_group_IT_number 53
_symmetry_cell_setting 'orthorhombic'
loop_
_space_group_symop_operation_xyz
x,y,z
1/2-x,-y,1/2+z
x,-y,-z
1/2-x,y,1/2-z
-x,-y,-z
1/2+x,y,1/2-z
-x,y,z
1/2+x,-y,1/2+z
loop_
_atom_site_type_symbol
_atom_site_label
_atom_site_fract_x
_atom_site_fract_y
_atom_site_fract_z
Si Si1 0.198527 0.769760 0.302013
Si Si2 0.693219 0.034568 0.451882
Si Si3 0.313089 0.197921 0.177894
Si Si4 0.310216 0.255129 0.415887
Si Si5 0.197184 0.979229 0.351642
Si Si6 0.808108 0.580475 0.362471
Si Si7 0.801039 0.475290 0.449404
Si Si8 0.311082 0.587001 0.702163
O O1 0.250000 0.765799 0.250000
O O2 0.252522 0.874765 0.327267
O O3 0.260186 0.671773 0.331222
O O4 0.000000 0.768397 0.302322
O O5 0.500000 0.009362 0.451847
O O6 0.710182 0.158253 0.448673
O O7 0.763851 0.000000 0.500000
O O8 0.758660 0.989129 0.404512
O O9 0.500000 0.197645 0.194562
O O10 0.306304 0.232315 0.125928
O O11 0.215602 0.290057 0.201033
O O12 0.244069 0.081654 0.175359
O O13 0.500000 0.254284 0.399970
O O14 0.269046 0.364280 0.436617
O O15 0.000000 0.983140 0.349403
O O16 0.742677 0.558752 0.412399
O O17 0.787316 0.472580 0.336149
O O18 0.000000 0.603520 0.367467
O O19 0.753681 0.500000 0.500000
O O20 0.000000 0.470908 0.447035
O O21 0.250000 0.547370 0.750000
O O22 0.500000 0.563262 0.695523
#
# Coordination Sequence:
#
# PCOD9415963 Si02
#       8
#     8   8   8   8   8   8   8   8
#     4  10  22  40  60  84 115 155 199 246 298 352
#     4   9  19  35  55  82 117 155 196 241 294 349
#     4  10  19  35  57  81 112 147 182 229 288 345
#     4  10  19  33  54  79 109 148 189 237 290 343
#     4   9  20  37  58  85 116 150 193 242 291 348
#     4  10  21  39  60  82 116 154 192 241 292 348
#     4  10  21  36  56  83 114 153 195 238 295 355
#     4  12  24  37  57  85 114 146 188 234 284 343
#
# _framework density 20.317588000000001
#
# number of rings (size 3 to 8) (size 9 to 14) (size 15 to 20)
#    0.000    2.000    1.250    2.250    0.000    5.000 
#    0.000    2.500    0.000    0.000    0.000    0.000 
#    0.000    0.000    0.000    0.000    0.000    0.000 
#
# Total GULP energy -357034.696654 kJ/mol
# GULP energy per Si atom -5578.667135 kJ/mol
# Density = 2.027134 g / cm^3
# Si number density = 20.317588 Si / 1000 Ang^3
#
#
#
# Elastic Constant Matrix: (Units=GPa)
#
#
# Indices 1 2 3 4 5 6 
#
# 1 15.2107 9.8090 -1.9283 0.0000 0.0000 0.0000
# 2 9.8090 132.9057 66.4345 0.0000 0.0000 0.0000
# 3 -1.9283 66.4345 117.0702 0.0000 0.0000 0.0000
# 4 0.0000 0.0000 0.0000 27.2440 0.0000 0.0000
# 5 0.0000 0.0000 0.0000 0.0000 17.8479 0.0000
# 6 0.0000 0.0000 0.0000 0.0000 0.0000 18.0610
#
#
#
# Elastic Compliance Matrix: (Units=1/GPa)
#
#
# Indices 1 2 3 4 5 6 
#
# 1 0.071786 -0.008221 0.005848 0.000000 0.000000 0.000000
# 2 -0.008221 0.011445 -0.006630 0.000000 0.000000 0.000000
# 3 0.005848 -0.006630 0.012401 0.000000 0.000000 0.000000
# 4 0.000000 0.000000 0.000000 0.036705 0.000000 0.000000
# 5 0.000000 0.000000 0.000000 0.000000 0.056029 0.000000
# 6 0.000000 0.000000 0.000000 0.000000 0.000000 0.055368
#
#
# Mechanical properties :
#
#
# Convention : Reuss Voigt Hill
#
# Bulk Modulus (GPa) = 12.88254 45.97967 29.43111
# Shear Modulus (GPa) = 17.38426 25.35533 21.36980
#
# Velocity S-wave (km/s) = 2.92828 3.53647 3.24665
# Velocity P-wave (km/s) = 4.21752 6.27336 5.34521
#
# Compressibility (1/GPa) = 0.07762446
#
# Stress axis : x y z
#
# Youngs Moduli (GPa) = 13.93029 87.37382 80.64071
#
# Poissons Ratio (x) = 0.71831 -0.47156
# Poissons Ratio (y) = 0.11452 0.53467
# Poissons Ratio (z) = -0.08146 0.57931
#
# Static dielectric constant tensor:
#      x y z
#    x 1.718730 0.000000 0.000000 
#    y 0.000000 1.733010 0.000000 
#    z 0.000000 0.000000 1.727700 
# 
# From -- ./inp_files/38145.got.cif
#   From: 2010.05.17/outbox.cif.g08.bks.cpg/sg53_20_cif.got.tgz:38145.got - 2010.06.03 12:45:16.
