data_PCOD9415576
_publ_section_title
;
Structure prediction by ZEFSAII (Michael W. Deem and Ramdas Pophale) SiO2 
 PCOD9415576
Probable space group: P M N A
;
_chemical_formula_sum "Si O2"
_cell_formula_units_Z 56
_cell_length_a 7.259545
_cell_length_b 10.780946
_cell_length_c 30.461687
_cell_angle_alpha 90.000000
_cell_angle_beta 90.000000
_cell_angle_gamma 90.000000
_cell_volume 2384.076702
_symmetry_space_group_name_H-M "P M N A"
_symmetry_group_IT_number 53
_symmetry_cell_setting 'orthorhombic'
loop_
_space_group_symop_operation_xyz
x,y,z
1/2-x,-y,1/2+z
x,-y,-z
1/2-x,y,1/2-z
-x,-y,-z
1/2+x,y,1/2-z
-x,y,z
1/2+x,-y,1/2+z
loop_
_atom_site_type_symbol
_atom_site_label
_atom_site_fract_x
_atom_site_fract_y
_atom_site_fract_z
Si Si1 0.774350 0.002607 0.643219
Si Si2 0.723507 0.681671 0.983409
Si Si3 0.723193 0.565816 0.068543
Si Si4 0.780810 0.239681 0.302091
Si Si5 0.718132 0.770060 0.201099
Si Si6 0.224884 0.487793 0.667443
Si Si7 0.724162 0.055984 0.046333
O O1 0.714939 0.878715 0.669660
O O2 0.716709 0.999781 0.592493
O O3 0.000000 0.002147 0.643981
O O4 0.711825 0.127953 0.667089
O O5 0.500000 0.682820 0.984297
O O6 0.775396 0.559397 0.956983
O O7 0.780848 0.801229 0.956943
O O8 0.781854 0.672984 0.034445
O O9 0.500000 0.572581 0.070493
O O10 0.783046 0.552066 0.118360
O O11 0.750000 0.223791 0.250000
O O12 0.711972 0.375531 0.317765
O O13 0.000000 0.242311 0.308976
O O14 0.750000 0.817157 0.250000
O O15 0.500000 0.762446 0.193403
O O16 0.786463 0.628900 0.196704
O O17 0.000000 0.493524 0.668102
O O18 0.500000 0.048991 0.046436
O O19 0.784325 0.000000 0.000000
#
# Coordination Sequence:
#
# PCOD9415576 Si02
#       7
#     8   8   8   8   8   8   8
#     4   9  18  30  44  63  90 124 155 183 226 277
#     4   8  13  20  31  50  78 112 147 176 206 256
#     4   8  13  21  34  52  77 113 148 174 209 264
#     4  10  19  32  49  68  91 121 155 192 230 269
#     4  10  20  33  48  67  92 122 154 190 229 271
#     4   9  17  27  43  63  88 120 152 185 226 270
#     4   9  16  23  35  56  85 118 147 175 213 266
#
# _framework density 23.489177999999999
#
# number of rings (size 3 to 8) (size 9 to 14) (size 15 to 20)
#    0.000    3.000    0.000    2.571    2.000    3.429 
#    0.000    0.000    0.000    0.000    0.000    0.000 
#    0.000    2.286    0.000    7.571    0.000    7.714 
#
# Total GULP energy -312644.337253 kJ/mol
# GULP energy per Si atom -5582.934594 kJ/mol
# Density = 2.343572 g / cm^3
# Si number density = 23.489178 Si / 1000 Ang^3
#
#
#
# Elastic Constant Matrix: (Units=GPa)
#
#
# Indices 1 2 3 4 5 6 
#
# 1 104.8166 5.2564 -6.7657 0.0000 0.0000 0.0000
# 2 5.2564 97.3215 40.6587 0.0000 0.0000 0.0000
# 3 -6.7657 40.6587 155.5212 0.0000 0.0000 0.0000
# 4 0.0000 0.0000 0.0000 57.3802 0.0000 0.0000
# 5 0.0000 0.0000 0.0000 0.0000 -3.6270 0.0000
# 6 0.0000 0.0000 0.0000 0.0000 0.0000 -22.0253
#
#
#
# Elastic Compliance Matrix: (Units=1/GPa)
#
#
# Indices 1 2 3 4 5 6 
#
# 1 0.009620 -0.000780 0.000622 0.000000 0.000000 0.000000
# 2 -0.000780 0.011598 -0.003066 0.000000 0.000000 0.000000
# 3 0.000622 -0.003066 0.007259 0.000000 0.000000 0.000000
# 4 0.000000 0.000000 0.000000 0.017428 0.000000 0.000000
# 5 0.000000 0.000000 0.000000 0.000000 -0.275706 0.000000
# 6 0.000000 0.000000 0.000000 0.000000 0.000000 -0.045402
#
#
# Mechanical properties :
#
#
# Convention : Reuss Voigt Hill
#
# Bulk Modulus (GPa) = 45.39278 48.43978 46.91628
# Shear Modulus (GPa) = -19.12673 27.57955 4.22641
#
# Velocity S-wave (km/s) = -2.85665 3.43029 1.34284
# Velocity P-wave (km/s) = 2.91313 6.02960 4.73510
#
# Compressibility (1/GPa) = 0.02202994
#
# Stress axis : x y z
#
# Youngs Moduli (GPa) = 103.95294 86.21967 137.76659
#
# Poissons Ratio (x) = 0.06721 -0.08573
# Poissons Ratio (y) = 0.08104 0.42241
# Poissons Ratio (z) = -0.06469 0.26436
#
# Static dielectric constant tensor:
#      x y z
#    x 2.006080 0.000000 0.000000 
#    y 0.000000 1.876100 0.000000 
#    z 0.000000 0.000000 1.854240 
# 
# From -- ./inp_files/36824.got.cif
#   From: 2010.05.17/outbox.cif.g08.bks.cpg/sg53_19_cif.got.tgz:36824.got - 2010.06.03 12:45:16.
