data_PCOD9415347
_publ_section_title
;
Structure prediction by ZEFSAII (Michael W. Deem and Ramdas Pophale) SiO2 
 PCOD9415347
Probable space group: P M N A
;
_chemical_formula_sum "Si O2"
_cell_formula_units_Z 40
_cell_length_a 25.715902
_cell_length_b 7.460059
_cell_length_c 9.977379
_cell_angle_alpha 90.000000
_cell_angle_beta 90.000000
_cell_angle_gamma 90.000000
_cell_volume 1914.081800
_symmetry_space_group_name_H-M "P M N A"
_symmetry_group_IT_number 53
_symmetry_cell_setting 'orthorhombic'
loop_
_space_group_symop_operation_xyz
x,y,z
1/2-x,-y,1/2+z
x,-y,-z
1/2-x,y,1/2-z
-x,-y,-z
1/2+x,y,1/2-z
-x,y,z
1/2+x,-y,1/2+z
loop_
_atom_site_type_symbol
_atom_site_label
_atom_site_fract_x
_atom_site_fract_y
_atom_site_fract_z
Si Si1 0.729280 0.301489 0.026123
Si Si2 0.635865 0.244300 0.217268
Si Si3 0.558920 0.218016 0.988417
Si Si4 0.650481 0.811838 0.203669
Si Si5 0.659397 0.799703 0.505524
O O1 0.697685 0.229220 0.897541
O O2 0.780424 0.187014 0.052588
O O3 0.749714 0.500000 0.000000
O O4 0.687458 0.316776 0.144768
O O5 0.586827 0.286003 0.123524
O O6 0.631627 0.299347 0.371789
O O7 0.644344 0.027677 0.211754
O O8 0.500000 0.279335 0.970928
O O9 0.598424 0.260273 0.867763
O O10 0.557927 0.000000 0.000000
O O11 0.658524 0.736052 0.352402
O O12 0.636525 0.000000 0.500000
#
# Coordination Sequence:
#
# PCOD9415347 Si02
#       5
#     8   8   8   8   8
#     4  11  21  31  46  69  96 127 160 192 228 271
#     4   9  18  32  49  69  94 125 158 190 228 276
#     4   8  14  28  50  71  91 118 153 192 231 272
#     4   9  18  32  49  69  94 125 158 190 228 276
#     4  10  19  31  47  68  96 128 158 188 227 276
#
# _framework density 20.897749000000001
#
# number of rings (size 3 to 8) (size 9 to 14) (size 15 to 20)
#    0.000    2.600    0.000    4.200    0.000    6.400 
#    0.000    1.000    0.000   15.600    0.000    0.000 
#    0.000   14.400    0.000    0.000    0.000    0.000 
#
# Total GULP energy -223229.333902 kJ/mol
# GULP energy per Si atom -5580.733348 kJ/mol
# Density = 2.085018 g / cm^3
# Si number density = 20.897749 Si / 1000 Ang^3
#
#
#
# Elastic Constant Matrix: (Units=GPa)
#
#
# Indices 1 2 3 4 5 6 
#
# 1 93.4153 -25.3320 24.4765 0.0000 0.0000 0.0000
# 2 -25.3320 43.0072 -31.7358 0.0000 0.0000 0.0000
# 3 24.4765 -31.7358 129.3524 0.0000 0.0000 0.0000
# 4 0.0000 0.0000 0.0000 1.6525 0.0000 0.0000
# 5 0.0000 0.0000 0.0000 0.0000 7.1774 0.0000
# 6 0.0000 0.0000 0.0000 0.0000 0.0000 -5.9143
#
#
#
# Elastic Compliance Matrix: (Units=1/GPa)
#
#
# Indices 1 2 3 4 5 6 
#
# 1 0.012791 0.007019 -0.000698 0.000000 0.000000 0.000000
# 2 0.007019 0.032244 0.006583 0.000000 0.000000 0.000000
# 3 -0.000698 0.006583 0.009478 0.000000 0.000000 0.000000
# 4 0.000000 0.000000 0.000000 0.605126 0.000000 0.000000
# 5 0.000000 0.000000 0.000000 0.000000 0.139326 0.000000
# 6 0.000000 0.000000 0.000000 0.000000 0.000000 -0.169081
#
#
# Mechanical properties :
#
#
# Convention : Reuss Voigt Hill
#
# Bulk Modulus (GPa) = 12.45034 22.28806 17.36920
# Shear Modulus (GPa) = 7.92581 20.47421 14.20001
#
# Velocity S-wave (km/s) = 1.94959 3.13346 2.60955
# Velocity P-wave (km/s) = 3.32243 4.87646 4.17244
#
# Compressibility (1/GPa) = 0.08031911
#
# Stress axis : x y z
#
# Youngs Moduli (GPa) = 78.17859 31.01392 105.50791
#
# Poissons Ratio (x) = -0.21768 0.07368
# Poissons Ratio (y) = -0.54873 -0.69452
# Poissons Ratio (z) = 0.05460 -0.20415
#
# Static dielectric constant tensor:
#      x y z
#    x 1.689290 0.000000 0.000000 
#    y 0.000000 1.802530 0.000000 
#    z 0.000000 0.000000 1.790570 
# 
# From -- ./inp_files/12236.got.cif
#   From: 2010.05.17/outbox.cif.g08.bks.cpg/sg53_7_cif.got.tgz:12236.got - 2010.06.03 12:45:16.
