data_PCOD9415378
_publ_section_title
;
Structure prediction by ZEFSAII (Michael W. Deem and Ramdas Pophale) SiO2 
 PCOD9415378
Probable space group: P M N A
;
_chemical_formula_sum "Si O2"
_cell_formula_units_Z 48
_cell_length_a 14.115872
_cell_length_b 27.264239
_cell_length_c 5.095679
_cell_angle_alpha 90.000000
_cell_angle_beta 90.000000
_cell_angle_gamma 90.000000
_cell_volume 1961.115417
_symmetry_space_group_name_H-M "P M N A"
_symmetry_group_IT_number 53
_symmetry_cell_setting 'orthorhombic'
loop_
_space_group_symop_operation_xyz
x,y,z
1/2-x,-y,1/2+z
x,-y,-z
1/2-x,y,1/2-z
-x,-y,-z
1/2+x,y,1/2-z
-x,y,z
1/2+x,-y,1/2+z
loop_
_atom_site_type_symbol
_atom_site_label
_atom_site_fract_x
_atom_site_fract_y
_atom_site_fract_z
Si Si1 0.108734 0.138121 0.639737
Si Si2 0.610862 0.201803 0.341488
Si Si3 0.609408 0.532326 0.740268
Si Si4 0.858682 0.974621 0.255001
Si Si5 0.110395 0.701638 0.120999
Si Si6 0.109661 0.637640 0.602967
O O1 0.151684 0.174645 0.417705
O O2 0.143090 0.083307 0.692282
O O3 0.000000 0.132240 0.552410
O O4 0.110900 0.163511 0.921628
O O5 0.500000 0.215262 0.274906
O O6 0.653625 0.250231 0.480614
O O7 0.651616 0.500000 0.500000
O O8 0.500000 0.543753 0.654138
O O9 0.650956 0.583962 0.841319
O O10 0.605953 0.500000 0.000000
O O11 0.750000 0.990863 0.250000
O O12 0.904309 0.000000 0.500000
O O13 0.900365 0.000000 0.000000
O O14 0.150009 0.674828 0.381983
O O15 0.000000 0.715356 0.189149
O O16 0.109538 0.663111 0.884928
O O17 0.000000 0.629751 0.515203
#
# Coordination Sequence:
#
# PCOD9415378 Si02
#       6
#     8   8   8   8   8   8
#     4  10  19  31  48  69  91 115 144 177 217 262
#     4   9  17  28  42  62  86 109 134 171 218 263
#     4   9  15  21  27  36  53  78 113 160 208 249
#     4  10  21  36  52  70  93 120 148 178 213 254
#     4   9  15  23  34  48  68  92 120 156 202 257
#     4   9  15  21  30  43  59  86 122 158 204 259
#
# _framework density 24.475867999999998
#
# number of rings (size 3 to 8) (size 9 to 14) (size 15 to 20)
#    0.000    2.667    0.000    3.000    0.000    8.667 
#    0.000    0.000    0.000    0.000    0.000    0.000 
#    0.000    0.000    0.000    0.000    0.000    0.000 
#
# Total GULP energy -267679.938594 kJ/mol
# GULP energy per Si atom -5576.665387 kJ/mol
# Density = 2.442016 g / cm^3
# Si number density = 24.475868 Si / 1000 Ang^3
#
#
#
# Elastic Constant Matrix: (Units=GPa)
#
#
# Indices 1 2 3 4 5 6 
#
# 1 69.4119 -6.2256 14.6571 0.0000 0.0000 0.0000
# 2 -6.2256 120.2343 66.4435 0.0000 0.0000 0.0000
# 3 14.6571 66.4435 156.1485 0.0000 0.0000 0.0000
# 4 0.0000 0.0000 0.0000 49.6955 0.0000 0.0000
# 5 0.0000 0.0000 0.0000 0.0000 20.5067 0.0000
# 6 0.0000 0.0000 0.0000 0.0000 0.0000 -8.8131
#
#
#
# Elastic Compliance Matrix: (Units=1/GPa)
#
#
# Indices 1 2 3 4 5 6 
#
# 1 0.015072 0.002043 -0.002284 0.000000 0.000000 0.000000
# 2 0.002043 0.011151 -0.004937 0.000000 0.000000 0.000000
# 3 -0.002284 -0.004937 0.008719 0.000000 0.000000 0.000000
# 4 0.000000 0.000000 0.000000 0.020123 0.000000 0.000000
# 5 0.000000 0.000000 0.000000 0.000000 0.048764 0.000000
# 6 0.000000 0.000000 0.000000 0.000000 0.000000 -0.113467
#
#
# Mechanical properties :
#
#
# Convention : Reuss Voigt Hill
#
# Bulk Modulus (GPa) = 40.67296 55.06051 47.86674
# Shear Modulus (GPa) = 560.96288 30.33913 295.65101
#
# Velocity S-wave (km/s) = 15.15545 3.52455 11.00250
# Velocity P-wave (km/s) = 17.96953 6.25363 13.45384
#
# Compressibility (1/GPa) = 0.02458636
#
# Stress axis : x y z
#
# Youngs Moduli (GPa) = 66.34716 89.67878 114.69013
#
# Poissons Ratio (x) = -0.18317 0.26194
# Poissons Ratio (y) = -0.13552 0.56618
# Poissons Ratio (z) = 0.15153 0.44271
#
# Static dielectric constant tensor:
#      x y z
#    x 2.013050 0.000000 0.000000 
#    y 0.000000 1.935310 0.000000 
#    z 0.000000 0.000000 1.840340 
# 
# From -- ./inp_files/2959.got.cif
#   From: 2010.05.17/outbox.cif.g08.bks.cpg/sg53_2_cif.got.tgz:2959.got - 2010.06.03 12:45:16.
