data_PCOD9415218
_publ_section_title
;
Structure prediction by ZEFSAII (Michael W. Deem and Ramdas Pophale) SiO2 
 PCOD9415218
Probable space group: P M N A
;
_chemical_formula_sum "Si O2"
_cell_formula_units_Z 64
_cell_length_a 7.899801
_cell_length_b 18.163530
_cell_length_c 20.737105
_cell_angle_alpha 90.000000
_cell_angle_beta 90.000000
_cell_angle_gamma 90.000000
_cell_volume 2975.531372
_symmetry_space_group_name_H-M "P M N A"
_symmetry_group_IT_number 53
_symmetry_cell_setting 'orthorhombic'
loop_
_space_group_symop_operation_xyz
x,y,z
1/2-x,-y,1/2+z
x,-y,-z
1/2-x,y,1/2-z
-x,-y,-z
1/2+x,y,1/2-z
-x,y,z
1/2+x,-y,1/2+z
loop_
_atom_site_type_symbol
_atom_site_label
_atom_site_fract_x
_atom_site_fract_y
_atom_site_fract_z
Si Si1 0.702111 0.712265 0.175536
Si Si2 0.792454 0.070903 0.540543
Si Si3 0.694037 0.751898 0.819951
Si Si4 0.796443 0.876933 0.324735
Si Si5 0.298904 0.625074 0.504912
Si Si6 0.301536 0.558137 0.379918
Si Si7 0.797520 0.213852 0.462005
Si Si8 0.199256 0.590721 0.845495
O O1 0.750000 0.710688 0.250000
O O2 0.500000 0.706602 0.165732
O O3 0.758715 0.793978 0.155279
O O4 0.785950 0.640093 0.146821
O O5 0.739100 0.072130 0.615814
O O6 0.735019 0.144466 0.502834
O O7 0.000000 0.071372 0.540945
O O8 0.738409 0.000000 0.500000
O O9 0.750000 0.779993 0.750000
O O10 0.500000 0.771955 0.824884
O O11 0.773693 0.778035 0.888430
O O12 0.710985 0.662962 0.818908
O O13 0.750000 0.892570 0.250000
O O14 0.000000 0.876150 0.324898
O O15 0.500000 0.629370 0.493774
O O16 0.227021 0.570164 0.451284
O O17 0.231885 0.708288 0.502647
O O18 0.277502 0.597420 0.577329
O O19 0.500000 0.538093 0.386099
O O20 0.233838 0.492292 0.334610
O O21 0.000000 0.205303 0.457378
O O22 0.000000 0.598837 0.828432
#
# Coordination Sequence:
#
# PCOD9415218 Si02
#       8
#     8   8   8   8   8   8   8   8
#     4  10  20  33  48  67  93 125 163 204 244 289
#     4   9  17  32  56  83 109 137 169 204 246 298
#     4  10  20  34  52  72  96 129 171 218 264 310
#     4   9  18  33  54  78 104 137 173 207 244 292
#     4   9  17  30  49  71  95 126 162 200 248 304
#     4  10  19  30  46  69  96 126 161 204 254 305
#     4   9  18  33  53  77 101 128 169 216 254 296
#     4   9  18  32  48  67  94 127 164 207 254 304
#
# _framework density 21.508763999999999
#
# number of rings (size 3 to 8) (size 9 to 14) (size 15 to 20)
#    0.000    2.625    0.000    1.875    0.000    5.000 
#    0.000    1.250    0.000    5.250    0.000    0.000 
#    0.000    0.000    0.000    0.000    0.000    0.000 
#
# Total GULP energy -356631.609518 kJ/mol
# GULP energy per Si atom -5572.368899 kJ/mol
# Density = 2.145981 g / cm^3
# Si number density = 21.508764 Si / 1000 Ang^3
#
#
#
# Elastic Constant Matrix: (Units=GPa)
#
#
# Indices 1 2 3 4 5 6 
#
# 1 10.1986 0.2089 -2.1436 0.0000 0.0000 0.0000
# 2 0.2089 92.0110 52.8974 0.0000 0.0000 0.0000
# 3 -2.1436 52.8974 102.0256 0.0000 0.0000 0.0000
# 4 0.0000 0.0000 0.0000 14.7472 0.0000 0.0000
# 5 0.0000 0.0000 0.0000 0.0000 19.0771 0.0000
# 6 0.0000 0.0000 0.0000 0.0000 0.0000 18.8155
#
#
#
# Elastic Compliance Matrix: (Units=1/GPa)
#
#
# Indices 1 2 3 4 5 6 
#
# 1 0.098750 -0.002019 0.003121 0.000000 0.000000 0.000000
# 2 -0.002019 0.015525 -0.008092 0.000000 0.000000 0.000000
# 3 0.003121 -0.008092 0.014062 0.000000 0.000000 0.000000
# 4 0.000000 0.000000 0.000000 0.067809 0.000000 0.000000
# 5 0.000000 0.000000 0.000000 0.000000 0.052419 0.000000
# 6 0.000000 0.000000 0.000000 0.000000 0.000000 0.053148
#
#
# Mechanical properties :
#
#
# Convention : Reuss Voigt Hill
#
# Bulk Modulus (GPa) = 8.74439 34.01784 21.38111
# Shear Modulus (GPa) = 14.13188 20.74612 17.43900
#
# Velocity S-wave (km/s) = 2.56604 3.10908 2.85052
# Velocity P-wave (km/s) = 3.58521 5.36084 4.56028
#
# Compressibility (1/GPa) = 0.11435908
#
# Stress axis : x y z
#
# Youngs Moduli (GPa) = 10.12662 64.41348 71.11221
#
# Poissons Ratio (x) = 0.13003 -0.22197
# Poissons Ratio (y) = 0.02044 0.57541
# Poissons Ratio (z) = -0.03161 0.52120
#
# Static dielectric constant tensor:
#      x y z
#    x 1.794950 0.000000 0.000000 
#    y 0.000000 1.820310 0.000000 
#    z 0.000000 0.000000 1.860570 
# 
# From -- ./inp_files/31232.got.cif
#   From: 2010.05.17/outbox.cif.g08.bks.cpg/sg53_16_cif.got.tgz:31232.got - 2010.06.03 12:45:16.
