data_PCOD9415459
_publ_section_title
;
Structure prediction by ZEFSAII (Michael W. Deem and Ramdas Pophale) SiO2 
 PCOD9415459
Probable space group: P M N A
;
_chemical_formula_sum "Si O2"
_cell_formula_units_Z 56
_cell_length_a 15.507239
_cell_length_b 31.782589
_cell_length_c 5.110585
_cell_angle_alpha 90.000000
_cell_angle_beta 90.000000
_cell_angle_gamma 90.000000
_cell_volume 2518.803964
_symmetry_space_group_name_H-M "P M N A"
_symmetry_group_IT_number 53
_symmetry_cell_setting 'orthorhombic'
loop_
_space_group_symop_operation_xyz
x,y,z
1/2-x,-y,1/2+z
x,-y,-z
1/2-x,y,1/2-z
-x,-y,-z
1/2+x,y,1/2-z
-x,y,z
1/2+x,-y,1/2+z
loop_
_atom_site_type_symbol
_atom_site_label
_atom_site_fract_x
_atom_site_fract_y
_atom_site_fract_z
Si Si1 0.846029 0.679664 0.867887
Si Si2 0.104195 0.904094 0.570969
Si Si3 0.354224 0.774547 0.706992
Si Si4 0.352049 0.816885 0.205266
Si Si5 0.596399 0.367954 0.871562
Si Si6 0.105451 0.953211 0.071034
Si Si7 0.188194 0.453923 0.501335
O O1 0.750000 0.678915 0.750000
O O2 0.871373 0.728305 0.903696
O O3 0.900495 0.659508 0.634287
O O4 0.850606 0.653666 0.136280
O O5 0.135031 0.860938 0.440565
O O6 0.134678 0.918609 0.857148
O O7 0.000000 0.901771 0.579680
O O8 0.129547 0.939883 0.362311
O O9 0.250000 0.778012 0.750000
O O10 0.387126 0.808712 0.496333
O O11 0.388040 0.783120 0.997701
O O12 0.250000 0.811034 0.250000
O O13 0.500000 0.370834 0.767649
O O14 0.628896 0.413766 0.957242
O O15 0.000000 0.953377 0.061403
O O16 0.134375 0.000000 0.000000
O O17 0.144069 0.500000 0.500000
O O18 0.250000 0.448549 0.250000
O O19 0.250000 0.455279 0.750000
#
# Coordination Sequence:
#
# PCOD9415459 Si02
#       7
#     8   8   8   8   8   8   8
#     4  11  22  40  64  85 111 155 206 245 280 339
#     4  10  19  31  49  75 102 130 169 212 259 314
#     4   9  19  35  56  78 101 137 187 231 265 318
#     4  10  19  34  54  77 104 136 175 221 274 325
#     4  12  24  38  58  90 127 155 187 240 306 357
#     4   9  17  30  49  72  99 131 169 212 253 302
#     4  10  21  39  63  88 115 155 206 247 282 339
#
# _framework density 22.232776000000001
#
# number of rings (size 3 to 8) (size 9 to 14) (size 15 to 20)
#    0.000    1.857    0.000    5.143    0.000    4.286 
#    0.000    4.286    0.000    6.000    0.000    0.000 
#    0.000    0.000    0.000    0.000    0.000    0.000 
#
# Total GULP energy -312787.653256 kJ/mol
# GULP energy per Si atom -5585.493808 kJ/mol
# Density = 2.218217 g / cm^3
# Si number density = 22.232776 Si / 1000 Ang^3
#
#
#
# Elastic Constant Matrix: (Units=GPa)
#
#
# Indices 1 2 3 4 5 6 
#
# 1 27.5190 4.4255 5.4501 0.0000 0.0000 0.0000
# 2 4.4255 94.2191 18.6991 0.0000 0.0000 0.0000
# 3 5.4501 18.6991 122.6972 0.0000 0.0000 0.0000
# 4 0.0000 0.0000 0.0000 51.8012 0.0000 0.0000
# 5 0.0000 0.0000 0.0000 0.0000 16.9675 0.0000
# 6 0.0000 0.0000 0.0000 0.0000 0.0000 11.1917
#
#
#
# Elastic Compliance Matrix: (Units=1/GPa)
#
#
# Indices 1 2 3 4 5 6 
#
# 1 0.036852 -0.001450 -0.001416 0.000000 0.000000 0.000000
# 2 -0.001450 0.011002 -0.001612 0.000000 0.000000 0.000000
# 3 -0.001416 -0.001612 0.008459 0.000000 0.000000 0.000000
# 4 0.000000 0.000000 0.000000 0.019305 0.000000 0.000000
# 5 0.000000 0.000000 0.000000 0.000000 0.058936 0.000000
# 6 0.000000 0.000000 0.000000 0.000000 0.000000 0.089352
#
#
# Mechanical properties :
#
#
# Convention : Reuss Voigt Hill
#
# Bulk Modulus (GPa) = 21.11655 33.50940 27.31298
# Shear Modulus (GPa) = 20.10885 30.38280 25.24582
#
# Velocity S-wave (km/s) = 3.01070 3.70073 3.37341
# Velocity P-wave (km/s) = 4.64804 5.77628 5.24260
#
# Compressibility (1/GPa) = 0.04735621
#
# Stress axis : x y z
#
# Youngs Moduli (GPa) = 27.13548 90.89561 118.22079
#
# Poissons Ratio (x) = 0.13179 0.16740
# Poissons Ratio (y) = 0.03934 0.19060
# Poissons Ratio (z) = 0.03842 0.14655
#
# Static dielectric constant tensor:
#      x y z
#    x 1.842130 0.000000 0.000000 
#    y 0.000000 1.847940 0.000000 
#    z 0.000000 0.000000 1.799130 
# 
# From -- ./inp_files/1478.got.cif
#   From: 2010.05.17/outbox.cif.g08.bks.cpg/sg53_1_cif.got.tgz:1478.got - 2010.06.03 12:45:16.
