data_PCOD9415190
_publ_section_title
;
Structure prediction by ZEFSAII (Michael W. Deem and Ramdas Pophale) SiO2 
 PCOD9415190
Probable space group: P M N A
;
_chemical_formula_sum "Si O2"
_cell_formula_units_Z 64
_cell_length_a 8.778364
_cell_length_b 17.316382
_cell_length_c 24.459650
_cell_angle_alpha 90.000000
_cell_angle_beta 90.000000
_cell_angle_gamma 90.000000
_cell_volume 3718.099273
_symmetry_space_group_name_H-M "P M N A"
_symmetry_group_IT_number 53
_symmetry_cell_setting 'orthorhombic'
loop_
_space_group_symop_operation_xyz
x,y,z
1/2-x,-y,1/2+z
x,-y,-z
1/2-x,y,1/2-z
-x,-y,-z
1/2+x,y,1/2-z
-x,y,z
1/2+x,-y,1/2+z
loop_
_atom_site_type_symbol
_atom_site_label
_atom_site_fract_x
_atom_site_fract_y
_atom_site_fract_z
Si Si1 0.183553 0.357154 0.087758
Si Si2 0.681849 0.679320 0.023176
Si Si3 0.821123 0.627590 0.193125
Si Si4 0.316213 0.230074 0.870311
Si Si5 0.682878 0.905199 0.811271
Si Si6 0.316286 0.075925 0.811222
Si Si7 0.317177 0.254485 0.310985
Si Si8 0.680669 0.465842 0.583569
O O1 0.227612 0.320482 0.145866
O O2 0.233573 0.446086 0.080987
O O3 0.000000 0.356777 0.085579
O O4 0.247330 0.310121 0.036369
O O5 0.500000 0.681685 0.019816
O O6 0.733126 0.740676 0.069599
O O7 0.734271 0.595437 0.045501
O O8 0.750000 0.602266 0.250000
O O9 0.743027 0.706025 0.172143
O O10 0.800676 0.565241 0.145224
O O11 0.000000 0.641668 0.199916
O O12 0.500000 0.231465 0.869921
O O13 0.265919 0.145882 0.850067
O O14 0.750000 0.907887 0.750000
O O15 0.500000 0.896889 0.809976
O O16 0.756607 0.827465 0.834367
O O17 0.721452 0.990276 0.833846
O O18 0.250000 0.084911 0.750000
O O19 0.500000 0.079011 0.806393
O O20 0.250000 0.265697 0.250000
O O21 0.500000 0.251603 0.306596
O O22 0.500000 0.462764 0.569974
#
# Coordination Sequence:
#
# PCOD9415190 Si02
#       8
#     8   8   8   8   8   8   8   8
#     4  10  21  36  53  71  93 124 159 194 235 285
#     4  10  20  33  51  74  97 122 157 201 241 275
#     4  10  19  30  45  66  94 128 161 192 233 282
#     4   9  18  32  47  67  97 128 159 196 234 274
#     4   9  16  28  47  70  96 125 155 188 230 277
#     4   9  17  28  45  70  98 127 158 191 228 275
#     4  10  20  34  52  74  99 125 154 191 237 285
#     4   9  19  35  51  67  92 127 162 196 237 283
#
# _framework density 17.213094999999999
#
# number of rings (size 3 to 8) (size 9 to 14) (size 15 to 20)
#    0.000    2.500    0.000    3.000    0.000    6.500 
#    0.000    0.000    0.000    0.750    0.000    5.250 
#    0.000    0.000    0.000    0.000    0.000    0.000 
#
# Total GULP energy -356737.230602 kJ/mol
# GULP energy per Si atom -5574.019228 kJ/mol
# Density = 1.717392 g / cm^3
# Si number density = 17.213095 Si / 1000 Ang^3
#
#
#
# Elastic Constant Matrix: (Units=GPa)
#
#
# Indices 1 2 3 4 5 6 
#
# 1 21.0979 16.1945 23.3855 0.0000 0.0000 0.0000
# 2 16.1945 71.9904 33.5433 0.0000 0.0000 0.0000
# 3 23.3855 33.5433 89.6188 0.0000 0.0000 0.0000
# 4 0.0000 0.0000 0.0000 14.4697 0.0000 0.0000
# 5 0.0000 0.0000 0.0000 0.0000 25.7307 0.0000
# 6 0.0000 0.0000 0.0000 0.0000 0.0000 4.8215
#
#
#
# Elastic Compliance Matrix: (Units=1/GPa)
#
#
# Indices 1 2 3 4 5 6 
#
# 1 0.071104 -0.008903 -0.015222 0.000000 0.000000 0.000000
# 2 -0.008903 0.017940 -0.004392 0.000000 0.000000 0.000000
# 3 -0.015222 -0.004392 0.016774 0.000000 0.000000 0.000000
# 4 0.000000 0.000000 0.000000 0.069110 0.000000 0.000000
# 5 0.000000 0.000000 0.000000 0.000000 0.038864 0.000000
# 6 0.000000 0.000000 0.000000 0.000000 0.000000 0.207403
#
#
# Mechanical properties :
#
#
# Convention : Reuss Voigt Hill
#
# Bulk Modulus (GPa) = 20.49784 36.55042 28.52413
# Shear Modulus (GPa) = 10.11144 16.30997 13.21071
#
# Velocity S-wave (km/s) = 2.42632 3.08154 2.77335
# Velocity P-wave (km/s) = 4.44787 5.82592 5.18290
#
# Compressibility (1/GPa) = 0.04878562
#
# Stress axis : x y z
#
# Youngs Moduli (GPa) = 14.06389 55.74262 59.61543
#
# Poissons Ratio (x) = 0.49625 0.90747
# Poissons Ratio (y) = 0.12520 0.26180
# Poissons Ratio (z) = 0.21408 0.24480
#
# Static dielectric constant tensor:
#      x y z
#    x 1.580360 0.000000 0.000000 
#    y 0.000000 1.610900 0.000000 
#    z 0.000000 0.000000 1.592600 
# 
# From -- ./inp_files/34444.got.cif
#   From: 2010.05.17/outbox.cif.g08.bks.cpg/sg53_18_cif.got.tgz:34444.got - 2010.06.03 12:45:16.
