data_PCOD9415972
_publ_section_title
;
Structure prediction by ZEFSAII (Michael W. Deem and Ramdas Pophale) SiO2 
 PCOD9415972
Probable space group: P M N A
;
_chemical_formula_sum "Si O2"
_cell_formula_units_Z 64
_cell_length_a 8.489868
_cell_length_b 24.377135
_cell_length_c 13.820461
_cell_angle_alpha 90.000000
_cell_angle_beta 90.000000
_cell_angle_gamma 90.000000
_cell_volume 2860.264067
_symmetry_space_group_name_H-M "P M N A"
_symmetry_group_IT_number 53
_symmetry_cell_setting 'orthorhombic'
loop_
_space_group_symop_operation_xyz
x,y,z
1/2-x,-y,1/2+z
x,-y,-z
1/2-x,y,1/2-z
-x,-y,-z
1/2+x,y,1/2-z
-x,y,z
1/2+x,-y,1/2+z
loop_
_atom_site_type_symbol
_atom_site_label
_atom_site_fract_x
_atom_site_fract_y
_atom_site_fract_z
Si Si1 0.318459 0.602125 0.349730
Si Si2 0.188960 0.212634 0.641229
Si Si3 0.188708 0.852311 0.640535
Si Si4 0.822379 0.510882 0.615384
Si Si5 0.687453 0.741978 0.545482
Si Si6 0.691169 0.028644 0.138327
Si Si7 0.190628 0.909822 0.360958
Si Si8 0.690978 0.623538 0.568075
O O1 0.250000 0.625226 0.250000
O O2 0.500000 0.616334 0.351051
O O3 0.292440 0.536302 0.347182
O O4 0.254335 0.618484 0.455333
O O5 0.250000 0.219889 0.750000
O O6 0.257758 0.255634 0.565844
O O7 0.238906 0.151001 0.605642
O O8 0.000000 0.214939 0.640492
O O9 0.250000 0.851895 0.750000
O O10 0.247100 0.796830 0.592800
O O11 0.240059 0.911781 0.597572
O O12 0.000000 0.851814 0.637925
O O13 0.826639 0.500000 0.500000
O O14 0.763842 0.573015 0.626390
O O15 0.000000 0.503303 0.652617
O O16 0.500000 0.743473 0.547812
O O17 0.736851 0.685242 0.596483
O O18 0.750000 0.028937 0.250000
O O19 0.500000 0.028353 0.136663
O O20 0.741953 0.969147 0.097442
O O21 0.250000 0.910794 0.250000
O O22 0.000000 0.909722 0.364239
O O23 0.500000 0.617942 0.570165
#
# Coordination Sequence:
#
# PCOD9415972 Si02
#       8
#     8   8   8   8   8   8   8   8
#     4  10  19  33  54  81 112 141 172 212 258 308
#     4  10  20  35  55  79 109 146 187 230 279 333
#     4  10  20  36  58  82 107 138 178 228 286 342
#     4   9  17  31  53  79 104 131 163 200 246 299
#     4  11  23  39  57  79 110 149 193 235 276 325
#     4   8  14  26  47  74 101 130 168 216 274 337
#     4   8  14  26  46  72 101 134 172 217 271 332
#     4   9  20  37  55  75 103 142 182 221 264 309
#
# _framework density 22.375554999999999
#
# number of rings (size 3 to 8) (size 9 to 14) (size 15 to 20)
#    0.000    2.625    0.000    1.875    0.000    4.500 
#    0.000    2.500    0.000    6.750    0.000    0.000 
#    0.000    0.000    0.000    0.000    0.000    0.000 
#
# Total GULP energy -357030.507155 kJ/mol
# GULP energy per Si atom -5578.601674 kJ/mol
# Density = 2.232463 g / cm^3
# Si number density = 22.375555 Si / 1000 Ang^3
#
#
#
# Elastic Constant Matrix: (Units=GPa)
#
#
# Indices 1 2 3 4 5 6 
#
# 1 20.9825 8.3397 -3.3798 0.0000 0.0000 0.0000
# 2 8.3397 135.0584 4.5817 0.0000 0.0000 0.0000
# 3 -3.3798 4.5817 38.7607 0.0000 0.0000 0.0000
# 4 0.0000 0.0000 0.0000 11.3985 0.0000 0.0000
# 5 0.0000 0.0000 0.0000 0.0000 21.8091 0.0000
# 6 0.0000 0.0000 0.0000 0.0000 0.0000 23.4472
#
#
#
# Elastic Compliance Matrix: (Units=1/GPa)
#
#
# Indices 1 2 3 4 5 6 
#
# 1 0.049702 -0.003229 0.004715 0.000000 0.000000 0.000000
# 2 -0.003229 0.007644 -0.001185 0.000000 0.000000 0.000000
# 3 0.004715 -0.001185 0.026351 0.000000 0.000000 0.000000
# 4 0.000000 0.000000 0.000000 0.087731 0.000000 0.000000
# 5 0.000000 0.000000 0.000000 0.000000 0.045853 0.000000
# 6 0.000000 0.000000 0.000000 0.000000 0.000000 0.042649
#
#
# Mechanical properties :
#
#
# Convention : Reuss Voigt Hill
#
# Bulk Modulus (GPa) = 11.86256 23.76498 17.81377
# Shear Modulus (GPa) = 17.39584 23.68162 20.53873
#
# Velocity S-wave (km/s) = 2.79130 3.25679 3.03299
# Velocity P-wave (km/s) = 3.96252 4.97858 4.49932
#
# Compressibility (1/GPa) = 0.08429884
#
# Stress axis : x y z
#
# Youngs Moduli (GPa) = 20.12004 130.82508 37.94987
#
# Poissons Ratio (x) = 0.42243 -0.17895
# Poissons Ratio (y) = 0.06497 0.04497
# Poissons Ratio (z) = -0.09488 0.15504
#
# Static dielectric constant tensor:
#      x y z
#    x 1.775760 0.000000 0.000000 
#    y 0.000000 1.875190 0.000000 
#    z 0.000000 0.000000 1.963670 
# 
# From -- ./inp_files/20854.got.cif
#   From: 2010.05.17/outbox.cif.g08.bks.cpg/sg53_11_cif.got.tgz:20854.got - 2010.06.03 12:45:16.
