data_PCOD9415224
_publ_section_title
;
Structure prediction by ZEFSAII (Michael W. Deem and Ramdas Pophale) SiO2 
 PCOD9415224
Probable space group: P M N A
;
_chemical_formula_sum "Si O2"
_cell_formula_units_Z 56
_cell_length_a 9.025984
_cell_length_b 21.392932
_cell_length_c 14.929991
_cell_angle_alpha 90.000000
_cell_angle_beta 90.000000
_cell_angle_gamma 90.000000
_cell_volume 2882.865733
_symmetry_space_group_name_H-M "P M N A"
_symmetry_group_IT_number 53
_symmetry_cell_setting 'orthorhombic'
loop_
_space_group_symop_operation_xyz
x,y,z
1/2-x,-y,1/2+z
x,-y,-z
1/2-x,y,1/2-z
-x,-y,-z
1/2+x,y,1/2-z
-x,y,z
1/2+x,-y,1/2+z
loop_
_atom_site_type_symbol
_atom_site_label
_atom_site_fract_x
_atom_site_fract_y
_atom_site_fract_z
Si Si1 0.167233 0.909080 0.594817
Si Si2 0.822755 0.264553 0.964065
Si Si3 0.833277 0.145921 0.604841
Si Si4 0.679705 0.405835 0.526319
Si Si5 0.824704 0.022794 0.840787
Si Si6 0.675358 0.211717 0.337386
Si Si7 0.820438 0.521814 0.848598
O O1 0.156308 0.879284 0.496672
O O2 0.254198 0.856881 0.650520
O O3 0.000000 0.919656 0.628443
O O4 0.256225 0.973360 0.590473
O O5 0.738469 0.214142 0.903138
O O6 0.000000 0.259335 0.948764
O O7 0.772872 0.335748 0.951058
O O8 0.797744 0.247251 0.068889
O O9 0.729874 0.093689 0.648434
O O10 0.000000 0.146446 0.643163
O O11 0.500000 0.406048 0.524498
O O12 0.723662 0.427808 0.425825
O O13 0.721742 0.456437 0.601932
O O14 0.750000 0.999066 0.750000
O O15 0.000000 0.019827 0.840225
O O16 0.750000 0.241625 0.250000
O O17 0.500000 0.207124 0.324311
O O18 0.750000 0.528976 0.750000
O O19 0.000000 0.523657 0.839865
#
# Coordination Sequence:
#
# PCOD9415224 Si02
#       7
#     8   8   8   8   8   8   8
#     4  10  20  35  54  74  99 130 165 209 260 312
#     4   9  18  34  54  73  97 137 181 213 249 306
#     4  10  21  37  55  76 102 131 166 209 257 307
#     4   8  16  33  55  77 107 147 183 214 258 317
#     4  12  24  37  54  75 100 129 166 212 260 309
#     4  10  19  30  46  70 100 132 170 214 261 315
#     4   9  17  32  55  82 111 143 179 219 262 310
#
# _framework density 19.425115999999999
#
# number of rings (size 3 to 8) (size 9 to 14) (size 15 to 20)
#    0.000    2.286    0.000    4.286    0.000    4.571 
#    0.000    3.571    0.000    1.714    0.000    0.000 
#    0.000    0.000    0.000    0.000    0.000    0.000 
#
# Total GULP energy -312308.569888 kJ/mol
# GULP energy per Si atom -5576.938748 kJ/mol
# Density = 1.938090 g / cm^3
# Si number density = 19.425116 Si / 1000 Ang^3
#
#
#
# Elastic Constant Matrix: (Units=GPa)
#
#
# Indices 1 2 3 4 5 6 
#
# 1 77.1836 23.5725 -2.9439 0.0000 0.0000 0.0000
# 2 23.5725 115.4679 -7.9399 0.0000 0.0000 0.0000
# 3 -2.9439 -7.9399 29.2272 0.0000 0.0000 0.0000
# 4 0.0000 0.0000 0.0000 12.2152 0.0000 0.0000
# 5 0.0000 0.0000 0.0000 0.0000 25.9327 0.0000
# 6 0.0000 0.0000 0.0000 0.0000 0.0000 17.9377
#
#
#
# Elastic Compliance Matrix: (Units=1/GPa)
#
#
# Indices 1 2 3 4 5 6 
#
# 1 0.013829 -0.002779 0.000638 0.000000 0.000000 0.000000
# 2 -0.002779 0.009384 0.002269 0.000000 0.000000 0.000000
# 3 0.000638 0.002269 0.034895 0.000000 0.000000 0.000000
# 4 0.000000 0.000000 0.000000 0.081865 0.000000 0.000000
# 5 0.000000 0.000000 0.000000 0.000000 0.038561 0.000000
# 6 0.000000 0.000000 0.000000 0.000000 0.000000 0.055749
#
#
# Mechanical properties :
#
#
# Convention : Reuss Voigt Hill
#
# Bulk Modulus (GPa) = 17.13377 27.47288 22.30332
# Shear Modulus (GPa) = 19.72522 25.16312 22.44417
#
# Velocity S-wave (km/s) = 3.19007 3.60306 3.40283
# Velocity P-wave (km/s) = 4.73374 5.61098 5.19092
#
# Compressibility (1/GPa) = 0.05836429
#
# Stress axis : x y z
#
# Youngs Moduli (GPa) = 72.31025 106.56592 28.65705
#
# Poissons Ratio (x) = 0.29618 -0.01828
# Poissons Ratio (y) = 0.20098 -0.06503
# Poissons Ratio (z) = -0.04613 -0.24183
#
# Static dielectric constant tensor:
#      x y z
#    x 1.622680 0.000000 0.000000 
#    y 0.000000 1.687310 0.000000 
#    z 0.000000 0.000000 1.711720 
# 
# From -- ./inp_files/20462.got.cif
#   From: 2010.05.17/outbox.cif.g08.bks.cpg/sg53_11_cif.got.tgz:20462.got - 2010.06.03 12:45:16.
