data_PCOD9415415
_publ_section_title
;
Structure prediction by ZEFSAII (Michael W. Deem and Ramdas Pophale) SiO2 
 PCOD9415415
Probable space group: P M N A
;
_chemical_formula_sum "Si O2"
_cell_formula_units_Z 64
_cell_length_a 7.701174
_cell_length_b 11.606773
_cell_length_c 35.244047
_cell_angle_alpha 90.000000
_cell_angle_beta 90.000000
_cell_angle_gamma 90.000000
_cell_volume 3150.316577
_symmetry_space_group_name_H-M "P M N A"
_symmetry_group_IT_number 53
_symmetry_cell_setting 'orthorhombic'
loop_
_space_group_symop_operation_xyz
x,y,z
1/2-x,-y,1/2+z
x,-y,-z
1/2-x,y,1/2-z
-x,-y,-z
1/2+x,y,1/2-z
-x,y,z
1/2+x,-y,1/2+z
loop_
_atom_site_type_symbol
_atom_site_label
_atom_site_fract_x
_atom_site_fract_y
_atom_site_fract_z
Si Si1 0.707939 0.145854 0.629057
Si Si2 0.786933 0.099678 0.098970
Si Si3 0.711320 0.216214 0.477300
Si Si4 0.788347 0.456741 0.060537
Si Si5 0.705799 0.735996 0.207122
Si Si6 0.794121 0.664071 0.865041
Si Si7 0.212766 0.284222 0.943297
Si Si8 0.294344 0.523951 0.792610
O O1 0.500000 0.142808 0.625444
O O2 0.743331 0.184200 0.671966
O O3 0.771202 0.236556 0.597325
O O4 0.773433 0.020153 0.616590
O O5 0.500000 0.097053 0.401130
O O6 0.732833 0.128090 0.055602
O O7 0.728738 0.209061 0.124189
O O8 0.500000 0.212495 0.476953
O O9 0.762566 0.345270 0.463839
O O10 0.766018 0.205490 0.520950
O O11 0.731348 0.426324 0.103301
O O12 0.729617 0.584234 0.050080
O O13 0.000000 0.459791 0.058533
O O14 0.750000 0.774635 0.250000
O O15 0.500000 0.727216 0.205933
O O16 0.779619 0.605805 0.201702
O O17 0.764196 0.614628 0.823742
O O18 0.000000 0.670812 0.870884
O O19 0.000000 0.285332 0.943006
O O20 0.250000 0.559596 0.750000
O O21 0.500000 0.516023 0.795964
#
# Coordination Sequence:
#
# PCOD9415415 Si02
#       8
#     8   8   8   8   8   8   8   8
#     4  10  19  31  48  72 101 131 168 208 242 280
#     4   8  16  29  44  65  96 134 170 205 241 276
#     4   8  13  22  36  59  95 132 163 200 246 286
#     4   8  13  21  36  60  90 124 161 201 245 289
#     4  10  21  37  56  77 100 125 153 190 240 293
#     4   9  16  29  48  67  93 129 163 195 238 288
#     4   9  15  21  36  65  97 128 162 202 244 285
#     4  10  20  33  51  76 101 121 146 186 237 294
#
# _framework density 20.315418999999999
#
# number of rings (size 3 to 8) (size 9 to 14) (size 15 to 20)
#    0.000    3.000    0.000    3.375    0.000    4.500 
#    0.000    3.750    0.000    0.000    0.000    5.250 
#    0.000   13.000    0.000    0.000    0.000    0.000 
#
# Total GULP energy -356793.404600 kJ/mol
# GULP energy per Si atom -5574.896947 kJ/mol
# Density = 2.026918 g / cm^3
# Si number density = 20.315419 Si / 1000 Ang^3
#
#
#
# Elastic Constant Matrix: (Units=GPa)
#
#
# Indices 1 2 3 4 5 6 
#
# 1 27.8843 3.7882 -5.4232 0.0000 0.0000 0.0000
# 2 3.7882 32.5584 31.8529 0.0000 0.0000 0.0000
# 3 -5.4232 31.8529 124.4500 0.0000 0.0000 0.0000
# 4 0.0000 0.0000 0.0000 19.5788 0.0000 0.0000
# 5 0.0000 0.0000 0.0000 0.0000 7.1018 0.0000
# 6 0.0000 0.0000 0.0000 0.0000 0.0000 2.8798
#
#
#
# Elastic Compliance Matrix: (Units=1/GPa)
#
#
# Indices 1 2 3 4 5 6 
#
# 1 0.037665 -0.007988 0.003686 0.000000 0.000000 0.000000
# 2 -0.007988 0.042668 -0.011269 0.000000 0.000000 0.000000
# 3 0.003686 -0.011269 0.011080 0.000000 0.000000 0.000000
# 4 0.000000 0.000000 0.000000 0.051076 0.000000 0.000000
# 5 0.000000 0.000000 0.000000 0.000000 0.140810 0.000000
# 6 0.000000 0.000000 0.000000 0.000000 0.000000 0.347243
#
#
# Mechanical properties :
#
#
# Convention : Reuss Voigt Hill
#
# Bulk Modulus (GPa) = 16.59191 27.25872 21.92532
# Shear Modulus (GPa) = 7.33379 16.22372 11.77876
#
# Velocity S-wave (km/s) = 1.90205 2.82900 2.41050
# Velocity P-wave (km/s) = 3.60675 4.91100 4.30851
#
# Compressibility (1/GPa) = 0.06027034
#
# Stress axis : x y z
#
# Youngs Moduli (GPa) = 26.55012 23.43650 90.25024
#
# Poissons Ratio (x) = 0.18722 -0.33266
# Poissons Ratio (y) = 0.21209 1.01704
# Poissons Ratio (z) = -0.09786 0.26411
#
# Static dielectric constant tensor:
#      x y z
#    x 1.775990 0.000000 0.000000 
#    y 0.000000 1.728100 0.000000 
#    z 0.000000 0.000000 1.748250 
# 
# From -- ./inp_files/38171.got.cif
#   From: 2010.05.17/outbox.cif.g08.bks.cpg/sg53_20_cif.got.tgz:38171.got - 2010.06.03 12:45:16.
