data_PCOD9415354
_publ_section_title
;
Structure prediction by ZEFSAII (Michael W. Deem and Ramdas Pophale) SiO2 
 PCOD9415354
Probable space group: P M N A
;
_chemical_formula_sum "Si O2"
_cell_formula_units_Z 64
_cell_length_a 8.976217
_cell_length_b 23.712532
_cell_length_c 16.407513
_cell_angle_alpha 90.000000
_cell_angle_beta 90.000000
_cell_angle_gamma 90.000000
_cell_volume 3492.319992
_symmetry_space_group_name_H-M "P M N A"
_symmetry_group_IT_number 53
_symmetry_cell_setting 'orthorhombic'
loop_
_space_group_symop_operation_xyz
x,y,z
1/2-x,-y,1/2+z
x,-y,-z
1/2-x,y,1/2-z
-x,-y,-z
1/2+x,y,1/2-z
-x,y,z
1/2+x,-y,1/2+z
loop_
_atom_site_type_symbol
_atom_site_label
_atom_site_fract_x
_atom_site_fract_y
_atom_site_fract_z
Si Si1 0.322557 0.076734 0.163940
Si Si2 0.327642 0.427242 0.094535
Si Si3 0.823532 0.531289 0.164357
Si Si4 0.171223 0.368078 0.582266
Si Si5 0.680049 0.133603 0.495068
Si Si6 0.322513 0.263536 0.505553
Si Si7 0.170547 0.027817 0.909618
Si Si8 0.822866 0.319565 0.168345
O O1 0.250000 0.093636 0.250000
O O2 0.500000 0.081500 0.167082
O O3 0.257350 0.112784 0.088220
O O4 0.273010 0.012186 0.144485
O O5 0.500000 0.435579 0.117868
O O6 0.241248 0.485716 0.101251
O O7 0.249572 0.380536 0.151076
O O8 0.324254 0.400835 0.004439
O O9 0.750000 0.515449 0.250000
O O10 0.769885 0.593778 0.141166
O O11 0.000000 0.528019 0.167705
O O12 0.235416 0.306367 0.563780
O O13 0.000000 0.366270 0.609799
O O14 0.500000 0.128904 0.483806
O O15 0.716587 0.198124 0.514190
O O16 0.719350 0.091263 0.569143
O O17 0.500000 0.270443 0.518743
O O18 0.292724 0.282508 0.412108
O O19 0.000000 0.026861 0.878543
O O20 0.167841 0.000000 0.000000
O O21 0.750000 0.295503 0.250000
O O22 0.000000 0.324898 0.177910
#
# Coordination Sequence:
#
# PCOD9415354 Si02
#       8
#     8   8   8   8   8   8   8   8
#     4  11  21  32  49  75 108 140 171 208 253 302
#     4  10  20  35  54  76 103 133 167 207 254 309
#     4  12  24  37  55  78 104 132 166 210 262 315
#     4  10  21  37  56  78 105 136 171 212 256 304
#     4   9  18  34  54  76 103 135 172 212 253 299
#     4   9  19  35  54  75 100 135 175 211 250 299
#     4   8  15  30  51  73 100 133 166 202 246 293
#     4  10  19  31  47  69 100 135 171 208 249 299
#
# _framework density 18.325925999999999
#
# number of rings (size 3 to 8) (size 9 to 14) (size 15 to 20)
#    0.000    2.125    0.000    4.875    0.000    6.750 
#    0.000    1.250    0.000    0.750    0.000    3.500 
#    0.000    0.000    0.000    0.000    0.000    0.000 
#
# Total GULP energy -357239.562907 kJ/mol
# GULP energy per Si atom -5581.868170 kJ/mol
# Density = 1.828422 g / cm^3
# Si number density = 18.325926 Si / 1000 Ang^3
#
#
#
# Elastic Constant Matrix: (Units=GPa)
#
#
# Indices 1 2 3 4 5 6 
#
# 1 90.6533 39.6065 9.6437 0.0000 0.0000 0.0000
# 2 39.6065 122.1518 2.9808 0.0000 0.0000 0.0000
# 3 9.6437 2.9808 11.1738 0.0000 0.0000 0.0000
# 4 0.0000 0.0000 0.0000 11.3199 0.0000 0.0000
# 5 0.0000 0.0000 0.0000 0.0000 22.0119 0.0000
# 6 0.0000 0.0000 0.0000 0.0000 0.0000 22.6744
#
#
#
# Elastic Compliance Matrix: (Units=1/GPa)
#
#
# Indices 1 2 3 4 5 6 
#
# 1 0.014079 -0.004296 -0.011005 0.000000 0.000000 0.000000
# 2 -0.004296 0.009551 0.001160 0.000000 0.000000 0.000000
# 3 -0.011005 0.001160 0.098683 0.000000 0.000000 0.000000
# 4 0.000000 0.000000 0.000000 0.088340 0.000000 0.000000
# 5 0.000000 0.000000 0.000000 0.000000 0.045430 0.000000
# 6 0.000000 0.000000 0.000000 0.000000 0.000000 0.044103
#
#
# Mechanical properties :
#
#
# Convention : Reuss Voigt Hill
#
# Bulk Modulus (GPa) = 10.63479 36.49344 23.56411
# Shear Modulus (GPa) = 13.89617 22.65112 18.27364
#
# Velocity S-wave (km/s) = 2.75667 3.51951 3.16119
# Velocity P-wave (km/s) = 3.99350 6.03927 5.11961
#
# Compressibility (1/GPa) = 0.09403104
#
# Stress axis : x y z
#
# Youngs Moduli (GPa) = 71.02880 104.69804 10.13346
#
# Poissons Ratio (x) = 0.44982 0.11152
# Poissons Ratio (y) = 0.30517 -0.01176
# Poissons Ratio (z) = 0.78165 -0.12145
#
# Static dielectric constant tensor:
#      x y z
#    x 1.611950 0.000000 0.000000 
#    y 0.000000 1.649280 0.000000 
#    z 0.000000 0.000000 1.619350 
# 
# From -- ./inp_files/20821.got.cif
#   From: 2010.05.17/outbox.cif.g08.bks.cpg/sg53_11_cif.got.tgz:20821.got - 2010.06.03 12:45:16.
