data_PCOD9415763
_publ_section_title
;
Structure prediction by ZEFSAII (Michael W. Deem and Ramdas Pophale) SiO2 
 PCOD9415763
Probable space group: P M N A
;
_chemical_formula_sum "Si O2"
_cell_formula_units_Z 64
_cell_length_a 8.840577
_cell_length_b 23.656820
_cell_length_c 15.403464
_cell_angle_alpha 90.000000
_cell_angle_beta 90.000000
_cell_angle_gamma 90.000000
_cell_volume 3221.479518
_symmetry_space_group_name_H-M "P M N A"
_symmetry_group_IT_number 53
_symmetry_cell_setting 'orthorhombic'
loop_
_space_group_symop_operation_xyz
x,y,z
1/2-x,-y,1/2+z
x,-y,-z
1/2-x,y,1/2-z
-x,-y,-z
1/2+x,y,1/2-z
-x,y,z
1/2+x,-y,1/2+z
loop_
_atom_site_type_symbol
_atom_site_label
_atom_site_fract_x
_atom_site_fract_y
_atom_site_fract_z
Si Si1 0.329696 0.889658 0.394750
Si Si2 0.827468 0.003116 0.393465
Si Si3 0.182873 0.643870 0.153490
Si Si4 0.815733 0.564708 0.997445
Si Si5 0.682613 0.651600 0.652917
Si Si6 0.668597 0.116535 0.399102
Si Si7 0.319712 0.231063 0.153891
Si Si8 0.182763 0.767330 0.154505
O O1 0.500000 0.891919 0.357905
O O2 0.342527 0.894383 0.498273
O O3 0.262214 0.827368 0.380809
O O4 0.237423 0.943327 0.362285
O O5 0.735376 0.058068 0.363397
O O6 0.000000 0.010030 0.367338
O O7 0.823847 0.000000 0.500000
O O8 0.250000 0.636810 0.250000
O O9 0.232759 0.597314 0.084476
O O10 0.223902 0.706238 0.116012
O O11 0.000000 0.641985 0.160902
O O12 0.000000 0.564214 0.997871
O O13 0.763525 0.500000 0.000000
O O14 0.773553 0.601068 0.912404
O O15 0.750000 0.643809 0.750000
O O16 0.500000 0.654681 0.658295
O O17 0.745204 0.711567 0.616946
O O18 0.500000 0.128028 0.364338
O O19 0.770244 0.171928 0.387951
O O20 0.250000 0.227993 0.250000
O O21 0.500000 0.236679 0.155599
O O22 0.250000 0.764250 0.250000
O O23 0.000000 0.769716 0.153385
#
# Coordination Sequence:
#
# PCOD9415763 Si02
#       8
#     8   8   8   8   8   8   8   8
#     4   9  18  31  50  73  99 133 177 220 269 328
#     4   9  17  30  47  70 103 136 173 220 273 323
#     4   9  18  34  56  80 112 148 187 231 279 331
#     4   9  19  35  58  87 116 151 194 232 272 333
#     4  10  20  36  59  83 115 153 191 235 284 335
#     4  10  19  32  53  77 102 135 177 221 271 325
#     4  11  22  37  55  78 108 139 177 222 274 330
#     4   9  18  32  50  73 101 134 172 218 266 320
#
# _framework density 19.866648000000001
#
# number of rings (size 3 to 8) (size 9 to 14) (size 15 to 20)
#    0.000    2.500    0.000    3.000    1.750    3.000 
#    0.000    1.875    0.000    4.125    0.000    0.000 
#    0.000    0.000    0.000    0.000    0.000    0.000 
#
# Total GULP energy -356761.237606 kJ/mol
# GULP energy per Si atom -5574.394338 kJ/mol
# Density = 1.982143 g / cm^3
# Si number density = 19.866648 Si / 1000 Ang^3
#
#
#
# Elastic Constant Matrix: (Units=GPa)
#
#
# Indices 1 2 3 4 5 6 
#
# 1 71.6427 51.0755 18.1168 0.0000 0.0000 0.0000
# 2 51.0755 204.7492 53.9395 0.0000 0.0000 0.0000
# 3 18.1168 53.9395 54.1664 0.0000 0.0000 0.0000
# 4 0.0000 0.0000 0.0000 69.8319 0.0000 0.0000
# 5 0.0000 0.0000 0.0000 0.0000 16.0937 0.0000
# 6 0.0000 0.0000 0.0000 0.0000 0.0000 -7.5175
#
#
#
# Elastic Compliance Matrix: (Units=1/GPa)
#
#
# Indices 1 2 3 4 5 6 
#
# 1 0.017136 -0.003748 -0.001999 0.000000 0.000000 0.000000
# 2 -0.003748 0.007441 -0.006156 0.000000 0.000000 0.000000
# 3 -0.001999 -0.006156 0.025260 0.000000 0.000000 0.000000
# 4 0.000000 0.000000 0.000000 0.014320 0.000000 0.000000
# 5 0.000000 0.000000 0.000000 0.000000 0.062136 0.000000
# 6 0.000000 0.000000 0.000000 0.000000 0.000000 -0.133023
#
#
# Mechanical properties :
#
#
# Convention : Reuss Voigt Hill
#
# Bulk Modulus (GPa) = 38.41594 64.09132 51.25363
# Shear Modulus (GPa) = 194.15204 29.51006 111.83105
#
# Velocity S-wave (km/s) = 9.89645 3.85828 7.51086
# Velocity P-wave (km/s) = 12.24603 7.22352 10.05347
#
# Compressibility (1/GPa) = 0.02603086
#
# Stress axis : x y z
#
# Youngs Moduli (GPa) = 58.35790 134.39597 39.58756
#
# Poissons Ratio (x) = 0.50370 0.07914
# Poissons Ratio (y) = 0.21872 0.24370
# Poissons Ratio (z) = 0.11666 0.82734
#
# Static dielectric constant tensor:
#      x y z
#    x 1.689030 0.000000 0.000000 
#    y 0.000000 1.736460 0.000000 
#    z 0.000000 0.000000 1.714610 
# 
# From -- ./inp_files/26947.got.cif
#   From: 2010.05.17/outbox.cif.g08.bks.cpg/sg53_14_cif.got.tgz:26947.got - 2010.06.03 12:45:16.
