data_PCOD9415257
_publ_section_title
;
Structure prediction by ZEFSAII (Michael W. Deem and Ramdas Pophale) SiO2 
 PCOD9415257
Probable space group: P M N A
;
_chemical_formula_sum "Si O2"
_cell_formula_units_Z 64
_cell_length_a 14.381426
_cell_length_b 10.876389
_cell_length_c 20.702253
_cell_angle_alpha 90.000000
_cell_angle_beta 90.000000
_cell_angle_gamma 90.000000
_cell_volume 3238.204669
_symmetry_space_group_name_H-M "P M N A"
_symmetry_group_IT_number 53
_symmetry_cell_setting 'orthorhombic'
loop_
_space_group_symop_operation_xyz
x,y,z
1/2-x,-y,1/2+z
x,-y,-z
1/2-x,y,1/2-z
-x,-y,-z
1/2+x,y,1/2-z
-x,y,z
1/2+x,-y,1/2+z
loop_
_atom_site_type_symbol
_atom_site_label
_atom_site_fract_x
_atom_site_fract_y
_atom_site_fract_z
Si Si1 0.611689 0.867183 0.858030
Si Si2 0.107320 0.350734 0.127042
Si Si3 0.886342 0.640210 0.727386
Si Si4 0.392680 0.350734 0.627043
Si Si5 0.107128 0.777356 0.500000
Si Si6 0.113658 0.640207 0.272615
Si Si7 0.611689 0.867180 0.141970
Si Si8 0.210892 0.355407 1.000000
O O1 0.500000 0.869268 0.847051
O O2 0.645193 0.744447 0.822221
O O3 0.623802 0.852596 0.934701
O O4 0.649272 0.000001 0.836367
O O5 0.139610 0.321781 0.199634
O O6 0.107450 0.500000 0.125784
O O7 0.000000 0.311294 0.119620
O O8 0.166078 0.304872 0.066117
O O9 0.854513 0.500002 0.713143
O O10 0.000000 0.635321 0.726396
O O11 0.500000 0.311295 0.619621
O O12 0.360390 0.321783 0.699635
O O13 0.333922 0.304873 0.566118
O O14 0.123800 0.852595 0.434701
O O15 0.179953 0.667504 0.500000
O O16 0.000000 0.736189 0.500001
O O17 0.145194 0.744443 0.322222
O O18 0.000000 0.635318 0.273604
O O19 0.500000 0.869265 0.152950
O O20 0.191185 0.500000 0.000000
#
# Coordination Sequence:
#
# PCOD9415257 Si02
#       8
#     8   8   8   8   8   8   8   8
#     4   9  17  31  52  73  93 127 174 213 247 294
#     4   8  14  27  49  76 104 131 159 197 247 301
#     4   8  14  26  47  76 105 127 150 192 253 308
#     4   8  14  27  49  76 104 131 159 197 247 301
#     4  10  21  34  47  65  93 130 172 216 253 284
#     4   8  14  26  47  76 105 127 150 192 253 308
#     4   9  17  31  52  73  93 127 174 213 247 294
#     4  10  19  30  47  73 102 133 170 206 244 296
#
# _framework density 19.764039
#
# number of rings (size 3 to 8) (size 9 to 14) (size 15 to 20)
#    0.000    3.250    0.000    2.250    0.000    4.250 
#    0.000    3.750    0.000    9.000    0.000    0.000 
#    0.000   10.000    0.000    0.000    0.000    0.000 
#
# Total GULP energy -356652.059972 kJ/mol
# GULP energy per Si atom -5572.688437 kJ/mol
# Density = 1.971906 g / cm^3
# Si number density = 19.764039 Si / 1000 Ang^3
#
#
#
# Elastic Constant Matrix: (Units=GPa)
#
#
# Indices 1 2 3 4 5 6 
#
# 1 51.7196 21.4934 31.7960 0.0000 0.0000 0.0000
# 2 21.4934 87.5998 85.4266 0.0000 0.0000 0.0000
# 3 31.7960 85.4266 138.6759 0.0000 0.0000 0.0000
# 4 0.0000 0.0000 0.0000 7.9595 0.0000 0.0000
# 5 0.0000 0.0000 0.0000 0.0000 -7.9482 0.0000
# 6 0.0000 0.0000 0.0000 0.0000 0.0000 6.1711
#
#
#
# Elastic Compliance Matrix: (Units=1/GPa)
#
#
# Indices 1 2 3 4 5 6 
#
# 1 0.022560 -0.001230 -0.004415 0.000000 0.000000 0.000000
# 2 -0.001230 0.028658 -0.017372 0.000000 0.000000 0.000000
# 3 -0.004415 -0.017372 0.018925 0.000000 0.000000 0.000000
# 4 0.000000 0.000000 0.000000 0.125636 0.000000 0.000000
# 5 0.000000 0.000000 0.000000 0.000000 -0.125815 0.000000
# 6 0.000000 0.000000 0.000000 0.000000 0.000000 0.162046
#
#
# Mechanical properties :
#
#
# Convention : Reuss Voigt Hill
#
# Bulk Modulus (GPa) = 41.47714 61.71416 51.59565
# Shear Modulus (GPa) = 17.47758 10.52177 13.99968
#
# Velocity S-wave (km/s) = 2.97697 2.30982 2.66435
# Velocity P-wave (km/s) = 5.73133 6.19733 5.96888
#
# Compressibility (1/GPa) = 0.02410967
#
# Stress axis : x y z
#
# Youngs Moduli (GPa) = 44.32540 34.89377 52.84050
#
# Poissons Ratio (x) = 0.04291 0.23330
# Poissons Ratio (y) = 0.05451 0.91795
# Poissons Ratio (z) = 0.19570 0.60618
#
# Static dielectric constant tensor:
#      x y z
#    x 1.706440 0.000000 0.000000 
#    y 0.000000 1.679790 0.000000 
#    z 0.000000 0.000000 1.718510 
# 
# From -- ./inp_files/28535.got.cif
#   From: 2010.05.17/outbox.cif.g08.bks.cpg/sg53_15_cif.got.tgz:28535.got - 2010.06.03 12:45:16.
