data_PCOD9415591
_publ_section_title
;
Structure prediction by ZEFSAII (Michael W. Deem and Ramdas Pophale) SiO2 
 PCOD9415591
Probable space group: P M N A
;
_chemical_formula_sum "Si O2"
_cell_formula_units_Z 64
_cell_length_a 8.719537
_cell_length_b 18.712682
_cell_length_c 23.645562
_cell_angle_alpha 90.000000
_cell_angle_beta 90.000000
_cell_angle_gamma 90.000000
_cell_volume 3858.149950
_symmetry_space_group_name_H-M "P M N A"
_symmetry_group_IT_number 53
_symmetry_cell_setting 'orthorhombic'
loop_
_space_group_symop_operation_xyz
x,y,z
1/2-x,-y,1/2+z
x,-y,-z
1/2-x,y,1/2-z
-x,-y,-z
1/2+x,y,1/2-z
-x,y,z
1/2+x,-y,1/2+z
loop_
_atom_site_type_symbol
_atom_site_label
_atom_site_fract_x
_atom_site_fract_y
_atom_site_fract_z
Si Si1 0.815450 0.575312 0.685985
Si Si2 0.182773 0.860086 0.626142
Si Si3 0.815607 0.420827 0.686586
Si Si4 0.315375 0.083300 0.490759
Si Si5 0.315620 0.736796 0.186195
Si Si6 0.316729 0.006657 0.811943
Si Si7 0.316486 0.133872 0.613948
Si Si8 0.817500 0.723063 0.813574
O O1 0.750000 0.573478 0.750000
O O2 0.771980 0.497694 0.660121
O O3 0.745740 0.648030 0.661766
O O4 0.000000 0.581163 0.687479
O O5 0.236278 0.883609 0.563985
O O6 0.220063 0.926840 0.667099
O O7 0.264741 0.789481 0.648846
O O8 0.000000 0.849318 0.627171
O O9 0.750000 0.421207 0.750000
O O10 0.771159 0.342761 0.663801
O O11 0.000000 0.421331 0.689757
O O12 0.500000 0.084965 0.482903
O O13 0.276605 0.126094 0.547896
O O14 0.272146 0.000000 0.500000
O O15 0.250000 0.745273 0.250000
O O16 0.500000 0.741209 0.189447
O O17 0.253118 0.797999 0.145532
O O18 0.250000 0.019281 0.750000
O O19 0.500000 0.015144 0.811393
O O20 0.244814 0.063432 0.854722
O O21 0.500000 0.135838 0.618663
O O22 0.750000 0.731716 0.750000
O O23 0.000000 0.719748 0.809336
#
# Coordination Sequence:
#
# PCOD9415591 Si02
#       8
#     8   8   8   8   8   8   8   8
#     4   9  15  26  44  68  99 133 170 204 243 293
#     4  11  23  37  55  77 100 130 169 212 256 301
#     4   8  15  26  43  67  97 134 168 203 243 292
#     4  10  21  39  59  76  96 128 167 213 260 303
#     4  10  19  32  49  73 106 138 171 208 252 299
#     4  11  23  36  52  74 100 131 165 202 247 299
#     4  11  22  36  54  74  99 131 168 207 254 301
#     4  11  21  33  50  74 107 140 171 207 252 302
#
# _framework density 16.588262
#
# number of rings (size 3 to 8) (size 9 to 14) (size 15 to 20)
#    0.000    1.875    1.250    4.500    0.000    4.750 
#    0.000    0.000    0.000    0.000    0.000    0.875 
#    0.000    7.000    0.000    0.000    0.000    0.000 
#
# Total GULP energy -356946.874950 kJ/mol
# GULP energy per Si atom -5577.294921 kJ/mol
# Density = 1.655051 g / cm^3
# Si number density = 16.588262 Si / 1000 Ang^3
#
#
#
# Elastic Constant Matrix: (Units=GPa)
#
#
# Indices 1 2 3 4 5 6 
#
# 1 52.7762 37.1848 13.9650 0.0000 0.0000 0.0000
# 2 37.1848 120.9193 9.5708 0.0000 0.0000 0.0000
# 3 13.9650 9.5708 39.3075 0.0000 0.0000 0.0000
# 4 0.0000 0.0000 0.0000 1.1124 0.0000 0.0000
# 5 0.0000 0.0000 0.0000 0.0000 20.8717 0.0000
# 6 0.0000 0.0000 0.0000 0.0000 0.0000 15.2523
#
#
#
# Elastic Compliance Matrix: (Units=1/GPa)
#
#
# Indices 1 2 3 4 5 6 
#
# 1 0.026185 -0.007460 -0.007486 0.000000 0.000000 0.000000
# 2 -0.007460 0.010558 0.000080 0.000000 0.000000 0.000000
# 3 -0.007486 0.000080 0.028081 0.000000 0.000000 0.000000
# 4 0.000000 0.000000 0.000000 0.898962 0.000000 0.000000
# 5 0.000000 0.000000 0.000000 0.000000 0.047912 0.000000
# 6 0.000000 0.000000 0.000000 0.000000 0.000000 0.065564
#
#
# Mechanical properties :
#
#
# Convention : Reuss Voigt Hill
#
# Bulk Modulus (GPa) = 28.49807 37.16049 32.82928
# Shear Modulus (GPa) = 4.46951 17.59944 11.03448
#
# Velocity S-wave (km/s) = 1.64324 3.26077 2.58194
# Velocity P-wave (km/s) = 4.56259 6.05203 5.35931
#
# Compressibility (1/GPa) = 0.03509009
#
# Stress axis : x y z
#
# Youngs Moduli (GPa) = 38.19003 94.71779 35.61154
#
# Poissons Ratio (x) = 0.70657 0.26661
# Poissons Ratio (y) = 0.28489 -0.00284
# Poissons Ratio (z) = 0.28591 -0.00754
#
# Static dielectric constant tensor:
#      x y z
#    x 1.555000 0.000000 0.000000 
#    y 0.000000 1.602470 0.000000 
#    z 0.000000 0.000000 1.516540 
# 
# From -- ./inp_files/34426.got.cif
#   From: 2010.05.17/outbox.cif.g08.bks.cpg/sg53_18_cif.got.tgz:34426.got - 2010.06.03 12:45:16.
