data_PCOD9415966
_publ_section_title
;
Structure prediction by ZEFSAII (Michael W. Deem and Ramdas Pophale) SiO2 
 PCOD9415966
Probable space group: P M N A
;
_chemical_formula_sum "Si O2"
_cell_formula_units_Z 64
_cell_length_a 25.103885
_cell_length_b 5.635611
_cell_length_c 23.367143
_cell_angle_alpha 90.000000
_cell_angle_beta 90.000000
_cell_angle_gamma 90.000000
_cell_volume 3305.883624
_symmetry_space_group_name_H-M "P M N A"
_symmetry_group_IT_number 53
_symmetry_cell_setting 'orthorhombic'
loop_
_space_group_symop_operation_xyz
x,y,z
1/2-x,-y,1/2+z
x,-y,-z
1/2-x,y,1/2-z
-x,-y,-z
1/2+x,y,1/2-z
-x,y,z
1/2+x,-y,1/2+z
loop_
_atom_site_type_symbol
_atom_site_label
_atom_site_fract_x
_atom_site_fract_y
_atom_site_fract_z
Si Si1 0.796315 0.823649 0.200994
Si Si2 0.899288 0.401145 0.753541
Si Si3 0.943679 0.108019 0.657413
Si Si4 0.739953 0.680774 0.680818
Si Si5 0.939670 0.502787 0.433254
Si Si6 0.435137 0.022304 0.566950
Si Si7 0.063772 0.524457 0.877843
Si Si8 0.358934 0.730029 0.844903
O O1 0.750000 0.832452 0.250000
O O2 0.854106 0.785383 0.227904
O O3 0.784632 0.577397 0.167107
O O4 0.793166 0.078621 0.170629
O O5 0.941688 0.288457 0.710455
O O6 0.923633 0.507261 0.810768
O O7 0.870411 0.593986 0.714166
O O8 0.943654 0.241130 0.596800
O O9 0.000000 0.971519 0.663203
O O10 0.887392 0.980231 0.661310
O O11 0.750000 0.672240 0.750000
O O12 0.796032 0.718754 0.648940
O O13 0.926953 0.500000 0.500000
O O14 0.893698 0.380192 0.396252
O O15 0.000000 0.399936 0.427751
O O16 0.500000 0.025819 0.571595
O O17 0.416669 0.276301 0.593072
O O18 0.421846 0.000000 0.500000
O O19 0.416771 0.777737 0.597460
O O20 0.000000 0.525164 0.886231
#
# Coordination Sequence:
#
# PCOD9415966 Si02
#       8
#     8   8   8   8   8   8   8   8
#     4  10  19  34  53  77 111 144 184 234 279 338
#     4  11  22  34  52  81 122 149 187 228 295 366
#     4  10  21  34  53  79 116 161 192 231 294 365
#     4  10  19  33  54  80 109 140 184 240 285 340
#     4   9  20  38  56  81 117 156 207 260 304 361
#     4   9  18  35  55  75 105 146 193 234 265 305
#     4  10  21  33  51  82 116 150 185 228 278 339
#     4  11  21  34  56  81 113 156 197 241 300 370
#
# _framework density 19.359423
#
# number of rings (size 3 to 8) (size 9 to 14) (size 15 to 20)
#    0.000    2.000    2.500    2.625    3.500    3.500 
#    0.000    1.875    0.000    0.000    0.000    3.500 
#    0.000    0.000    0.000    0.000    0.000    0.000 
#
# Total GULP energy -356469.078023 kJ/mol
# GULP energy per Si atom -5569.829344 kJ/mol
# Density = 1.931536 g / cm^3
# Si number density = 19.359423 Si / 1000 Ang^3
#
#
#
# Elastic Constant Matrix: (Units=GPa)
#
#
# Indices 1 2 3 4 5 6 
#
# 1 51.5975 17.5820 13.8631 0.0000 0.0000 0.0000
# 2 17.5820 113.1438 46.6351 0.0000 0.0000 0.0000
# 3 13.8631 46.6351 94.2745 0.0000 0.0000 0.0000
# 4 0.0000 0.0000 0.0000 -147.8372 0.0000 0.0000
# 5 0.0000 0.0000 0.0000 0.0000 19.6235 0.0000
# 6 0.0000 0.0000 0.0000 0.0000 0.0000 28.8266
#
#
#
# Elastic Compliance Matrix: (Units=1/GPa)
#
#
# Indices 1 2 3 4 5 6 
#
# 1 0.020712 -0.002466 -0.001826 0.000000 0.000000 0.000000
# 2 -0.002466 0.011395 -0.005274 0.000000 0.000000 0.000000
# 3 -0.001826 -0.005274 0.013485 0.000000 0.000000 0.000000
# 4 0.000000 0.000000 0.000000 -0.006764 0.000000 0.000000
# 5 0.000000 0.000000 0.000000 0.000000 0.050959 0.000000
# 6 0.000000 0.000000 0.000000 0.000000 0.000000 0.034690
#
#
# Mechanical properties :
#
#
# Convention : Reuss Voigt Hill
#
# Bulk Modulus (GPa) = 37.79332 46.13067 41.96200
# Shear Modulus (GPa) = 32.80203 -7.81505 12.49349
#
# Velocity S-wave (km/s) = 4.12074 -2.01136 2.54312
# Velocity P-wave (km/s) = 6.49653 4.29955 5.50868
#
# Compressibility (1/GPa) = 0.02645970
#
# Stress axis : x y z
#
# Youngs Moduli (GPa) = 48.28205 87.75401 74.15687
#
# Poissons Ratio (x) = 0.21640 0.13540
# Poissons Ratio (y) = 0.11906 0.39114
# Poissons Ratio (z) = 0.08815 0.46285
#
# Static dielectric constant tensor:
#      x y z
#    x 1.648440 0.000000 0.000000 
#    y 0.000000 1.777830 0.000000 
#    z 0.000000 0.000000 1.631100 
# 
# From -- ./inp_files/33295.got.cif
#   From: 2010.05.17/outbox.cif.g08.bks.cpg/sg53_17_cif.got.tgz:33295.got - 2010.06.03 12:45:16.
