data_PCOD9415051
_publ_section_title
;
Structure prediction by ZEFSAII (Michael W. Deem and Ramdas Pophale) SiO2 
 PCOD9415051
Probable space group: P M N A
;
_chemical_formula_sum "Si O2"
_cell_formula_units_Z 40
_cell_length_a 18.909596
_cell_length_b 9.282551
_cell_length_c 12.676132
_cell_angle_alpha 90.000000
_cell_angle_beta 90.000000
_cell_angle_gamma 90.000000
_cell_volume 2225.032441
_symmetry_space_group_name_H-M "P M N A"
_symmetry_group_IT_number 53
_symmetry_cell_setting 'orthorhombic'
loop_
_space_group_symop_operation_xyz
x,y,z
1/2-x,-y,1/2+z
x,-y,-z
1/2-x,y,1/2-z
-x,-y,-z
1/2+x,y,1/2-z
-x,y,z
1/2+x,-y,1/2+z
loop_
_atom_site_type_symbol
_atom_site_label
_atom_site_fract_x
_atom_site_fract_y
_atom_site_fract_z
Si Si1 0.827527 0.321654 0.696180
Si Si2 0.417090 0.135493 0.641363
Si Si3 0.639112 0.822113 0.580803
Si Si4 0.306039 0.834882 0.975631
Si Si5 0.166189 0.651081 0.721975
O O1 0.750000 0.316735 0.750000
O O2 0.878178 0.224982 0.768452
O O3 0.820880 0.257915 0.579506
O O4 0.851713 0.487612 0.693233
O O5 0.500000 0.123182 0.661179
O O6 0.403188 0.206116 0.526513
O O7 0.383488 0.976708 0.627638
O O8 0.721878 0.830598 0.549231
O O9 0.628885 0.705610 0.672100
O O10 0.343079 0.762095 0.874497
O O11 0.325678 0.000000 0.000000
O O12 0.250000 0.652786 0.750000
#
# Coordination Sequence:
#
# PCOD9415051 Si02
#       5
#     8   8   8   8   8
#     4  11  20  36  55  83 119 151 193 238 288 345
#     4  11  22  37  59  86 119 156 193 236 284 343
#     4  10  18  36  54  83 116 149 193 233 285 336
#     4  11  18  32  58  87 112 145 192 243 289 332
#     4   9  21  32  54  85 116 150 188 242 291 338
#
# _framework density 17.977266
#
# number of rings (size 3 to 8) (size 9 to 14) (size 15 to 20)
#    0.000    1.600    4.000    3.000    0.000    2.400 
#    0.000    3.000    0.000    9.000    0.000    0.000 
#    0.000    0.000    0.000    0.000    0.000    0.000 
#
# Total GULP energy -223280.304133 kJ/mol
# GULP energy per Si atom -5582.007603 kJ/mol
# Density = 1.793635 g / cm^3
# Si number density = 17.977266 Si / 1000 Ang^3
#
#
#
# Elastic Constant Matrix: (Units=GPa)
#
#
# Indices 1 2 3 4 5 6 
#
# 1 57.5764 38.7913 33.5956 0.0000 0.0000 0.0000
# 2 38.7913 114.1749 74.1845 0.0000 0.0000 0.0000
# 3 33.5956 74.1845 117.7462 0.0000 0.0000 0.0000
# 4 0.0000 0.0000 0.0000 28.2722 0.0000 0.0000
# 5 0.0000 0.0000 0.0000 0.0000 13.9098 0.0000
# 6 0.0000 0.0000 0.0000 0.0000 0.0000 14.1567
#
#
#
# Elastic Compliance Matrix: (Units=1/GPa)
#
#
# Indices 1 2 3 4 5 6 
#
# 1 0.023050 -0.006024 -0.002781 0.000000 0.000000 0.000000
# 2 -0.006024 0.016403 -0.008616 0.000000 0.000000 0.000000
# 3 -0.002781 -0.008616 0.014715 0.000000 0.000000 0.000000
# 4 0.000000 0.000000 0.000000 0.035370 0.000000 0.000000
# 5 0.000000 0.000000 0.000000 0.000000 0.071892 0.000000
# 6 0.000000 0.000000 0.000000 0.000000 0.000000 0.070638
#
#
# Mechanical properties :
#
#
# Convention : Reuss Voigt Hill
#
# Bulk Modulus (GPa) = 51.74549 64.73779 58.24164
# Shear Modulus (GPa) = 18.29140 20.79613 19.54376
#
# Velocity S-wave (km/s) = 3.19325 3.40487 3.30075
# Velocity P-wave (km/s) = 6.51476 7.17960 6.85524
#
# Compressibility (1/GPa) = 0.01932536
#
# Stress axis : x y z
#
# Youngs Moduli (GPa) = 43.38445 60.96307 67.95927
#
# Poissons Ratio (x) = 0.36725 0.18900
# Poissons Ratio (y) = 0.26136 0.58553
# Poissons Ratio (z) = 0.12066 0.52525
#
# Static dielectric constant tensor:
#      x y z
#    x 1.588210 0.000000 0.000000 
#    y 0.000000 1.616200 0.000000 
#    z 0.000000 0.000000 1.603260 
# 
# From -- ./inp_files/16661.got.cif
#   From: 2010.05.17/outbox.cif.g08.bks.cpg/sg53_9_cif.got.tgz:16661.got - 2010.06.03 12:45:16.
