data_PCOD9415758
_publ_section_title
;
Structure prediction by ZEFSAII (Michael W. Deem and Ramdas Pophale) SiO2 
 PCOD9415758
Probable space group: P M N A
;
_chemical_formula_sum "Si O2"
_cell_formula_units_Z 64
_cell_length_a 8.677755
_cell_length_b 15.832975
_cell_length_c 22.611008
_cell_angle_alpha 90.000000
_cell_angle_beta 90.000000
_cell_angle_gamma 90.000000
_cell_volume 3106.632163
_symmetry_space_group_name_H-M "P M N A"
_symmetry_group_IT_number 53
_symmetry_cell_setting 'orthorhombic'
loop_
_space_group_symop_operation_xyz
x,y,z
1/2-x,-y,1/2+z
x,-y,-z
1/2-x,y,1/2-z
-x,-y,-z
1/2+x,y,1/2-z
-x,y,z
1/2+x,-y,1/2+z
loop_
_atom_site_type_symbol
_atom_site_label
_atom_site_fract_x
_atom_site_fract_y
_atom_site_fract_z
Si Si1 0.814875 0.397654 0.604797
Si Si2 0.816970 0.100091 0.127325
Si Si3 0.316502 0.246523 0.684557
Si Si4 0.682763 0.302984 0.005612
Si Si5 0.183408 0.720091 0.643740
Si Si6 0.680879 0.075205 0.868376
Si Si7 0.313637 0.455987 0.188789
Si Si8 0.180470 0.874344 0.011126
O O1 0.749308 0.318621 0.641396
O O2 0.780842 0.382536 0.535684
O O3 0.762699 0.484347 0.634908
O O4 0.000000 0.395545 0.610613
O O5 0.762626 0.189770 0.153119
O O6 0.000000 0.092140 0.132792
O O7 0.737128 0.016683 0.152613
O O8 0.779834 0.104579 0.056731
O O9 0.250000 0.259802 0.750000
O O10 0.500000 0.251527 0.685457
O O11 0.265966 0.153849 0.662006
O O12 0.500000 0.282687 0.997259
O O13 0.784133 0.224861 0.983331
O O14 0.706992 0.308715 0.075462
O O15 0.240159 0.640473 0.681109
O O16 0.000000 0.731122 0.652210
O O17 0.500000 0.084814 0.859364
O O18 0.722105 0.081182 0.938129
O O19 0.250000 0.491647 0.250000
O O20 0.500000 0.454577 0.189768
O O21 0.000000 0.892905 0.020667
#
# Coordination Sequence:
#
# PCOD9415758 Si02
#       8
#     8   8   8   8   8   8   8   8
#     4  10  20  36  59  89 119 151 190 236 290 355
#     4  10  21  36  56  84 117 152 192 239 291 347
#     4  12  25  41  60  83 116 156 196 243 293 348
#     4   9  17  31  55  84 118 154 190 232 291 355
#     4   9  19  37  58  84 116 153 195 245 295 350
#     4  12  23  36  56  83 115 153 197 239 284 342
#     4  10  22  39  60  85 115 150 198 246 291 344
#     4  10  19  32  52  82 119 155 191 232 283 341
#
# _framework density 20.601088000000001
#
# number of rings (size 3 to 8) (size 9 to 14) (size 15 to 20)
#    0.000    1.750    1.250    3.750    0.000    5.500 
#    0.000    3.125    0.000    1.500    0.000    5.250 
#    0.000    0.000    0.000    0.000    0.000    0.000 
#
# Total GULP energy -357521.676488 kJ/mol
# GULP energy per Si atom -5586.276195 kJ/mol
# Density = 2.055420 g / cm^3
# Si number density = 20.601088 Si / 1000 Ang^3
#
#
#
# Elastic Constant Matrix: (Units=GPa)
#
#
# Indices 1 2 3 4 5 6 
#
# 1 15.3683 3.4514 2.2414 0.0000 0.0000 0.0000
# 2 3.4514 76.4091 6.9684 0.0000 0.0000 0.0000
# 3 2.2414 6.9684 11.0072 0.0000 0.0000 0.0000
# 4 0.0000 0.0000 0.0000 10.4130 0.0000 0.0000
# 5 0.0000 0.0000 0.0000 0.0000 7.5282 0.0000
# 6 0.0000 0.0000 0.0000 0.0000 0.0000 -34.4321
#
#
#
# Elastic Compliance Matrix: (Units=1/GPa)
#
#
# Indices 1 2 3 4 5 6 
#
# 1 0.067320 -0.001900 -0.012505 0.000000 0.000000 0.000000
# 2 -0.001900 0.013943 -0.008440 0.000000 0.000000 0.000000
# 3 -0.012505 -0.008440 0.098739 0.000000 0.000000 0.000000
# 4 0.000000 0.000000 0.000000 0.096034 0.000000 0.000000
# 5 0.000000 0.000000 0.000000 0.000000 0.132833 0.000000
# 6 0.000000 0.000000 0.000000 0.000000 0.000000 -0.029043
#
#
# Mechanical properties :
#
#
# Convention : Reuss Voigt Hill
#
# Bulk Modulus (GPa) = 7.44540 14.23410 10.83975
# Shear Modulus (GPa) = 10.63180 2.71006 6.67093
#
# Velocity S-wave (km/s) = 2.27420 1.14819 1.80144
# Velocity P-wave (km/s) = 3.24314 2.94656 3.09840
#
# Compressibility (1/GPa) = 0.13431106
#
# Stress axis : x y z
#
# Youngs Moduli (GPa) = 14.85447 71.72054 10.12769
#
# Poissons Ratio (x) = 0.13630 0.12665
# Poissons Ratio (y) = 0.02823 0.08548
# Poissons Ratio (z) = 0.18576 0.60532
#
# Static dielectric constant tensor:
#      x y z
#    x 1.691520 0.000000 0.000000 
#    y 0.000000 1.750380 0.000000 
#    z 0.000000 0.000000 1.756680 
# 
# From -- ./inp_files/34268.got.cif
#   From: 2010.05.17/outbox.cif.g08.bks.cpg/sg53_18_cif.got.tgz:34268.got - 2010.06.03 12:45:16.
