data_PCOD9415736
_publ_section_title
;
Structure prediction by ZEFSAII (Michael W. Deem and Ramdas Pophale) SiO2 
 PCOD9415736
Probable space group: P M N A
;
_chemical_formula_sum "Si O2"
_cell_formula_units_Z 64
_cell_length_a 15.175318
_cell_length_b 11.387015
_cell_length_c 17.584740
_cell_angle_alpha 90.000000
_cell_angle_beta 90.000000
_cell_angle_gamma 90.000000
_cell_volume 3038.670745
_symmetry_space_group_name_H-M "P M N A"
_symmetry_group_IT_number 53
_symmetry_cell_setting 'orthorhombic'
loop_
_space_group_symop_operation_xyz
x,y,z
1/2-x,-y,1/2+z
x,-y,-z
1/2-x,y,1/2-z
-x,-y,-z
1/2+x,y,1/2-z
-x,y,z
1/2+x,-y,1/2+z
loop_
_atom_site_type_symbol
_atom_site_label
_atom_site_fract_x
_atom_site_fract_y
_atom_site_fract_z
Si Si1 0.595793 0.258205 0.612799
Si Si2 0.394529 0.632380 0.786215
Si Si3 0.292086 0.989061 0.913878
Si Si4 0.151802 0.889817 0.732623
Si Si5 0.905896 0.979025 0.885983
Si Si6 0.102616 0.626975 0.274951
Si Si7 0.213081 0.260729 0.590175
Si Si8 0.603980 0.371399 0.036361
O O1 0.500000 0.306284 0.588409
O O2 0.593387 0.118358 0.601204
O O3 0.605545 0.288904 0.702243
O O4 0.686619 0.301829 0.576978
O O5 0.500000 0.646946 0.780574
O O6 0.354551 0.750964 0.753443
O O7 0.372265 0.505939 0.751348
O O8 0.371083 0.625938 0.875389
O O9 0.190916 0.937389 0.914874
O O10 0.285708 0.124043 0.886265
O O11 0.356265 0.920046 0.856388
O O12 0.323483 0.000000 0.000000
O O13 0.250000 0.932176 0.750000
O O14 0.094508 0.953715 0.795707
O O15 0.000000 0.930972 0.916885
O O16 0.164838 0.670111 0.342206
O O17 0.000000 0.622293 0.302185
O O18 0.158940 0.280820 0.513451
O O19 0.500000 0.345257 0.031230
O O20 0.617912 0.500000 0.000000
#
# Coordination Sequence:
#
# PCOD9415736 Si02
#       8
#     8   8   8   8   8   8   8   8
#     4   9  19  33  51  79 107 130 169 220 264 308
#     4  10  20  34  52  74 104 138 171 212 259 313
#     4  10  21  35  52  78 109 138 177 222 265 320
#     4  10  20  34  52  77 109 143 177 216 266 325
#     4   9  18  35  57  77 101 139 179 221 269 315
#     4  10  19  32  52  79 105 133 173 218 259 309
#     4  11  19  32  56  76 102 138 172 213 263 311
#     4  10  19  34  52  75 104 134 173 215 259 316
#
# _framework density 21.061841000000001
#
# number of rings (size 3 to 8) (size 9 to 14) (size 15 to 20)
#    0.000    2.125    1.250    2.625    0.000    3.250 
#    0.000    1.875    0.000    4.875    0.000    0.000 
#    0.000    0.000    0.000    0.000    0.000    0.000 
#
# Total GULP energy -356974.430460 kJ/mol
# GULP energy per Si atom -5577.725476 kJ/mol
# Density = 2.101390 g / cm^3
# Si number density = 21.061841 Si / 1000 Ang^3
#
#
#
# Elastic Constant Matrix: (Units=GPa)
#
#
# Indices 1 2 3 4 5 6 
#
# 1 57.6861 11.6514 -5.8819 0.0000 0.0000 0.0000
# 2 11.6514 35.8592 -10.6161 0.0000 0.0000 0.0000
# 3 -5.8819 -10.6161 39.1238 0.0000 0.0000 0.0000
# 4 0.0000 0.0000 0.0000 20.3591 0.0000 0.0000
# 5 0.0000 0.0000 0.0000 0.0000 10.9248 0.0000
# 6 0.0000 0.0000 0.0000 0.0000 0.0000 22.2167
#
#
#
# Elastic Compliance Matrix: (Units=1/GPa)
#
#
# Indices 1 2 3 4 5 6 
#
# 1 0.018610 -0.005674 0.001258 0.000000 0.000000 0.000000
# 2 -0.005674 0.032053 0.007844 0.000000 0.000000 0.000000
# 3 0.001258 0.007844 0.027878 0.000000 0.000000 0.000000
# 4 0.000000 0.000000 0.000000 0.049118 0.000000 0.000000
# 5 0.000000 0.000000 0.000000 0.000000 0.091535 0.000000
# 6 0.000000 0.000000 0.000000 0.000000 0.000000 0.045011
#
#
# Mechanical properties :
#
#
# Convention : Reuss Voigt Hill
#
# Bulk Modulus (GPa) = 11.71008 13.66398 12.68703
# Shear Modulus (GPa) = 17.49395 19.86782 18.68089
#
# Velocity S-wave (km/s) = 2.88514 3.07467 2.98141
# Velocity P-wave (km/s) = 4.08297 4.37109 4.22948
#
# Compressibility (1/GPa) = 0.08539651
#
# Stress axis : x y z
#
# Youngs Moduli (GPa) = 53.73588 31.19854 35.87117
#
# Poissons Ratio (x) = 0.17702 -0.04513
# Poissons Ratio (y) = 0.30490 -0.28138
# Poissons Ratio (z) = -0.06761 -0.24473
#
# Static dielectric constant tensor:
#      x y z
#    x 1.795210 0.000000 0.000000 
#    y 0.000000 1.762240 0.000000 
#    z 0.000000 0.000000 1.775870 
# 
# From -- ./inp_files/28593.got.cif
#   From: 2010.05.17/outbox.cif.g08.bks.cpg/sg53_15_cif.got.tgz:28593.got - 2010.06.03 12:45:16.
