data_PCOD9415515
_publ_section_title
;
Structure prediction by ZEFSAII (Michael W. Deem and Ramdas Pophale) SiO2 
 PCOD9415515
Probable space group: P M N A
;
_chemical_formula_sum "Si O2"
_cell_formula_units_Z 56
_cell_length_a 8.444945
_cell_length_b 23.368975
_cell_length_c 14.583581
_cell_angle_alpha 90.000000
_cell_angle_beta 90.000000
_cell_angle_gamma 90.000000
_cell_volume 2878.065460
_symmetry_space_group_name_H-M "P M N A"
_symmetry_group_IT_number 53
_symmetry_cell_setting 'orthorhombic'
loop_
_space_group_symop_operation_xyz
x,y,z
1/2-x,-y,1/2+z
x,-y,-z
1/2-x,y,1/2-z
-x,-y,-z
1/2+x,y,1/2-z
-x,y,z
1/2+x,-y,1/2+z
loop_
_atom_site_type_symbol
_atom_site_label
_atom_site_fract_x
_atom_site_fract_y
_atom_site_fract_z
Si Si1 0.687533 0.691612 0.854384
Si Si2 0.809095 0.201801 0.031355
Si Si3 0.188862 0.531262 0.354697
Si Si4 0.189694 0.900840 0.841671
Si Si5 0.811596 0.580958 0.960060
Si Si6 0.812955 0.979917 0.105209
Si Si7 0.191632 0.147873 0.850302
O O1 0.750000 0.693537 0.750000
O O2 0.500000 0.683120 0.851356
O O3 0.728930 0.749508 0.908929
O O4 0.764641 0.639944 0.911770
O O5 0.771796 0.139629 0.074098
O O6 0.000000 0.209938 0.036752
O O7 0.759449 0.194308 0.926120
O O8 0.250000 0.539460 0.250000
O O9 0.249114 0.574059 0.435308
O O10 0.242553 0.469910 0.396269
O O11 0.000000 0.533465 0.352154
O O12 0.250000 0.871566 0.750000
O O13 0.000000 0.905448 0.839926
O O14 0.260904 0.964539 0.846614
O O15 0.000000 0.574556 0.962553
O O16 0.749077 0.916915 0.126160
O O17 0.000000 0.976718 0.128989
O O18 0.806002 0.000000 0.000000
O O19 0.250000 0.162576 0.750000
O O20 0.000000 0.146033 0.853796
#
# Coordination Sequence:
#
# PCOD9415515 Si02
#       7
#     8   8   8   8   8   8   8
#     4  12  25  42  63  88 117 153 194 242 295 351
#     4  10  21  38  57  79 107 145 189 235 284 342
#     4  11  21  37  61  94 133 172 210 250 297 350
#     4  10  19  31  51  76 104 136 175 219 274 337
#     4  11  22  39  62  92 127 165 208 254 300 351
#     4   9  15  29  52  76 102 139 178 218 274 342
#     4  10  20  35  57  80 107 143 186 232 286 348
#
# _framework density 19.457515000000001
#
# number of rings (size 3 to 8) (size 9 to 14) (size 15 to 20)
#    0.000    1.571    1.429    6.000    0.000    2.286 
#    0.000    0.714    0.000    2.571    0.000    0.000 
#    0.000    0.000    0.000    0.000    0.000    0.000 
#
# Total GULP energy -312459.930859 kJ/mol
# GULP energy per Si atom -5579.641622 kJ/mol
# Density = 1.941323 g / cm^3
# Si number density = 19.457515 Si / 1000 Ang^3
#
#
#
# Elastic Constant Matrix: (Units=GPa)
#
#
# Indices 1 2 3 4 5 6 
#
# 1 80.7437 26.5168 41.9445 0.0000 0.0000 0.0000
# 2 26.5168 77.3286 62.3833 0.0000 0.0000 0.0000
# 3 41.9445 62.3833 161.4695 0.0000 0.0000 0.0000
# 4 0.0000 0.0000 0.0000 31.9994 0.0000 0.0000
# 5 0.0000 0.0000 0.0000 0.0000 33.2118 0.0000
# 6 0.0000 0.0000 0.0000 0.0000 0.0000 14.1773
#
#
#
# Elastic Compliance Matrix: (Units=1/GPa)
#
#
# Indices 1 2 3 4 5 6 
#
# 1 0.014738 -0.002855 -0.002725 0.000000 0.000000 0.000000
# 2 -0.002855 0.019341 -0.006730 0.000000 0.000000 0.000000
# 3 -0.002725 -0.006730 0.009501 0.000000 0.000000 0.000000
# 4 0.000000 0.000000 0.000000 0.031251 0.000000 0.000000
# 5 0.000000 0.000000 0.000000 0.000000 0.030110 0.000000
# 6 0.000000 0.000000 0.000000 0.000000 0.000000 0.070535
#
#
# Mechanical properties :
#
#
# Convention : Reuss Voigt Hill
#
# Bulk Modulus (GPa) = 52.74809 64.58121 58.66465
# Shear Modulus (GPa) = 24.22273 28.45752 26.34012
#
# Velocity S-wave (km/s) = 3.53215 3.82847 3.68329
# Velocity P-wave (km/s) = 6.61838 7.26677 6.95014
#
# Compressibility (1/GPa) = 0.01895803
#
# Stress axis : x y z
#
# Youngs Moduli (GPa) = 67.85018 51.70465 105.24773
#
# Poissons Ratio (x) = 0.14763 0.28684
# Poissons Ratio (y) = 0.19373 0.70837
# Poissons Ratio (z) = 0.18492 0.34800
#
# Static dielectric constant tensor:
#      x y z
#    x 1.667190 0.000000 0.000000 
#    y 0.000000 1.687210 0.000000 
#    z 0.000000 0.000000 1.694020 
# 
# From -- ./inp_files/20606.got.cif
#   From: 2010.05.17/outbox.cif.g08.bks.cpg/sg53_11_cif.got.tgz:20606.got - 2010.06.03 12:45:16.
