data_PCOD9415070
_publ_section_title
;
Structure prediction by ZEFSAII (Michael W. Deem and Ramdas Pophale) SiO2 
 PCOD9415070
Probable space group: P M N A
;
_chemical_formula_sum "Si O2"
_cell_formula_units_Z 38
_cell_length_a 28.761113
_cell_length_b 11.227282
_cell_length_c 6.155727
_cell_angle_alpha 90.000000
_cell_angle_beta 90.000000
_cell_angle_gamma 90.000000
_cell_volume 1987.740427
_symmetry_space_group_name_H-M "P M N A"
_symmetry_group_IT_number 53
_symmetry_cell_setting 'orthorhombic'
loop_
_space_group_symop_operation_xyz
x,y,z
1/2-x,-y,1/2+z
x,-y,-z
1/2-x,y,1/2-z
-x,-y,-z
1/2+x,y,1/2-z
-x,y,z
1/2+x,-y,1/2+z
loop_
_atom_site_type_symbol
_atom_site_label
_atom_site_fract_x
_atom_site_fract_y
_atom_site_fract_z
Si Si1 0.648163 0.500000 0.000000
Si Si2 0.912493 0.344622 0.836693
Si Si3 0.291671 0.873925 0.397757
Si Si4 0.500000 0.500000 0.500000
Si Si5 0.659604 0.708726 0.719725
Si Si6 0.117662 0.874338 0.406392
O O1 0.615454 0.423806 0.839052
O O2 0.675853 0.594339 0.855143
O O3 0.916603 0.213561 0.726065
O O4 0.879915 0.331280 0.048411
O O5 0.959227 0.410501 0.902606
O O6 0.250000 0.829780 0.250000
O O7 0.302601 0.779037 0.582804
O O8 0.338296 0.894085 0.254630
O O9 0.277936 0.000000 0.500000
O O10 0.636887 0.800336 0.889238
O O11 0.100022 0.000000 0.500000
#
# Coordination Sequence:
#
# PCOD9415070 Si02
#       6
#     4   8   8   2   8   8
#     4  10  18  39  60  90 113 164 207 250 306 379
#     4  10  22  35  62  91 118 155 202 264 308 365
#     4  11  22  34  58  96 126 154 202 259 304 363
#     4  12  20  42  58  94 122 150 220 278 306 364
#     4  10  20  37  58  93 118 161 203 251 308 373
#     4  10  20  38  59  88 122 164 199 247 312 384
#
# _framework density 19.117182
#
# number of rings (size 3 to 8) (size 9 to 14) (size 15 to 20)
#    0.000    1.684    4.211    0.632    0.000    0.421 
#    0.000    0.526    0.000    1.263  197.053    0.000 
#    0.000    0.000    0.000    0.000    0.000    0.000 
#
# Total GULP energy -211609.625426 kJ/mol
# GULP energy per Si atom -5568.674353 kJ/mol
# Density = 1.907367 g / cm^3
# Si number density = 19.117182 Si / 1000 Ang^3
#
#
#
# Elastic Constant Matrix: (Units=GPa)
#
#
# Indices 1 2 3 4 5 6 
#
# 1 51.2845 33.7380 20.2496 0.0000 0.0000 0.0000
# 2 33.7380 152.4885 63.9571 0.0000 0.0000 0.0000
# 3 20.2496 63.9571 105.6265 0.0000 0.0000 0.0000
# 4 0.0000 0.0000 0.0000 46.7387 0.0000 0.0000
# 5 0.0000 0.0000 0.0000 0.0000 -3.9437 0.0000
# 6 0.0000 0.0000 0.0000 0.0000 0.0000 -11.4498
#
#
#
# Elastic Compliance Matrix: (Units=1/GPa)
#
#
# Indices 1 2 3 4 5 6 
#
# 1 0.023069 -0.004355 -0.001786 0.000000 0.000000 0.000000
# 2 -0.004355 0.009612 -0.004985 0.000000 0.000000 0.000000
# 3 -0.001786 -0.004985 0.012828 0.000000 0.000000 0.000000
# 4 0.000000 0.000000 0.000000 0.021396 0.000000 0.000000
# 5 0.000000 0.000000 0.000000 0.000000 -0.253566 0.000000
# 6 0.000000 0.000000 0.000000 0.000000 0.000000 -0.087337
#
#
# Mechanical properties :
#
#
# Convention : Reuss Voigt Hill
#
# Bulk Modulus (GPa) = 42.99654 60.58767 51.79210
# Shear Modulus (GPa) = -20.49236 19.03269 -0.72984
#
# Velocity S-wave (km/s) = -3.27759 3.15870 -0.61855
# Velocity P-wave (km/s) = 2.86642 6.71303 5.16145
#
# Compressibility (1/GPa) = 0.02325769
#
# Stress axis : x y z
#
# Youngs Moduli (GPa) = 43.34796 104.03182 77.95251
#
# Poissons Ratio (x) = 0.45307 0.13919
# Poissons Ratio (y) = 0.18879 0.38863
# Poissons Ratio (z) = 0.07740 0.51864
#
# Static dielectric constant tensor:
#      x y z
#    x 1.607300 0.000000 0.000000 
#    y 0.000000 1.706040 0.000000 
#    z 0.000000 0.000000 1.686610 
# 
# From -- ./inp_files/4309.got.cif
#   From: 2010.05.17/outbox.cif.g08.bks.cpg/sg53_3_cif.got.tgz:4309.got - 2010.06.03 12:45:16.
