data_PCOD9415527
_publ_section_title
;
Structure prediction by ZEFSAII (Michael W. Deem and Ramdas Pophale) SiO2 
 PCOD9415527
Probable space group: P M N A
;
_chemical_formula_sum "Si O2"
_cell_formula_units_Z 56
_cell_length_a 8.107918
_cell_length_b 20.655203
_cell_length_c 16.405784
_cell_angle_alpha 90.000000
_cell_angle_beta 90.000000
_cell_angle_gamma 90.000000
_cell_volume 2747.488003
_symmetry_space_group_name_H-M "P M N A"
_symmetry_group_IT_number 53
_symmetry_cell_setting 'orthorhombic'
loop_
_space_group_symop_operation_xyz
x,y,z
1/2-x,-y,1/2+z
x,-y,-z
1/2-x,y,1/2-z
-x,-y,-z
1/2+x,y,1/2-z
-x,y,z
1/2+x,-y,1/2+z
loop_
_atom_site_type_symbol
_atom_site_label
_atom_site_fract_x
_atom_site_fract_y
_atom_site_fract_z
Si Si1 0.198800 0.331514 0.656543
Si Si2 0.187991 0.106487 0.164687
Si Si3 0.314017 0.746147 0.626286
Si Si4 0.299362 0.789899 0.051745
Si Si5 0.683719 0.618042 0.835795
Si Si6 0.311294 0.928954 0.004691
Si Si7 0.701093 0.575525 0.009168
O O1 0.250000 0.342848 0.750000
O O2 0.249136 0.259933 0.623208
O O3 0.257864 0.384952 0.589461
O O4 0.000000 0.332802 0.654809
O O5 0.250000 0.079416 0.250000
O O6 0.187302 0.184105 0.167485
O O7 0.000000 0.085890 0.147056
O O8 0.305502 0.090873 0.089762
O O9 0.500000 0.719838 0.632957
O O10 0.266802 0.759186 0.532223
O O11 0.189736 0.695722 0.665573
O O12 0.500000 0.791189 0.047340
O O13 0.242836 0.865504 0.052095
O O14 0.750000 0.593315 0.750000
O O15 0.500000 0.592166 0.841717
O O16 0.764503 0.604014 0.923278
O O17 0.500000 0.937387 0.033852
O O18 0.230113 0.000000 0.000000
O O19 0.500000 0.581517 0.011528
O O20 0.740901 0.500000 0.000000
#
# Coordination Sequence:
#
# PCOD9415527 Si02
#       7
#     8   8   8   8   8   8   8
#     4  10  20  36  58  84 109 145 189 232 280 327
#     4  10  20  32  48  73 103 136 172 215 262 316
#     4  10  19  31  51  79 108 137 173 216 266 319
#     4   9  17  33  55  78 107 143 182 223 273 329
#     4  11  21  34  53  79 110 143 177 217 269 327
#     4   9  18  33  54  77 104 140 178 220 272 331
#     4   9  19  37  58  78 107 147 185 223 277 339
#
# _framework density 20.382256000000002
#
# number of rings (size 3 to 8) (size 9 to 14) (size 15 to 20)
#    0.000    2.286    1.429    1.714    0.000    4.286 
#    0.000    0.714    0.000    4.714    0.000    0.000 
#    0.000    0.000    0.000    0.000    0.000    0.000 
#
# Total GULP energy -311785.898358 kJ/mol
# GULP energy per Si atom -5567.605328 kJ/mol
# Density = 2.033586 g / cm^3
# Si number density = 20.382256 Si / 1000 Ang^3
#
#
#
# Elastic Constant Matrix: (Units=GPa)
#
#
# Indices 1 2 3 4 5 6 
#
# 1 26.7154 5.7650 12.7947 0.0000 0.0000 0.0000
# 2 5.7650 114.3931 59.9531 0.0000 0.0000 0.0000
# 3 12.7947 59.9531 141.7617 0.0000 0.0000 0.0000
# 4 0.0000 0.0000 0.0000 6.2814 0.0000 0.0000
# 5 0.0000 0.0000 0.0000 0.0000 14.0811 0.0000
# 6 0.0000 0.0000 0.0000 0.0000 0.0000 14.4311
#
#
#
# Elastic Compliance Matrix: (Units=1/GPa)
#
#
# Indices 1 2 3 4 5 6 
#
# 1 0.039125 -0.000156 -0.003465 0.000000 0.000000 0.000000
# 2 -0.000156 0.011232 -0.004736 0.000000 0.000000 0.000000
# 3 -0.003465 -0.004736 0.009370 0.000000 0.000000 0.000000
# 4 0.000000 0.000000 0.000000 0.159199 0.000000 0.000000
# 5 0.000000 0.000000 0.000000 0.000000 0.071017 0.000000
# 6 0.000000 0.000000 0.000000 0.000000 0.000000 0.069295
#
#
# Mechanical properties :
#
#
# Convention : Reuss Voigt Hill
#
# Bulk Modulus (GPa) = 23.24915 48.87733 36.06324
# Shear Modulus (GPa) = 12.81102 20.58256 16.69679
#
# Velocity S-wave (km/s) = 2.50979 3.18123 2.86524
# Velocity P-wave (km/s) = 4.45309 6.12585 5.35518
#
# Compressibility (1/GPa) = 0.04301233
#
# Stress axis : x y z
#
# Youngs Moduli (GPa) = 25.55925 89.03314 106.72582
#
# Poissons Ratio (x) = 0.01385 0.36985
# Poissons Ratio (y) = 0.00398 0.50546
# Poissons Ratio (z) = 0.08857 0.42166
#
# Static dielectric constant tensor:
#      x y z
#    x 1.773130 0.000000 0.000000 
#    y 0.000000 1.785680 0.000000 
#    z 0.000000 0.000000 1.742140 
# 
# From -- ./inp_files/20532.got.cif
#   From: 2010.05.17/outbox.cif.g08.bks.cpg/sg53_11_cif.got.tgz:20532.got - 2010.06.03 12:45:16.
