data_PCOD9415164
_publ_section_title
;
Structure prediction by ZEFSAII (Michael W. Deem and Ramdas Pophale) SiO2 
 PCOD9415164
Probable space group: P M N A
;
_chemical_formula_sum "Si O2"
_cell_formula_units_Z 56
_cell_length_a 7.315543
_cell_length_b 11.706704
_cell_length_c 29.077564
_cell_angle_alpha 90.000000
_cell_angle_beta 90.000000
_cell_angle_gamma 90.000000
_cell_volume 2490.228649
_symmetry_space_group_name_H-M "P M N A"
_symmetry_group_IT_number 53
_symmetry_cell_setting 'orthorhombic'
loop_
_space_group_symop_operation_xyz
x,y,z
1/2-x,-y,1/2+z
x,-y,-z
1/2-x,y,1/2-z
-x,-y,-z
1/2+x,y,1/2-z
-x,y,z
1/2+x,-y,1/2+z
loop_
_atom_site_type_symbol
_atom_site_label
_atom_site_fract_x
_atom_site_fract_y
_atom_site_fract_z
Si Si1 0.722273 0.725676 0.436198
Si Si2 0.276922 0.765239 0.611810
Si Si3 0.722971 0.491553 0.393340
Si Si4 0.277191 0.155157 0.658657
Si Si5 0.781941 0.089163 0.195940
Si Si6 0.783316 0.610030 0.198871
Si Si7 0.222823 0.121321 0.019584
O O1 0.500000 0.724858 0.436004
O O2 0.780618 0.595674 0.426279
O O3 0.775550 0.806245 0.392965
O O4 0.780198 0.780434 0.484011
O O5 0.500000 0.762530 0.612235
O O6 0.216727 0.637524 0.599124
O O7 0.216691 0.811830 0.661402
O O8 0.221122 0.851126 0.571344
O O9 0.500000 0.490226 0.395078
O O10 0.782265 0.530602 0.342322
O O11 0.500000 0.151241 0.658728
O O12 0.216536 0.260538 0.690863
O O13 0.213097 0.033628 0.677471
O O14 0.750000 0.105409 0.250000
O O15 0.000000 0.085765 0.190546
O O16 0.750000 0.568549 0.250000
O O17 0.000000 0.615942 0.192609
O O18 0.000000 0.119640 0.019682
O O19 0.283078 0.000000 0.000000
#
# Coordination Sequence:
#
# PCOD9415164 Si02
#       7
#     8   8   8   8   8   8   8
#     4   8  13  22  37  56  80 109 137 166 204 253
#     4   9  17  27  38  55  81 109 137 172 210 247
#     4   8  15  26  37  52  76 107 139 169 207 251
#     4   8  14  25  40  59  83 109 137 171 212 252
#     4  10  19  30  44  61  84 114 144 175 212 250
#     4   9  16  26  41  59  80 108 141 175 209 246
#     4   9  15  22  35  56  81 109 138 167 205 253
#
# _framework density 22.487895999999999
#
# number of rings (size 3 to 8) (size 9 to 14) (size 15 to 20)
#    0.000    3.286    0.000    3.000    0.000    4.571 
#    0.000    2.857    0.000    0.000    0.000    0.000 
#    0.000    9.714    0.000    6.429    0.000    7.143 
#
# Total GULP energy -312569.230179 kJ/mol
# GULP energy per Si atom -5581.593396 kJ/mol
# Density = 2.243671 g / cm^3
# Si number density = 22.487896 Si / 1000 Ang^3
#
#
#
# Elastic Constant Matrix: (Units=GPa)
#
#
# Indices 1 2 3 4 5 6 
#
# 1 87.7816 4.1379 -2.5269 0.0000 0.0000 0.0000
# 2 4.1379 147.6321 67.2815 0.0000 0.0000 0.0000
# 3 -2.5269 67.2815 119.4224 0.0000 0.0000 0.0000
# 4 0.0000 0.0000 0.0000 13.6641 0.0000 0.0000
# 5 0.0000 0.0000 0.0000 0.0000 6.7605 0.0000
# 6 0.0000 0.0000 0.0000 0.0000 0.0000 -19.9287
#
#
#
# Elastic Compliance Matrix: (Units=1/GPa)
#
#
# Indices 1 2 3 4 5 6 
#
# 1 0.011436 -0.000580 0.000569 0.000000 0.000000 0.000000
# 2 -0.000580 0.009143 -0.005163 0.000000 0.000000 0.000000
# 3 0.000569 -0.005163 0.011295 0.000000 0.000000 0.000000
# 4 0.000000 0.000000 0.000000 0.073184 0.000000 0.000000
# 5 0.000000 0.000000 0.000000 0.000000 0.147919 0.000000
# 6 0.000000 0.000000 0.000000 0.000000 0.000000 -0.050179
#
#
# Mechanical properties :
#
#
# Convention : Reuss Voigt Hill
#
# Bulk Modulus (GPa) = 46.45901 54.73567 50.59734
# Shear Modulus (GPa) = 22.69416 19.16209 20.92813
#
# Velocity S-wave (km/s) = 3.18019 2.92225 3.05395
# Velocity P-wave (km/s) = 5.84716 5.98155 5.91474
#
# Compressibility (1/GPa) = 0.02152435
#
# Stress axis : x y z
#
# Youngs Moduli (GPa) = 87.44626 109.37380 88.53758
#
# Poissons Ratio (x) = 0.06339 -0.05034
# Poissons Ratio (y) = 0.05069 0.45715
# Poissons Ratio (z) = -0.04971 0.56473
#
# Static dielectric constant tensor:
#      x y z
#    x 1.913460 0.000000 0.000000 
#    y 0.000000 1.803400 0.000000 
#    z 0.000000 0.000000 1.807340 
# 
# From -- ./inp_files/34978.got.cif
#   From: 2010.05.17/outbox.cif.g08.bks.cpg/sg53_18_cif.got.tgz:34978.got - 2010.06.03 12:45:16.
