data_PCOD9415160
_publ_section_title
;
Structure prediction by ZEFSAII (Michael W. Deem and Ramdas Pophale) SiO2 
 PCOD9415160
Probable space group: P M N A
;
_chemical_formula_sum "Si O2"
_cell_formula_units_Z 64
_cell_length_a 9.355633
_cell_length_b 19.007706
_cell_length_c 21.620596
_cell_angle_alpha 90.000000
_cell_angle_beta 90.000000
_cell_angle_gamma 90.000000
_cell_volume 3844.771593
_symmetry_space_group_name_H-M "P M N A"
_symmetry_group_IT_number 53
_symmetry_cell_setting 'orthorhombic'
loop_
_space_group_symop_operation_xyz
x,y,z
1/2-x,-y,1/2+z
x,-y,-z
1/2-x,y,1/2-z
-x,-y,-z
1/2+x,y,1/2-z
-x,y,z
1/2+x,-y,1/2+z
loop_
_atom_site_type_symbol
_atom_site_label
_atom_site_fract_x
_atom_site_fract_y
_atom_site_fract_z
Si Si1 0.163237 0.790465 0.963831
Si Si2 0.838923 0.242943 0.891808
Si Si3 0.165225 0.515435 0.925897
Si Si4 0.673103 0.937262 0.951033
Si Si5 0.835987 0.022572 0.310839
Si Si6 0.835990 0.853272 0.310014
Si Si7 0.165672 0.654315 0.555809
Si Si8 0.164910 0.622648 0.407293
O O1 0.245450 0.864628 0.964356
O O2 0.255478 0.728417 0.932268
O O3 0.000000 0.796766 0.939881
O O4 0.151911 0.765077 0.034661
O O5 0.747421 0.178034 0.867513
O O6 0.754091 0.314194 0.877164
O O7 0.000000 0.242902 0.866674
O O8 0.245269 0.589309 0.916474
O O9 0.254734 0.450979 0.897966
O O10 0.000000 0.517115 0.905708
O O11 0.163403 0.500000 0.000000
O O12 0.500000 0.928159 0.954610
O O13 0.711551 0.956202 0.879847
O O14 0.708742 0.000000 0.000000
O O15 0.750000 0.046460 0.250000
O O16 0.000000 0.045580 0.303933
O O17 0.833390 0.937620 0.310742
O O18 0.750000 0.828654 0.250000
O O19 0.000000 0.830310 0.309345
O O20 0.164201 0.639227 0.481421
O O21 0.000000 0.655511 0.575515
O O22 0.000000 0.620615 0.387480
#
# Coordination Sequence:
#
# PCOD9415160 Si02
#       8
#     8   8   8   8   8   8   8   8
#     4  10  20  31  44  65  92 121 153 191 235 280
#     4  10  19  30  43  62  90 121 153 189 230 275
#     4   9  15  23  36  55  81 112 146 184 223 264
#     4  10  20  34  51  71  96 126 161 199 241 292
#     4   9  19  34  52  72  94 123 158 198 242 288
#     4  10  19  32  49  67  87 114 150 190 232 277
#     4   9  16  26  40  57  81 115 151 185 222 269
#     4   9  16  25  38  57  81 113 151 185 220 265
#
# _framework density 16.645982
#
# number of rings (size 3 to 8) (size 9 to 14) (size 15 to 20)
#    0.000    2.500    0.000    3.000    0.000    8.250 
#    0.000    0.000    0.000    0.000    0.000    0.000 
#    0.000    1.000    0.000    8.500    0.000    8.875 
#
# Total GULP energy -356456.729997 kJ/mol
# GULP energy per Si atom -5569.636406 kJ/mol
# Density = 1.660810 g / cm^3
# Si number density = 16.645982 Si / 1000 Ang^3
#
#
#
# Elastic Constant Matrix: (Units=GPa)
#
#
# Indices 1 2 3 4 5 6 
#
# 1 142.0027 64.5246 24.9633 0.0000 0.0000 0.0000
# 2 64.5246 96.7465 15.7841 0.0000 0.0000 0.0000
# 3 24.9633 15.7841 35.5208 0.0000 0.0000 0.0000
# 4 0.0000 0.0000 0.0000 3.6458 0.0000 0.0000
# 5 0.0000 0.0000 0.0000 0.0000 17.7397 0.0000
# 6 0.0000 0.0000 0.0000 0.0000 0.0000 18.8142
#
#
#
# Elastic Compliance Matrix: (Units=1/GPa)
#
#
# Indices 1 2 3 4 5 6 
#
# 1 0.010794 -0.006427 -0.004730 0.000000 0.000000 0.000000
# 2 -0.006427 0.014971 -0.002136 0.000000 0.000000 0.000000
# 3 -0.004730 -0.002136 0.032426 0.000000 0.000000 0.000000
# 4 0.000000 0.000000 0.000000 0.274289 0.000000 0.000000
# 5 0.000000 0.000000 0.000000 0.000000 0.056371 0.000000
# 6 0.000000 0.000000 0.000000 0.000000 0.000000 0.053151
#
#
# Mechanical properties :
#
#
# Convention : Reuss Voigt Hill
#
# Bulk Modulus (GPa) = 31.64023 53.86820 42.75421
# Shear Modulus (GPa) = 10.43572 19.30647 14.87109
#
# Velocity S-wave (km/s) = 2.50656 3.40932 2.99218
# Velocity P-wave (km/s) = 5.23699 6.92310 6.13821
#
# Compressibility (1/GPa) = 0.03160534
#
# Stress axis : x y z
#
# Youngs Moduli (GPa) = 92.64275 66.79367 30.83989
#
# Poissons Ratio (x) = 0.42931 0.14587
# Poissons Ratio (y) = 0.59546 0.06586
# Poissons Ratio (z) = 0.43818 0.14265
#
# Static dielectric constant tensor:
#      x y z
#    x 1.577290 0.000000 0.000000 
#    y 0.000000 1.550100 0.000000 
#    z 0.000000 0.000000 1.615520 
# 
# From -- ./inp_files/31184.got.cif
#   From: 2010.05.17/outbox.cif.g08.bks.cpg/sg53_16_cif.got.tgz:31184.got - 2010.06.03 12:45:16.
