data_PCOD9415180
_publ_section_title
;
Structure prediction by ZEFSAII (Michael W. Deem and Ramdas Pophale) SiO2 
 PCOD9415180
Probable space group: P M N A
;
_chemical_formula_sum "Si O2"
_cell_formula_units_Z 48
_cell_length_a 34.997619
_cell_length_b 16.719084
_cell_length_c 5.047059
_cell_angle_alpha 90.000000
_cell_angle_beta 90.000000
_cell_angle_gamma 90.000000
_cell_volume 2953.176204
_symmetry_space_group_name_H-M "P M N A"
_symmetry_group_IT_number 53
_symmetry_cell_setting 'orthorhombic'
loop_
_space_group_symop_operation_xyz
x,y,z
1/2-x,-y,1/2+z
x,-y,-z
1/2-x,y,1/2-z
-x,-y,-z
1/2+x,y,1/2-z
-x,y,z
1/2+x,-y,1/2+z
loop_
_atom_site_type_symbol
_atom_site_label
_atom_site_fract_x
_atom_site_fract_y
_atom_site_fract_z
Si Si1 0.643813 0.335503 0.389834
Si Si2 0.420334 0.213786 0.449723
Si Si3 0.544687 0.709297 0.051382
Si Si4 0.543465 0.943629 0.753658
Si Si5 0.391368 0.411754 0.885696
Si Si6 0.777477 0.407849 0.000849
O O1 0.622215 0.251277 0.440193
O O2 0.623156 0.397994 0.588801
O O3 0.687913 0.346153 0.464678
O O4 0.635258 0.360267 0.087192
O O5 0.436844 0.226108 0.744938
O O6 0.427704 0.126502 0.329485
O O7 0.445137 0.268439 0.249665
O O8 0.500000 0.705537 0.094388
O O9 0.566756 0.627035 0.105917
O O10 0.500000 0.911114 0.807712
O O11 0.540683 0.000000 0.500000
O O12 0.554307 0.000000 0.000000
O O13 0.390504 0.500000 0.000000
O O14 0.750000 0.402174 0.250000
O O15 0.792883 0.500000 0.000000
O O16 0.750000 0.396390 0.750000
#
# Coordination Sequence:
#
# PCOD9415180 Si02
#       6
#     8   8   8   8   8   8
#     4  10  20  33  48  66  91 123 155 188 231 283
#     4  10  20  33  48  66  91 123 155 188 231 283
#     4  10  19  30  45  63  86 120 158 195 231 266
#     4  10  19  30  47  70  94 120 151 190 232 274
#     4  10  19  30  45  63  86 120 158 195 231 266
#     4  10  19  30  47  70  94 120 151 190 232 274
#
# _framework density 16.253688
#
# number of rings (size 3 to 8) (size 9 to 14) (size 15 to 20)
#    0.000    2.000    0.000    5.000    0.000    3.000 
#    0.000    0.000    0.000    6.000    0.000    0.000 
#    0.000    2.667    0.000    0.000    0.000    0.000 
#
# Total GULP energy -267608.858913 kJ/mol
# GULP energy per Si atom -5575.184561 kJ/mol
# Density = 1.621669 g / cm^3
# Si number density = 16.253688 Si / 1000 Ang^3
#
#
#
# Elastic Constant Matrix: (Units=GPa)
#
#
# Indices 1 2 3 4 5 6 
#
# 1 100.3543 38.7489 13.0495 0.0000 0.0000 0.0000
# 2 38.7489 69.4943 5.0370 0.0000 0.0000 0.0000
# 3 13.0495 5.0370 80.4075 0.0000 0.0000 0.0000
# 4 0.0000 0.0000 0.0000 23.0324 0.0000 0.0000
# 5 0.0000 0.0000 0.0000 0.0000 6.0508 0.0000
# 6 0.0000 0.0000 0.0000 0.0000 0.0000 27.7649
#
#
#
# Elastic Compliance Matrix: (Units=1/GPa)
#
#
# Indices 1 2 3 4 5 6 
#
# 1 0.012914 -0.007081 -0.001652 0.000000 0.000000 0.000000
# 2 -0.007081 0.018338 0.000000 0.000000 0.000000 0.000000
# 3 -0.001652 0.000000 0.012705 0.000000 0.000000 0.000000
# 4 0.000000 0.000000 0.000000 0.043417 0.000000 0.000000
# 5 0.000000 0.000000 0.000000 0.000000 0.165267 0.000000
# 6 0.000000 0.000000 0.000000 0.000000 0.000000 0.036017
#
#
# Mechanical properties :
#
#
# Convention : Reuss Voigt Hill
#
# Bulk Modulus (GPa) = 37.74851 40.43631 39.09241
# Shear Modulus (GPa) = 15.87542 24.26434 20.06988
#
# Velocity S-wave (km/s) = 3.12865 3.86793 3.51777
# Velocity P-wave (km/s) = 6.02713 6.69926 6.37207
#
# Compressibility (1/GPa) = 0.02649111
#
# Stress axis : x y z
#
# Youngs Moduli (GPa) = 77.43827 54.53251 78.71062
#
# Poissons Ratio (x) = 0.38612 0.13005
# Poissons Ratio (y) = 0.54831 -0.00003
# Poissons Ratio (z) = 0.12794 -0.00002
#
# Static dielectric constant tensor:
#      x y z
#    x 1.536990 0.000000 0.000000 
#    y 0.000000 2.544530 0.000000 
#    z 0.000000 0.000000 -5.636650 
# 
# From -- ./inp_files/5284.got.cif
#   From: 2010.05.17/outbox.cif.g08.bks.cpg/sg53_3_cif.got.tgz:5284.got - 2010.06.03 12:45:16.
