data_PCOD9415333
_publ_section_title
;
Structure prediction by ZEFSAII (Michael W. Deem and Ramdas Pophale) SiO2 
 PCOD9415333
Probable space group: P M N A
;
_chemical_formula_sum "Si O2"
_cell_formula_units_Z 64
_cell_length_a 17.450800
_cell_length_b 16.559487
_cell_length_c 13.772611
_cell_angle_alpha 90.000000
_cell_angle_beta 90.000000
_cell_angle_gamma 90.000000
_cell_volume 3979.958109
_symmetry_space_group_name_H-M "P M N A"
_symmetry_group_IT_number 53
_symmetry_cell_setting 'orthorhombic'
loop_
_space_group_symop_operation_xyz
x,y,z
1/2-x,-y,1/2+z
x,-y,-z
1/2-x,y,1/2-z
-x,-y,-z
1/2+x,y,1/2-z
-x,y,z
1/2+x,-y,1/2+z
loop_
_atom_site_type_symbol
_atom_site_label
_atom_site_fract_x
_atom_site_fract_y
_atom_site_fract_z
Si Si1 0.338010 0.923089 0.929924
Si Si2 0.408767 0.845268 0.359578
Si Si3 0.336076 0.910308 0.546997
Si Si4 0.091587 0.232478 0.517305
Si Si5 0.090528 0.552602 0.349044
Si Si6 0.590779 0.019025 0.269435
Si Si7 0.160933 0.286784 0.721511
Si Si8 0.589905 0.390067 0.074294
O O1 0.251114 0.890633 0.926588
O O2 0.365236 0.952241 0.825295
O O3 0.392083 0.855220 0.975651
O O4 0.338964 0.000000 0.000000
O O5 0.500000 0.847651 0.372028
O O6 0.369071 0.852259 0.464342
O O7 0.384004 0.766812 0.300137
O O8 0.387206 0.927192 0.300116
O O9 0.387710 0.921856 0.641900
O O10 0.336077 0.000000 0.500000
O O11 0.138342 0.248651 0.616468
O O12 0.117016 0.298278 0.435899
O O13 0.000000 0.243685 0.536915
O O14 0.133855 0.619906 0.286585
O O15 0.121558 0.460477 0.355935
O O16 0.094795 0.581119 0.461806
O O17 0.000000 0.553063 0.323248
O O18 0.500000 0.019725 0.252243
O O19 0.250000 0.282025 0.750000
O O20 0.500000 0.387025 0.098942
#
# Coordination Sequence:
#
# PCOD9415333 Si02
#       8
#     8   8   8   8   8   8   8   8
#     4  11  21  31  46  70 100 129 157 198 253 297
#     4  10  19  32  49  67  89 122 165 202 233 278
#     4   9  19  34  49  64  87 123 164 203 242 284
#     4  10  19  31  46  68  99 132 164 196 236 289
#     4   8  13  25  44  65  87 114 147 180 221 272
#     4  10  20  33  49  66  87 121 164 205 239 279
#     4  11  20  28  42  68 101 129 151 186 240 294
#     4   7  12  24  44  65  85 113 147 181 219 271
#
# _framework density 16.080572
#
# number of rings (size 3 to 8) (size 9 to 14) (size 15 to 20)
#    0.000    2.500    0.000    5.250    0.000    5.500 
#    0.000    0.000    0.000    1.500    0.000    0.000 
#    0.000    0.000    0.000   75.125    0.000    0.000 
#
# Total GULP energy -356352.966670 kJ/mol
# GULP energy per Si atom -5568.015104 kJ/mol
# Density = 1.604397 g / cm^3
# Si number density = 16.080572 Si / 1000 Ang^3
#
#
#
# Elastic Constant Matrix: (Units=GPa)
#
#
# Indices 1 2 3 4 5 6 
#
# 1 72.1698 28.8867 39.7308 0.0000 0.0000 0.0000
# 2 28.8867 90.2367 38.8233 0.0000 0.0000 0.0000
# 3 39.7308 38.8233 86.0072 0.0000 0.0000 0.0000
# 4 0.0000 0.0000 0.0000 30.3231 0.0000 0.0000
# 5 0.0000 0.0000 0.0000 0.0000 19.8947 0.0000
# 6 0.0000 0.0000 0.0000 0.0000 0.0000 10.3841
#
#
#
# Elastic Compliance Matrix: (Units=1/GPa)
#
#
# Indices 1 2 3 4 5 6 
#
# 1 0.019169 -0.002887 -0.007552 0.000000 0.000000 0.000000
# 2 -0.002887 0.014188 -0.005070 0.000000 0.000000 0.000000
# 3 -0.007552 -0.005070 0.017404 0.000000 0.000000 0.000000
# 4 0.000000 0.000000 0.000000 0.032978 0.000000 0.000000
# 5 0.000000 0.000000 0.000000 0.000000 0.050265 0.000000
# 6 0.000000 0.000000 0.000000 0.000000 0.000000 0.096301
#
#
# Mechanical properties :
#
#
# Convention : Reuss Voigt Hill
#
# Bulk Modulus (GPa) = 50.65362 51.47726 51.06544
# Shear Modulus (GPa) = 18.66329 21.51857 20.09093
#
# Velocity S-wave (km/s) = 3.41047 3.66207 3.53851
# Velocity P-wave (km/s) = 6.86124 7.06842 6.96560
#
# Compressibility (1/GPa) = 0.01974193
#
# Stress axis : x y z
#
# Youngs Moduli (GPa) = 52.16654 70.48309 57.45709
#
# Poissons Ratio (x) = 0.20352 0.43391
# Poissons Ratio (y) = 0.15063 0.29133
# Poissons Ratio (z) = 0.39395 0.35738
#
# Static dielectric constant tensor:
#      x y z
#    x 1.540120 0.000000 0.000000 
#    y 0.000000 1.584340 0.000000 
#    z 0.000000 0.000000 1.524300 
# 
# From -- ./inp_files/17115.got.cif
#   From: 2010.05.17/outbox.cif.g08.bks.cpg/sg53_9_cif.got.tgz:17115.got - 2010.06.03 12:45:16.
