data_PCOD9415478
_publ_section_title
;
Structure prediction by ZEFSAII (Michael W. Deem and Ramdas Pophale) SiO2 
 PCOD9415478
Probable space group: P M N A
;
_chemical_formula_sum "Si O2"
_cell_formula_units_Z 56
_cell_length_a 7.545172
_cell_length_b 14.955006
_cell_length_c 21.129593
_cell_angle_alpha 90.000000
_cell_angle_beta 90.000000
_cell_angle_gamma 90.000000
_cell_volume 2384.222970
_symmetry_space_group_name_H-M "P M N A"
_symmetry_group_IT_number 53
_symmetry_cell_setting 'orthorhombic'
loop_
_space_group_symop_operation_xyz
x,y,z
1/2-x,-y,1/2+z
x,-y,-z
1/2-x,y,1/2-z
-x,-y,-z
1/2+x,y,1/2-z
-x,y,z
1/2+x,-y,1/2+z
loop_
_atom_site_type_symbol
_atom_site_label
_atom_site_fract_x
_atom_site_fract_y
_atom_site_fract_z
Si Si1 0.210211 0.968004 0.684247
Si Si2 0.284998 0.896901 0.012249
Si Si3 0.700095 0.623024 0.675290
Si Si4 0.296094 0.481901 0.928671
Si Si5 0.285315 0.196535 0.107124
Si Si6 0.786641 0.353908 0.680116
Si Si7 0.715226 0.157149 0.845443
O O1 0.250000 0.921589 0.750000
O O2 0.287430 0.066954 0.686030
O O3 0.000000 0.976696 0.674618
O O4 0.273549 0.900688 0.631841
O O5 0.500000 0.902594 0.006646
O O6 0.243907 0.863159 0.081857
O O7 0.232078 0.816034 0.965451
O O8 0.223352 0.000000 0.000000
O O9 0.750000 0.618268 0.750000
O O10 0.500000 0.590242 0.672113
O O11 0.797481 0.565914 0.620308
O O12 0.712045 0.724339 0.649663
O O13 0.500000 0.454979 0.941097
O O14 0.217978 0.406039 0.881824
O O15 0.221329 0.500000 0.000000
O O16 0.500000 0.203762 0.111870
O O17 0.750000 0.393662 0.750000
O O18 0.718277 0.252085 0.678329
O O19 0.000000 0.353558 0.674830
O O20 0.500000 0.160254 0.838606
#
# Coordination Sequence:
#
# PCOD9415478 Si02
#       7
#     8   8   8   8   8   8   8
#     4  10  19  31  49  77 112 150 193 238 286 344
#     4   9  15  28  53  84 115 152 199 248 296 350
#     4  12  26  44  66  91 123 163 207 257 313 371
#     4  10  23  43  68  98 125 153 196 249 307 373
#     4  10  20  34  58  88 118 155 201 251 301 357
#     4  10  21  37  60  89 120 155 194 240 293 352
#     4   9  17  30  51  82 115 148 193 240 285 344
#
# _framework density 23.487736999999999
#
# number of rings (size 3 to 8) (size 9 to 14) (size 15 to 20)
#    0.000    2.000    1.429    2.571    2.000    3.714 
#    0.000    0.000    0.000    1.286    0.000    0.000 
#    0.000    0.000    0.000    0.000    0.000    0.000 
#
# Total GULP energy -312184.692809 kJ/mol
# GULP energy per Si atom -5574.726657 kJ/mol
# Density = 2.343428 g / cm^3
# Si number density = 23.487737 Si / 1000 Ang^3
#
#
#
# Elastic Constant Matrix: (Units=GPa)
#
#
# Indices 1 2 3 4 5 6 
#
# 1 60.4052 -5.1494 -1.2168 0.0000 0.0000 0.0000
# 2 -5.1494 98.9061 30.4517 0.0000 0.0000 0.0000
# 3 -1.2168 30.4517 148.2105 0.0000 0.0000 0.0000
# 4 0.0000 0.0000 0.0000 29.8862 0.0000 0.0000
# 5 0.0000 0.0000 0.0000 0.0000 11.9941 0.0000
# 6 0.0000 0.0000 0.0000 0.0000 0.0000 50.2091
#
#
#
# Elastic Compliance Matrix: (Units=1/GPa)
#
#
# Indices 1 2 3 4 5 6 
#
# 1 0.016629 0.000879 -0.000044 0.000000 0.000000 0.000000
# 2 0.000879 0.010840 -0.002220 0.000000 0.000000 0.000000
# 3 -0.000044 -0.002220 0.007203 0.000000 0.000000 0.000000
# 4 0.000000 0.000000 0.000000 0.033460 0.000000 0.000000
# 5 0.000000 0.000000 0.000000 0.000000 0.083374 0.000000
# 6 0.000000 0.000000 0.000000 0.000000 0.000000 0.019917
#
#
# Mechanical properties :
#
#
# Convention : Reuss Voigt Hill
#
# Bulk Modulus (GPa) = 31.34578 39.52141 35.43359
# Shear Modulus (GPa) = 27.05236 37.31363 32.18299
#
# Velocity S-wave (km/s) = 3.39745 3.99010 3.70564
# Velocity P-wave (km/s) = 5.36328 6.17178 5.78168
#
# Compressibility (1/GPa) = 0.03190223
#
# Stress axis : x y z
#
# Youngs Moduli (GPa) = 60.13609 92.25197 138.83264
#
# Poissons Ratio (x) = -0.08112 0.00613
# Poissons Ratio (y) = -0.05288 0.30820
# Poissons Ratio (z) = 0.00265 0.20480
#
# Static dielectric constant tensor:
#      x y z
#    x 1.902720 0.000000 0.000000 
#    y 0.000000 1.904680 0.000000 
#    z 0.000000 0.000000 1.926760 
# 
# From -- ./inp_files/30814.got.cif
#   From: 2010.05.17/outbox.cif.g08.bks.cpg/sg53_16_cif.got.tgz:30814.got - 2010.06.03 12:45:16.
