data_PCOD9415398
_publ_section_title
;
Structure prediction by ZEFSAII (Michael W. Deem and Ramdas Pophale) SiO2 
 PCOD9415398
Probable space group: P M N A
;
_chemical_formula_sum "Si O2"
_cell_formula_units_Z 64
_cell_length_a 9.177371
_cell_length_b 21.994068
_cell_length_c 19.327447
_cell_angle_alpha 90.000000
_cell_angle_beta 90.000000
_cell_angle_gamma 90.000000
_cell_volume 3901.201146
_symmetry_space_group_name_H-M "P M N A"
_symmetry_group_IT_number 53
_symmetry_cell_setting 'orthorhombic'
loop_
_space_group_symop_operation_xyz
x,y,z
1/2-x,-y,1/2+z
x,-y,-z
1/2-x,y,1/2-z
-x,-y,-z
1/2+x,y,1/2-z
-x,y,z
1/2+x,-y,1/2+z
loop_
_atom_site_type_symbol
_atom_site_label
_atom_site_fract_x
_atom_site_fract_y
_atom_site_fract_z
Si Si1 0.174572 0.802474 0.057616
Si Si2 0.674729 0.566254 0.527870
Si Si3 0.673701 0.607250 0.682311
Si Si4 0.324506 0.896716 0.323764
Si Si5 0.325367 0.964927 0.676504
Si Si6 0.674333 0.155668 0.401806
Si Si7 0.165743 0.315658 0.519360
Si Si8 0.833688 0.727811 0.640836
O O1 0.219301 0.848032 0.118500
O O2 0.251408 0.737100 0.060694
O O3 0.000000 0.794045 0.060666
O O4 0.206708 0.832425 0.982646
O O5 0.715895 0.500000 0.500000
O O6 0.500000 0.573310 0.521312
O O7 0.709525 0.574529 0.609476
O O8 0.751675 0.620361 0.485942
O O9 0.750000 0.579779 0.750000
O O10 0.500000 0.608083 0.690487
O O11 0.736148 0.675550 0.674608
O O12 0.250000 0.885312 0.250000
O O13 0.500000 0.893693 0.316316
O O14 0.287407 0.966158 0.345276
O O15 0.250000 0.953264 0.750000
O O16 0.500000 0.963041 0.685592
O O17 0.286602 0.911823 0.623056
O O18 0.500000 0.164325 0.392849
O O19 0.759494 0.206344 0.357633
O O20 0.162093 0.291059 0.440203
O O21 0.000000 0.323229 0.543105
O O22 0.000000 0.727833 0.667040
#
# Coordination Sequence:
#
# PCOD9415398 Si02
#       8
#     8   8   8   8   8   8   8   8
#     4   9  17  30  49  70  92 120 154 194 238 282
#     4   9  18  33  53  75  99 130 164 194 229 276
#     4  10  19  31  48  70  97 127 160 197 233 272
#     4   9  18  32  49  68  89 117 154 196 244 294
#     4   9  18  31  45  62  87 119 154 193 237 286
#     4   9  17  29  45  66  92 122 156 193 234 280
#     4   9  17  29  47  72  98 121 149 188 230 271
#     4   9  17  29  44  64  92 123 154 188 227 272
#
# _framework density 16.405201999999999
#
# number of rings (size 3 to 8) (size 9 to 14) (size 15 to 20)
#    0.000    2.875    0.000    1.125    0.000    5.750 
#    0.000    3.750    0.000    0.750    0.000    8.750 
#    0.000    0.000    0.000    0.000    0.000    0.000 
#
# Total GULP energy -356599.643765 kJ/mol
# GULP energy per Si atom -5571.869434 kJ/mol
# Density = 1.636786 g / cm^3
# Si number density = 16.405202 Si / 1000 Ang^3
#
#
#
# Elastic Constant Matrix: (Units=GPa)
#
#
# Indices 1 2 3 4 5 6 
#
# 1 45.7353 56.5791 39.1352 0.0000 0.0000 0.0000
# 2 56.5791 153.5548 73.2690 0.0000 0.0000 0.0000
# 3 39.1352 73.2690 69.5728 0.0000 0.0000 0.0000
# 4 0.0000 0.0000 0.0000 16.4628 0.0000 0.0000
# 5 0.0000 0.0000 0.0000 0.0000 22.2378 0.0000
# 6 0.0000 0.0000 0.0000 0.0000 0.0000 18.3429
#
#
#
# Elastic Compliance Matrix: (Units=1/GPa)
#
#
# Indices 1 2 3 4 5 6 
#
# 1 0.048470 -0.009749 -0.016998 0.000000 0.000000 0.000000
# 2 -0.009749 0.015051 -0.010367 0.000000 0.000000 0.000000
# 3 -0.016998 -0.010367 0.034853 0.000000 0.000000 0.000000
# 4 0.000000 0.000000 0.000000 0.060743 0.000000 0.000000
# 5 0.000000 0.000000 0.000000 0.000000 0.044969 0.000000
# 6 0.000000 0.000000 0.000000 0.000000 0.000000 0.054517
#
#
# Mechanical properties :
#
#
# Convention : Reuss Voigt Hill
#
# Bulk Modulus (GPa) = 41.41418 67.42548 54.41983
# Shear Modulus (GPa) = 14.66799 18.06734 16.36766
#
# Velocity S-wave (km/s) = 2.99340 3.32221 3.16208
# Velocity P-wave (km/s) = 6.10300 7.47699 6.82466
#
# Compressibility (1/GPa) = 0.02414632
#
# Stress axis : x y z
#
# Youngs Moduli (GPa) = 20.63121 66.44124 28.69231
#
# Poissons Ratio (x) = 0.64772 0.48772
# Poissons Ratio (y) = 0.20113 0.29745
# Poissons Ratio (z) = 0.35069 0.68878
#
# Static dielectric constant tensor:
#      x y z
#    x 1.554140 0.000000 0.000000 
#    y 0.000000 1.538580 0.000000 
#    z 0.000000 0.000000 1.549510 
# 
# From -- ./inp_files/27037.got.cif
#   From: 2010.05.17/outbox.cif.g08.bks.cpg/sg53_14_cif.got.tgz:27037.got - 2010.06.03 12:45:16.
