data_PCOD9415903
_publ_section_title
;
Structure prediction by ZEFSAII (Michael W. Deem and Ramdas Pophale) SiO2 
 PCOD9415903
Probable space group: P M N A
;
_chemical_formula_sum "Si O2"
_cell_formula_units_Z 64
_cell_length_a 19.407495
_cell_length_b 9.150485
_cell_length_c 20.158877
_cell_angle_alpha 90.000000
_cell_angle_beta 90.000000
_cell_angle_gamma 90.000000
_cell_volume 3579.974485
_symmetry_space_group_name_H-M "P M N A"
_symmetry_group_IT_number 53
_symmetry_cell_setting 'orthorhombic'
loop_
_space_group_symop_operation_xyz
x,y,z
1/2-x,-y,1/2+z
x,-y,-z
1/2-x,y,1/2-z
-x,-y,-z
1/2+x,y,1/2-z
-x,y,z
1/2+x,-y,1/2+z
loop_
_atom_site_type_symbol
_atom_site_label
_atom_site_fract_x
_atom_site_fract_y
_atom_site_fract_z
Si Si1 0.201402 0.934893 0.927770
Si Si2 0.296544 0.585001 0.183213
Si Si3 0.289923 0.759071 0.821393
Si Si4 0.918799 0.748747 0.254874
Si Si5 0.580323 0.242595 0.381530
Si Si6 0.676357 0.245597 0.626650
Si Si7 0.575974 0.556956 0.426125
Si Si8 0.921761 0.900224 0.735332
O O1 0.251777 0.832597 0.884038
O O2 0.130112 0.845224 0.930120
O O3 0.188047 0.076130 0.882253
O O4 0.221954 0.000000 0.000000
O O5 0.250000 0.599519 0.250000
O O6 0.298673 0.413911 0.168055
O O7 0.371230 0.657924 0.193973
O O8 0.249510 0.675871 0.132891
O O9 0.250000 0.780042 0.750000
O O10 0.363699 0.832901 0.810782
O O11 0.877049 0.723385 0.186691
O O12 0.000000 0.708148 0.254077
O O13 0.915204 0.924027 0.264584
O O14 0.500000 0.232232 0.400699
O O15 0.597451 0.415716 0.381951
O O16 0.588044 0.169710 0.308882
O O17 0.633074 0.319778 0.569237
O O18 0.568945 0.500000 0.500000
O O19 0.500000 0.608244 0.403881
O O20 0.000000 0.864146 0.715386
#
# Coordination Sequence:
#
# PCOD9415903 Si02
#       8
#     8   8   8   8   8   8   8   8
#     4  12  24  36  57  84 114 155 199 239 286 345
#     4   9  21  33  53  81 107 145 187 236 287 338
#     4  11  20  38  58  79 112 148 190 241 291 341
#     4  10  19  33  52  80 110 139 180 227 281 338
#     4  10  20  35  52  77 113 154 199 235 279 338
#     4  11  20  34  51  74 109 147 185 230 283 327
#     4  10  21  34  48  70 107 154 197 233 270 324
#     4  10  20  34  57  84 110 146 187 235 290 343
#
# _framework density 17.877220999999999
#
# number of rings (size 3 to 8) (size 9 to 14) (size 15 to 20)
#    0.000    1.625    2.500    2.625    3.500    2.250 
#    0.000    0.000    0.000    0.375    0.000    0.000 
#    0.000    4.500    0.000    0.000    0.000    0.000 
#
# Total GULP energy -356761.236110 kJ/mol
# GULP energy per Si atom -5574.394314 kJ/mol
# Density = 1.783653 g / cm^3
# Si number density = 17.877221 Si / 1000 Ang^3
#
#
#
# Elastic Constant Matrix: (Units=GPa)
#
#
# Indices 1 2 3 4 5 6 
#
# 1 124.4835 56.2628 34.2091 0.0000 0.0000 0.0000
# 2 56.2628 85.6186 21.1876 0.0000 0.0000 0.0000
# 3 34.2091 21.1876 40.2465 0.0000 0.0000 0.0000
# 4 0.0000 0.0000 0.0000 25.1032 0.0000 0.0000
# 5 0.0000 0.0000 0.0000 0.0000 -20.5709 0.0000
# 6 0.0000 0.0000 0.0000 0.0000 0.0000 37.2190
#
#
#
# Elastic Compliance Matrix: (Units=1/GPa)
#
#
# Indices 1 2 3 4 5 6 
#
# 1 0.013201 -0.006781 -0.007650 0.000000 0.000000 0.000000
# 2 -0.006781 0.016913 -0.003140 0.000000 0.000000 0.000000
# 3 -0.007650 -0.003140 0.033002 0.000000 0.000000 0.000000
# 4 0.000000 0.000000 0.000000 0.039836 0.000000 0.000000
# 5 0.000000 0.000000 0.000000 0.000000 -0.048612 0.000000
# 6 0.000000 0.000000 0.000000 0.000000 0.000000 0.026868
#
#
# Mechanical properties :
#
#
# Convention : Reuss Voigt Hill
#
# Bulk Modulus (GPa) = 35.74840 52.62972 44.18906
# Shear Modulus (GPa) = 39.78542 17.59619 28.69081
#
# Velocity S-wave (km/s) = 4.72262 3.14073 4.01044
# Velocity P-wave (km/s) = 7.05532 6.53113 6.79828
#
# Compressibility (1/GPa) = 0.02797328
#
# Stress axis : x y z
#
# Youngs Moduli (GPa) = 75.75466 59.12660 30.30074
#
# Poissons Ratio (x) = 0.40095 0.23181
# Poissons Ratio (y) = 0.51371 0.09513
# Poissons Ratio (z) = 0.57955 0.18564
#
# Static dielectric constant tensor:
#      x y z
#    x 1.616810 0.000000 0.000000 
#    y 0.000000 1.633480 0.000000 
#    z 0.000000 0.000000 1.668080 
# 
# From -- ./inp_files/32845.got.cif
#   From: 2010.05.17/outbox.cif.g08.bks.cpg/sg53_17_cif.got.tgz:32845.got - 2010.06.03 12:45:16.
