data_PCOD9415923
_publ_section_title
;
Structure prediction by ZEFSAII (Michael W. Deem and Ramdas Pophale) SiO2 
 PCOD9415923
Probable space group: P M N A
;
_chemical_formula_sum "Si O2"
_cell_formula_units_Z 64
_cell_length_a 9.498745
_cell_length_b 15.014029
_cell_length_c 23.086253
_cell_angle_alpha 90.000000
_cell_angle_beta 90.000000
_cell_angle_gamma 90.000000
_cell_volume 3292.432879
_symmetry_space_group_name_H-M "P M N A"
_symmetry_group_IT_number 53
_symmetry_cell_setting 'orthorhombic'
loop_
_space_group_symop_operation_xyz
x,y,z
1/2-x,-y,1/2+z
x,-y,-z
1/2-x,y,1/2-z
-x,-y,-z
1/2+x,y,1/2-z
-x,y,z
1/2+x,-y,1/2+z
loop_
_atom_site_type_symbol
_atom_site_label
_atom_site_fract_x
_atom_site_fract_y
_atom_site_fract_z
Si Si1 0.833370 0.010583 0.808648
Si Si2 0.330809 0.434280 0.054197
Si Si3 0.665557 0.200593 0.306583
Si Si4 0.164757 0.698789 0.305065
Si Si5 0.834685 0.143124 0.611760
Si Si6 0.336671 0.732402 0.573529
Si Si7 0.169312 0.511970 0.689119
Si Si8 0.341634 0.894365 0.492539
O O1 0.750000 0.032407 0.750000
O O2 0.815497 0.904849 0.818395
O O3 0.000000 0.028934 0.803986
O O4 0.759682 0.068131 0.857717
O O5 0.500000 0.428838 0.053717
O O6 0.258672 0.339343 0.041896
O O7 0.292179 0.457565 0.122400
O O8 0.292121 0.500000 0.000000
O O9 0.750000 0.224335 0.250000
O O10 0.500000 0.214644 0.297945
O O11 0.713102 0.258051 0.360694
O O12 0.250000 0.732204 0.250000
O O13 0.195316 0.761857 0.359087
O O14 0.194445 0.594879 0.314087
O O15 0.000000 0.707107 0.292201
O O16 0.782583 0.141996 0.546708
O O17 0.000000 0.123671 0.618099
O O18 0.500000 0.703069 0.572009
O O19 0.336135 0.832774 0.548947
O O20 0.250000 0.540878 0.750000
O O21 0.000000 0.527961 0.696503
O O22 0.500000 0.880646 0.467363
O O23 0.325809 0.000000 0.500000
#
# Coordination Sequence:
#
# PCOD9415923 Si02
#       8
#     8   8   8   8   8   8   8   8
#     4  10  19  33  53  78 113 154 195 241 293 349
#     4  10  23  41  64  89 119 160 201 245 303 363
#     4   9  19  36  58  83 112 149 188 232 286 345
#     4   9  19  34  53  79 112 147 186 235 287 346
#     4  11  22  33  52  81 111 148 195 246 296 350
#     4  10  22  40  61  87 117 150 192 241 291 348
#     4   9  19  38  61  86 116 155 198 241 296 357
#     4  10  22  41  61  81 112 156 199 240 294 356
#
# _framework density 19.438514000000001
#
# number of rings (size 3 to 8) (size 9 to 14) (size 15 to 20)
#    0.000    2.250    0.000    1.875    1.750    7.000 
#    0.000    3.750    0.000    0.000    0.000    0.000 
#    0.000    0.000    0.000    0.000    0.000    0.000 
#
# Total GULP energy -356697.348340 kJ/mol
# GULP energy per Si atom -5573.396068 kJ/mol
# Density = 1.939427 g / cm^3
# Si number density = 19.438514 Si / 1000 Ang^3
#
#
#
# Elastic Constant Matrix: (Units=GPa)
#
#
# Indices 1 2 3 4 5 6 
#
# 1 31.0485 35.1475 30.8866 0.0000 0.0000 0.0000
# 2 35.1475 77.1764 35.8043 0.0000 0.0000 0.0000
# 3 30.8866 35.8043 88.2235 0.0000 0.0000 0.0000
# 4 0.0000 0.0000 0.0000 15.6441 0.0000 0.0000
# 5 0.0000 0.0000 0.0000 0.0000 29.8139 0.0000
# 6 0.0000 0.0000 0.0000 0.0000 0.0000 20.3652
#
#
#
# Elastic Compliance Matrix: (Units=1/GPa)
#
#
# Indices 1 2 3 4 5 6 
#
# 1 0.082829 -0.029898 -0.016864 0.000000 0.000000 0.000000
# 2 -0.029898 0.026755 -0.000391 0.000000 0.000000 0.000000
# 3 -0.016864 -0.000391 0.017398 0.000000 0.000000 0.000000
# 4 0.000000 0.000000 0.000000 0.063922 0.000000 0.000000
# 5 0.000000 0.000000 0.000000 0.000000 0.033541 0.000000
# 6 0.000000 0.000000 0.000000 0.000000 0.000000 0.049103
#
#
# Mechanical properties :
#
#
# Convention : Reuss Voigt Hill
#
# Bulk Modulus (GPa) = 30.60445 44.45834 37.53139
# Shear Modulus (GPa) = 13.20145 19.47198 16.33672
#
# Velocity S-wave (km/s) = 2.60886 3.16843 2.90216
# Velocity P-wave (km/s) = 4.98530 6.02546 5.52989
#
# Compressibility (1/GPa) = 0.03267499
#
# Stress axis : x y z
#
# Youngs Moduli (GPa) = 12.07305 37.37652 57.47918
#
# Poissons Ratio (x) = 1.11748 0.96935
# Poissons Ratio (y) = 0.36096 0.02247
# Poissons Ratio (z) = 0.20360 0.01461
#
# Static dielectric constant tensor:
#      x y z
#    x 1.650640 0.000000 0.000000 
#    y 0.000000 1.686710 0.000000 
#    z 0.000000 0.000000 2.073610 
# 
# From -- ./inp_files/34278.got.cif
#   From: 2010.05.17/outbox.cif.g08.bks.cpg/sg53_18_cif.got.tgz:34278.got - 2010.06.03 12:45:16.
