data_PCOD9415119
_publ_section_title
;
Structure prediction by ZEFSAII (Michael W. Deem and Ramdas Pophale) SiO2 
 PCOD9415119
Probable space group: P M N A
;
_chemical_formula_sum "Si O2"
_cell_formula_units_Z 64
_cell_length_a 8.409928
_cell_length_b 12.808005
_cell_length_c 31.731755
_cell_angle_alpha 90.000000
_cell_angle_beta 90.000000
_cell_angle_gamma 90.000000
_cell_volume 3417.966947
_symmetry_space_group_name_H-M "P M N A"
_symmetry_group_IT_number 53
_symmetry_cell_setting 'orthorhombic'
loop_
_space_group_symop_operation_xyz
x,y,z
1/2-x,-y,1/2+z
x,-y,-z
1/2-x,y,1/2-z
-x,-y,-z
1/2+x,y,1/2-z
-x,y,z
1/2+x,-y,1/2+z
loop_
_atom_site_type_symbol
_atom_site_label
_atom_site_fract_x
_atom_site_fract_y
_atom_site_fract_z
Si Si1 0.179948 0.077023 0.880800
Si Si2 0.691548 0.696016 0.383408
Si Si3 0.810748 0.154165 0.373017
Si Si4 0.189910 0.294078 0.203120
Si Si5 0.307622 0.660443 0.931778
Si Si6 0.182631 0.674158 0.477384
Si Si7 0.181595 0.891604 0.019184
Si Si8 0.192368 0.521628 0.854632
O O1 0.253916 0.190099 0.868983
O O2 0.170855 0.090380 0.931104
O O3 0.000000 0.069400 0.863680
O O4 0.262580 0.966695 0.873304
O O5 0.500000 0.704681 0.381998
O O6 0.733768 0.667469 0.432051
O O7 0.744508 0.598388 0.355394
O O8 0.748371 0.209672 0.330828
O O9 0.753352 0.226684 0.412581
O O10 0.000000 0.160822 0.373542
O O11 0.250000 0.275882 0.250000
O O12 0.243874 0.406289 0.184331
O O13 0.000000 0.292568 0.203347
O O14 0.500000 0.662403 0.934344
O O15 0.254727 0.577892 0.896770
O O16 0.250805 0.628287 0.978695
O O17 0.199367 0.797333 0.488385
O O18 0.000000 0.641690 0.471779
O O19 0.000000 0.867355 0.004301
O O20 0.235220 0.000000 0.000000
O O21 0.000000 0.522900 0.856113
#
# Coordination Sequence:
#
# PCOD9415119 Si02
#       8
#     8   8   8   8   8   8   8   8
#     4   9  17  29  46  68  96 130 166 205 247 288
#     4   9  19  35  50  68  97 135 178 216 250 291
#     4  10  19  32  51  75 103 133 165 201 244 298
#     4  10  20  36  59  85 107 126 152 191 244 301
#     4   9  19  32  45  67 100 133 166 212 265 304
#     4  10  19  29  42  64  95 132 173 216 259 297
#     4   9  17  28  42  61  88 126 171 215 255 294
#     4   9  19  35  55  75  96 128 169 208 246 296
#
# _framework density 18.724581000000001
#
# number of rings (size 3 to 8) (size 9 to 14) (size 15 to 20)
#    0.000    2.625    0.000    2.625    0.000    5.250 
#    0.000    2.500    0.000    0.750    0.000    1.750 
#    0.000    0.000    0.000    0.000    0.000    0.000 
#
# Total GULP energy -356496.787305 kJ/mol
# GULP energy per Si atom -5570.262302 kJ/mol
# Density = 1.868196 g / cm^3
# Si number density = 18.724581 Si / 1000 Ang^3
#
#
#
# Elastic Constant Matrix: (Units=GPa)
#
#
# Indices 1 2 3 4 5 6 
#
# 1 16.4409 11.0882 7.1408 0.0000 0.0000 0.0000
# 2 11.0882 99.6599 25.1460 0.0000 0.0000 0.0000
# 3 7.1408 25.1460 58.9221 0.0000 0.0000 0.0000
# 4 0.0000 0.0000 0.0000 13.6890 0.0000 0.0000
# 5 0.0000 0.0000 0.0000 0.0000 15.7828 0.0000
# 6 0.0000 0.0000 0.0000 0.0000 0.0000 30.1578
#
#
#
# Elastic Compliance Matrix: (Units=1/GPa)
#
#
# Indices 1 2 3 4 5 6 
#
# 1 0.067347 -0.006089 -0.005563 0.000000 0.000000 0.000000
# 2 -0.006089 0.011796 -0.004296 0.000000 0.000000 0.000000
# 3 -0.005563 -0.004296 0.019479 0.000000 0.000000 0.000000
# 4 0.000000 0.000000 0.000000 0.073051 0.000000 0.000000
# 5 0.000000 0.000000 0.000000 0.000000 0.063360 0.000000
# 6 0.000000 0.000000 0.000000 0.000000 0.000000 0.033159
#
#
# Mechanical properties :
#
#
# Convention : Reuss Voigt Hill
#
# Bulk Modulus (GPa) = 14.98693 29.08590 22.03642
# Shear Modulus (GPa) = 15.51202 20.70244 18.10723
#
# Velocity S-wave (km/s) = 2.88137 3.32871 3.11308
# Velocity P-wave (km/s) = 4.36932 5.50827 4.97152
#
# Compressibility (1/GPa) = 0.06672481
#
# Stress axis : x y z
#
# Youngs Moduli (GPa) = 14.84846 84.77743 51.33699
#
# Poissons Ratio (x) = 0.51624 0.28559
# Poissons Ratio (y) = 0.09042 0.22054
# Poissons Ratio (z) = 0.08260 0.36420
#
# Static dielectric constant tensor:
#      x y z
#    x 1.659970 0.000000 0.000000 
#    y 0.000000 1.720440 0.000000 
#    z 0.000000 0.000000 1.644920 
# 
# From -- ./inp_files/38122.got.cif
#   From: 2010.05.17/outbox.cif.g08.bks.cpg/sg53_20_cif.got.tgz:38122.got - 2010.06.03 12:45:16.
