data_PCOD9415832
_publ_section_title
;
Structure prediction by ZEFSAII (Michael W. Deem and Ramdas Pophale) SiO2 
 PCOD9415832
Probable space group: P M N A
;
_chemical_formula_sum "Si O2"
_cell_formula_units_Z 40
_cell_length_a 8.056046
_cell_length_b 10.177469
_cell_length_c 27.882627
_cell_angle_alpha 90.000000
_cell_angle_beta 90.000000
_cell_angle_gamma 90.000000
_cell_volume 2286.101005
_symmetry_space_group_name_H-M "P M N A"
_symmetry_group_IT_number 53
_symmetry_cell_setting 'orthorhombic'
loop_
_space_group_symop_operation_xyz
x,y,z
1/2-x,-y,1/2+z
x,-y,-z
1/2-x,y,1/2-z
-x,-y,-z
1/2+x,y,1/2-z
-x,y,z
1/2+x,-y,1/2+z
loop_
_atom_site_type_symbol
_atom_site_label
_atom_site_fract_x
_atom_site_fract_y
_atom_site_fract_z
Si Si1 0.500000 0.381670 0.037595
Si Si2 0.185299 0.529541 0.903960
Si Si3 0.000000 0.131898 0.530580
Si Si4 0.811959 0.788372 0.094062
Si Si5 0.190438 0.525628 0.698259
Si Si6 0.309590 0.206844 0.802163
O O1 0.333960 0.399376 0.068816
O O2 0.500000 0.500000 0.000000
O O3 0.500000 0.249710 0.007512
O O4 0.209386 0.371056 0.908560
O O5 0.201398 0.562683 0.847593
O O6 0.000000 0.560818 0.921582
O O7 0.164341 0.148131 0.563465
O O8 0.000000 0.000000 0.500000
O O9 0.791838 0.827448 0.150124
O O10 0.000000 0.818500 0.078072
O O11 0.250000 0.573958 0.750000
O O12 0.195324 0.366270 0.700155
O O13 0.000000 0.563793 0.689754
O O14 0.250000 0.159225 0.750000
O O15 0.500000 0.167782 0.809631
#
# Coordination Sequence:
#
# PCOD9415832 Si02
#       6
#     4   8   4   8   8   8
#     4  12  22  38  60  80 108 146 190 232 276 323
#     4  10  19  32  54  83 113 144 185 232 278 331
#     4  12  26  42  58  80 110 152 190 238 288 328
#     4  10  19  34  55  80 114 148 182 229 281 331
#     4   9  15  24  41  71 115 151 174 213 274 334
#     4   9  15  24  43  74 113 147 176 215 272 333
#
# _framework density 17.497039000000001
#
# number of rings (size 3 to 8) (size 9 to 14) (size 15 to 20)
#    0.000    2.000    4.000    1.200    0.000    6.400 
#    0.000    0.000    0.000    0.000    0.000    1.400 
#    0.000    0.000    0.000    0.000    0.000    0.000 
#
# Total GULP energy -222971.060349 kJ/mol
# GULP energy per Si atom -5574.276509 kJ/mol
# Density = 1.745721 g / cm^3
# Si number density = 17.497039 Si / 1000 Ang^3
#
#
#
# Elastic Constant Matrix: (Units=GPa)
#
#
# Indices 1 2 3 4 5 6 
#
# 1 149.8718 26.7212 70.2287 0.0000 0.0000 0.0000
# 2 26.7212 41.0455 34.4437 0.0000 0.0000 0.0000
# 3 70.2287 34.4437 112.7999 0.0000 0.0000 0.0000
# 4 0.0000 0.0000 0.0000 9.6734 0.0000 0.0000
# 5 0.0000 0.0000 0.0000 0.0000 32.8535 0.0000
# 6 0.0000 0.0000 0.0000 0.0000 0.0000 1.1389
#
#
#
# Elastic Compliance Matrix: (Units=1/GPa)
#
#
# Indices 1 2 3 4 5 6 
#
# 1 0.009502 -0.001642 -0.005415 0.000000 0.000000 0.000000
# 2 -0.001642 0.033041 -0.009066 0.000000 0.000000 0.000000
# 3 -0.005415 -0.009066 0.015005 0.000000 0.000000 0.000000
# 4 0.000000 0.000000 0.000000 0.103376 0.000000 0.000000
# 5 0.000000 0.000000 0.000000 0.000000 0.030438 0.000000
# 6 0.000000 0.000000 0.000000 0.000000 0.000000 0.878005
#
#
# Mechanical properties :
#
#
# Convention : Reuss Voigt Hill
#
# Bulk Modulus (GPa) = 39.52440 62.94493 51.23467
# Shear Modulus (GPa) = 4.50431 20.22141 12.36286
#
# Velocity S-wave (km/s) = 1.60621 3.40325 2.66102
# Velocity P-wave (km/s) = 5.10667 7.17604 6.22791
#
# Compressibility (1/GPa) = 0.02530082
#
# Stress axis : x y z
#
# Youngs Moduli (GPa) = 105.23570 30.26573 66.64506
#
# Poissons Ratio (x) = 0.04971 0.36086
# Poissons Ratio (y) = 0.17285 0.60423
# Poissons Ratio (z) = 0.56982 0.27440
#
# Static dielectric constant tensor:
#      x y z
#    x 1.643650 0.000000 0.000000 
#    y 0.000000 1.551490 0.000000 
#    z 0.000000 0.000000 1.622220 
# 
# From -- ./inp_files/36072.got.cif
#   From: 2010.05.17/outbox.cif.g08.bks.cpg/sg53_19_cif.got.tgz:36072.got - 2010.06.03 12:45:16.
