data_PCOD9415780
_publ_section_title
;
Structure prediction by ZEFSAII (Michael W. Deem and Ramdas Pophale) SiO2 
 PCOD9415780
Probable space group: P M N A
;
_chemical_formula_sum "Si O2"
_cell_formula_units_Z 64
_cell_length_a 8.813051
_cell_length_b 20.766829
_cell_length_c 19.834004
_cell_angle_alpha 90.000000
_cell_angle_beta 90.000000
_cell_angle_gamma 90.000000
_cell_volume 3630.002019
_symmetry_space_group_name_H-M "P M N A"
_symmetry_group_IT_number 53
_symmetry_cell_setting 'orthorhombic'
loop_
_space_group_symop_operation_xyz
x,y,z
1/2-x,-y,1/2+z
x,-y,-z
1/2-x,y,1/2-z
-x,-y,-z
1/2+x,y,1/2-z
-x,y,z
1/2+x,-y,1/2+z
loop_
_atom_site_type_symbol
_atom_site_label
_atom_site_fract_x
_atom_site_fract_y
_atom_site_fract_z
Si Si1 0.182120 0.527078 0.175172
Si Si2 0.317465 0.668387 0.325453
Si Si3 0.682888 0.727840 0.915962
Si Si4 0.318089 0.764679 0.066551
Si Si5 0.318101 0.041451 0.400289
Si Si6 0.817549 0.385065 0.174267
Si Si7 0.180630 0.153806 0.321342
Si Si8 0.817525 0.904692 0.049609
O O1 0.250000 0.527352 0.250000
O O2 0.225521 0.596847 0.146031
O O3 0.225498 0.456872 0.147303
O O4 0.000000 0.527055 0.179192
O O5 0.250000 0.673769 0.250000
O O6 0.500000 0.672376 0.321842
O O7 0.253098 0.723056 0.373755
O O8 0.500000 0.721949 0.912879
O O9 0.755768 0.669012 0.875652
O O10 0.725779 0.793608 0.877268
O O11 0.727655 0.734794 0.993954
O O12 0.500000 0.763218 0.070814
O O13 0.262079 0.838330 0.067685
O O14 0.500000 0.044204 0.392427
O O15 0.240025 0.084231 0.343917
O O16 0.281993 0.073833 0.472830
O O17 0.273994 0.966507 0.405133
O O18 0.750000 0.377365 0.250000
O O19 0.000000 0.380928 0.179007
O O20 0.250000 0.172838 0.250000
O O21 0.000000 0.153114 0.316747
O O22 0.000000 0.897078 0.053765
#
# Coordination Sequence:
#
# PCOD9415780 Si02
#       8
#     8   8   8   8   8   8   8   8
#     4   8  16  31  52  78 105 135 177 222 268 324
#     4  10  20  37  60  84 109 139 175 221 276 332
#     4  10  22  37  51  75 110 147 187 226 266 319
#     4  11  22  37  56  82 113 144 181 225 269 322
#     4   9  18  34  56  81 106 135 176 222 265 318
#     4  10  19  32  53  79 107 143 184 228 273 319
#     4  11  22  36  53  77 110 149 187 228 273 319
#     4   9  18  34  57  82 107 137 175 218 266 319
#
# _framework density 17.630844
#
# number of rings (size 3 to 8) (size 9 to 14) (size 15 to 20)
#    0.000    2.250    1.250    2.625    0.000    4.500 
#    0.000    2.500    0.000    6.750    0.000    0.000 
#    0.000    0.000    0.000    0.000    0.000    0.000 
#
# Total GULP energy -356867.574142 kJ/mol
# GULP energy per Si atom -5576.055846 kJ/mol
# Density = 1.759072 g / cm^3
# Si number density = 17.630844 Si / 1000 Ang^3
#
#
#
# Elastic Constant Matrix: (Units=GPa)
#
#
# Indices 1 2 3 4 5 6 
#
# 1 32.3941 46.8826 32.6262 0.0000 0.0000 0.0000
# 2 46.8826 161.3012 61.3523 0.0000 0.0000 0.0000
# 3 32.6262 61.3523 82.7401 0.0000 0.0000 0.0000
# 4 0.0000 0.0000 0.0000 28.8057 0.0000 0.0000
# 5 0.0000 0.0000 0.0000 0.0000 21.1627 0.0000
# 6 0.0000 0.0000 0.0000 0.0000 0.0000 21.7476
#
#
#
# Elastic Compliance Matrix: (Units=1/GPa)
#
#
# Indices 1 2 3 4 5 6 
#
# 1 0.066299 -0.012990 -0.016511 0.000000 0.000000 0.000000
# 2 -0.012990 0.011180 -0.003168 0.000000 0.000000 0.000000
# 3 -0.016511 -0.003168 0.020946 0.000000 0.000000 0.000000
# 4 0.000000 0.000000 0.000000 0.034715 0.000000 0.000000
# 5 0.000000 0.000000 0.000000 0.000000 0.047253 0.000000
# 6 0.000000 0.000000 0.000000 0.000000 0.000000 0.045982
#
#
# Mechanical properties :
#
#
# Convention : Reuss Voigt Hill
#
# Bulk Modulus (GPa) = 30.22327 62.01748 46.12038
# Shear Modulus (GPa) = 16.51575 23.38148 19.94861
#
# Velocity S-wave (km/s) = 3.06396 3.64561 3.36737
# Velocity P-wave (km/s) = 5.44946 7.27823 6.42920
#
# Compressibility (1/GPa) = 0.03308709
#
# Stress axis : x y z
#
# Youngs Moduli (GPa) = 15.08324 89.44508 47.74246
#
# Poissons Ratio (x) = 1.16187 0.78828
# Poissons Ratio (y) = 0.19593 0.15124
# Poissons Ratio (z) = 0.24904 0.28335
#
# Static dielectric constant tensor:
#      x y z
#    x 1.587590 0.000000 0.000000 
#    y 0.000000 1.622080 0.000000 
#    z 0.000000 0.000000 1.575210 
# 
# From -- ./inp_files/31114.got.cif
#   From: 2010.05.17/outbox.cif.g08.bks.cpg/sg53_16_cif.got.tgz:31114.got - 2010.06.03 12:45:16.
