data_PCOD9415682
_publ_section_title
;
Structure prediction by ZEFSAII (Michael W. Deem and Ramdas Pophale) SiO2 
 PCOD9415682
Probable space group: P M N A
;
_chemical_formula_sum "Si O2"
_cell_formula_units_Z 64
_cell_length_a 8.852886
_cell_length_b 25.730400
_cell_length_c 14.785289
_cell_angle_alpha 90.000000
_cell_angle_beta 90.000000
_cell_angle_gamma 90.000000
_cell_volume 3367.915816
_symmetry_space_group_name_H-M "P M N A"
_symmetry_group_IT_number 53
_symmetry_cell_setting 'orthorhombic'
loop_
_space_group_symop_operation_xyz
x,y,z
1/2-x,-y,1/2+z
x,-y,-z
1/2-x,y,1/2-z
-x,-y,-z
1/2+x,y,1/2-z
-x,y,z
1/2+x,-y,1/2+z
loop_
_atom_site_type_symbol
_atom_site_label
_atom_site_fract_x
_atom_site_fract_y
_atom_site_fract_z
Si Si1 0.820036 0.909571 0.656647
Si Si2 0.316992 0.322558 0.973290
Si Si3 0.179878 0.588168 0.339050
Si Si4 0.682773 0.773801 0.149263
Si Si5 0.670541 0.015485 0.605744
Si Si6 0.325753 0.482575 0.395445
Si Si7 0.818320 0.371875 0.347168
Si Si8 0.681671 0.119377 0.952733
O O1 0.750000 0.888049 0.750000
O O2 0.773044 0.884279 0.559535
O O3 0.000000 0.906294 0.662541
O O4 0.768059 0.969711 0.649280
O O5 0.500000 0.319526 0.973610
O O6 0.275900 0.376051 0.923093
O O7 0.264108 0.274281 0.913372
O O8 0.269824 0.330085 0.076792
O O9 0.250000 0.613394 0.250000
O O10 0.245495 0.530769 0.347689
O O11 0.000000 0.586279 0.333053
O O12 0.750000 0.772464 0.250000
O O13 0.500000 0.771073 0.156664
O O14 0.720620 0.826709 0.095671
O O15 0.500000 0.016238 0.642876
O O16 0.745209 0.072006 0.603042
O O17 0.661802 0.000000 0.500000
O O18 0.323702 0.500000 0.500000
O O19 0.500000 0.477486 0.365974
O O20 0.240985 0.428817 0.376879
O O21 0.750000 0.359860 0.250000
O O22 0.000000 0.373455 0.343425
O O23 0.500000 0.113096 0.951376
#
# Coordination Sequence:
#
# PCOD9415682 Si02
#       8
#     8   8   8   8   8   8   8   8
#     4  10  19  32  51  78 111 150 190 228 273 326
#     4   9  20  38  60  81 108 143 180 223 274 327
#     4  11  21  35  55  81 110 144 181 219 269 323
#     4  10  21  40  62  85 109 140 181 226 278 331
#     4   9  17  30  50  76 108 145 185 228 271 320
#     4  11  22  36  55  82 113 146 183 224 268 321
#     4  11  22  39  60  83 112 148 186 225 272 327
#     4   9  19  35  55  78 111 150 186 227 278 334
#
# _framework density 19.002851
#
# number of rings (size 3 to 8) (size 9 to 14) (size 15 to 20)
#    0.000    2.000    1.250    2.625    0.000    3.500 
#    0.000    3.750    0.000    0.000    0.000    0.000 
#    0.000    0.000    0.000    0.000    0.000    0.000 
#
# Total GULP energy -357111.752811 kJ/mol
# GULP energy per Si atom -5579.871138 kJ/mol
# Density = 1.895960 g / cm^3
# Si number density = 19.002851 Si / 1000 Ang^3
#
#
#
# Elastic Constant Matrix: (Units=GPa)
#
#
# Indices 1 2 3 4 5 6 
#
# 1 56.4873 29.5902 40.6499 0.0000 0.0000 0.0000
# 2 29.5902 113.7234 66.4928 0.0000 0.0000 0.0000
# 3 40.6499 66.4928 151.0742 0.0000 0.0000 0.0000
# 4 0.0000 0.0000 0.0000 23.9483 0.0000 0.0000
# 5 0.0000 0.0000 0.0000 0.0000 29.8391 0.0000
# 6 0.0000 0.0000 0.0000 0.0000 0.0000 9.1934
#
#
#
# Elastic Compliance Matrix: (Units=1/GPa)
#
#
# Indices 1 2 3 4 5 6 
#
# 1 0.022764 -0.003153 -0.004737 0.000000 0.000000 0.000000
# 2 -0.003153 0.012277 -0.004555 0.000000 0.000000 0.000000
# 3 -0.004737 -0.004555 0.009899 0.000000 0.000000 0.000000
# 4 0.000000 0.000000 0.000000 0.041757 0.000000 0.000000
# 5 0.000000 0.000000 0.000000 0.000000 0.033513 0.000000
# 6 0.000000 0.000000 0.000000 0.000000 0.000000 0.108774
#
#
# Mechanical properties :
#
#
# Convention : Reuss Voigt Hill
#
# Bulk Modulus (GPa) = 49.87887 66.08340 57.98113
# Shear Modulus (GPa) = 19.18965 24.89963 22.04464
#
# Velocity S-wave (km/s) = 3.18123 3.62375 3.40968
# Velocity P-wave (km/s) = 6.30862 7.23600 6.78817
#
# Compressibility (1/GPa) = 0.02004857
#
# Stress axis : x y z
#
# Youngs Moduli (GPa) = 43.92901 81.45307 101.02236
#
# Poissons Ratio (x) = 0.25684 0.47858
# Poissons Ratio (y) = 0.13852 0.46017
# Poissons Ratio (z) = 0.20811 0.37103
#
# Static dielectric constant tensor:
#      x y z
#    x 1.650370 0.000000 0.000000 
#    y 0.000000 1.633800 0.000000 
#    z 0.000000 0.000000 1.704300 
# 
# From -- ./inp_files/20912.got.cif
#   From: 2010.05.17/outbox.cif.g08.bks.cpg/sg53_11_cif.got.tgz:20912.got - 2010.06.03 12:45:16.
