data_PCOD9415138
_publ_section_title
;
Structure prediction by ZEFSAII (Michael W. Deem and Ramdas Pophale) SiO2 
 PCOD9415138
Probable space group: P M N A
;
_chemical_formula_sum "Si O2"
_cell_formula_units_Z 64
_cell_length_a 27.430838
_cell_length_b 9.297974
_cell_length_c 16.804272
_cell_angle_alpha 90.000000
_cell_angle_beta 90.000000
_cell_angle_gamma 90.000000
_cell_volume 4285.950050
_symmetry_space_group_name_H-M "P M N A"
_symmetry_group_IT_number 53
_symmetry_cell_setting 'orthorhombic'
loop_
_space_group_symop_operation_xyz
x,y,z
1/2-x,-y,1/2+z
x,-y,-z
1/2-x,y,1/2-z
-x,-y,-z
1/2+x,y,1/2-z
-x,y,z
1/2+x,-y,1/2+z
loop_
_atom_site_type_symbol
_atom_site_label
_atom_site_fract_x
_atom_site_fract_y
_atom_site_fract_z
Si Si1 0.213870 0.278331 0.683165
Si Si2 0.314787 0.275218 0.135478
Si Si3 0.587395 0.643319 0.948115
Si Si4 0.444064 0.178270 0.905783
Si Si5 0.153067 0.516318 0.773863
Si Si6 0.727328 0.528580 0.592373
Si Si7 0.843252 0.032349 0.593989
Si Si8 0.945383 0.528846 0.301303
O O1 0.250000 0.212401 0.750000
O O2 0.175398 0.373519 0.732770
O O3 0.243892 0.394202 0.631597
O O4 0.186852 0.168923 0.625198
O O5 0.356675 0.323728 0.073007
O O6 0.328262 0.354384 0.217462
O O7 0.262525 0.334511 0.107911
O O8 0.322043 0.105529 0.139521
O O9 0.560953 0.598405 0.866757
O O10 0.585726 0.500000 0.000000
O O11 0.564359 0.765510 0.003565
O O12 0.500000 0.128068 0.896935
O O13 0.400414 0.066598 0.889969
O O14 0.437704 0.319825 0.849108
O O15 0.177098 0.538742 0.859194
O O16 0.095560 0.498406 0.764325
O O17 0.720620 0.500000 0.500000
O O18 0.837370 0.000000 0.500000
O O19 0.000000 0.529831 0.270272
#
# Coordination Sequence:
#
# PCOD9415138 Si02
#       8
#     8   8   8   8   8   8   8   8
#     4   9  19  34  49  64  88 122 159 195 230 281
#     4  10  19  29  44  67  95 128 154 188 228 275
#     4   9  16  27  43  63  91 125 162 195 221 261
#     4  10  19  30  43  64  98 135 167 195 223 261
#     4   9  18  34  50  68  90 118 158 190 237 284
#     4  10  19  32  53  71  87 115 153 198 242 290
#     4  12  21  30  43  69  98 131 161 195 232 265
#     4   9  16  28  49  68  89 121 162 198 228 274
#
# _framework density 14.932511
#
# number of rings (size 3 to 8) (size 9 to 14) (size 15 to 20)
#    0.000    2.250    2.500    2.625    1.750    2.750 
#    0.000    0.625    0.000    0.375    0.000    0.000 
#    0.000    0.000    0.000    2.750    0.000    0.000 
#
# Total GULP energy -356635.993604 kJ/mol
# GULP energy per Si atom -5572.437400 kJ/mol
# Density = 1.489852 g / cm^3
# Si number density = 14.932511 Si / 1000 Ang^3
#
#
#
# Elastic Constant Matrix: (Units=GPa)
#
#
# Indices 1 2 3 4 5 6 
#
# 1 98.2918 23.0186 41.0355 0.0000 0.0000 0.0000
# 2 23.0186 59.2232 10.4860 0.0000 0.0000 0.0000
# 3 41.0355 10.4860 50.1506 0.0000 0.0000 0.0000
# 4 0.0000 0.0000 0.0000 11.2687 0.0000 0.0000
# 5 0.0000 0.0000 0.0000 0.0000 18.2186 0.0000
# 6 0.0000 0.0000 0.0000 0.0000 0.0000 17.1557
#
#
#
# Elastic Compliance Matrix: (Units=1/GPa)
#
#
# Indices 1 2 3 4 5 6 
#
# 1 0.016378 -0.004146 -0.012534 0.000000 0.000000 0.000000
# 2 -0.004146 0.018584 -0.000493 0.000000 0.000000 0.000000
# 3 -0.012534 -0.000493 0.030299 0.000000 0.000000 0.000000
# 4 0.000000 0.000000 0.000000 0.088741 0.000000 0.000000
# 5 0.000000 0.000000 0.000000 0.000000 0.054889 0.000000
# 6 0.000000 0.000000 0.000000 0.000000 0.000000 0.058290
#
#
# Mechanical properties :
#
#
# Convention : Reuss Voigt Hill
#
# Bulk Modulus (GPa) = 32.34781 39.63841 35.99311
# Shear Modulus (GPa) = 16.03429 18.20363 17.11896
#
# Velocity S-wave (km/s) = 3.28042 3.49529 3.38956
# Velocity P-wave (km/s) = 6.00482 6.54920 6.28291
#
# Compressibility (1/GPa) = 0.03091400
#
# Stress axis : x y z
#
# Youngs Moduli (GPa) = 61.05937 53.80929 33.00462
#
# Poissons Ratio (x) = 0.22311 0.41367
# Poissons Ratio (y) = 0.25317 0.01627
# Poissons Ratio (z) = 0.76531 0.02653
#
# Static dielectric constant tensor:
#      x y z
#    x 1.510370 0.000000 0.000000 
#    y 0.000000 1.519130 0.000000 
#    z 0.000000 0.000000 1.477820 
# 
# From -- ./inp_files/29625.got.cif
#   From: 2010.05.17/outbox.cif.g08.bks.cpg/sg53_15_cif.got.tgz:29625.got - 2010.06.03 12:45:16.
