data_PCOD9415614
_publ_section_title
;
Structure prediction by ZEFSAII (Michael W. Deem and Ramdas Pophale) SiO2 
 PCOD9415614
Probable space group: P M N A
;
_chemical_formula_sum "Si O2"
_cell_formula_units_Z 48
_cell_length_a 8.817494
_cell_length_b 16.810152
_cell_length_c 18.559814
_cell_angle_alpha 90.000000
_cell_angle_beta 90.000000
_cell_angle_gamma 90.000000
_cell_volume 2750.999002
_symmetry_space_group_name_H-M "P M N A"
_symmetry_group_IT_number 53
_symmetry_cell_setting 'orthorhombic'
loop_
_space_group_symop_operation_xyz
x,y,z
1/2-x,-y,1/2+z
x,-y,-z
1/2-x,y,1/2-z
-x,-y,-z
1/2+x,y,1/2-z
-x,y,z
1/2+x,-y,1/2+z
loop_
_atom_site_type_symbol
_atom_site_label
_atom_site_fract_x
_atom_site_fract_y
_atom_site_fract_z
Si Si1 0.319516 0.335755 0.672521
Si Si2 0.182074 0.012774 0.670163
Si Si3 0.820115 0.153248 0.170761
Si Si4 0.180244 0.744567 0.549926
Si Si5 0.182599 0.584890 0.467362
Si Si6 0.681111 0.180677 0.896666
O O1 0.250000 0.356412 0.750000
O O2 0.500000 0.338798 0.675691
O O3 0.258579 0.391964 0.608292
O O4 0.265887 0.246628 0.650873
O O5 0.250000 0.023970 0.750000
O O6 0.220416 0.090968 0.624494
O O7 0.000000 0.005571 0.674097
O O8 0.250870 0.930128 0.642246
O O9 0.750000 0.165292 0.250000
O O10 0.771582 0.223081 0.117360
O O11 0.000000 0.146328 0.176552
O O12 0.217900 0.655654 0.523585
O O13 0.211218 0.799244 0.479924
O O14 0.000000 0.748442 0.565198
O O15 0.226657 0.500000 0.500000
O O16 0.000000 0.585819 0.456813
O O17 0.500000 0.191645 0.885004
#
# Coordination Sequence:
#
# PCOD9415614 Si02
#       6
#     8   8   8   8   8   8
#     4  11  21  33  53  80 112 145 178 216 258 309
#     4  10  19  32  50  73 102 138 178 218 261 305
#     4  11  22  36  53  73 100 136 178 220 261 305
#     4   9  18  35  56  78 104 133 167 208 258 313
#     4   9  19  38  62  84 108 138 171 211 263 319
#     4   9  19  34  53  77 106 140 175 213 261 314
#
# _framework density 17.448207
#
# number of rings (size 3 to 8) (size 9 to 14) (size 15 to 20)
#    0.000    2.167    0.000    6.000    0.000    6.333 
#    0.000    4.167    0.000    0.000    0.000    0.000 
#    0.000    0.000    0.000    0.000    0.000    0.000 
#
# Total GULP energy -267948.553416 kJ/mol
# GULP energy per Si atom -5582.261529 kJ/mol
# Density = 1.740849 g / cm^3
# Si number density = 17.448207 Si / 1000 Ang^3
#
#
#
# Elastic Constant Matrix: (Units=GPa)
#
#
# Indices 1 2 3 4 5 6 
#
# 1 84.3625 58.2980 59.8217 0.0000 0.0000 0.0000
# 2 58.2980 120.9909 83.8419 0.0000 0.0000 0.0000
# 3 59.8217 83.8419 94.7920 0.0000 0.0000 0.0000
# 4 0.0000 0.0000 0.0000 19.2599 0.0000 0.0000
# 5 0.0000 0.0000 0.0000 0.0000 27.5828 0.0000
# 6 0.0000 0.0000 0.0000 0.0000 0.0000 25.2568
#
#
#
# Elastic Compliance Matrix: (Units=1/GPa)
#
#
# Indices 1 2 3 4 5 6 
#
# 1 0.021744 -0.002501 -0.011510 0.000000 0.000000 0.000000
# 2 -0.002501 0.021640 -0.017562 0.000000 0.000000 0.000000
# 3 -0.011510 -0.017562 0.033346 0.000000 0.000000 0.000000
# 4 0.000000 0.000000 0.000000 0.051921 0.000000 0.000000
# 5 0.000000 0.000000 0.000000 0.000000 0.036254 0.000000
# 6 0.000000 0.000000 0.000000 0.000000 0.000000 0.039593
#
#
# Mechanical properties :
#
#
# Convention : Reuss Voigt Hill
#
# Bulk Modulus (GPa) = 73.61433 78.22986 75.92210
# Shear Modulus (GPa) = 18.37077 20.96550 19.66813
#
# Velocity S-wave (km/s) = 3.24832 3.47015 3.36107
# Velocity P-wave (km/s) = 7.50670 7.80953 7.65961
#
# Compressibility (1/GPa) = 0.01358431
#
# Stress axis : x y z
#
# Youngs Moduli (GPa) = 45.99038 46.21164 29.98847
#
# Poissons Ratio (x) = 0.11557 0.34517
# Poissons Ratio (y) = 0.11502 0.52664
# Poissons Ratio (z) = 0.52935 0.81155
#
# Static dielectric constant tensor:
#      x y z
#    x 1.584930 0.000000 0.000000 
#    y 0.000000 1.588680 0.000000 
#    z 0.000000 0.000000 1.574460 
# 
# From -- ./inp_files/26404.got.cif
#   From: 2010.05.17/outbox.cif.g08.bks.cpg/sg53_14_cif.got.tgz:26404.got - 2010.06.03 12:45:16.
