data_PCOD9415660
_publ_section_title
;
Structure prediction by ZEFSAII (Michael W. Deem and Ramdas Pophale) SiO2 
 PCOD9415660
Probable space group: P M N A
;
_chemical_formula_sum "Si O2"
_cell_formula_units_Z 64
_cell_length_a 9.541994
_cell_length_b 17.556630
_cell_length_c 20.097082
_cell_angle_alpha 90.000000
_cell_angle_beta 90.000000
_cell_angle_gamma 90.000000
_cell_volume 3366.768850
_symmetry_space_group_name_H-M "P M N A"
_symmetry_group_IT_number 53
_symmetry_cell_setting 'orthorhombic'
loop_
_space_group_symop_operation_xyz
x,y,z
1/2-x,-y,1/2+z
x,-y,-z
1/2-x,y,1/2-z
-x,-y,-z
1/2+x,y,1/2-z
-x,y,z
1/2+x,-y,1/2+z
loop_
_atom_site_type_symbol
_atom_site_label
_atom_site_fract_x
_atom_site_fract_y
_atom_site_fract_z
Si Si1 0.670065 0.080029 0.466346
Si Si2 0.150692 0.646100 0.989735
Si Si3 0.162776 0.565208 0.414430
Si Si4 0.665541 0.713379 0.181435
Si Si5 0.659623 0.202531 0.576842
Si Si6 0.167090 0.555230 0.687928
Si Si7 0.339787 0.301843 0.340140
Si Si8 0.833728 0.122129 0.183574
O O1 0.500000 0.084703 0.463254
O O2 0.712240 0.144871 0.519593
O O3 0.715341 0.090875 0.389190
O O4 0.708888 0.000000 0.500000
O O5 0.264612 0.589477 0.017908
O O6 0.147782 0.716099 0.040993
O O7 0.000000 0.606806 0.989669
O O8 0.168405 0.685990 0.919155
O O9 0.176841 0.635030 0.361407
O O10 0.215970 0.490037 0.377339
O O11 0.000000 0.554680 0.427480
O O12 0.750000 0.705612 0.250000
O O13 0.500000 0.726814 0.192584
O O14 0.736917 0.781006 0.138031
O O15 0.500000 0.179668 0.597222
O O16 0.250000 0.520314 0.750000
O O17 0.218732 0.641985 0.684241
O O18 0.000000 0.548358 0.694502
O O19 0.500000 0.324620 0.319781
O O20 0.320588 0.214058 0.322026
O O21 0.750000 0.097408 0.250000
O O22 0.000000 0.104820 0.190832
#
# Coordination Sequence:
#
# PCOD9415660 Si02
#       8
#     8   8   8   8   8   8   8   8
#     4   9  17  33  60  88 112 144 183 219 263 322
#     4   9  17  31  53  77 101 135 176 220 266 317
#     4   9  20  35  50  71 102 137 177 228 279 327
#     4  10  19  32  51  76 104 139 182 228 276 326
#     4   9  16  31  54  79 106 138 178 222 265 315
#     4  11  23  37  51  70  99 137 180 227 280 332
#     4  10  20  35  54  77 107 139 178 226 270 321
#     4  10  20  36  58  85 115 146 184 226 268 321
#
# _framework density 19.009322999999998
#
# number of rings (size 3 to 8) (size 9 to 14) (size 15 to 20)
#    0.000    2.375    1.250    1.500    0.000    4.000 
#    0.000    3.750    0.000    3.000    0.000    0.000 
#    0.000    0.000    0.000    0.000    0.000    0.000 
#
# Total GULP energy -356672.702372 kJ/mol
# GULP energy per Si atom -5573.010975 kJ/mol
# Density = 1.896606 g / cm^3
# Si number density = 19.009323 Si / 1000 Ang^3
#
#
#
# Elastic Constant Matrix: (Units=GPa)
#
#
# Indices 1 2 3 4 5 6 
#
# 1 64.8876 13.2372 48.7685 0.0000 0.0000 0.0000
# 2 13.2372 49.1500 20.8980 0.0000 0.0000 0.0000
# 3 48.7685 20.8980 112.9603 0.0000 0.0000 0.0000
# 4 0.0000 0.0000 0.0000 9.6520 0.0000 0.0000
# 5 0.0000 0.0000 0.0000 0.0000 23.8286 0.0000
# 6 0.0000 0.0000 0.0000 0.0000 0.0000 14.5567
#
#
#
# Elastic Compliance Matrix: (Units=1/GPa)
#
#
# Indices 1 2 3 4 5 6 
#
# 1 0.023020 -0.002143 -0.009542 0.000000 0.000000 0.000000
# 2 -0.002143 0.022282 -0.003197 0.000000 0.000000 0.000000
# 3 -0.009542 -0.003197 0.013564 0.000000 0.000000 0.000000
# 4 0.000000 0.000000 0.000000 0.103605 0.000000 0.000000
# 5 0.000000 0.000000 0.000000 0.000000 0.041966 0.000000
# 6 0.000000 0.000000 0.000000 0.000000 0.000000 0.068697
#
#
# Mechanical properties :
#
#
# Convention : Reuss Voigt Hill
#
# Bulk Modulus (GPa) = 34.36163 43.64505 39.00334
# Shear Modulus (GPa) = 15.99491 19.21375 17.60433
#
# Velocity S-wave (km/s) = 2.90388 3.18268 3.04647
# Velocity P-wave (km/s) = 5.41838 6.04282 5.73909
#
# Compressibility (1/GPa) = 0.02910223
#
# Stress axis : x y z
#
# Youngs Moduli (GPa) = 43.44043 44.87856 73.72574
#
# Poissons Ratio (x) = 0.09616 0.70350
# Poissons Ratio (y) = 0.09308 0.23572
# Poissons Ratio (z) = 0.41451 0.14349
#
# Static dielectric constant tensor:
#      x y z
#    x 1.662890 0.000000 0.000000 
#    y 0.000000 1.666000 0.000000 
#    z 0.000000 0.000000 1.712940 
# 
# From -- ./inp_files/31220.got.cif
#   From: 2010.05.17/outbox.cif.g08.bks.cpg/sg53_16_cif.got.tgz:31220.got - 2010.06.03 12:45:16.
