data_PCOD9415135
_publ_section_title
;
Structure prediction by ZEFSAII (Michael W. Deem and Ramdas Pophale) SiO2 
 PCOD9415135
Probable space group: P M N A
;
_chemical_formula_sum "Si O2"
_cell_formula_units_Z 56
_cell_length_a 9.744719
_cell_length_b 14.788327
_cell_length_c 19.538297
_cell_angle_alpha 90.000000
_cell_angle_beta 90.000000
_cell_angle_gamma 90.000000
_cell_volume 2815.626684
_symmetry_space_group_name_H-M "P M N A"
_symmetry_group_IT_number 53
_symmetry_cell_setting 'orthorhombic'
loop_
_space_group_symop_operation_xyz
x,y,z
1/2-x,-y,1/2+z
x,-y,-z
1/2-x,y,1/2-z
-x,-y,-z
1/2+x,y,1/2-z
-x,y,z
1/2+x,-y,1/2+z
loop_
_atom_site_type_symbol
_atom_site_label
_atom_site_fract_x
_atom_site_fract_y
_atom_site_fract_z
Si Si1 0.840625 0.024320 0.650299
Si Si2 0.655977 0.805620 0.306513
Si Si3 0.148141 0.874020 0.490638
Si Si4 0.767621 0.699271 0.063828
Si Si5 0.154238 0.506779 0.416964
Si Si6 0.336816 0.862656 0.616111
Si Si7 0.154931 0.341056 0.091382
O O1 0.743317 0.103177 0.679650
O O2 0.846772 0.053711 0.570092
O O3 0.000000 0.021633 0.673786
O O4 0.758749 0.930577 0.658833
O O5 0.750000 0.756085 0.250000
O O6 0.500000 0.821846 0.283373
O O7 0.650545 0.750971 0.377364
O O8 0.154442 0.773915 0.457321
O O9 0.279939 0.879287 0.539075
O O10 0.000000 0.881091 0.527243
O O11 0.712848 0.606305 0.095264
O O12 0.838244 0.675663 0.991242
O O13 0.150900 0.500000 0.500000
O O14 0.244697 0.423048 0.392138
O O15 0.000000 0.499005 0.391140
O O16 0.500000 0.880452 0.621995
O O17 0.312124 0.755529 0.626043
O O18 0.000000 0.365929 0.108997
#
# Coordination Sequence:
#
# PCOD9415135 Si02
#       7
#     8   8   8   8   8   8   8
#     4  10  20  33  49  68  92 124 161 202 247 292
#     4  11  23  38  55  75  99 128 166 209 251 295
#     4   9  17  28  43  65  94 127 162 199 241 293
#     4   9  18  31  50  71  98 134 171 206 247 293
#     4   9  17  28  45  70  99 132 167 202 242 291
#     4  10  19  29  43  66  97 131 164 199 241 291
#     4   9  18  30  45  70 103 135 168 203 240 290
#
# _framework density 19.888999999999999
#
# number of rings (size 3 to 8) (size 9 to 14) (size 15 to 20)
#    0.000    2.429    0.000    2.571    0.000   14.571 
#    0.000    0.000    0.000    0.000    0.000    1.000 
#    0.000    2.286    0.000    0.000    0.000    0.000 
#
# Total GULP energy -312001.432193 kJ/mol
# GULP energy per Si atom -5571.454146 kJ/mol
# Density = 1.984373 g / cm^3
# Si number density = 19.889000 Si / 1000 Ang^3
#
#
#
# Elastic Constant Matrix: (Units=GPa)
#
#
# Indices 1 2 3 4 5 6 
#
# 1 153.5769 80.2054 5.4240 0.0000 0.0000 0.0000
# 2 80.2054 149.0285 3.8531 0.0000 0.0000 0.0000
# 3 5.4240 3.8531 21.2206 0.0000 0.0000 0.0000
# 4 0.0000 0.0000 0.0000 8.9373 0.0000 0.0000
# 5 0.0000 0.0000 0.0000 0.0000 13.6467 0.0000
# 6 0.0000 0.0000 0.0000 0.0000 0.0000 -12.5483
#
#
#
# Elastic Compliance Matrix: (Units=1/GPa)
#
#
# Indices 1 2 3 4 5 6 
#
# 1 0.009101 -0.004861 -0.001444 0.000000 0.000000 0.000000
# 2 -0.004861 0.009338 -0.000453 0.000000 0.000000 0.000000
# 3 -0.001444 -0.000453 0.047575 0.000000 0.000000 0.000000
# 4 0.000000 0.000000 0.000000 0.111891 0.000000 0.000000
# 5 0.000000 0.000000 0.000000 0.000000 0.073278 0.000000
# 6 0.000000 0.000000 0.000000 0.000000 0.000000 -0.079692
#
#
# Mechanical properties :
#
#
# Convention : Reuss Voigt Hill
#
# Bulk Modulus (GPa) = 19.04792 55.86564 37.45678
# Shear Modulus (GPa) = 24.69069 17.63002 21.16035
#
# Velocity S-wave (km/s) = 3.52721 2.98051 3.26532
# Velocity P-wave (km/s) = 5.11724 6.32410 5.75241
#
# Compressibility (1/GPa) = 0.05249917
#
# Stress axis : x y z
#
# Youngs Moduli (GPa) = 109.87981 107.09173 21.01933
#
# Poissons Ratio (x) = 0.52054 0.03034
# Poissons Ratio (y) = 0.53409 0.00952
# Poissons Ratio (z) = 0.15862 0.04852
#
# Static dielectric constant tensor:
#      x y z
#    x 1.686670 0.000000 0.000000 
#    y 0.000000 1.730410 0.000000 
#    z 0.000000 0.000000 1.756350 
# 
# From -- ./inp_files/30793.got.cif
#   From: 2010.05.17/outbox.cif.g08.bks.cpg/sg53_16_cif.got.tgz:30793.got - 2010.06.03 12:45:16.
