data_PCOD9415680
_publ_section_title
;
Structure prediction by ZEFSAII (Michael W. Deem and Ramdas Pophale) SiO2 
 PCOD9415680
Probable space group: P M N A
;
_chemical_formula_sum "Si O2"
_cell_formula_units_Z 48
_cell_length_a 8.578439
_cell_length_b 15.362608
_cell_length_c 21.122801
_cell_angle_alpha 90.000000
_cell_angle_beta 90.000000
_cell_angle_gamma 90.000000
_cell_volume 2783.714707
_symmetry_space_group_name_H-M "P M N A"
_symmetry_group_IT_number 53
_symmetry_cell_setting 'orthorhombic'
loop_
_space_group_symop_operation_xyz
x,y,z
1/2-x,-y,1/2+z
x,-y,-z
1/2-x,y,1/2-z
-x,-y,-z
1/2+x,y,1/2-z
-x,y,z
1/2+x,-y,1/2+z
loop_
_atom_site_type_symbol
_atom_site_label
_atom_site_fract_x
_atom_site_fract_y
_atom_site_fract_z
Si Si1 0.813879 0.931244 0.054350
Si Si2 0.317830 0.234851 0.010651
Si Si3 0.312092 0.612724 0.816327
Si Si4 0.316938 0.194203 0.157446
Si Si5 0.313152 0.578525 0.546494
Si Si6 0.687048 0.996227 0.815205
O O1 0.000000 0.937767 0.058367
O O2 0.741317 0.956328 0.121474
O O3 0.765468 0.834308 0.034089
O O4 0.760482 0.000000 0.000000
O O5 0.500000 0.242186 0.994324
O O6 0.307214 0.195919 0.081605
O O7 0.244444 0.330421 0.016570
O O8 0.250000 0.575151 0.750000
O O9 0.500000 0.613018 0.816362
O O10 0.251350 0.713356 0.819979
O O11 0.255940 0.571045 0.882425
O O12 0.500000 0.194897 0.174797
O O13 0.248771 0.103386 0.180602
O O14 0.267008 0.500000 0.500000
O O15 0.500000 0.580023 0.551600
O O16 0.750000 0.035437 0.750000
O O17 0.500000 0.993832 0.814282
#
# Coordination Sequence:
#
# PCOD9415680 Si02
#       6
#     8   8   8   8   8   8
#     4  11  22  35  53  79 108 143 186 225 266 319
#     4  10  19  34  56  81 107 140 181 225 273 321
#     4  10  19  32  51  78 110 145 180 218 269 327
#     4   8  16  29  47  73 104 139 174 212 260 317
#     4  10  21  37  57  82 112 144 180 225 276 328
#     4  11  21  34  50  72 106 145 186 228 273 320
#
# _framework density 17.243147
#
# number of rings (size 3 to 8) (size 9 to 14) (size 15 to 20)
#    0.000    2.000    1.667    4.000    0.000    2.000 
#    0.000    1.667    0.000    1.000    0.000    2.333 
#    0.000    0.000    0.000    0.000    0.000    0.000 
#
# Total GULP energy -267731.188198 kJ/mol
# GULP energy per Si atom -5577.733087 kJ/mol
# Density = 1.720390 g / cm^3
# Si number density = 17.243147 Si / 1000 Ang^3
#
#
#
# Elastic Constant Matrix: (Units=GPa)
#
#
# Indices 1 2 3 4 5 6 
#
# 1 60.5168 27.0603 49.9130 0.0000 0.0000 0.0000
# 2 27.0603 76.9343 62.0782 0.0000 0.0000 0.0000
# 3 49.9130 62.0782 142.5395 0.0000 0.0000 0.0000
# 4 0.0000 0.0000 0.0000 13.6276 0.0000 0.0000
# 5 0.0000 0.0000 0.0000 0.0000 28.3760 0.0000
# 6 0.0000 0.0000 0.0000 0.0000 0.0000 20.3781
#
#
#
# Elastic Compliance Matrix: (Units=1/GPa)
#
#
# Indices 1 2 3 4 5 6 
#
# 1 0.023545 -0.002511 -0.007151 0.000000 0.000000 0.000000
# 2 -0.002511 0.020309 -0.007965 0.000000 0.000000 0.000000
# 3 -0.007151 -0.007965 0.012989 0.000000 0.000000 0.000000
# 4 0.000000 0.000000 0.000000 0.073381 0.000000 0.000000
# 5 0.000000 0.000000 0.000000 0.000000 0.035241 0.000000
# 6 0.000000 0.000000 0.000000 0.000000 0.000000 0.049072
#
#
# Mechanical properties :
#
#
# Convention : Reuss Voigt Hill
#
# Bulk Modulus (GPa) = 46.32406 62.01039 54.16723
# Shear Modulus (GPa) = 19.45614 21.87227 20.66421
#
# Velocity S-wave (km/s) = 3.36272 3.56541 3.46555
# Velocity P-wave (km/s) = 6.48080 7.27942 6.89169
#
# Compressibility (1/GPa) = 0.02158705
#
# Stress axis : x y z
#
# Youngs Moduli (GPa) = 42.47109 49.24010 76.98990
#
# Poissons Ratio (x) = 0.12366 0.55056
# Poissons Ratio (y) = 0.10666 0.61325
# Poissons Ratio (z) = 0.30372 0.39221
#
# Static dielectric constant tensor:
#      x y z
#    x 1.583330 0.000000 0.000000 
#    y 0.000000 1.581980 0.000000 
#    z 0.000000 0.000000 1.594660 
# 
# From -- ./inp_files/30493.got.cif
#   From: 2010.05.17/outbox.cif.g08.bks.cpg/sg53_16_cif.got.tgz:30493.got - 2010.06.03 12:45:16.
