data_PCOD9415411
_publ_section_title
;
Structure prediction by ZEFSAII (Michael W. Deem and Ramdas Pophale) SiO2 
 PCOD9415411
Probable space group: P M N A
;
_chemical_formula_sum "Si O2"
_cell_formula_units_Z 56
_cell_length_a 7.654861
_cell_length_b 20.581908
_cell_length_c 18.347503
_cell_angle_alpha 90.000000
_cell_angle_beta 90.000000
_cell_angle_gamma 90.000000
_cell_volume 2890.679277
_symmetry_space_group_name_H-M "P M N A"
_symmetry_group_IT_number 53
_symmetry_cell_setting 'orthorhombic'
loop_
_space_group_symop_operation_xyz
x,y,z
1/2-x,-y,1/2+z
x,-y,-z
1/2-x,y,1/2-z
-x,-y,-z
1/2+x,y,1/2-z
-x,y,z
1/2+x,-y,1/2+z
loop_
_atom_site_type_symbol
_atom_site_label
_atom_site_fract_x
_atom_site_fract_y
_atom_site_fract_z
Si Si1 0.700348 0.546688 0.571263
Si Si2 0.207941 0.152159 0.334127
Si Si3 0.295295 0.203477 0.483137
Si Si4 0.715355 0.657115 0.469392
Si Si5 0.207693 0.004376 0.333599
Si Si6 0.298223 0.933853 0.468070
Si Si7 0.289785 0.431616 0.665315
O O1 0.694625 0.500000 0.500000
O O2 0.500000 0.561524 0.592627
O O3 0.776665 0.612404 0.537396
O O4 0.777995 0.501358 0.634679
O O5 0.250000 0.167048 0.250000
O O6 0.280188 0.199896 0.395576
O O7 0.271800 0.078158 0.350253
O O8 0.000000 0.151548 0.341092
O O9 0.500000 0.202824 0.502838
O O10 0.224274 0.269466 0.517694
O O11 0.217794 0.135058 0.511058
O O12 0.500000 0.655807 0.470824
O O13 0.768364 0.623342 0.393015
O O14 0.250000 0.993468 0.250000
O O15 0.000000 0.003309 0.344301
O O16 0.291933 0.949452 0.383013
O O17 0.500000 0.932432 0.493366
O O18 0.215260 0.000000 0.500000
O O19 0.250000 0.420270 0.750000
O O20 0.500000 0.434099 0.658481
#
# Coordination Sequence:
#
# PCOD9415411 Si02
#       7
#     8   8   8   8   8   8   8
#     4   7  11  23  45  69  90 116 155 195 224 264
#     4  10  20  33  50  71  94 121 157 201 249 299
#     4  10  19  32  51  72  97 131 166 201 242 289
#     4   8  15  29  49  71  95 129 167 197 232 286
#     4  10  20  33  51  71  93 121 157 205 255 300
#     4  10  19  31  48  71  98 126 161 204 246 292
#     4   9  16  28  49  75  99 125 160 198 237 281
#
# _framework density 19.372608
#
# number of rings (size 3 to 8) (size 9 to 14) (size 15 to 20)
#    0.000    2.857    1.429    2.571    0.000    2.000 
#    0.000    2.143    0.000    8.143    0.000    0.000 
#    0.000    0.000    0.000    0.000    0.000    0.000 
#
# Total GULP energy -311889.796848 kJ/mol
# GULP energy per Si atom -5569.460658 kJ/mol
# Density = 1.932851 g / cm^3
# Si number density = 19.372608 Si / 1000 Ang^3
#
#
#
# Elastic Constant Matrix: (Units=GPa)
#
#
# Indices 1 2 3 4 5 6 
#
# 1 43.9527 9.0062 -0.3183 0.0000 0.0000 0.0000
# 2 9.0062 158.0607 78.7383 0.0000 0.0000 0.0000
# 3 -0.3183 78.7383 122.9718 0.0000 0.0000 0.0000
# 4 0.0000 0.0000 0.0000 24.6895 0.0000 0.0000
# 5 0.0000 0.0000 0.0000 0.0000 22.6793 0.0000
# 6 0.0000 0.0000 0.0000 0.0000 0.0000 -1.3232
#
#
#
# Elastic Compliance Matrix: (Units=1/GPa)
#
#
# Indices 1 2 3 4 5 6 
#
# 1 0.023168 -0.001982 0.001329 0.000000 0.000000 0.000000
# 2 -0.001982 0.009459 -0.006062 0.000000 0.000000 0.000000
# 3 0.001329 -0.006062 0.012017 0.000000 0.000000 0.000000
# 4 0.000000 0.000000 0.000000 0.040503 0.000000 0.000000
# 5 0.000000 0.000000 0.000000 0.000000 0.044093 0.000000
# 6 0.000000 0.000000 0.000000 0.000000 0.000000 -0.755731
#
#
# Mechanical properties :
#
#
# Convention : Reuss Voigt Hill
#
# Bulk Modulus (GPa) = 32.03709 55.53749 43.78729
# Shear Modulus (GPa) = -8.29660 25.04639 8.37490
#
# Velocity S-wave (km/s) = -2.07170 3.59956 2.08145
# Velocity P-wave (km/s) = 3.29403 6.78278 5.33182
#
# Compressibility (1/GPa) = 0.03121382
#
# Stress axis : x y z
#
# Youngs Moduli (GPa) = 43.16384 105.71503 83.21671
#
# Poissons Ratio (x) = 0.20955 -0.11061
# Poissons Ratio (y) = 0.08556 0.50445
# Poissons Ratio (z) = -0.05737 0.64084
#
# Static dielectric constant tensor:
#      x y z
#    x 1.716870 0.000000 0.000000 
#    y 0.000000 1.713140 0.000000 
#    z 0.000000 0.000000 1.701160 
# 
# From -- ./inp_files/26685.got.cif
#   From: 2010.05.17/outbox.cif.g08.bks.cpg/sg53_14_cif.got.tgz:26685.got - 2010.06.03 12:45:16.
