data_PCOD9415599
_publ_section_title
;
Structure prediction by ZEFSAII (Michael W. Deem and Ramdas Pophale) SiO2 
 PCOD9415599
Probable space group: P M N A
;
_chemical_formula_sum "Si O2"
_cell_formula_units_Z 48
_cell_length_a 18.304904
_cell_length_b 17.673598
_cell_length_c 7.325978
_cell_angle_alpha 90.000000
_cell_angle_beta 90.000000
_cell_angle_gamma 90.000000
_cell_volume 2370.052892
_symmetry_space_group_name_H-M "P M N A"
_symmetry_group_IT_number 53
_symmetry_cell_setting 'orthorhombic'
loop_
_space_group_symop_operation_xyz
x,y,z
1/2-x,-y,1/2+z
x,-y,-z
1/2-x,y,1/2-z
-x,-y,-z
1/2+x,y,1/2-z
-x,y,z
1/2+x,-y,1/2+z
loop_
_atom_site_type_symbol
_atom_site_label
_atom_site_fract_x
_atom_site_fract_y
_atom_site_fract_z
Si Si1 0.163257 0.797574 0.731805
Si Si2 0.915694 0.357182 0.255735
Si Si3 0.416372 0.654951 0.311782
Si Si4 0.835679 0.507244 0.217112
Si Si5 0.413776 0.088132 0.962421
Si Si6 0.413216 0.180038 0.616075
O O1 0.250000 0.792021 0.750000
O O2 0.129299 0.715757 0.680722
O O3 0.136096 0.859657 0.588638
O O4 0.130410 0.820789 0.928778
O O5 0.878979 0.437099 0.303841
O O6 0.000000 0.353404 0.313150
O O7 0.914913 0.351483 0.033409
O O8 0.500000 0.642031 0.254765
O O9 0.365669 0.589816 0.231727
O O10 0.395144 0.741700 0.277662
O O11 0.750000 0.500400 0.250000
O O12 0.848025 0.500000 0.000000
O O13 0.500000 0.105008 0.999361
O O14 0.400364 0.110985 0.752339
O O15 0.401729 0.000000 0.000000
O O16 0.500000 0.184305 0.573559
#
# Coordination Sequence:
#
# PCOD9415599 Si02
#       6
#     8   8   8   8   8   8
#     4  11  22  38  59  92 125 160 193 246 309 364
#     4   9  17  33  58  80 106 150 203 243 281 342
#     4   8  15  31  54  78 105 146 197 237 282 341
#     4  10  19  32  49  77 112 149 185 236 291 347
#     4  10  22  42  66  92 119 156 205 249 294 357
#     4   9  19  39  64  89 118 158 205 251 294 353
#
# _framework density 20.252713
#
# number of rings (size 3 to 8) (size 9 to 14) (size 15 to 20)
#    0.000    2.500    0.000    3.500    0.000    3.333 
#   15.000    2.500    0.000    1.000    0.000    0.000 
#    0.000    0.000    0.000    0.000    0.000    0.000 
#
# Total GULP energy -268151.437079 kJ/mol
# GULP energy per Si atom -5586.488272 kJ/mol
# Density = 2.020662 g / cm^3
# Si number density = 20.252713 Si / 1000 Ang^3
#
#
#
# Elastic Constant Matrix: (Units=GPa)
#
#
# Indices 1 2 3 4 5 6 
#
# 1 88.8911 22.8100 18.5489 0.0000 0.0000 0.0000
# 2 22.8100 53.6250 9.4271 0.0000 0.0000 0.0000
# 3 18.5489 9.4271 69.7108 0.0000 0.0000 0.0000
# 4 0.0000 0.0000 0.0000 -35.0033 0.0000 0.0000
# 5 0.0000 0.0000 0.0000 0.0000 16.9093 0.0000
# 6 0.0000 0.0000 0.0000 0.0000 0.0000 28.5214
#
#
#
# Elastic Compliance Matrix: (Units=1/GPa)
#
#
# Indices 1 2 3 4 5 6 
#
# 1 0.013144 -0.005097 -0.002808 0.000000 0.000000 0.000000
# 2 -0.005097 0.021079 -0.001494 0.000000 0.000000 0.000000
# 3 -0.002808 -0.001494 0.015294 0.000000 0.000000 0.000000
# 4 0.000000 0.000000 0.000000 -0.028569 0.000000 0.000000
# 5 0.000000 0.000000 0.000000 0.000000 0.059139 0.000000
# 6 0.000000 0.000000 0.000000 0.000000 0.000000 0.035061
#
#
# Mechanical properties :
#
#
# Convention : Reuss Voigt Hill
#
# Bulk Modulus (GPa) = 32.55436 34.86653 33.71044
# Shear Modulus (GPa) = 34.67732 12.84822 23.76277
#
# Velocity S-wave (km/s) = 4.14240 2.52145 3.42908
# Velocity P-wave (km/s) = 6.24406 5.07248 5.68851
#
# Compressibility (1/GPa) = 0.03071785
#
# Stress axis : x y z
#
# Youngs Moduli (GPa) = 76.08255 47.44098 65.38424
#
# Poissons Ratio (x) = 0.24181 0.18360
# Poissons Ratio (y) = 0.38780 0.09770
# Poissons Ratio (z) = 0.21364 0.07089
#
# Static dielectric constant tensor:
#      x y z
#    x 1.678660 0.000000 0.000000 
#    y 0.000000 1.711610 0.000000 
#    z 0.000000 0.000000 1.755910 
# 
# From -- ./inp_files/9961.got.cif
#   From: 2010.05.17/outbox.cif.g08.bks.cpg/sg53_5_cif.got.tgz:9961.got - 2010.06.03 12:45:16.
