data_PCOD9415956
_publ_section_title
;
Structure prediction by ZEFSAII (Michael W. Deem and Ramdas Pophale) SiO2 
 PCOD9415956
Probable space group: P M N A
;
_chemical_formula_sum "Si O2"
_cell_formula_units_Z 40
_cell_length_a 8.255238
_cell_length_b 27.290688
_cell_length_c 9.291929
_cell_angle_alpha 90.000000
_cell_angle_beta 90.000000
_cell_angle_gamma 90.000000
_cell_volume 2093.389134
_symmetry_space_group_name_H-M "P M N A"
_symmetry_group_IT_number 53
_symmetry_cell_setting 'orthorhombic'
loop_
_space_group_symop_operation_xyz
x,y,z
1/2-x,-y,1/2+z
x,-y,-z
1/2-x,y,1/2-z
-x,-y,-z
1/2+x,y,1/2-z
-x,y,z
1/2+x,-y,1/2+z
loop_
_atom_site_type_symbol
_atom_site_label
_atom_site_fract_x
_atom_site_fract_y
_atom_site_fract_z
Si Si1 0.193303 0.644195 0.413987
Si Si2 0.696107 0.047584 0.415430
Si Si3 0.805783 0.739314 0.915861
Si Si4 0.695917 0.548401 0.914748
Si Si5 0.195389 0.846218 0.916446
O O1 0.250000 0.641736 0.250000
O O2 0.245543 0.694455 0.489485
O O3 0.254704 0.597443 0.504805
O O4 0.000000 0.642160 0.415250
O O5 0.750000 0.044544 0.250000
O O6 0.500000 0.047082 0.419350
O O7 0.750500 0.100932 0.475896
O O8 0.756276 0.000000 0.500000
O O9 0.750000 0.733878 0.750000
O O10 0.749055 0.793071 0.972212
O O11 0.000000 0.738978 0.916454
O O12 0.750000 0.547453 0.750000
O O13 0.500000 0.548641 0.917254
O O14 0.751249 0.500000 0.000000
O O15 0.250000 0.846532 0.750000
O O16 0.000000 0.846139 0.922160
#
# Coordination Sequence:
#
# PCOD9415956 Si02
#       5
#     8   8   8   8   8
#     4  11  23  38  56  79 108 141 177 215 259 309
#     4   9  17  30  48  70  97 128 164 206 251 301
#     4  10  19  33  54  78 104 134 172 216 260 308
#     4  10  22  39  59  84 111 140 175 214 257 305
#     4   8  15  28  47  70  96 128 165 206 251 299
#
# _framework density 19.107769999999999
#
# number of rings (size 3 to 8) (size 9 to 14) (size 15 to 20)
#    0.000    2.400    0.000    2.400    0.000    4.800 
#    0.000    1.000    0.000    2.400    0.000    0.000 
#    0.000    0.000    0.000    0.000    0.000    0.000 
#
# Total GULP energy -223018.793896 kJ/mol
# GULP energy per Si atom -5575.469847 kJ/mol
# Density = 1.906428 g / cm^3
# Si number density = 19.107770 Si / 1000 Ang^3
#
#
#
# Elastic Constant Matrix: (Units=GPa)
#
#
# Indices 1 2 3 4 5 6 
#
# 1 19.3638 25.6033 11.4820 0.0000 0.0000 0.0000
# 2 25.6033 252.4501 103.3013 0.0000 0.0000 0.0000
# 3 11.4820 103.3013 109.9071 0.0000 0.0000 0.0000
# 4 0.0000 0.0000 0.0000 33.6254 0.0000 0.0000
# 5 0.0000 0.0000 0.0000 0.0000 28.8036 0.0000
# 6 0.0000 0.0000 0.0000 0.0000 0.0000 21.2988
#
#
#
# Elastic Compliance Matrix: (Units=1/GPa)
#
#
# Indices 1 2 3 4 5 6 
#
# 1 0.059694 -0.005691 -0.000887 0.000000 0.000000 0.000000
# 2 -0.005691 0.006979 -0.005965 0.000000 0.000000 0.000000
# 3 -0.000887 -0.005965 0.014798 0.000000 0.000000 0.000000
# 4 0.000000 0.000000 0.000000 0.029739 0.000000 0.000000
# 5 0.000000 0.000000 0.000000 0.000000 0.034718 0.000000
# 6 0.000000 0.000000 0.000000 0.000000 0.000000 0.046951
#
#
# Mechanical properties :
#
#
# Convention : Reuss Voigt Hill
#
# Bulk Modulus (GPa) = 17.73550 73.61045 45.67297
# Shear Modulus (GPa) = 21.11831 32.83451 26.97641
#
# Velocity S-wave (km/s) = 3.32809 4.14984 3.76147
# Velocity P-wave (km/s) = 4.90614 7.84659 6.54367
#
# Compressibility (1/GPa) = 0.05638408
#
# Stress axis : x y z
#
# Youngs Moduli (GPa) = 16.75216 143.27999 67.57644
#
# Poissons Ratio (x) = 0.81542 0.05995
# Poissons Ratio (y) = 0.09534 0.40311
# Poissons Ratio (z) = 0.01486 0.85471
#
# Static dielectric constant tensor:
#      x y z
#    x 1.667990 0.000000 0.000000 
#    y 0.000000 1.732020 0.000000 
#    z 0.000000 0.000000 1.599420 
# 
# From -- ./inp_files/6306.got.cif
#   From: 2010.05.17/outbox.cif.g08.bks.cpg/sg53_4_cif.got.tgz:6306.got - 2010.06.03 12:45:16.
