data_PCOD9415110
_publ_section_title
;
Structure prediction by ZEFSAII (Michael W. Deem and Ramdas Pophale) SiO2 
 PCOD9415110
Probable space group: P M N A
;
_chemical_formula_sum "Si O2"
_cell_formula_units_Z 64
_cell_length_a 9.122549
_cell_length_b 14.416496
_cell_length_c 30.349523
_cell_angle_alpha 90.000000
_cell_angle_beta 90.000000
_cell_angle_gamma 90.000000
_cell_volume 3991.423319
_symmetry_space_group_name_H-M "P M N A"
_symmetry_group_IT_number 53
_symmetry_cell_setting 'orthorhombic'
loop_
_space_group_symop_operation_xyz
x,y,z
1/2-x,-y,1/2+z
x,-y,-z
1/2-x,y,1/2-z
-x,-y,-z
1/2+x,y,1/2-z
-x,y,z
1/2+x,-y,1/2+z
loop_
_atom_site_type_symbol
_atom_site_label
_atom_site_fract_x
_atom_site_fract_y
_atom_site_fract_z
Si Si1 0.823747 0.995450 0.448638
Si Si2 0.830493 0.688074 0.992078
Si Si3 0.175808 0.619102 0.374199
Si Si4 0.323595 0.789399 0.072852
Si Si5 0.173224 0.457752 0.437042
Si Si6 0.673367 0.496186 0.703287
Si Si7 0.174323 0.656739 0.860606
Si Si8 0.331988 0.169972 0.409154
O O1 0.778660 0.896783 0.427894
O O2 0.000000 0.999189 0.449292
O O3 0.773955 0.000000 0.500000
O O4 0.765153 0.082386 0.421303
O O5 0.746612 0.740132 0.030701
O O6 0.000000 0.672758 0.003374
O O7 0.756340 0.592150 0.976840
O O8 0.824236 0.757921 0.950135
O O9 0.213469 0.725410 0.385154
O O10 0.210415 0.559763 0.418680
O O11 0.259012 0.572431 0.333559
O O12 0.000000 0.610517 0.367311
O O13 0.500000 0.786132 0.068215
O O14 0.221092 0.395675 0.395000
O O15 0.000000 0.453408 0.445351
O O16 0.750000 0.484132 0.750000
O O17 0.500000 0.479930 0.706722
O O18 0.694485 0.601271 0.684666
O O19 0.205107 0.765708 0.866899
O O20 0.000000 0.644319 0.872887
O O21 0.500000 0.139044 0.405063
#
# Coordination Sequence:
#
# PCOD9415110 Si02
#       8
#     8   8   8   8   8   8   8   8
#     4  10  19  30  45  66  90 121 165 210 248 279
#     4  10  19  29  42  62  88 122 162 200 240 282
#     4   9  19  34  49  67  93 125 159 194 237 284
#     4  10  20  33  46  62  90 125 163 207 243 277
#     4   9  16  27  44  63  86 119 158 195 231 277
#     4  10  19  33  55  79 104 126 150 184 227 283
#     4   8  16  30  46  69  97 124 150 185 231 279
#     4   9  17  29  45  64  90 123 159 197 239 280
#
# _framework density 16.034381
#
# number of rings (size 3 to 8) (size 9 to 14) (size 15 to 20)
#    0.000    2.625    1.250    1.875    0.000    4.750 
#    0.000    2.500    0.000    0.000    0.000    0.875 
#    0.000    4.000    0.000    0.000    0.000    0.000 
#
# Total GULP energy -356501.586454 kJ/mol
# GULP energy per Si atom -5570.337288 kJ/mol
# Density = 1.599789 g / cm^3
# Si number density = 16.034381 Si / 1000 Ang^3
#
#
#
# Elastic Constant Matrix: (Units=GPa)
#
#
# Indices 1 2 3 4 5 6 
#
# 1 25.8696 42.9386 27.2090 0.0000 0.0000 0.0000
# 2 42.9386 127.5380 43.1996 0.0000 0.0000 0.0000
# 3 27.2090 43.1996 70.6693 0.0000 0.0000 0.0000
# 4 0.0000 0.0000 0.0000 13.9348 0.0000 0.0000
# 5 0.0000 0.0000 0.0000 0.0000 13.5783 0.0000
# 6 0.0000 0.0000 0.0000 0.0000 0.0000 15.3130
#
#
#
# Elastic Compliance Matrix: (Units=1/GPa)
#
#
# Indices 1 2 3 4 5 6 
#
# 1 0.116947 -0.030420 -0.026431 0.000000 0.000000 0.000000
# 2 -0.030420 0.017801 0.000831 0.000000 0.000000 0.000000
# 3 -0.026431 0.000831 0.023819 0.000000 0.000000 0.000000
# 4 0.000000 0.000000 0.000000 0.071763 0.000000 0.000000
# 5 0.000000 0.000000 0.000000 0.000000 0.073647 0.000000
# 6 0.000000 0.000000 0.000000 0.000000 0.000000 0.065304
#
#
# Mechanical properties :
#
#
# Convention : Reuss Voigt Hill
#
# Bulk Modulus (GPa) = 21.49345 50.08570 35.78958
# Shear Modulus (GPa) = 10.06380 15.94719 13.00549
#
# Velocity S-wave (km/s) = 2.50799 3.15709 2.85107
# Velocity P-wave (km/s) = 4.67123 6.67786 5.76256
#
# Compressibility (1/GPa) = 0.04652581
#
# Stress axis : x y z
#
# Youngs Moduli (GPa) = 8.55090 56.17631 41.98308
#
# Poissons Ratio (x) = 1.70889 1.10966
# Poissons Ratio (y) = 0.26012 -0.03487
# Poissons Ratio (z) = 0.22601 -0.04666
#
# Static dielectric constant tensor:
#      x y z
#    x 1.537220 0.000000 0.000000 
#    y 0.000000 1.564540 0.000000 
#    z 0.000000 0.000000 1.534510 
# 
# From -- ./inp_files/38414.got.cif
#   From: 2010.05.17/outbox.cif.g08.bks.cpg/sg53_20_cif.got.tgz:38414.got - 2010.06.03 12:45:16.
