data_PCOD9415028
_publ_section_title
;
Structure prediction by ZEFSAII (Michael W. Deem and Ramdas Pophale) SiO2 
 PCOD9415028
Probable space group: P M N A
;
_chemical_formula_sum "Si O2"
_cell_formula_units_Z 32
_cell_length_a 16.672672
_cell_length_b 14.810632
_cell_length_c 6.207317
_cell_angle_alpha 90.000000
_cell_angle_beta 90.000000
_cell_angle_gamma 90.000000
_cell_volume 1532.790226
_symmetry_space_group_name_H-M "P M N A"
_symmetry_group_IT_number 53
_symmetry_cell_setting 'orthorhombic'
loop_
_space_group_symop_operation_xyz
x,y,z
1/2-x,-y,1/2+z
x,-y,-z
1/2-x,y,1/2-z
-x,-y,-z
1/2+x,y,1/2-z
-x,y,z
1/2+x,-y,1/2+z
loop_
_atom_site_type_symbol
_atom_site_label
_atom_site_fract_x
_atom_site_fract_y
_atom_site_fract_z
Si Si1 0.000000 0.106527 0.525492
Si Si2 0.750000 0.297309 0.250000
Si Si3 0.000000 0.580841 0.337943
Si Si4 0.129971 0.648127 0.051973
Si Si5 0.328947 0.187407 0.866211
Si Si6 0.000000 0.279661 0.279395
O O1 0.912544 0.132172 0.627173
O O2 0.000000 0.172793 0.317232
O O3 0.000000 0.000000 0.500000
O O4 0.710525 0.365702 0.421835
O O5 0.802431 0.228727 0.401330
O O6 0.000000 0.500000 0.500000
O O7 0.078087 0.578141 0.186822
O O8 0.000000 0.671368 0.486645
O O9 0.150614 0.727391 0.217204
O O10 0.073398 0.686782 0.863640
O O11 0.250000 0.143930 0.750000
#
# Coordination Sequence:
#
# PCOD9415028 Si02
#       6
#     4   4   4   8   8   4
#     4  12  22  41  63  97 135 180 228 285 351 420
#     4  10  18  34  66  92 118 184 220 276 342 412
#     4  11  22  36  62 100 129 171 221 287 344 415
#     4  10  19  35  64  91 127 169 225 269 344 411
#     4  10  21  40  64  95 130 176 225 280 342 409
#     4  11  20  40  61  93 129 164 224 274 342 417
#
# _framework density 20.876957999999998
#
# number of rings (size 3 to 8) (size 9 to 14) (size 15 to 20)
#    0.000    1.500    5.000    0.750    0.000    2.000 
#    2.250    2.500    0.000    0.000  146.250    0.000 
#    0.000    0.000    0.000    0.000    0.000    0.000 
#
# Total GULP energy -178144.018560 kJ/mol
# GULP energy per Si atom -5567.000580 kJ/mol
# Density = 2.082944 g / cm^3
# Si number density = 20.876958 Si / 1000 Ang^3
#
#
#
# Elastic Constant Matrix: (Units=GPa)
#
#
# Indices 1 2 3 4 5 6 
#
# 1 138.0189 36.8950 56.0798 0.0000 0.0000 0.0000
# 2 36.8950 65.7486 39.4743 0.0000 0.0000 0.0000
# 3 56.0798 39.4743 119.6303 0.0000 0.0000 0.0000
# 4 0.0000 0.0000 0.0000 9.2763 0.0000 0.0000
# 5 0.0000 0.0000 0.0000 0.0000 35.8812 0.0000
# 6 0.0000 0.0000 0.0000 0.0000 0.0000 4.9579
#
#
#
# Elastic Compliance Matrix: (Units=1/GPa)
#
#
# Indices 1 2 3 4 5 6 
#
# 1 0.009495 -0.003312 -0.003358 0.000000 0.000000 0.000000
# 2 -0.003312 0.020122 -0.005087 0.000000 0.000000 0.000000
# 3 -0.003358 -0.005087 0.011612 0.000000 0.000000 0.000000
# 4 0.000000 0.000000 0.000000 0.107801 0.000000 0.000000
# 5 0.000000 0.000000 0.000000 0.000000 0.027870 0.000000
# 6 0.000000 0.000000 0.000000 0.000000 0.000000 0.201697
#
#
# Mechanical properties :
#
#
# Convention : Reuss Voigt Hill
#
# Bulk Modulus (GPa) = 56.45065 65.36623 60.90844
# Shear Modulus (GPa) = 12.25439 22.75301 17.50370
#
# Velocity S-wave (km/s) = 2.42540 3.30489 2.89869
# Velocity P-wave (km/s) = 5.91116 6.77800 6.35937
#
# Compressibility (1/GPa) = 0.01771459
#
# Stress axis : x y z
#
# Youngs Moduli (GPa) = 105.31532 49.69629 86.11805
#
# Poissons Ratio (x) = 0.16460 0.28921
# Poissons Ratio (y) = 0.34881 0.43809
# Poissons Ratio (z) = 0.35368 0.25281
#
# Static dielectric constant tensor:
#      x y z
#    x 1.991440 0.000000 0.000000 
#    y 0.000000 1.734250 0.000000 
#    z 0.000000 0.000000 1.761030 
# 
# From -- ./inp_files/2013.got.cif
#   From: 2010.05.17/outbox.cif.g08.bks.cpg/sg53_2_cif.got.tgz:2013.got - 2010.06.03 12:45:16.
