data_PCOD9415973
_publ_section_title
;
Structure prediction by ZEFSAII (Michael W. Deem and Ramdas Pophale) SiO2 
 PCOD9415973
Probable space group: P M N A
;
_chemical_formula_sum "Si O2"
_cell_formula_units_Z 32
_cell_length_a 22.312767
_cell_length_b 8.756970
_cell_length_c 7.256155
_cell_angle_alpha 90.000000
_cell_angle_beta 90.000000
_cell_angle_gamma 90.000000
_cell_volume 1417.796316
_symmetry_space_group_name_H-M "P M N A"
_symmetry_group_IT_number 53
_symmetry_cell_setting 'orthorhombic'
loop_
_space_group_symop_operation_xyz
x,y,z
1/2-x,-y,1/2+z
x,-y,-z
1/2-x,y,1/2-z
-x,-y,-z
1/2+x,y,1/2-z
-x,y,z
1/2+x,-y,1/2+z
loop_
_atom_site_type_symbol
_atom_site_label
_atom_site_fract_x
_atom_site_fract_y
_atom_site_fract_z
Si Si1 0.253374 0.179060 0.530930
Si Si2 0.000000 0.179488 0.953353
Si Si3 0.500000 0.686879 0.029349
Si Si4 0.123554 0.321353 0.964119
Si Si5 0.369799 0.318328 0.974536
O O1 0.250000 0.209350 0.750000
O O2 0.313443 0.260015 0.460048
O O3 0.189940 0.237593 0.454343
O O4 0.259053 0.000000 0.500000
O O5 0.062284 0.245077 0.031363
O O6 0.000000 0.244581 0.739659
O O7 0.000000 0.000000 0.000000
O O8 0.434926 0.733845 0.951568
O O9 0.500000 0.500000 0.000000
O O10 0.126496 0.292323 0.744915
O O11 0.119347 0.500000 0.000000
O O12 0.363538 0.500000 0.000000
#
# Coordination Sequence:
#
# PCOD9415973 Si02
#       5
#     8   4   4   8   8
#     4  10  21  35  51  74 105 138 173 219 272 319
#     4  10  19  33  54  81 112 141 175 226 279 324
#     4   8  16  33  55  75 104 143 180 220 268 326
#     4  10  20  34  54  79 105 138 179 220 265 322
#     4   9  18  34  54  75 101 136 177 220 263 318
#
# _framework density 22.570236000000001
#
# number of rings (size 3 to 8) (size 9 to 14) (size 15 to 20)
#    0.000    2.500    0.000    1.875    0.000    2.000 
#    0.000    0.625    0.000    0.000    0.000    0.000 
#    0.000    0.000    0.000    0.000    0.000    0.000 
#
# Total GULP energy -178492.220814 kJ/mol
# GULP energy per Si atom -5577.881900 kJ/mol
# Density = 2.251887 g / cm^3
# Si number density = 22.570236 Si / 1000 Ang^3
#
#
#
# Elastic Constant Matrix: (Units=GPa)
#
#
# Indices 1 2 3 4 5 6 
#
# 1 306.6280 123.0988 17.4490 0.0000 0.0000 0.0000
# 2 123.0988 130.7054 0.5750 0.0000 0.0000 0.0000
# 3 17.4490 0.5750 112.3657 0.0000 0.0000 0.0000
# 4 0.0000 0.0000 0.0000 25.0304 0.0000 0.0000
# 5 0.0000 0.0000 0.0000 0.0000 -35.1688 0.0000
# 6 0.0000 0.0000 0.0000 0.0000 0.0000 74.1045
#
#
#
# Elastic Compliance Matrix: (Units=1/GPa)
#
#
# Indices 1 2 3 4 5 6 
#
# 1 0.005315 -0.005002 -0.000800 0.000000 0.000000 0.000000
# 2 -0.005002 0.012359 0.000714 0.000000 0.000000 0.000000
# 3 -0.000800 0.000714 0.009020 0.000000 0.000000 0.000000
# 4 0.000000 0.000000 0.000000 0.039951 0.000000 0.000000
# 5 0.000000 0.000000 0.000000 0.000000 -0.028434 0.000000
# 6 0.000000 0.000000 0.000000 0.000000 0.000000 0.013494
#
#
# Mechanical properties :
#
#
# Convention : Reuss Voigt Hill
#
# Bulk Modulus (GPa) = 60.54373 92.43829 76.49101
# Shear Modulus (GPa) = 74.19761 40.03163 57.11462
#
# Velocity S-wave (km/s) = 5.73981 4.21604 5.03589
# Velocity P-wave (km/s) = 8.41487 8.04641 8.23270
#
# Compressibility (1/GPa) = 0.01651699
#
# Stress axis : x y z
#
# Youngs Moduli (GPa) = 188.14900 80.91494 110.86408
#
# Poissons Ratio (x) = 0.40475 0.08866
# Poissons Ratio (y) = 0.94114 -0.07910
# Poissons Ratio (z) = 0.15047 -0.05773
#
# Static dielectric constant tensor:
#      x y z
#    x 1.870470 0.000000 0.000000 
#    y 0.000000 1.863160 0.000000 
#    z 0.000000 0.000000 1.845650 
# 
# From -- ./inp_files/10482.got.cif
#   From: 2010.05.17/outbox.cif.g08.bks.cpg/sg53_6_cif.got.tgz:10482.got - 2010.06.03 12:45:16.
