data_PCOD9415086
_publ_section_title
;
Structure prediction by ZEFSAII (Michael W. Deem and Ramdas Pophale) SiO2 
 PCOD9415086
Probable space group: P M N A
;
_chemical_formula_sum "Si O2"
_cell_formula_units_Z 64
_cell_length_a 9.155875
_cell_length_b 12.542288
_cell_length_c 31.656251
_cell_angle_alpha 90.000000
_cell_angle_beta 90.000000
_cell_angle_gamma 90.000000
_cell_volume 3635.265247
_symmetry_space_group_name_H-M "P M N A"
_symmetry_group_IT_number 53
_symmetry_cell_setting 'orthorhombic'
loop_
_space_group_symop_operation_xyz
x,y,z
1/2-x,-y,1/2+z
x,-y,-z
1/2-x,y,1/2-z
-x,-y,-z
1/2+x,y,1/2-z
-x,y,z
1/2+x,-y,1/2+z
loop_
_atom_site_type_symbol
_atom_site_label
_atom_site_fract_x
_atom_site_fract_y
_atom_site_fract_z
Si Si1 0.174373 0.815117 0.294431
Si Si2 0.327838 0.336111 0.872810
Si Si3 0.670038 0.576149 0.891242
Si Si4 0.672025 0.985060 0.350503
Si Si5 0.671586 0.818715 0.886239
Si Si6 0.662846 0.608535 0.525095
Si Si7 0.172135 0.185905 0.485854
Si Si8 0.327693 0.168645 0.569371
O O1 0.250000 0.792813 0.250000
O O2 0.207851 0.724124 0.329250
O O3 0.239534 0.922938 0.314548
O O4 0.000000 0.822420 0.289801
O O5 0.500000 0.318075 0.881616
O O6 0.306609 0.463278 0.868413
O O7 0.239526 0.277041 0.910230
O O8 0.500000 0.574142 0.906769
O O9 0.686055 0.694909 0.872211
O O10 0.786295 0.578530 0.928468
O O11 0.500000 0.983556 0.341203
O O12 0.695483 0.919362 0.394182
O O13 0.732097 0.102419 0.358865
O O14 0.500000 0.846841 0.883165
O O15 0.712088 0.831972 0.936374
O O16 0.660960 0.500000 0.500000
O O17 0.500000 0.656888 0.524344
O O18 0.781078 0.691021 0.507925
O O19 0.253872 0.132614 0.525365
O O20 0.000000 0.168862 0.489753
O O21 0.500000 0.183329 0.562829
#
# Coordination Sequence:
#
# PCOD9415086 Si02
#       8
#     8   8   8   8   8   8   8   8
#     4  10  20  36  60  87 111 133 159 197 247 303
#     4   9  18  33  54  78 104 135 168 203 250 308
#     4   9  18  32  49  70  97 132 171 206 246 297
#     4  10  21  36  54  76 103 135 171 212 258 308
#     4   9  19  34  50  70  98 136 181 222 256 295
#     4  10  19  28  40  62  92 127 169 216 259 295
#     4  10  20  32  46  65  93 133 178 220 261 306
#     4  10  20  32  47  71 102 133 170 220 270 309
#
# _framework density 17.605316999999999
#
# number of rings (size 3 to 8) (size 9 to 14) (size 15 to 20)
#    0.000    2.375    0.000    3.375    0.000    8.500 
#    0.000    2.500    0.000    0.750    0.000    1.750 
#    0.000    0.000    0.000    0.000    0.000    0.000 
#
# Total GULP energy -356631.768345 kJ/mol
# GULP energy per Si atom -5572.371380 kJ/mol
# Density = 1.756525 g / cm^3
# Si number density = 17.605317 Si / 1000 Ang^3
#
#
#
# Elastic Constant Matrix: (Units=GPa)
#
#
# Indices 1 2 3 4 5 6 
#
# 1 33.9640 23.6265 24.2034 0.0000 0.0000 0.0000
# 2 23.6265 64.6201 17.1255 0.0000 0.0000 0.0000
# 3 24.2034 17.1255 53.0474 0.0000 0.0000 0.0000
# 4 0.0000 0.0000 0.0000 12.0794 0.0000 0.0000
# 5 0.0000 0.0000 0.0000 0.0000 24.0281 0.0000
# 6 0.0000 0.0000 0.0000 0.0000 0.0000 24.5456
#
#
#
# Elastic Compliance Matrix: (Units=1/GPa)
#
#
# Indices 1 2 3 4 5 6 
#
# 1 0.053506 -0.014318 -0.019790 0.000000 0.000000 0.000000
# 2 -0.014318 0.020754 -0.000167 0.000000 0.000000 0.000000
# 3 -0.019790 -0.000167 0.027935 0.000000 0.000000 0.000000
# 4 0.000000 0.000000 0.000000 0.082786 0.000000 0.000000
# 5 0.000000 0.000000 0.000000 0.000000 0.041618 0.000000
# 6 0.000000 0.000000 0.000000 0.000000 0.000000 0.040741
#
#
# Mechanical properties :
#
#
# Convention : Reuss Voigt Hill
#
# Bulk Modulus (GPa) = 29.72353 31.28248 30.50301
# Shear Modulus (GPa) = 14.40485 17.90902 16.15694
#
# Velocity S-wave (km/s) = 2.86354 3.19290 3.03269
# Velocity P-wave (km/s) = 5.27760 5.60358 5.44303
#
# Compressibility (1/GPa) = 0.03364337
#
# Stress axis : x y z
#
# Youngs Moduli (GPa) = 18.68951 48.18235 35.79795
#
# Poissons Ratio (x) = 0.68988 0.70845
# Poissons Ratio (y) = 0.26760 0.00599
# Poissons Ratio (z) = 0.36987 0.00807
#
# Static dielectric constant tensor:
#      x y z
#    x 1.599780 0.000000 0.000000 
#    y 0.000000 1.658260 0.000000 
#    z 0.000000 0.000000 1.594900 
# 
# From -- ./inp_files/38294.got.cif
#   From: 2010.05.17/outbox.cif.g08.bks.cpg/sg53_20_cif.got.tgz:38294.got - 2010.06.03 12:45:16.
