data_PCOD9415806
_publ_section_title
;
Structure prediction by ZEFSAII (Michael W. Deem and Ramdas Pophale) SiO2 
 PCOD9415806
Probable space group: P M N A
;
_chemical_formula_sum "Si O2"
_cell_formula_units_Z 48
_cell_length_a 8.892316
_cell_length_b 17.035804
_cell_length_c 19.000148
_cell_angle_alpha 90.000000
_cell_angle_beta 90.000000
_cell_angle_gamma 90.000000
_cell_volume 2878.289717
_symmetry_space_group_name_H-M "P M N A"
_symmetry_group_IT_number 53
_symmetry_cell_setting 'orthorhombic'
loop_
_space_group_symop_operation_xyz
x,y,z
1/2-x,-y,1/2+z
x,-y,-z
1/2-x,y,1/2-z
-x,-y,-z
1/2+x,y,1/2-z
-x,y,z
1/2+x,-y,1/2+z
loop_
_atom_site_type_symbol
_atom_site_label
_atom_site_fract_x
_atom_site_fract_y
_atom_site_fract_z
Si Si1 0.678640 0.353950 0.673591
Si Si2 0.323163 0.235961 0.925612
Si Si3 0.178099 0.910769 0.509092
Si Si4 0.178876 0.232906 0.070520
Si Si5 0.820948 0.646532 0.673715
Si Si6 0.820388 0.508837 0.418527
O O1 0.750000 0.366695 0.750000
O O2 0.500000 0.354088 0.678712
O O3 0.738347 0.273097 0.639576
O O4 0.735025 0.421678 0.621006
O O5 0.500000 0.254531 0.922432
O O6 0.306204 0.142303 0.938322
O O7 0.252746 0.268406 0.998825
O O8 0.267983 0.857914 0.565199
O O9 0.000000 0.910276 0.526743
O O10 0.227523 0.000000 0.500000
O O11 0.246293 0.278701 0.136175
O O12 0.000000 0.238921 0.067939
O O13 0.750000 0.633074 0.750000
O O14 0.793165 0.571460 0.623909
O O15 0.000000 0.657380 0.679489
O O16 0.776326 0.500000 0.500000
O O17 0.000000 0.525169 0.416407
#
# Coordination Sequence:
#
# PCOD9415806 Si02
#       6
#     8   8   8   8   8   8
#     4  12  24  37  55  79 110 146 184 225 273 324
#     4   9  18  34  55  79 109 141 179 221 265 317
#     4   8  16  32  56  83 110 142 178 219 267 319
#     4  10  19  32  53  82 111 140 178 222 270 320
#     4  11  22  36  54  77 108 147 186 227 273 322
#     4  10  22  39  59  80 107 142 182 226 272 319
#
# _framework density 16.676569000000001
#
# number of rings (size 3 to 8) (size 9 to 14) (size 15 to 20)
#    1.000    1.000    0.000    5.000    0.000    4.667 
#    0.000    0.000    0.000    1.000    0.000    4.667 
#    0.000    0.000    0.000    0.000    0.000    0.000 
#
# Total GULP energy -267503.377711 kJ/mol
# GULP energy per Si atom -5572.987036 kJ/mol
# Density = 1.663861 g / cm^3
# Si number density = 16.676569 Si / 1000 Ang^3
#
#
#
# Elastic Constant Matrix: (Units=GPa)
#
#
# Indices 1 2 3 4 5 6 
#
# 1 108.0939 63.3725 62.9411 0.0000 0.0000 0.0000
# 2 63.3725 103.8197 54.5986 0.0000 0.0000 0.0000
# 3 62.9411 54.5986 128.4143 0.0000 0.0000 0.0000
# 4 0.0000 0.0000 0.0000 8.5468 0.0000 0.0000
# 5 0.0000 0.0000 0.0000 0.0000 29.3221 0.0000
# 6 0.0000 0.0000 0.0000 0.0000 0.0000 20.9631
#
#
#
# Elastic Compliance Matrix: (Units=1/GPa)
#
#
# Indices 1 2 3 4 5 6 
#
# 1 0.016498 -0.007493 -0.004900 0.000000 0.000000 0.000000
# 2 -0.007493 0.015810 -0.003049 0.000000 0.000000 0.000000
# 3 -0.004900 -0.003049 0.011485 0.000000 0.000000 0.000000
# 4 0.000000 0.000000 0.000000 0.117003 0.000000 0.000000
# 5 0.000000 0.000000 0.000000 0.000000 0.034104 0.000000
# 6 0.000000 0.000000 0.000000 0.000000 0.000000 0.047703
#
#
# Mechanical properties :
#
#
# Convention : Reuss Voigt Hill
#
# Bulk Modulus (GPa) = 77.47412 78.01693 77.74553
# Shear Modulus (GPa) = 17.99920 22.39411 20.19665
#
# Velocity S-wave (km/s) = 3.28885 3.66847 3.48383
# Velocity P-wave (km/s) = 7.80895 8.05155 7.93118
#
# Compressibility (1/GPa) = 0.01290754
#
# Stress axis : x y z
#
# Youngs Moduli (GPa) = 60.61480 63.25286 87.06654
#
# Poissons Ratio (x) = 0.47397 0.42664
# Poissons Ratio (y) = 0.45420 0.26547
# Poissons Ratio (z) = 0.29702 0.19286
#
# Static dielectric constant tensor:
#      x y z
#    x 1.553820 0.000000 0.000000 
#    y 0.000000 1.577470 0.000000 
#    z 0.000000 0.000000 1.544950 
# 
# From -- ./inp_files/26408.got.cif
#   From: 2010.05.17/outbox.cif.g08.bks.cpg/sg53_14_cif.got.tgz:26408.got - 2010.06.03 12:45:16.
