data_PCOD9415345
_publ_section_title
;
Structure prediction by ZEFSAII (Michael W. Deem and Ramdas Pophale) SiO2 
 PCOD9415345
Probable space group: P M N A
;
_chemical_formula_sum "Si O2"
_cell_formula_units_Z 64
_cell_length_a 8.648201
_cell_length_b 23.654984
_cell_length_c 13.603748
_cell_angle_alpha 90.000000
_cell_angle_beta 90.000000
_cell_angle_gamma 90.000000
_cell_volume 2782.960305
_symmetry_space_group_name_H-M "P M N A"
_symmetry_group_IT_number 53
_symmetry_cell_setting 'orthorhombic'
loop_
_space_group_symop_operation_xyz
x,y,z
1/2-x,-y,1/2+z
x,-y,-z
1/2-x,y,1/2-z
-x,-y,-z
1/2+x,y,1/2-z
-x,y,z
1/2+x,-y,1/2+z
loop_
_atom_site_type_symbol
_atom_site_label
_atom_site_fract_x
_atom_site_fract_y
_atom_site_fract_z
Si Si1 0.180845 0.626573 0.393284
Si Si2 0.672561 0.392599 0.404249
Si Si3 0.173445 0.012877 0.883701
Si Si4 0.313413 0.746785 0.067668
Si Si5 0.679235 0.896802 0.850830
Si Si6 0.325201 0.733367 0.649099
Si Si7 0.687471 0.870738 0.072522
Si Si8 0.820519 0.496012 0.619541
O O1 0.203075 0.619395 0.510545
O O2 0.246424 0.689823 0.377632
O O3 0.243874 0.566445 0.355282
O O4 0.000000 0.626777 0.367323
O O5 0.500000 0.399279 0.448651
O O6 0.667994 0.335093 0.343833
O O7 0.717893 0.450499 0.351971
O O8 0.000000 0.006466 0.842696
O O9 0.288980 0.964104 0.849951
O O10 0.236646 0.076176 0.873111
O O11 0.162780 0.000000 0.000000
O O12 0.500000 0.743870 0.069094
O O13 0.261693 0.745492 0.953224
O O14 0.267998 0.808175 0.108590
O O15 0.750000 0.874742 0.750000
O O16 0.500000 0.884093 0.849295
O O17 0.737694 0.875328 0.956973
O O18 0.250000 0.753326 0.750000
O O19 0.500000 0.754745 0.640115
O O20 0.500000 0.876453 0.075489
O O21 0.820743 0.500000 0.500000
O O22 0.000000 0.501195 0.650544
#
# Coordination Sequence:
#
# PCOD9415345 Si02
#       8
#     8   8   8   8   8   8   8   8
#     4   8  14  24  37  53  75 102 129 158 194 239
#     4   9  16  24  35  52  71  93 125 165 206 247
#     4   9  17  30  48  68  90 118 150 184 225 270
#     4   9  17  30  45  60  82 113 147 179 211 250
#     4  10  19  31  47  68  94 120 150 188 227 267
#     4  10  20  31  41  54  75 106 144 182 220 259
#     4   9  18  31  47  67  91 122 155 186 223 267
#     4   8  13  21  34  52  72  95 122 152 191 238
#
# _framework density 22.997094000000001
#
# number of rings (size 3 to 8) (size 9 to 14) (size 15 to 20)
#    0.000    3.000    0.000    2.250    0.000    6.750 
#    0.000    1.250    0.000    0.000    0.000    0.000 
#    0.000    1.000    0.000    4.250    0.000    6.000 
#
# Total GULP energy -356703.288286 kJ/mol
# GULP energy per Si atom -5573.488879 kJ/mol
# Density = 2.294475 g / cm^3
# Si number density = 22.997094 Si / 1000 Ang^3
#
#
#
# Elastic Constant Matrix: (Units=GPa)
#
#
# Indices 1 2 3 4 5 6 
#
# 1 14.3135 11.7037 -1.3418 0.0000 0.0000 0.0000
# 2 11.7037 198.0656 -10.2782 0.0000 0.0000 0.0000
# 3 -1.3418 -10.2782 48.2488 0.0000 0.0000 0.0000
# 4 0.0000 0.0000 0.0000 -36.0833 0.0000 0.0000
# 5 0.0000 0.0000 0.0000 0.0000 11.0769 0.0000
# 6 0.0000 0.0000 0.0000 0.0000 0.0000 16.0702
#
#
#
# Elastic Compliance Matrix: (Units=1/GPa)
#
#
# Indices 1 2 3 4 5 6 
#
# 1 0.073472 -0.004283 0.001131 0.000000 0.000000 0.000000
# 2 -0.004283 0.005355 0.001022 0.000000 0.000000 0.000000
# 3 0.001131 0.001022 0.020975 0.000000 0.000000 0.000000
# 4 0.000000 0.000000 0.000000 -0.027714 0.000000 0.000000
# 5 0.000000 0.000000 0.000000 0.000000 0.090278 0.000000
# 6 0.000000 0.000000 0.000000 0.000000 0.000000 0.062227
#
#
# Mechanical properties :
#
#
# Convention : Reuss Voigt Hill
#
# Bulk Modulus (GPa) = 10.46667 28.97727 19.72197
# Shear Modulus (GPa) = 19.17913 15.58240 17.38077
#
# Velocity S-wave (km/s) = 2.89101 2.60586 2.75213
# Velocity P-wave (km/s) = 3.96296 4.65637 4.32359
#
# Compressibility (1/GPa) = 0.09554141
#
# Stress axis : x y z
#
# Youngs Moduli (GPa) = 13.61065 186.74433 47.67587
#
# Poissons Ratio (x) = 0.79978 -0.05392
# Poissons Ratio (y) = 0.05829 -0.04871
# Poissons Ratio (z) = -0.01539 -0.19078
#
# Static dielectric constant tensor:
#      x y z
#    x 1.819640 0.000000 0.000000 
#    y 0.000000 1.931080 0.000000 
#    z 0.000000 0.000000 1.879570 
# 
# From -- ./inp_files/27067.got.cif
#   From: 2010.05.17/outbox.cif.g08.bks.cpg/sg53_14_cif.got.tgz:27067.got - 2010.06.03 12:45:16.
