data_PCOD9415721
_publ_section_title
;
Structure prediction by ZEFSAII (Michael W. Deem and Ramdas Pophale) SiO2 
 PCOD9415721
Probable space group: P M N A
;
_chemical_formula_sum "Si O2"
_cell_formula_units_Z 48
_cell_length_a 8.775103
_cell_length_b 9.912602
_cell_length_c 31.351265
_cell_angle_alpha 90.000000
_cell_angle_beta 90.000000
_cell_angle_gamma 90.000000
_cell_volume 2727.061681
_symmetry_space_group_name_H-M "P M N A"
_symmetry_group_IT_number 53
_symmetry_cell_setting 'orthorhombic'
loop_
_space_group_symop_operation_xyz
x,y,z
1/2-x,-y,1/2+z
x,-y,-z
1/2-x,y,1/2-z
-x,-y,-z
1/2+x,y,1/2-z
-x,y,z
1/2+x,-y,1/2+z
loop_
_atom_site_type_symbol
_atom_site_label
_atom_site_fract_x
_atom_site_fract_y
_atom_site_fract_z
Si Si1 0.683147 0.189621 0.202996
Si Si2 0.316234 0.653234 0.486953
Si Si3 0.683301 0.303241 0.610912
Si Si4 0.682383 0.423801 0.140281
Si Si5 0.683220 0.999069 0.369275
Si Si6 0.817492 0.209172 0.432679
O O1 0.750000 0.178047 0.250000
O O2 0.500000 0.181771 0.203756
O O3 0.726474 0.331987 0.180677
O O4 0.746685 0.075013 0.171400
O O5 0.275253 0.500000 0.500000
O O6 0.500000 0.664981 0.489563
O O7 0.267967 0.680675 0.438457
O O8 0.242178 0.754735 0.520676
O O9 0.500000 0.308776 0.611282
O O10 0.744985 0.429992 0.637056
O O11 0.729607 0.157106 0.628165
O O12 0.500000 0.436931 0.140282
O O13 0.724455 0.334657 0.098598
O O14 0.500000 0.007463 0.367788
O O15 0.742456 0.078955 0.410911
O O16 0.000000 0.195532 0.432070
#
# Coordination Sequence:
#
# PCOD9415721 Si02
#       6
#     8   8   8   8   8   8
#     4  10  21  39  62  88 110 137 177 218 267 329
#     4  10  19  32  52  77 107 146 191 235 275 318
#     4  10  21  35  53  80 110 144 186 226 273 325
#     4   9  19  34  54  79 108 138 174 220 268 317
#     4  10  21  37  56  79 111 148 182 224 275 325
#     4  10  20  34  52  77 107 145 190 230 270 321
#
# _framework density 17.601361000000001
#
# number of rings (size 3 to 8) (size 9 to 14) (size 15 to 20)
#    0.000    2.167    1.667    2.500    0.000    6.333 
#    0.000    4.167    0.000    2.000    0.000    0.000 
#    0.000    0.000    0.000    0.000    0.000    0.000 
#
# Total GULP energy -267935.823928 kJ/mol
# GULP energy per Si atom -5581.996332 kJ/mol
# Density = 1.756130 g / cm^3
# Si number density = 17.601361 Si / 1000 Ang^3
#
#
#
# Elastic Constant Matrix: (Units=GPa)
#
#
# Indices 1 2 3 4 5 6 
#
# 1 38.2439 45.7289 35.0301 0.0000 0.0000 0.0000
# 2 45.7289 162.8022 68.2914 0.0000 0.0000 0.0000
# 3 35.0301 68.2914 116.2151 0.0000 0.0000 0.0000
# 4 0.0000 0.0000 0.0000 15.3981 0.0000 0.0000
# 5 0.0000 0.0000 0.0000 0.0000 10.8030 0.0000
# 6 0.0000 0.0000 0.0000 0.0000 0.0000 25.1760
#
#
#
# Elastic Compliance Matrix: (Units=1/GPa)
#
#
# Indices 1 2 3 4 5 6 
#
# 1 0.044383 -0.009097 -0.008032 0.000000 0.000000 0.000000
# 2 -0.009097 0.010016 -0.003144 0.000000 0.000000 0.000000
# 3 -0.008032 -0.003144 0.012873 0.000000 0.000000 0.000000
# 4 0.000000 0.000000 0.000000 0.064943 0.000000 0.000000
# 5 0.000000 0.000000 0.000000 0.000000 0.092567 0.000000
# 6 0.000000 0.000000 0.000000 0.000000 0.000000 0.039720
#
#
# Mechanical properties :
#
#
# Convention : Reuss Voigt Hill
#
# Bulk Modulus (GPa) = 37.41678 68.37355 52.89516
# Shear Modulus (GPa) = 15.92568 21.48947 18.70757
#
# Velocity S-wave (km/s) = 3.01125 3.49793 3.26367
# Velocity P-wave (km/s) = 5.77877 7.43263 6.65726
#
# Compressibility (1/GPa) = 0.02672598
#
# Stress axis : x y z
#
# Youngs Moduli (GPa) = 22.53113 99.83560 77.68016
#
# Poissons Ratio (x) = 0.90822 0.62396
# Poissons Ratio (y) = 0.20497 0.24421
# Poissons Ratio (z) = 0.18098 0.31387
#
# Static dielectric constant tensor:
#      x y z
#    x 1.591050 0.000000 0.000000 
#    y 0.000000 1.591690 0.000000 
#    z 0.000000 0.000000 1.577170 
# 
# From -- ./inp_files/37730.got.cif
#   From: 2010.05.17/outbox.cif.g08.bks.cpg/sg53_19_cif.got.tgz:37730.got - 2010.06.03 12:45:16.
