data_PCOD9415412
_publ_section_title
;
Structure prediction by ZEFSAII (Michael W. Deem and Ramdas Pophale) SiO2 
 PCOD9415412
Probable space group: P M N A
;
_chemical_formula_sum "Si O2"
_cell_formula_units_Z 64
_cell_length_a 9.303024
_cell_length_b 22.289640
_cell_length_c 18.875106
_cell_angle_alpha 90.000000
_cell_angle_beta 90.000000
_cell_angle_gamma 90.000000
_cell_volume 3913.961910
_symmetry_space_group_name_H-M "P M N A"
_symmetry_group_IT_number 53
_symmetry_cell_setting 'orthorhombic'
loop_
_space_group_symop_operation_xyz
x,y,z
1/2-x,-y,1/2+z
x,-y,-z
1/2-x,y,1/2-z
-x,-y,-z
1/2+x,y,1/2-z
-x,y,z
1/2+x,-y,1/2+z
loop_
_atom_site_type_symbol
_atom_site_label
_atom_site_fract_x
_atom_site_fract_y
_atom_site_fract_z
Si Si1 0.334149 0.408739 0.040960
Si Si2 0.667020 0.472885 0.886699
Si Si3 0.672558 0.635542 0.321879
Si Si4 0.333869 0.941937 0.449640
Si Si5 0.172301 0.177556 0.037786
Si Si6 0.171670 0.304338 0.971346
Si Si7 0.328650 0.138017 0.175883
Si Si8 0.169259 0.996022 0.322497
O O1 0.500000 0.393501 0.055928
O O2 0.287153 0.458433 0.098559
O O3 0.331747 0.442138 0.964562
O O4 0.241316 0.349997 0.027596
O O5 0.500000 0.471865 0.862422
O O6 0.767757 0.431278 0.839204
O O7 0.750000 0.656277 0.250000
O O8 0.500000 0.635393 0.314199
O O9 0.711954 0.675516 0.391249
O O10 0.500000 0.936603 0.425697
O O11 0.296468 0.882329 0.492892
O O12 0.325529 0.000000 0.500000
O O13 0.231320 0.955292 0.384405
O O14 0.258484 0.173669 0.111015
O O15 0.000000 0.177940 0.051976
O O16 0.208899 0.236649 0.992649
O O17 0.000000 0.310694 0.975022
O O18 0.250000 0.151826 0.250000
O O19 0.500000 0.147472 0.181182
O O20 0.303879 0.066738 0.161585
O O21 0.250000 0.982280 0.250000
O O22 0.000000 0.988324 0.314190
#
# Coordination Sequence:
#
# PCOD9415412 Si02
#       8
#     8   8   8   8   8   8   8   8
#     4   8  14  26  46  70  96 123 153 193 238 287
#     4   8  14  26  45  70  96 122 153 193 242 286
#     4  10  19  31  48  71  99 134 175 214 254 296
#     4  10  19  32  52  75 100 133 169 210 263 312
#     4  10  20  35  53  74 103 136 172 213 256 308
#     4   9  19  33  49  71 100 136 174 212 253 301
#     4  10  20  33  52  77 101 126 158 200 251 309
#     4  10  20  33  51  74 102 130 161 204 255 313
#
# _framework density 16.351718000000002
#
# number of rings (size 3 to 8) (size 9 to 14) (size 15 to 20)
#    0.000    2.625    1.250    1.875    0.000    3.250 
#    0.000    3.125    0.000    2.250    0.000    5.250 
#    0.000    0.000    0.000    0.000    0.000    0.000 
#
# Total GULP energy -356570.622320 kJ/mol
# GULP energy per Si atom -5571.415974 kJ/mol
# Density = 1.631450 g / cm^3
# Si number density = 16.351718 Si / 1000 Ang^3
#
#
#
# Elastic Constant Matrix: (Units=GPa)
#
#
# Indices 1 2 3 4 5 6 
#
# 1 54.9280 43.3322 57.5562 0.0000 0.0000 0.0000
# 2 43.3322 110.3827 52.9787 0.0000 0.0000 0.0000
# 3 57.5562 52.9787 96.3417 0.0000 0.0000 0.0000
# 4 0.0000 0.0000 0.0000 17.3297 0.0000 0.0000
# 5 0.0000 0.0000 0.0000 0.0000 28.6829 0.0000
# 6 0.0000 0.0000 0.0000 0.0000 0.0000 21.9642
#
#
#
# Elastic Compliance Matrix: (Units=1/GPa)
#
#
# Indices 1 2 3 4 5 6 
#
# 1 0.053013 -0.007622 -0.027480 0.000000 0.000000 0.000000
# 2 -0.007622 0.013404 -0.002817 0.000000 0.000000 0.000000
# 3 -0.027480 -0.002817 0.028346 0.000000 0.000000 0.000000
# 4 0.000000 0.000000 0.000000 0.057704 0.000000 0.000000
# 5 0.000000 0.000000 0.000000 0.000000 0.034864 0.000000
# 6 0.000000 0.000000 0.000000 0.000000 0.000000 0.045529
#
#
# Mechanical properties :
#
#
# Convention : Reuss Voigt Hill
#
# Bulk Modulus (GPa) = 52.84063 63.26518 58.05291
# Shear Modulus (GPa) = 15.87276 20.78104 18.32690
#
# Velocity S-wave (km/s) = 3.11900 3.56880 3.35146
# Velocity P-wave (km/s) = 6.73469 7.46700 7.11028
#
# Compressibility (1/GPa) = 0.01892483
#
# Stress axis : x y z
#
# Youngs Moduli (GPa) = 18.86329 74.60653 35.27876
#
# Poissons Ratio (x) = 0.56865 0.96944
# Poissons Ratio (y) = 0.14378 0.09939
# Poissons Ratio (z) = 0.51835 0.21018
#
# Static dielectric constant tensor:
#      x y z
#    x 1.545390 0.000000 0.000000 
#    y 0.000000 1.550450 0.000000 
#    z 0.000000 0.000000 1.542080 
# 
# From -- ./inp_files/27075.got.cif
#   From: 2010.05.17/outbox.cif.g08.bks.cpg/sg53_14_cif.got.tgz:27075.got - 2010.06.03 12:45:16.
