data_PCOD9415140
_publ_section_title
;
Structure prediction by ZEFSAII (Michael W. Deem and Ramdas Pophale) SiO2 
 PCOD9415140
Probable space group: P M N A
;
_chemical_formula_sum "Si O2"
_cell_formula_units_Z 48
_cell_length_a 8.901281
_cell_length_b 12.359695
_cell_length_c 26.343700
_cell_angle_alpha 90.000000
_cell_angle_beta 90.000000
_cell_angle_gamma 90.000000
_cell_volume 2898.257959
_symmetry_space_group_name_H-M "P M N A"
_symmetry_group_IT_number 53
_symmetry_cell_setting 'orthorhombic'
loop_
_space_group_symop_operation_xyz
x,y,z
1/2-x,-y,1/2+z
x,-y,-z
1/2-x,y,1/2-z
-x,-y,-z
1/2+x,y,1/2-z
-x,y,z
1/2+x,-y,1/2+z
loop_
_atom_site_type_symbol
_atom_site_label
_atom_site_fract_x
_atom_site_fract_y
_atom_site_fract_z
Si Si1 0.180166 0.166539 0.194455
Si Si2 0.180410 0.771480 0.069603
Si Si3 0.826028 0.331316 0.381271
Si Si4 0.181755 0.473733 0.941217
Si Si5 0.680956 0.988769 0.388041
Si Si6 0.326542 0.145876 0.033045
O O1 0.250000 0.160226 0.250000
O O2 0.240514 0.271738 0.164497
O O3 0.223901 0.061394 0.160444
O O4 0.000000 0.170359 0.197137
O O5 0.232378 0.647631 0.073387
O O6 0.000000 0.767060 0.068887
O O7 0.224271 0.862283 0.111036
O O8 0.236601 0.818197 0.016199
O O9 0.750352 0.438944 0.403045
O O10 0.821211 0.245254 0.427400
O O11 0.000000 0.349708 0.367799
O O12 0.000000 0.479757 0.938932
O O13 0.224148 0.500000 0.000000
O O14 0.500000 0.995778 0.392729
O O15 0.753917 0.046140 0.436937
O O16 0.500000 0.124369 0.020496
#
# Coordination Sequence:
#
# PCOD9415140 Si02
#       6
#     8   8   8   8   8   8
#     4  10  20  36  58  79  99 124 161 209 262 309
#     4  10  19  31  47  68  99 138 175 204 242 297
#     4  10  20  33  50  74 104 135 171 211 254 300
#     4  10  19  31  49  72 101 140 181 215 248 294
#     4   9  19  33  49  70  97 130 165 203 249 306
#     4  10  19  29  44  69 101 134 167 207 248 291
#
# _framework density 16.561674
#
# number of rings (size 3 to 8) (size 9 to 14) (size 15 to 20)
#    0.000    2.167    1.667    2.000    0.000    5.667 
#    0.000    0.000    0.000    1.000    0.000    2.333 
#    0.000    0.000    0.000    0.000    0.000    0.000 
#
# Total GULP energy -267681.487813 kJ/mol
# GULP energy per Si atom -5576.697663 kJ/mol
# Density = 1.652398 g / cm^3
# Si number density = 16.561674 Si / 1000 Ang^3
#
#
#
# Elastic Constant Matrix: (Units=GPa)
#
#
# Indices 1 2 3 4 5 6 
#
# 1 24.0388 40.7287 26.8611 0.0000 0.0000 0.0000
# 2 40.7287 166.7418 61.0277 0.0000 0.0000 0.0000
# 3 26.8611 61.0277 80.2113 0.0000 0.0000 0.0000
# 4 0.0000 0.0000 0.0000 9.7566 0.0000 0.0000
# 5 0.0000 0.0000 0.0000 0.0000 25.1794 0.0000
# 6 0.0000 0.0000 0.0000 0.0000 0.0000 -12.4120
#
#
#
# Elastic Compliance Matrix: (Units=1/GPa)
#
#
# Indices 1 2 3 4 5 6 
#
# 1 0.086051 -0.014514 -0.017774 0.000000 0.000000 0.000000
# 2 -0.014514 0.010760 -0.003326 0.000000 0.000000 0.000000
# 3 -0.017774 -0.003326 0.020950 0.000000 0.000000 0.000000
# 4 0.000000 0.000000 0.000000 0.102495 0.000000 0.000000
# 5 0.000000 0.000000 0.000000 0.000000 0.039715 0.000000
# 6 0.000000 0.000000 0.000000 0.000000 0.000000 -0.080567
#
#
# Mechanical properties :
#
#
# Convention : Reuss Voigt Hill
#
# Bulk Modulus (GPa) = 21.49025 58.69188 40.09106
# Shear Modulus (GPa) = 18.78698 13.99643 16.39171
#
# Velocity S-wave (km/s) = 3.37169 2.91023 3.14942
# Velocity P-wave (km/s) = 5.30677 6.84163 6.12249
#
# Compressibility (1/GPa) = 0.04653273
#
# Stress axis : x y z
#
# Youngs Moduli (GPa) = 11.62105 92.93858 47.73297
#
# Poissons Ratio (x) = 1.34888 0.84841
# Poissons Ratio (y) = 0.16866 0.15877
# Poissons Ratio (z) = 0.20655 0.30913
#
# Static dielectric constant tensor:
#      x y z
#    x 1.553700 0.000000 0.000000 
#    y 0.000000 1.587750 0.000000 
#    z 0.000000 0.000000 1.525840 
# 
# From -- ./inp_files/33839.got.cif
#   From: 2010.05.17/outbox.cif.g08.bks.cpg/sg53_17_cif.got.tgz:33839.got - 2010.06.03 12:45:16.
