data_PCOD9415919
_publ_section_title
;
Structure prediction by ZEFSAII (Michael W. Deem and Ramdas Pophale) SiO2 
 PCOD9415919
Probable space group: P M N A
;
_chemical_formula_sum "Si O2"
_cell_formula_units_Z 48
_cell_length_a 8.597082
_cell_length_b 32.494725
_cell_length_c 9.498441
_cell_angle_alpha 90.000000
_cell_angle_beta 90.000000
_cell_angle_gamma 90.000000
_cell_volume 2653.482724
_symmetry_space_group_name_H-M "P M N A"
_symmetry_group_IT_number 53
_symmetry_cell_setting 'orthorhombic'
loop_
_space_group_symop_operation_xyz
x,y,z
1/2-x,-y,1/2+z
x,-y,-z
1/2-x,y,1/2-z
-x,-y,-z
1/2+x,y,1/2-z
-x,y,z
1/2+x,-y,1/2+z
loop_
_atom_site_type_symbol
_atom_site_label
_atom_site_fract_x
_atom_site_fract_y
_atom_site_fract_z
Si Si1 0.313310 0.539860 0.408575
Si Si2 0.312222 0.961704 0.407695
Si Si3 0.312608 0.384665 0.089704
Si Si4 0.186776 0.795477 0.590892
Si Si5 0.312803 0.294102 0.090877
Si Si6 0.813591 0.870123 0.091734
O O1 0.265378 0.500000 0.500000
O O2 0.250000 0.537484 0.250000
O O3 0.500000 0.540923 0.403604
O O4 0.252286 0.579999 0.489790
O O5 0.250000 0.965674 0.250000
O O6 0.500000 0.962908 0.404342
O O7 0.267187 0.916003 0.460477
O O8 0.256201 0.000000 0.500000
O O9 0.250000 0.389315 0.250000
O O10 0.500000 0.386957 0.094245
O O11 0.265360 0.338924 0.034334
O O12 0.250000 0.798095 0.750000
O O13 0.235207 0.750328 0.530076
O O14 0.249552 0.833363 0.501981
O O15 0.000000 0.797009 0.594196
O O16 0.250000 0.293777 0.250000
O O17 0.500000 0.294143 0.093900
O O18 0.750000 0.866192 0.250000
O O19 0.000000 0.868198 0.094372
#
# Coordination Sequence:
#
# PCOD9415919 Si02
#       6
#     8   8   8   8   8   8
#     4  11  24  40  58  81 109 141 177 217 262 311
#     4   9  19  35  53  74 100 130 166 208 254 306
#     4  10  19  34  57  83 110 140 176 216 260 309
#     4  10  19  33  53  78 107 138 175 216 258 304
#     4   8  16  30  50  76 105 137 172 212 256 304
#     4  10  20  35  53  74 102 136 173 212 258 310
#
# _framework density 18.089435000000002
#
# number of rings (size 3 to 8) (size 9 to 14) (size 15 to 20)
#    0.000    2.333    0.000    2.500    0.000    5.667 
#    0.000    2.500    0.000    0.000    0.000    0.000 
#    0.000    0.000    0.000    0.000    0.000    0.000 
#
# Total GULP energy -267588.070282 kJ/mol
# GULP energy per Si atom -5574.751464 kJ/mol
# Density = 1.804826 g / cm^3
# Si number density = 18.089435 Si / 1000 Ang^3
#
#
#
# Elastic Constant Matrix: (Units=GPa)
#
#
# Indices 1 2 3 4 5 6 
#
# 1 39.1365 51.7717 26.9474 0.0000 0.0000 0.0000
# 2 51.7717 239.8719 96.4905 0.0000 0.0000 0.0000
# 3 26.9474 96.4905 82.2766 0.0000 0.0000 0.0000
# 4 0.0000 0.0000 0.0000 34.8517 0.0000 0.0000
# 5 0.0000 0.0000 0.0000 0.0000 30.1598 0.0000
# 6 0.0000 0.0000 0.0000 0.0000 0.0000 25.7162
#
#
#
# Elastic Compliance Matrix: (Units=1/GPa)
#
#
# Indices 1 2 3 4 5 6 
#
# 1 0.036900 -0.005873 -0.005197 0.000000 0.000000 0.000000
# 2 -0.005873 0.008827 -0.008428 0.000000 0.000000 0.000000
# 3 -0.005197 -0.008428 0.023740 0.000000 0.000000 0.000000
# 4 0.000000 0.000000 0.000000 0.028693 0.000000 0.000000
# 5 0.000000 0.000000 0.000000 0.000000 0.033157 0.000000
# 6 0.000000 0.000000 0.000000 0.000000 0.000000 0.038886
#
#
# Mechanical properties :
#
#
# Convention : Reuss Voigt Hill
#
# Bulk Modulus (GPa) = 32.81984 79.07827 55.94905
# Shear Modulus (GPa) = 22.79390 30.55058 26.67224
#
# Velocity S-wave (km/s) = 3.55359 4.11404 3.84404
# Velocity P-wave (km/s) = 5.91776 8.14722 7.12029
#
# Compressibility (1/GPa) = 0.03046938
#
# Stress axis : x y z
#
# Youngs Moduli (GPa) = 27.10032 113.29134 42.12227
#
# Poissons Ratio (x) = 0.66541 0.21893
# Poissons Ratio (y) = 0.15917 0.35501
# Poissons Ratio (z) = 0.14085 0.95482
#
# Static dielectric constant tensor:
#      x y z
#    x 1.616600 0.000000 0.000000 
#    y 0.000000 1.672230 0.000000 
#    z 0.000000 0.000000 1.562560 
# 
# From -- ./inp_files/6701.got.cif
#   From: 2010.05.17/outbox.cif.g08.bks.cpg/sg53_4_cif.got.tgz:6701.got - 2010.06.03 12:45:16.
