data_PCOD9415410
_publ_section_title
;
Structure prediction by ZEFSAII (Michael W. Deem and Ramdas Pophale) SiO2 
 PCOD9415410
Probable space group: P M N A
;
_chemical_formula_sum "Si O2"
_cell_formula_units_Z 40
_cell_length_a 8.461861
_cell_length_b 26.950332
_cell_length_c 9.945411
_cell_angle_alpha 90.000000
_cell_angle_beta 90.000000
_cell_angle_gamma 90.000000
_cell_volume 2268.050613
_symmetry_space_group_name_H-M "P M N A"
_symmetry_group_IT_number 53
_symmetry_cell_setting 'orthorhombic'
loop_
_space_group_symop_operation_xyz
x,y,z
1/2-x,-y,1/2+z
x,-y,-z
1/2-x,y,1/2-z
-x,-y,-z
1/2+x,y,1/2-z
-x,y,z
1/2+x,-y,1/2+z
loop_
_atom_site_type_symbol
_atom_site_label
_atom_site_fract_x
_atom_site_fract_y
_atom_site_fract_z
Si Si1 0.810762 0.653362 0.403578
Si Si2 0.690965 0.043002 0.400592
Si Si3 0.809007 0.844922 0.901067
Si Si4 0.810923 0.757600 0.096987
Si Si5 0.691083 0.544004 0.096885
O O1 0.750000 0.652914 0.250000
O O2 0.742766 0.704308 0.461763
O O3 0.763005 0.598988 0.456626
O O4 0.000000 0.656623 0.404637
O O5 0.750000 0.033946 0.250000
O O6 0.500000 0.042292 0.400354
O O7 0.741015 0.099004 0.439425
O O8 0.747529 0.000000 0.500000
O O9 0.750000 0.835371 0.750000
O O10 0.000000 0.844009 0.899672
O O11 0.754233 0.803030 0.004900
O O12 0.750000 0.762168 0.250000
O O13 0.000000 0.758086 0.101730
O O14 0.750000 0.538323 0.250000
O O15 0.500000 0.542805 0.100758
O O16 0.746911 0.500000 0.000000
#
# Coordination Sequence:
#
# PCOD9415410 Si02
#       5
#     8   8   8   8   8
#     4   9  16  28  47  68  92 122 155 191 231 273
#     4   9  18  33  51  71  96 124 156 194 233 275
#     4   9  19  34  50  69  95 127 158 190 232 279
#     4  10  19  31  48  71  96 121 155 195 232 274
#     4   9  18  32  49  70  95 122 154 192 232 276
#
# _framework density 17.636289999999999
#
# number of rings (size 3 to 8) (size 9 to 14) (size 15 to 20)
#    0.000    2.800    0.000    2.400    0.000    4.000 
#    0.000    1.000    0.000    4.800    0.000    0.000 
#    0.000    0.000    0.000    0.000    0.000    0.000 
#
# Total GULP energy -222812.442418 kJ/mol
# GULP energy per Si atom -5570.311060 kJ/mol
# Density = 1.759615 g / cm^3
# Si number density = 17.636290 Si / 1000 Ang^3
#
#
#
# Elastic Constant Matrix: (Units=GPa)
#
#
# Indices 1 2 3 4 5 6 
#
# 1 18.9576 29.8476 12.5697 0.0000 0.0000 0.0000
# 2 29.8476 212.1588 99.4250 0.0000 0.0000 0.0000
# 3 12.5697 99.4250 68.6437 0.0000 0.0000 0.0000
# 4 0.0000 0.0000 0.0000 37.0085 0.0000 0.0000
# 5 0.0000 0.0000 0.0000 0.0000 20.4624 0.0000
# 6 0.0000 0.0000 0.0000 0.0000 0.0000 30.6212
#
#
#
# Elastic Compliance Matrix: (Units=1/GPa)
#
#
# Indices 1 2 3 4 5 6 
#
# 1 0.068179 -0.011646 0.004384 0.000000 0.000000 0.000000
# 2 -0.011646 0.016663 -0.022003 0.000000 0.000000 0.000000
# 3 0.004384 -0.022003 0.045634 0.000000 0.000000 0.000000
# 4 0.000000 0.000000 0.000000 0.027021 0.000000 0.000000
# 5 0.000000 0.000000 0.000000 0.000000 0.048870 0.000000
# 6 0.000000 0.000000 0.000000 0.000000 0.000000 0.032657
#
#
# Mechanical properties :
#
#
# Convention : Reuss Voigt Hill
#
# Bulk Modulus (GPa) = 13.89916 64.82720 39.36318
# Shear Modulus (GPa) = 15.55038 28.14627 21.84833
#
# Velocity S-wave (km/s) = 2.97261 3.99924 3.52352
# Velocity P-wave (km/s) = 4.43621 7.62646 6.23870
#
# Compressibility (1/GPa) = 0.07194681
#
# Stress axis : x y z
#
# Youngs Moduli (GPa) = 14.66731 60.01290 21.91344
#
# Poissons Ratio (x) = 0.69894 -0.09608
# Poissons Ratio (y) = 0.17082 0.48215
# Poissons Ratio (z) = -0.06431 1.32044
#
# Static dielectric constant tensor:
#      x y z
#    x 1.606090 0.000000 0.000000 
#    y 0.000000 1.657840 0.000000 
#    z 0.000000 0.000000 1.554290 
# 
# From -- ./inp_files/6428.got.cif
#   From: 2010.05.17/outbox.cif.g08.bks.cpg/sg53_4_cif.got.tgz:6428.got - 2010.06.03 12:45:16.
