data_PCOD9415772
_publ_section_title
;
Structure prediction by ZEFSAII (Michael W. Deem and Ramdas Pophale) SiO2 
 PCOD9415772
Probable space group: P M N A
;
_chemical_formula_sum "Si O2"
_cell_formula_units_Z 48
_cell_length_a 8.616331
_cell_length_b 21.485197
_cell_length_c 14.110247
_cell_angle_alpha 90.000000
_cell_angle_beta 90.000000
_cell_angle_gamma 90.000000
_cell_volume 2612.139283
_symmetry_space_group_name_H-M "P M N A"
_symmetry_group_IT_number 53
_symmetry_cell_setting 'orthorhombic'
loop_
_space_group_symop_operation_xyz
x,y,z
1/2-x,-y,1/2+z
x,-y,-z
1/2-x,y,1/2-z
-x,-y,-z
1/2+x,y,1/2-z
-x,y,z
1/2+x,-y,1/2+z
loop_
_atom_site_type_symbol
_atom_site_label
_atom_site_fract_x
_atom_site_fract_y
_atom_site_fract_z
Si Si1 0.814006 0.531743 0.144739
Si Si2 0.186323 0.965277 0.643922
Si Si3 0.812847 0.281459 0.356474
Si Si4 0.184234 0.901729 0.144651
Si Si5 0.687362 0.841401 0.969525
Si Si6 0.187105 0.590388 0.541322
O O1 0.750000 0.543799 0.250000
O O2 0.753418 0.464714 0.107431
O O3 0.000000 0.531859 0.145620
O O4 0.752104 0.579012 0.064238
O O5 0.250000 0.958304 0.750000
O O6 0.232649 0.904034 0.586670
O O7 0.000000 0.969257 0.644402
O O8 0.250863 0.031448 0.609143
O O9 0.750000 0.282724 0.250000
O O10 0.762067 0.219499 0.412202
O O11 0.768572 0.343465 0.413953
O O12 0.000000 0.280169 0.351751
O O13 0.250000 0.892654 0.250000
O O14 0.241395 0.848922 0.073212
O O15 0.000000 0.904857 0.148320
O O16 0.500000 0.840450 0.976734
O O17 0.000000 0.585299 0.539001
#
# Coordination Sequence:
#
# PCOD9415772 Si02
#       6
#     8   8   8   8   8   8
#     4  11  21  35  57  85 115 148 185 228 273 318
#     4  10  19  32  53  78 107 139 172 217 268 318
#     4  10  22  38  58  82 112 146 179 218 263 317
#     4  11  22  36  55  77 102 135 176 223 272 323
#     4  10  21  37  54  77 108 141 177 218 265 315
#     4  10  20  36  57  84 115 148 185 225 270 319
#
# _framework density 18.375744000000001
#
# number of rings (size 3 to 8) (size 9 to 14) (size 15 to 20)
#    0.000    1.667    0.000    7.500    0.000    6.667 
#    0.000    0.833    0.000    0.000    0.000    0.000 
#    0.000    0.000    0.000    0.000    0.000    0.000 
#
# Total GULP energy -268187.082427 kJ/mol
# GULP energy per Si atom -5587.230884 kJ/mol
# Density = 1.833392 g / cm^3
# Si number density = 18.375744 Si / 1000 Ang^3
#
#
#
# Elastic Constant Matrix: (Units=GPa)
#
#
# Indices 1 2 3 4 5 6 
#
# 1 74.1758 43.5799 48.6675 0.0000 0.0000 0.0000
# 2 43.5799 132.9311 104.2798 0.0000 0.0000 0.0000
# 3 48.6675 104.2798 163.9587 0.0000 0.0000 0.0000
# 4 0.0000 0.0000 0.0000 27.4659 0.0000 0.0000
# 5 0.0000 0.0000 0.0000 0.0000 30.3958 0.0000
# 6 0.0000 0.0000 0.0000 0.0000 0.0000 19.6599
#
#
#
# Elastic Compliance Matrix: (Units=1/GPa)
#
#
# Indices 1 2 3 4 5 6 
#
# 1 0.017441 -0.003306 -0.003074 0.000000 0.000000 0.000000
# 2 -0.003306 0.015640 -0.008966 0.000000 0.000000 0.000000
# 3 -0.003074 -0.008966 0.012714 0.000000 0.000000 0.000000
# 4 0.000000 0.000000 0.000000 0.036409 0.000000 0.000000
# 5 0.000000 0.000000 0.000000 0.000000 0.032899 0.000000
# 6 0.000000 0.000000 0.000000 0.000000 0.000000 0.050865
#
#
# Mechanical properties :
#
#
# Convention : Reuss Voigt Hill
#
# Bulk Modulus (GPa) = 66.21443 84.90222 75.55833
# Shear Modulus (GPa) = 24.78996 27.14022 25.96509
#
# Velocity S-wave (km/s) = 3.67694 3.84729 3.76308
# Velocity P-wave (km/s) = 7.35788 8.12645 7.75170
#
# Compressibility (1/GPa) = 0.01510245
#
# Stress axis : x y z
#
# Youngs Moduli (GPa) = 57.33629 63.93853 78.65358
#
# Poissons Ratio (x) = 0.21140 0.24179
# Poissons Ratio (y) = 0.18957 0.70520
# Poissons Ratio (z) = 0.17626 0.57326
#
# Static dielectric constant tensor:
#      x y z
#    x 1.617790 0.000000 0.000000 
#    y 0.000000 1.624450 0.000000 
#    z 0.000000 0.000000 1.626060 
# 
# From -- ./inp_files/20347.got.cif
#   From: 2010.05.17/outbox.cif.g08.bks.cpg/sg53_11_cif.got.tgz:20347.got - 2010.06.03 12:45:16.
