data_PCOD9415457
_publ_section_title
;
Structure prediction by ZEFSAII (Michael W. Deem and Ramdas Pophale) SiO2 
 PCOD9415457
Probable space group: P M N A
;
_chemical_formula_sum "Si O2"
_cell_formula_units_Z 40
_cell_length_a 17.485943
_cell_length_b 13.794802
_cell_length_c 7.250294
_cell_angle_alpha 90.000000
_cell_angle_beta 90.000000
_cell_angle_gamma 90.000000
_cell_volume 1748.880548
_symmetry_space_group_name_H-M "P M N A"
_symmetry_group_IT_number 53
_symmetry_cell_setting 'orthorhombic'
loop_
_space_group_symop_operation_xyz
x,y,z
1/2-x,-y,1/2+z
x,-y,-z
1/2-x,y,1/2-z
-x,-y,-z
1/2+x,y,1/2-z
-x,y,z
1/2+x,-y,1/2+z
loop_
_atom_site_type_symbol
_atom_site_label
_atom_site_fract_x
_atom_site_fract_y
_atom_site_fract_z
Si Si1 0.160989 0.296335 0.285307
Si Si2 0.409606 0.898471 0.809953
Si Si3 0.340900 0.093807 0.778303
Si Si4 0.840668 0.693100 0.276101
Si Si5 0.587875 0.505939 0.775474
O O1 0.250000 0.278801 0.250000
O O2 0.113975 0.203000 0.218637
O O3 0.145973 0.302691 0.504347
O O4 0.137049 0.401810 0.213090
O O5 0.500000 0.901252 0.844491
O O6 0.382984 0.997010 0.710811
O O7 0.363877 0.900103 0.005020
O O8 0.250000 0.082617 0.750000
O O9 0.362398 0.200307 0.702012
O O10 0.750000 0.680526 0.250000
O O11 0.883427 0.598108 0.205785
O O12 0.500000 0.522369 0.727103
O O13 0.592519 0.500000 0.000000
#
# Coordination Sequence:
#
# PCOD9415457 Si02
#       5
#     8   8   8   8   8
#     4  10  19  31  50  73  97 126 161 204 246 287
#     4  10  19  31  49  74  99 126 165 208 247 291
#     4   9  17  29  46  71  97 124 160 203 246 288
#     4   9  18  31  48  70  94 124 159 197 239 290
#     4   9  17  29  47  71  96 122 158 202 243 286
#
# _framework density 22.871772
#
# number of rings (size 3 to 8) (size 9 to 14) (size 15 to 20)
#    0.000    2.600    0.000    3.000    0.000    5.600 
#    0.000    0.000    0.000    3.600    0.000   79.800 
#    0.000    0.000    0.000    0.000    0.000    0.000 
#
# Total GULP energy -223306.077914 kJ/mol
# GULP energy per Si atom -5582.651948 kJ/mol
# Density = 2.281972 g / cm^3
# Si number density = 22.871772 Si / 1000 Ang^3
#
#
#
# Elastic Constant Matrix: (Units=GPa)
#
#
# Indices 1 2 3 4 5 6 
#
# 1 126.1761 81.5240 7.3672 0.0000 0.0000 0.0000
# 2 81.5240 219.3435 1.1015 0.0000 0.0000 0.0000
# 3 7.3672 1.1015 95.7113 0.0000 0.0000 0.0000
# 4 0.0000 0.0000 0.0000 -17.1722 0.0000 0.0000
# 5 0.0000 0.0000 0.0000 0.0000 25.0746 0.0000
# 6 0.0000 0.0000 0.0000 0.0000 0.0000 97.6706
#
#
#
# Elastic Compliance Matrix: (Units=1/GPa)
#
#
# Indices 1 2 3 4 5 6 
#
# 1 0.010485 -0.003893 -0.000762 0.000000 0.000000 0.000000
# 2 -0.003893 0.006005 0.000231 0.000000 0.000000 0.000000
# 3 -0.000762 0.000231 0.010504 0.000000 0.000000 0.000000
# 4 0.000000 0.000000 0.000000 -0.058234 0.000000 0.000000
# 5 0.000000 0.000000 0.000000 0.000000 0.039881 0.000000
# 6 0.000000 0.000000 0.000000 0.000000 0.000000 0.010238
#
#
# Mechanical properties :
#
#
# Convention : Reuss Voigt Hill
#
# Bulk Modulus (GPa) = 55.11334 69.02401 62.06867
# Shear Modulus (GPa) = 148.02244 44.53048 96.27646
#
# Velocity S-wave (km/s) = 8.05350 4.41723 6.49503
# Velocity P-wave (km/s) = 10.51796 7.50067 9.13476
#
# Compressibility (1/GPa) = 0.01814443
#
# Stress axis : x y z
#
# Youngs Moduli (GPa) = 95.37003 166.52930 95.20080
#
# Poissons Ratio (x) = 0.64835 0.07257
# Poissons Ratio (y) = 0.37131 -0.02195
# Poissons Ratio (z) = 0.07270 -0.03840
#
# Static dielectric constant tensor:
#      x y z
#    x 1.737860 0.000000 0.000000 
#    y 0.000000 1.913150 0.000000 
#    z 0.000000 0.000000 1.847410 
# 
# From -- ./inp_files/8385.got.cif
#   From: 2010.05.17/outbox.cif.g08.bks.cpg/sg53_5_cif.got.tgz:8385.got - 2010.06.03 12:45:16.
