data_PCOD9415311
_publ_section_title
;
Structure prediction by ZEFSAII (Michael W. Deem and Ramdas Pophale) SiO2 
 PCOD9415311
Probable space group: P M N A
;
_chemical_formula_sum "Si O2"
_cell_formula_units_Z 52
_cell_length_a 9.487302
_cell_length_b 14.317773
_cell_length_c 20.933374
_cell_angle_alpha 90.000000
_cell_angle_beta 90.000000
_cell_angle_gamma 90.000000
_cell_volume 2843.527486
_symmetry_space_group_name_H-M "P M N A"
_symmetry_group_IT_number 53
_symmetry_cell_setting 'orthorhombic'
loop_
_space_group_symop_operation_xyz
x,y,z
1/2-x,-y,1/2+z
x,-y,-z
1/2-x,y,1/2-z
-x,-y,-z
1/2+x,y,1/2-z
-x,y,z
1/2+x,-y,1/2+z
loop_
_atom_site_type_symbol
_atom_site_label
_atom_site_fract_x
_atom_site_fract_y
_atom_site_fract_z
Si Si1 0.659255 0.863178 0.946634
Si Si2 0.845266 0.009737 0.334242
Si Si3 0.662420 0.713258 0.625421
Si Si4 0.667933 0.829550 0.312368
Si Si5 0.161981 0.765407 0.430480
Si Si6 0.750000 0.818882 0.750000
Si Si7 0.667083 0.403144 0.031386
O O1 0.500000 0.823794 0.933433
O O2 0.779698 0.800269 0.915625
O O3 0.663441 0.958352 0.907760
O O4 0.674369 0.854344 0.022047
O O5 0.722367 0.937032 0.319478
O O6 0.000000 0.966753 0.322352
O O7 0.836484 0.105731 0.293002
O O8 0.500000 0.694258 0.613200
O O9 0.680296 0.749887 0.698042
O O10 0.754210 0.628659 0.596071
O O11 0.750000 0.793523 0.250000
O O12 0.500000 0.824696 0.307452
O O13 0.728548 0.775805 0.373786
O O14 0.185218 0.677350 0.477448
O O15 0.000000 0.761215 0.406981
O O16 0.500000 0.410856 0.044515
O O17 0.715881 0.500000 0.000000
#
# Coordination Sequence:
#
# PCOD9415311 Si02
#       7
#     8   8   8   8   8   4   8
#     4   8  17  33  53  78 108 144 182 223 275 330
#     4  10  19  33  53  76 107 148 192 230 269 320
#     4  10  19  30  51  84 116 147 184 227 275 327
#     4  12  25  38  53  75 106 146 193 235 275 322
#     4   9  18  36  59  81 108 141 179 223 274 328
#     4  10  20  32  52  78 116 154 188 224 278 326
#     4   9  19  38  64  89 112 143 180 220 277 345
#
# _framework density 18.287144999999999
#
# number of rings (size 3 to 8) (size 9 to 14) (size 15 to 20)
#    0.000    2.308    0.769    3.231    0.000    7.692 
#    0.000    3.077    1.692    0.000    0.000    0.000 
#    0.000    0.000    0.000    0.000    0.000    0.000 
#
# Total GULP energy -289561.703662 kJ/mol
# GULP energy per Si atom -5568.494301 kJ/mol
# Density = 1.824552 g / cm^3
# Si number density = 18.287145 Si / 1000 Ang^3
#
#
#
# Elastic Constant Matrix: (Units=GPa)
#
#
# Indices 1 2 3 4 5 6 
#
# 1 122.3216 23.5428 50.8335 0.0000 0.0000 0.0000
# 2 23.5428 64.4984 36.8656 0.0000 0.0000 0.0000
# 3 50.8335 36.8656 72.0959 0.0000 0.0000 0.0000
# 4 0.0000 0.0000 0.0000 25.2378 0.0000 0.0000
# 5 0.0000 0.0000 0.0000 0.0000 20.4140 0.0000
# 6 0.0000 0.0000 0.0000 0.0000 0.0000 16.6906
#
#
#
# Elastic Compliance Matrix: (Units=1/GPa)
#
#
# Indices 1 2 3 4 5 6 
#
# 1 0.011581 0.000622 -0.008483 0.000000 0.000000 0.000000
# 2 0.000622 0.021940 -0.011657 0.000000 0.000000 0.000000
# 3 -0.008483 -0.011657 0.025813 0.000000 0.000000 0.000000
# 4 0.000000 0.000000 0.000000 0.039623 0.000000 0.000000
# 5 0.000000 0.000000 0.000000 0.000000 0.048986 0.000000
# 6 0.000000 0.000000 0.000000 0.000000 0.000000 0.059914
#
#
# Mechanical properties :
#
#
# Convention : Reuss Voigt Hill
#
# Bulk Modulus (GPa) = 49.27085 53.48884 51.37985
# Shear Modulus (GPa) = 19.71136 22.31341 21.01239
#
# Velocity S-wave (km/s) = 3.28667 3.49688 3.39340
# Velocity P-wave (km/s) = 6.43462 6.75405 6.59627
#
# Compressibility (1/GPa) = 0.02029598
#
# Stress axis : x y z
#
# Youngs Moduli (GPa) = 86.34820 45.57812 38.74043
#
# Poissons Ratio (x) = -0.02834 0.32865
# Poissons Ratio (y) = -0.05368 0.45161
# Poissons Ratio (z) = 0.73253 0.53132
#
# Static dielectric constant tensor:
#      x y z
#    x 1.626050 0.000000 0.000000 
#    y 0.000000 1.649110 0.000000 
#    z 0.000000 0.000000 1.675980 
# 
# From -- ./inp_files/30669.got.cif
#   From: 2010.05.17/outbox.cif.g08.bks.cpg/sg53_16_cif.got.tgz:30669.got - 2010.06.03 12:45:16.
