data_PCOD9415976
_publ_section_title
;
Structure prediction by ZEFSAII (Michael W. Deem and Ramdas Pophale) SiO2 
 PCOD9415976
Probable space group: P M N A
;
_chemical_formula_sum "Si O2"
_cell_formula_units_Z 56
_cell_length_a 8.834947
_cell_length_b 22.732135
_cell_length_c 14.624020
_cell_angle_alpha 90.000000
_cell_angle_beta 90.000000
_cell_angle_gamma 90.000000
_cell_volume 2937.047345
_symmetry_space_group_name_H-M "P M N A"
_symmetry_group_IT_number 53
_symmetry_cell_setting 'orthorhombic'
loop_
_space_group_symop_operation_xyz
x,y,z
1/2-x,-y,1/2+z
x,-y,-z
1/2-x,y,1/2-z
-x,-y,-z
1/2+x,y,1/2-z
-x,y,z
1/2+x,-y,1/2+z
loop_
_atom_site_type_symbol
_atom_site_label
_atom_site_fract_x
_atom_site_fract_y
_atom_site_fract_z
Si Si1 0.170741 0.518169 0.893220
Si Si2 0.318556 0.756526 0.851007
Si Si3 0.318639 0.970482 0.846894
Si Si4 0.179659 0.398616 0.656777
Si Si5 0.318290 0.635234 0.952663
Si Si6 0.680200 0.133547 0.457636
Si Si7 0.180030 0.899695 0.156491
O O1 0.270667 0.466941 0.849683
O O2 0.242519 0.582710 0.894983
O O3 0.000000 0.517988 0.855706
O O4 0.162788 0.500000 0.000000
O O5 0.250000 0.752091 0.750000
O O6 0.500000 0.762215 0.845353
O O7 0.282313 0.697856 0.908652
O O8 0.250281 0.812801 0.902103
O O9 0.250000 0.949344 0.750000
O O10 0.500000 0.970643 0.844313
O O11 0.256786 0.926515 0.923009
O O12 0.256268 0.036472 0.858786
O O13 0.250000 0.373566 0.750000
O O14 0.229033 0.370186 0.559623
O O15 0.000000 0.394314 0.662297
O O16 0.500000 0.626675 0.950517
O O17 0.500000 0.129944 0.442168
O O18 0.706713 0.138437 0.566223
O O19 0.250000 0.875324 0.250000
O O20 0.000000 0.908374 0.167600
#
# Coordination Sequence:
#
# PCOD9415976 Si02
#       7
#     8   8   8   8   8   8   8
#     4   9  17  30  51  79 109 142 180 222 268 319
#     4  11  24  42  62  83 108 141 184 231 278 329
#     4  11  21  34  56  85 117 151 186 227 275 328
#     4  10  19  33  54  81 113 147 183 224 273 327
#     4   9  20  38  57  78 109 148 185 226 276 328
#     4  11  23  39  58  82 113 148 186 229 277 326
#     4  10  21  37  58  84 115 148 183 226 274 328
#
# _framework density 19.066768
#
# number of rings (size 3 to 8) (size 9 to 14) (size 15 to 20)
#    0.000    1.857    0.000    5.143    0.000    8.000 
#    0.000    2.143    0.000    3.429    0.000    0.000 
#    0.000    0.000    0.000    0.000    0.000    0.000 
#
# Total GULP energy -312777.874082 kJ/mol
# GULP energy per Si atom -5585.319180 kJ/mol
# Density = 1.902337 g / cm^3
# Si number density = 19.066768 Si / 1000 Ang^3
#
#
#
# Elastic Constant Matrix: (Units=GPa)
#
#
# Indices 1 2 3 4 5 6 
#
# 1 87.6485 28.7374 58.9159 0.0000 0.0000 0.0000
# 2 28.7374 43.5934 43.9670 0.0000 0.0000 0.0000
# 3 58.9159 43.9670 141.7619 0.0000 0.0000 0.0000
# 4 0.0000 0.0000 0.0000 23.8671 0.0000 0.0000
# 5 0.0000 0.0000 0.0000 0.0000 31.2345 0.0000
# 6 0.0000 0.0000 0.0000 0.0000 0.0000 -18.2379
#
#
#
# Elastic Compliance Matrix: (Units=1/GPa)
#
#
# Indices 1 2 3 4 5 6 
#
# 1 0.016805 -0.005870 -0.005163 0.000000 0.000000 0.000000
# 2 -0.005870 0.035432 -0.008549 0.000000 0.000000 0.000000
# 3 -0.005163 -0.008549 0.011851 0.000000 0.000000 0.000000
# 4 0.000000 0.000000 0.000000 0.041899 0.000000 0.000000
# 5 0.000000 0.000000 0.000000 0.000000 0.032016 0.000000
# 6 0.000000 0.000000 0.000000 0.000000 0.000000 -0.054831
#
#
# Mechanical properties :
#
#
# Convention : Reuss Voigt Hill
#
# Bulk Modulus (GPa) = 40.12541 59.58272 49.85406
# Shear Modulus (GPa) = 38.27186 16.79832 27.53509
#
# Velocity S-wave (km/s) = 4.48510 2.97143 3.80431
# Velocity P-wave (km/s) = 6.92184 6.56429 6.74543
#
# Compressibility (1/GPa) = 0.02492186
#
# Stress axis : x y z
#
# Youngs Moduli (GPa) = 59.50755 28.22338 84.37762
#
# Poissons Ratio (x) = 0.16568 0.43567
# Poissons Ratio (y) = 0.34933 0.72137
# Poissons Ratio (z) = 0.30725 0.24129
#
# Static dielectric constant tensor:
#      x y z
#    x 1.646120 0.000000 0.000000 
#    y 0.000000 1.624070 0.000000 
#    z 0.000000 0.000000 1.705390 
# 
# From -- ./inp_files/20601.got.cif
#   From: 2010.05.17/outbox.cif.g08.bks.cpg/sg53_11_cif.got.tgz:20601.got - 2010.06.03 12:45:16.
