data_PCOD9415575
_publ_section_title
;
Structure prediction by ZEFSAII (Michael W. Deem and Ramdas Pophale) SiO2 
 PCOD9415575
Probable space group: P M N A
;
_chemical_formula_sum "Si O2"
_cell_formula_units_Z 48
_cell_length_a 7.456608
_cell_length_b 21.973069
_cell_length_c 14.238503
_cell_angle_alpha 90.000000
_cell_angle_beta 90.000000
_cell_angle_gamma 90.000000
_cell_volume 2332.901289
_symmetry_space_group_name_H-M "P M N A"
_symmetry_group_IT_number 53
_symmetry_cell_setting 'orthorhombic'
loop_
_space_group_symop_operation_xyz
x,y,z
1/2-x,-y,1/2+z
x,-y,-z
1/2-x,y,1/2-z
-x,-y,-z
1/2+x,y,1/2-z
-x,y,z
1/2+x,-y,1/2+z
loop_
_atom_site_type_symbol
_atom_site_label
_atom_site_fract_x
_atom_site_fract_y
_atom_site_fract_z
Si Si1 0.785981 0.536539 0.360446
Si Si2 0.785756 0.598438 0.640846
Si Si3 0.219495 0.659427 0.460537
Si Si4 0.780556 0.907135 0.452350
Si Si5 0.213841 0.031963 0.358264
Si Si6 0.214807 0.781906 0.360883
O O1 0.750000 0.542455 0.250000
O O2 0.716571 0.469201 0.386550
O O3 0.719455 0.597310 0.410041
O O4 0.000000 0.535287 0.377085
O O5 0.750000 0.609528 0.750000
O O6 0.725160 0.649850 0.568573
O O7 0.000000 0.594980 0.631303
O O8 0.283168 0.720211 0.409550
O O9 0.000000 0.660766 0.455991
O O10 0.723540 0.922520 0.559219
O O11 0.717646 0.843298 0.410574
O O12 0.000000 0.906116 0.451083
O O13 0.722784 0.964272 0.387726
O O14 0.250000 0.046781 0.250000
O O15 0.000000 0.030399 0.367480
O O16 0.250000 0.782237 0.250000
O O17 0.000000 0.781930 0.372481
#
# Coordination Sequence:
#
# PCOD9415575 Si02
#       6
#     8   8   8   8   8   8
#     4   9  16  27  44  65  87 111 141 178 218 259
#     4   9  17  30  46  63  84 112 146 181 217 258
#     4   9  17  29  46  65  86 115 147 176 213 264
#     4   8  16  30  47  66  92 124 150 175 217 269
#     4   9  16  29  48  69  92 119 151 184 218 256
#     4  10  19  32  49  68  90 117 147 178 216 262
#
# _framework density 20.575239
#
# number of rings (size 3 to 8) (size 9 to 14) (size 15 to 20)
#    0.000    3.000    0.000    2.500    0.000    2.000 
#    0.000    5.000    0.000    4.000    0.000    0.000 
#    0.000    0.000    0.000    0.000    0.000    0.000 
#
# Total GULP energy -267723.192890 kJ/mol
# GULP energy per Si atom -5577.566519 kJ/mol
# Density = 2.052841 g / cm^3
# Si number density = 20.575239 Si / 1000 Ang^3
#
#
#
# Elastic Constant Matrix: (Units=GPa)
#
#
# Indices 1 2 3 4 5 6 
#
# 1 59.4869 8.5404 -3.0369 0.0000 0.0000 0.0000
# 2 8.5404 167.1463 127.5524 0.0000 0.0000 0.0000
# 3 -3.0369 127.5524 171.8704 0.0000 0.0000 0.0000
# 4 0.0000 0.0000 0.0000 31.9410 0.0000 0.0000
# 5 0.0000 0.0000 0.0000 0.0000 21.9692 0.0000
# 6 0.0000 0.0000 0.0000 0.0000 0.0000 1.5975
#
#
#
# Elastic Compliance Matrix: (Units=1/GPa)
#
#
# Indices 1 2 3 4 5 6 
#
# 1 0.017293 -0.002575 0.002217 0.000000 0.000000 0.000000
# 2 -0.002575 0.014180 -0.010569 0.000000 0.000000 0.000000
# 3 0.002217 -0.010569 0.013701 0.000000 0.000000 0.000000
# 4 0.000000 0.000000 0.000000 0.031308 0.000000 0.000000
# 5 0.000000 0.000000 0.000000 0.000000 0.045518 0.000000
# 6 0.000000 0.000000 0.000000 0.000000 0.000000 0.625961
#
#
# Mechanical properties :
#
#
# Convention : Reuss Voigt Hill
#
# Bulk Modulus (GPa) = 42.88273 73.84616 58.36445
# Shear Modulus (GPa) = 6.43013 28.79806 17.61410
#
# Velocity S-wave (km/s) = 1.76974 3.74524 2.92906
# Velocity P-wave (km/s) = 5.00631 7.39400 6.31404
#
# Compressibility (1/GPa) = 0.02331941
#
# Stress axis : x y z
#
# Youngs Moduli (GPa) = 57.82581 70.52380 72.98701
#
# Poissons Ratio (x) = 0.18162 -0.16180
# Poissons Ratio (y) = 0.14892 0.77139
# Poissons Ratio (z) = -0.12819 0.74535
#
# Static dielectric constant tensor:
#      x y z
#    x 1.808000 0.000000 0.000000 
#    y 0.000000 1.721740 0.000000 
#    z 0.000000 0.000000 1.735820 
# 
# From -- ./inp_files/14954.got.cif
#   From: 2010.05.17/outbox.cif.g08.bks.cpg/sg53_8_cif.got.tgz:14954.got - 2010.06.03 12:45:16.
