data_PCOD9415989
_publ_section_title
;
Structure prediction by ZEFSAII (Michael W. Deem and Ramdas Pophale) SiO2 
 PCOD9415989
Probable space group: P M N A
;
_chemical_formula_sum "Si O2"
_cell_formula_units_Z 64
_cell_length_a 29.884041
_cell_length_b 8.627133
_cell_length_c 11.716780
_cell_angle_alpha 90.000000
_cell_angle_beta 90.000000
_cell_angle_gamma 90.000000
_cell_volume 3020.745189
_symmetry_space_group_name_H-M "P M N A"
_symmetry_group_IT_number 53
_symmetry_cell_setting 'orthorhombic'
loop_
_space_group_symop_operation_xyz
x,y,z
1/2-x,-y,1/2+z
x,-y,-z
1/2-x,y,1/2-z
-x,-y,-z
1/2+x,y,1/2-z
-x,y,z
1/2+x,-y,1/2+z
loop_
_atom_site_type_symbol
_atom_site_label
_atom_site_fract_x
_atom_site_fract_y
_atom_site_fract_z
Si Si1 0.919037 0.111094 0.098675
Si Si2 0.179571 0.685216 0.120679
Si Si3 0.947837 0.850655 0.271083
Si Si4 0.450127 0.362435 0.566741
Si Si5 0.658973 0.332166 0.352982
Si Si6 0.852344 0.852948 0.331817
Si Si7 0.276759 0.674345 0.045822
Si Si8 0.711449 0.867770 0.824271
O O1 0.885571 0.229001 0.161483
O O2 0.943061 0.002059 0.190186
O O3 0.950231 0.221048 0.021989
O O4 0.897792 0.000000 0.000000
O O5 0.160375 0.517657 0.158760
O O6 0.157111 0.816372 0.197854
O O7 0.233375 0.686782 0.126118
O O8 0.170274 0.699572 0.985860
O O9 0.935933 0.706188 0.187243
O O10 0.905316 0.856213 0.355289
O O11 0.000000 0.838200 0.308633
O O12 0.425046 0.500000 0.500000
O O13 0.500000 0.419437 0.591630
O O14 0.693394 0.263857 0.261254
O O15 0.823082 0.723555 0.395708
O O16 0.828126 0.015163 0.354991
O O17 0.278213 0.500000 0.000000
O O18 0.270791 0.790640 0.939296
O O19 0.750000 0.950805 0.750000
#
# Coordination Sequence:
#
# PCOD9415989 Si02
#       8
#     8   8   8   8   8   8   8   8
#     4  10  19  33  54  85 123 163 205 249 315 376
#     4  11  22  40  60  93 134 171 203 250 314 388
#     4  10  21  40  60  84 125 168 212 270 329 381
#     4   9  18  31  53  85 122 161 203 251 313 384
#     4  11  22  36  62  90 127 168 210 248 305 381
#     4  12  26  40  64  97 123 166 217 264 316 379
#     4  12  24  45  64  88 129 174 212 258 315 381
#     4  12  23  42  63  91 126 165 215 263 308 375
#
# _framework density 21.186826
#
# number of rings (size 3 to 8) (size 9 to 14) (size 15 to 20)
#    0.000    1.125    3.750    4.125    3.500    1.500 
#    0.000    0.000    0.000    1.875    0.000    0.000 
#    0.000    0.000    0.000    0.000    0.000    0.000 
#
# Total GULP energy -357198.055868 kJ/mol
# GULP energy per Si atom -5581.219623 kJ/mol
# Density = 2.113860 g / cm^3
# Si number density = 21.186826 Si / 1000 Ang^3
#
#
#
# Elastic Constant Matrix: (Units=GPa)
#
#
# Indices 1 2 3 4 5 6 
#
# 1 151.5240 26.5446 14.0087 0.0000 0.0000 0.0000
# 2 26.5446 88.1257 6.2411 0.0000 0.0000 0.0000
# 3 14.0087 6.2411 33.8444 0.0000 0.0000 0.0000
# 4 0.0000 0.0000 0.0000 20.0680 0.0000 0.0000
# 5 0.0000 0.0000 0.0000 0.0000 25.4755 0.0000
# 6 0.0000 0.0000 0.0000 0.0000 0.0000 26.4387
#
#
#
# Elastic Compliance Matrix: (Units=1/GPa)
#
#
# Indices 1 2 3 4 5 6 
#
# 1 0.007188 -0.001980 -0.002610 0.000000 0.000000 0.000000
# 2 -0.001980 0.012043 -0.001401 0.000000 0.000000 0.000000
# 3 -0.002610 -0.001401 0.030886 0.000000 0.000000 0.000000
# 4 0.000000 0.000000 0.000000 0.049831 0.000000 0.000000
# 5 0.000000 0.000000 0.000000 0.000000 0.039253 0.000000
# 6 0.000000 0.000000 0.000000 0.000000 0.000000 0.037823
#
#
# Mechanical properties :
#
#
# Convention : Reuss Voigt Hill
#
# Bulk Modulus (GPa) = 26.22344 40.78699 33.50522
# Shear Modulus (GPa) = 24.78710 29.50976 27.14843
#
# Velocity S-wave (km/s) = 3.42413 3.73612 3.58352
# Velocity P-wave (km/s) = 5.29500 6.15665 5.74201
#
# Compressibility (1/GPa) = 0.03813383
#
# Stress axis : x y z
#
# Youngs Moduli (GPa) = 139.12433 83.03493 32.37750
#
# Poissons Ratio (x) = 0.16443 0.08450
# Poissons Ratio (y) = 0.27550 0.04537
# Poissons Ratio (z) = 0.36311 0.11635
#
# Static dielectric constant tensor:
#      x y z
#    x 1.835900 0.000000 0.000000 
#    y 0.000000 1.788650 0.000000 
#    z 0.000000 0.000000 1.774760 
# 
# From -- ./inp_files/19015.got.cif
#   From: 2010.05.17/outbox.cif.g08.bks.cpg/sg53_10_cif.got.tgz:19015.got - 2010.06.03 12:45:16.
