data_PCOD9415024
_publ_section_title
;
Structure prediction by ZEFSAII (Michael W. Deem and Ramdas Pophale) SiO2 
 PCOD9415024
Probable space group: P M N A
;
_chemical_formula_sum "Si O2"
_cell_formula_units_Z 32
_cell_length_a 14.934792
_cell_length_b 17.519473
_cell_length_c 5.432923
_cell_angle_alpha 90.000000
_cell_angle_beta 90.000000
_cell_angle_gamma 90.000000
_cell_volume 1421.522593
_symmetry_space_group_name_H-M "P M N A"
_symmetry_group_IT_number 53
_symmetry_cell_setting 'orthorhombic'
loop_
_space_group_symop_operation_xyz
x,y,z
1/2-x,-y,1/2+z
x,-y,-z
1/2-x,y,1/2-z
-x,-y,-z
1/2+x,y,1/2-z
-x,y,z
1/2+x,-y,1/2+z
loop_
_atom_site_type_symbol
_atom_site_label
_atom_site_fract_x
_atom_site_fract_y
_atom_site_fract_z
Si Si1 0.311056 0.000000 0.500000
Si Si2 0.750000 0.264292 0.250000
Si Si3 0.641707 0.542952 0.253274
Si Si4 0.153777 0.838247 0.119026
Si Si5 0.595137 0.698334 0.076806
O O1 0.370211 0.924592 0.447584
O O2 0.250000 0.985966 0.750000
O O3 0.677596 0.209927 0.378802
O O4 0.812481 0.311827 0.428450
O O5 0.614325 0.500000 0.500000
O O6 0.750000 0.545990 0.250000
O O7 0.602004 0.628011 0.262427
O O8 0.614036 0.500000 0.000000
O O9 0.250000 0.847212 0.250000
O O10 0.099784 0.781072 0.292647
O O11 0.500000 0.693070 0.941128
#
# Coordination Sequence:
#
# PCOD9415024 Si02
#       5
#     4   4   8   8   8
#     4  10  18  34  63 100 125 170 232 278 333 404
#     4  10  20  40  66  94 128 180 222 274 334 400
#     4  10  23  42  68  98 130 175 221 276 338 401
#     4   9  19  36  62  91 129 167 224 279 332 399
#     4  11  25  41  64  98 135 179 227 278 339 404
#
# _framework density 22.511071999999999
#
# number of rings (size 3 to 8) (size 9 to 14) (size 15 to 20)
#    0.000    2.000    1.250    2.250    8.750    2.000 
#    0.000    0.625    0.000    1.500    0.000    0.000 
#    0.000    0.000    0.000    0.000    0.000    0.125 
#
# Total GULP energy -178469.616612 kJ/mol
# GULP energy per Si atom -5577.175519 kJ/mol
# Density = 2.245984 g / cm^3
# Si number density = 22.511072 Si / 1000 Ang^3
#
#
#
# Elastic Constant Matrix: (Units=GPa)
#
#
# Indices 1 2 3 4 5 6 
#
# 1 90.9198 43.9074 22.5370 0.0000 0.0000 0.0000
# 2 43.9074 148.9613 41.5961 0.0000 0.0000 0.0000
# 3 22.5370 41.5961 103.9709 0.0000 0.0000 0.0000
# 4 0.0000 0.0000 0.0000 3.7453 0.0000 0.0000
# 5 0.0000 0.0000 0.0000 0.0000 13.9391 0.0000
# 6 0.0000 0.0000 0.0000 0.0000 0.0000 -38.7285
#
#
#
# Elastic Compliance Matrix: (Units=1/GPa)
#
#
# Indices 1 2 3 4 5 6 
#
# 1 0.013015 -0.003432 -0.001448 0.000000 0.000000 0.000000
# 2 -0.003432 0.008462 -0.002642 0.000000 0.000000 0.000000
# 3 -0.001448 -0.002642 0.010989 0.000000 0.000000 0.000000
# 4 0.000000 0.000000 0.000000 0.266999 0.000000 0.000000
# 5 0.000000 0.000000 0.000000 0.000000 0.071740 0.000000
# 6 0.000000 0.000000 0.000000 0.000000 0.000000 -0.025821
#
#
# Mechanical properties :
#
#
# Convention : Reuss Voigt Hill
#
# Bulk Modulus (GPa) = 57.39603 62.21478 59.80540
# Shear Modulus (GPa) = 13.65240 11.51197 12.58218
#
# Velocity S-wave (km/s) = 2.46534 2.26385 2.36674
# Velocity P-wave (km/s) = 5.80138 5.87629 5.83896
#
# Compressibility (1/GPa) = 0.01742281
#
# Stress axis : x y z
#
# Youngs Moduli (GPa) = 76.83430 118.16996 91.00138
#
# Poissons Ratio (x) = 0.40555 0.13178
# Poissons Ratio (y) = 0.26369 0.24040
# Poissons Ratio (z) = 0.11127 0.31217
#
# Static dielectric constant tensor:
#      x y z
#    x 1.771030 0.000000 0.000000 
#    y 0.000000 1.851270 0.000000 
#    z 0.000000 0.000000 3.391180 
# 
# From -- ./inp_files/1297.got.cif
#   From: 2010.05.17/outbox.cif.g08.bks.cpg/sg53_1_cif.got.tgz:1297.got - 2010.06.03 12:45:16.
