data_PCOD9415282
_publ_section_title
;
Structure prediction by ZEFSAII (Michael W. Deem and Ramdas Pophale) SiO2 
 PCOD9415282
Probable space group: P M N A
;
_chemical_formula_sum "Si O2"
_cell_formula_units_Z 40
_cell_length_a 26.681243
_cell_length_b 15.948873
_cell_length_c 4.934520
_cell_angle_alpha 90.000000
_cell_angle_beta 90.000000
_cell_angle_gamma 90.000000
_cell_volume 2099.814699
_symmetry_space_group_name_H-M "P M N A"
_symmetry_group_IT_number 53
_symmetry_cell_setting 'orthorhombic'
loop_
_space_group_symop_operation_xyz
x,y,z
1/2-x,-y,1/2+z
x,-y,-z
1/2-x,y,1/2-z
-x,-y,-z
1/2+x,y,1/2-z
-x,y,z
1/2+x,-y,1/2+z
loop_
_atom_site_type_symbol
_atom_site_label
_atom_site_fract_x
_atom_site_fract_y
_atom_site_fract_z
Si Si1 0.307052 0.676796 0.691099
Si Si2 0.406429 0.761014 0.609494
Si Si3 0.442563 0.339892 0.875160
Si Si4 0.158229 0.420306 0.689826
Si Si5 0.942132 0.942322 0.735589
O O1 0.250000 0.699879 0.750000
O O2 0.347123 0.743409 0.581598
O O3 0.314305 0.599181 0.475140
O O4 0.326253 0.653690 0.988954
O O5 0.433345 0.737898 0.328814
O O6 0.416216 0.854419 0.706750
O O7 0.428878 0.694699 0.827192
O O8 0.500000 0.367656 0.863897
O O9 0.401855 0.409609 0.780292
O O10 0.170074 0.500000 0.500000
O O11 0.000000 0.922420 0.660674
O O12 0.919765 0.000000 0.500000
O O13 0.942438 0.000000 0.000000
#
# Coordination Sequence:
#
# PCOD9415282 Si02
#       5
#     8   8   8   8   8
#     4  10  21  37  56  75  98 135 177 217 263 307
#     4  10  20  34  52  75 104 136 176 216 250 307
#     4  10  19  32  52  75 103 141 174 205 252 309
#     4  10  21  35  52  78 106 131 169 217 262 312
#     4  10  19  30  48  75 105 135 165 204 257 308
#
# _framework density 19.049298
#
# number of rings (size 3 to 8) (size 9 to 14) (size 15 to 20)
#    0.000    2.000    0.000    4.200    0.000    3.600 
#    0.000    0.000    0.000    8.400    0.000    0.000 
#    0.000    0.000    0.000    0.000    0.000    0.000 
#
# Total GULP energy -222943.020059 kJ/mol
# GULP energy per Si atom -5573.575501 kJ/mol
# Density = 1.900594 g / cm^3
# Si number density = 19.049298 Si / 1000 Ang^3
#
#
#
# Elastic Constant Matrix: (Units=GPa)
#
#
# Indices 1 2 3 4 5 6 
#
# 1 112.4243 -0.1265 6.8337 0.0000 0.0000 0.0000
# 2 -0.1265 37.7597 -0.6459 0.0000 0.0000 0.0000
# 3 6.8337 -0.6459 95.4810 0.0000 0.0000 0.0000
# 4 0.0000 0.0000 0.0000 26.9006 0.0000 0.0000
# 5 0.0000 0.0000 0.0000 0.0000 27.9083 0.0000
# 6 0.0000 0.0000 0.0000 0.0000 0.0000 -0.3432
#
#
#
# Elastic Compliance Matrix: (Units=1/GPa)
#
#
# Indices 1 2 3 4 5 6 
#
# 1 0.008934 0.000019 -0.000639 0.000000 0.000000 0.000000
# 2 0.000019 0.026486 0.000178 0.000000 0.000000 0.000000
# 3 -0.000639 0.000178 0.010520 0.000000 0.000000 0.000000
# 4 0.000000 0.000000 0.000000 0.037174 0.000000 0.000000
# 5 0.000000 0.000000 0.000000 0.000000 0.035832 0.000000
# 6 0.000000 0.000000 0.000000 0.000000 0.000000 -2.913362
#
#
# Mechanical properties :
#
#
# Convention : Reuss Voigt Hill
#
# Bulk Modulus (GPa) = 22.19487 28.64306 25.41896
# Shear Modulus (GPa) = -1.79952 26.86672 12.53360
#
# Velocity S-wave (km/s) = -0.97299 3.75957 2.56785
# Velocity P-wave (km/s) = 3.22712 5.82364 4.70792
#
# Compressibility (1/GPa) = 0.04505546
#
# Stress axis : x y z
#
# Youngs Moduli (GPa) = 111.93500 37.75526 95.05484
#
# Poissons Ratio (x) = -0.00072 0.06077
# Poissons Ratio (y) = -0.00213 -0.01690
# Poissons Ratio (z) = 0.07156 -0.00671
#
# Static dielectric constant tensor:
#      x y z
#    x 1.722010 0.000000 0.000000 
#    y 0.000000 1.674300 0.000000 
#    z 0.000000 0.000000 1.679980 
# 
# From -- ./inp_files/3626.got.cif
#   From: 2010.05.17/outbox.cif.g08.bks.cpg/sg53_2_cif.got.tgz:3626.got - 2010.06.03 12:45:16.
