data_PCOD9415366
_publ_section_title
;
Structure prediction by ZEFSAII (Michael W. Deem and Ramdas Pophale) SiO2 
 PCOD9415366
Probable space group: P M N A
;
_chemical_formula_sum "Si O2"
_cell_formula_units_Z 64
_cell_length_a 15.139209
_cell_length_b 8.841432
_cell_length_c 28.078051
_cell_angle_alpha 90.000000
_cell_angle_beta 90.000000
_cell_angle_gamma 90.000000
_cell_volume 3758.311338
_symmetry_space_group_name_H-M "P M N A"
_symmetry_group_IT_number 53
_symmetry_cell_setting 'orthorhombic'
loop_
_space_group_symop_operation_xyz
x,y,z
1/2-x,-y,1/2+z
x,-y,-z
1/2-x,y,1/2-z
-x,-y,-z
1/2+x,y,1/2-z
-x,y,z
1/2+x,-y,1/2+z
loop_
_atom_site_type_symbol
_atom_site_label
_atom_site_fract_x
_atom_site_fract_y
_atom_site_fract_z
Si Si1 0.347430 0.402750 0.269953
Si Si2 0.101734 0.930634 0.947867
Si Si3 0.900049 0.934988 0.781572
Si Si4 0.217577 0.068943 0.864671
Si Si5 0.097126 0.428576 0.675900
Si Si6 0.599946 0.066078 0.823327
Si Si7 0.285609 0.569299 0.363114
Si Si8 0.397672 0.568684 0.552048
O O1 0.250000 0.364242 0.250000
O O2 0.394344 0.488665 0.226641
O O3 0.334396 0.509292 0.315619
O O4 0.392478 0.246024 0.283902
O O5 0.109052 0.749731 0.949913
O O6 0.000000 0.968044 0.934096
O O7 0.169296 0.996380 0.909645
O O8 0.117032 0.000000 0.000000
O O9 0.831577 0.009135 0.817553
O O10 0.883685 0.986875 0.727387
O O11 0.000000 0.981632 0.794101
O O12 0.320852 0.027581 0.859018
O O13 0.209053 0.249916 0.866528
O O14 0.103287 0.247701 0.683972
O O15 0.182042 0.471954 0.644329
O O16 0.000000 0.461506 0.655365
O O17 0.500000 0.027227 0.838859
O O18 0.331760 0.495749 0.408556
O O19 0.379655 0.500000 0.500000
O O20 0.500000 0.529962 0.564288
#
# Coordination Sequence:
#
# PCOD9415366 Si02
#       8
#     8   8   8   8   8   8   8   8
#     4  10  19  31  47  70 101 135 170 207 246 289
#     4  10  21  37  56  78 103 130 161 198 244 296
#     4  11  21  31  46  71 102 136 171 207 248 292
#     4  11  20  33  52  74 101 132 167 206 248 294
#     4   9  18  34  52  71  99 134 170 207 247 291
#     4   9  19  34  51  71  98 134 172 208 247 291
#     4  10  21  33  51  76 100 131 168 205 247 296
#     4  10  21  37  56  77 102 130 160 199 246 295
#
# _framework density 17.028925000000001
#
# number of rings (size 3 to 8) (size 9 to 14) (size 15 to 20)
#    0.000    2.000    0.000    4.125    0.000    7.000 
#    0.000    0.000    0.000    0.750    0.000    0.000 
#    0.000    0.000    0.000    0.000    0.000    0.000 
#
# Total GULP energy -357241.841053 kJ/mol
# GULP energy per Si atom -5581.903766 kJ/mol
# Density = 1.699017 g / cm^3
# Si number density = 17.028925 Si / 1000 Ang^3
#
#
#
# Elastic Constant Matrix: (Units=GPa)
#
#
# Indices 1 2 3 4 5 6 
#
# 1 139.4859 53.5495 84.6370 0.0000 0.0000 0.0000
# 2 53.5495 55.9226 44.0339 0.0000 0.0000 0.0000
# 3 84.6370 44.0339 94.5119 0.0000 0.0000 0.0000
# 4 0.0000 0.0000 0.0000 32.7588 0.0000 0.0000
# 5 0.0000 0.0000 0.0000 0.0000 25.6774 0.0000
# 6 0.0000 0.0000 0.0000 0.0000 0.0000 24.2967
#
#
#
# Elastic Compliance Matrix: (Units=1/GPa)
#
#
# Indices 1 2 3 4 5 6 
#
# 1 0.017222 -0.006866 -0.012224 0.000000 0.000000 0.000000
# 2 -0.006866 0.030981 -0.008285 0.000000 0.000000 0.000000
# 3 -0.012224 -0.008285 0.025387 0.000000 0.000000 0.000000
# 4 0.000000 0.000000 0.000000 0.030526 0.000000 0.000000
# 5 0.000000 0.000000 0.000000 0.000000 0.038945 0.000000
# 6 0.000000 0.000000 0.000000 0.000000 0.000000 0.041158
#
#
# Mechanical properties :
#
#
# Convention : Reuss Voigt Hill
#
# Bulk Modulus (GPa) = 53.07934 72.70678 62.89306
# Shear Modulus (GPa) = 20.38735 23.72658 22.05697
#
# Velocity S-wave (km/s) = 3.46384 3.73676 3.60288
# Velocity P-wave (km/s) = 6.87280 7.83623 7.37027
#
# Compressibility (1/GPa) = 0.01883972
#
# Stress axis : x y z
#
# Youngs Moduli (GPa) = 58.06397 32.27812 39.38955
#
# Poissons Ratio (x) = 0.22164 0.48149
# Poissons Ratio (y) = 0.39869 0.32635
# Poissons Ratio (z) = 0.70976 0.26743
#
# Static dielectric constant tensor:
#      x y z
#    x 1.600980 0.000000 0.000000 
#    y 0.000000 1.569310 0.000000 
#    z 0.000000 0.000000 1.531390 
# 
# From -- ./inp_files/35358.got.cif
#   From: 2010.05.17/outbox.cif.g08.bks.cpg/sg53_18_cif.got.tgz:35358.got - 2010.06.03 12:45:16.
