data_PCOD9415011
_publ_section_title
;
Structure prediction by ZEFSAII (Michael W. Deem and Ramdas Pophale) SiO2 
 PCOD9415011
Probable space group: P M N A
;
_chemical_formula_sum "Si O2"
_cell_formula_units_Z 64
_cell_length_a 8.454100
_cell_length_b 15.977429
_cell_length_c 24.437373
_cell_angle_alpha 90.000000
_cell_angle_beta 90.000000
_cell_angle_gamma 90.000000
_cell_volume 3300.872843
_symmetry_space_group_name_H-M "P M N A"
_symmetry_group_IT_number 53
_symmetry_cell_setting 'orthorhombic'
loop_
_space_group_symop_operation_xyz
x,y,z
1/2-x,-y,1/2+z
x,-y,-z
1/2-x,y,1/2-z
-x,-y,-z
1/2+x,y,1/2-z
-x,y,z
1/2+x,-y,1/2+z
loop_
_atom_site_type_symbol
_atom_site_label
_atom_site_fract_x
_atom_site_fract_y
_atom_site_fract_z
Si Si1 0.810323 0.001942 0.188218
Si Si2 0.190142 0.599181 0.997714
Si Si3 0.311208 0.499347 0.688448
Si Si4 0.811793 0.345450 0.381361
Si Si5 0.306889 0.341407 0.617828
Si Si6 0.309423 0.901877 0.000962
Si Si7 0.309718 0.155950 0.617207
Si Si8 0.308567 0.158318 0.118800
O O1 0.750000 0.999685 0.250000
O O2 0.754684 0.085721 0.157663
O O3 0.000000 0.000352 0.188281
O O4 0.750978 0.920841 0.154279
O O5 0.270034 0.638891 0.944794
O O6 0.000000 0.608156 0.992162
O O7 0.224355 0.500000 0.000000
O O8 0.239938 0.639602 0.055195
O O9 0.250000 0.502952 0.750000
O O10 0.500000 0.495067 0.689428
O O11 0.263089 0.581206 0.654444
O O12 0.251614 0.416393 0.656756
O O13 0.757545 0.251981 0.365632
O O14 0.000000 0.349252 0.374596
O O15 0.500000 0.342839 0.618422
O O16 0.254385 0.248482 0.634355
O O17 0.500000 0.896633 0.004620
O O18 0.237542 0.859988 0.054519
O O19 0.259085 0.860884 0.943744
O O20 0.265864 0.000000 0.000000
O O21 0.500000 0.155687 0.620420
O O22 0.500000 0.155462 0.120001
#
# Coordination Sequence:
#
# PCOD9415011 Si02
#       8
#     8   8   8   8   8   8   8   8
#     4  11  24  40  60  84 112 149 195 241 288 337
#     4  10  18  34  60  88 118 158 193 228 287 346
#     4  11  23  42  63  84 114 153 197 241 289 344
#     4  11  23  38  59  89 120 152 191 239 288 340
#     4   9  19  37  60  85 118 154 189 232 285 344
#     4  10  19  34  59  87 119 155 185 228 289 344
#     4  10  21  37  59  88 117 150 192 236 280 338
#     4  10  22  40  60  85 119 154 190 233 287 345
#
# _framework density 19.388811
#
# number of rings (size 3 to 8) (size 9 to 14) (size 15 to 20)
#    0.000    1.750    2.500    1.875    0.000    3.500 
#    0.000    1.250    0.000    0.000    0.000    0.000 
#    0.000    0.000    0.000    0.000    0.000    0.000 
#
# Total GULP energy -357588.710241 kJ/mol
# GULP energy per Si atom -5587.323598 kJ/mol
# Density = 1.934468 g / cm^3
# Si number density = 19.388811 Si / 1000 Ang^3
#
#
#
# Elastic Constant Matrix: (Units=GPa)
#
#
# Indices 1 2 3 4 5 6 
#
# 1 17.0490 29.4227 18.7078 0.0000 0.0000 0.0000
# 2 29.4227 183.1124 79.2196 0.0000 0.0000 0.0000
# 3 18.7078 79.2196 141.0857 0.0000 0.0000 0.0000
# 4 0.0000 0.0000 0.0000 -1.6359 0.0000 0.0000
# 5 0.0000 0.0000 0.0000 0.0000 33.8863 0.0000
# 6 0.0000 0.0000 0.0000 0.0000 0.0000 4.2054
#
#
#
# Elastic Compliance Matrix: (Units=1/GPa)
#
#
# Indices 1 2 3 4 5 6 
#
# 1 0.083426 -0.011385 -0.004670 0.000000 0.000000 0.000000
# 2 -0.011385 0.008767 -0.003413 0.000000 0.000000 0.000000
# 3 -0.004670 -0.003413 0.009624 0.000000 0.000000 0.000000
# 4 0.000000 0.000000 0.000000 -0.611297 0.000000 0.000000
# 5 0.000000 0.000000 0.000000 0.000000 0.029510 0.000000
# 6 0.000000 0.000000 0.000000 0.000000 0.000000 0.237787
#
#
# Mechanical properties :
#
#
# Convention : Reuss Voigt Hill
#
# Bulk Modulus (GPa) = 15.90297 66.21635 41.05966
# Shear Modulus (GPa) = -27.42911 21.55099 -2.93906
#
# Velocity S-wave (km/s) = -3.76531 3.33756 -1.23254
# Velocity P-wave (km/s) = 3.26856 7.00560 4.38149
#
# Compressibility (1/GPa) = 0.06288134
#
# Stress axis : x y z
#
# Youngs Moduli (GPa) = 11.98673 114.06361 103.91209
#
# Poissons Ratio (x) = 1.29858 0.48523
# Poissons Ratio (y) = 0.13647 0.35466
# Poissons Ratio (z) = 0.05597 0.38931
#
# Static dielectric constant tensor:
#      x y z
#    x 1.667270 0.000000 0.000000 
#    y 0.000000 1.688150 0.000000 
#    z 0.000000 0.000000 1.634220 
# 
# From -- ./inp_files/34354.got.cif
#   From: 2010.05.17/outbox.cif.g08.bks.cpg/sg53_18_cif.got.tgz:34354.got - 2010.06.03 12:45:16.
