data_PCOD9415368
_publ_section_title
;
Structure prediction by ZEFSAII (Michael W. Deem and Ramdas Pophale) SiO2 
 PCOD9415368
Probable space group: P M N A
;
_chemical_formula_sum "Si O2"
_cell_formula_units_Z 64
_cell_length_a 8.454648
_cell_length_b 22.322394
_cell_length_c 19.729307
_cell_angle_alpha 90.000000
_cell_angle_beta 90.000000
_cell_angle_gamma 90.000000
_cell_volume 3723.472332
_symmetry_space_group_name_H-M "P M N A"
_symmetry_group_IT_number 53
_symmetry_cell_setting 'orthorhombic'
loop_
_space_group_symop_operation_xyz
x,y,z
1/2-x,-y,1/2+z
x,-y,-z
1/2-x,y,1/2-z
-x,-y,-z
1/2+x,y,1/2-z
-x,y,z
1/2+x,-y,1/2+z
loop_
_atom_site_type_symbol
_atom_site_label
_atom_site_fract_x
_atom_site_fract_y
_atom_site_fract_z
Si Si1 0.187764 0.853063 0.413511
Si Si2 0.818630 0.313241 0.020501
Si Si3 0.308852 0.964301 0.174294
Si Si4 0.806052 0.563180 0.031158
Si Si5 0.808829 0.393516 0.820952
Si Si6 0.810429 0.811975 0.941159
Si Si7 0.181119 0.733603 0.135146
Si Si8 0.310558 0.899420 0.825600
O O1 0.246196 0.913724 0.377999
O O2 0.261903 0.840787 0.486951
O O3 0.226671 0.795712 0.366335
O O4 0.000000 0.857006 0.422430
O O5 0.748545 0.379602 0.012833
O O6 0.824669 0.289199 0.942964
O O7 0.000000 0.320806 0.044329
O O8 0.746744 0.256841 0.060300
O O9 0.250000 0.950926 0.250000
O O10 0.500000 0.963117 0.174747
O O11 0.258741 0.032285 0.157298
O O12 0.759568 0.573202 0.109753
O O13 0.000000 0.565374 0.030269
O O14 0.756987 0.500000 0.000000
O O15 0.750000 0.419513 0.750000
O O16 0.751859 0.324256 0.826576
O O17 0.000000 0.391644 0.821239
O O18 0.751292 0.852494 0.880107
O O19 0.000000 0.808384 0.939754
O O20 0.000000 0.744692 0.156729
O O21 0.250000 0.886265 0.750000
O O22 0.500000 0.898416 0.825504
#
# Coordination Sequence:
#
# PCOD9415368 Si02
#       8
#     8   8   8   8   8   8   8   8
#     4  10  19  31  47  70  96 123 156 193 235 278
#     4   7  12  24  42  64  89 113 142 182 222 262
#     4   9  20  35  49  65  90 122 155 195 240 286
#     4   8  13  24  45  70  92 120 159 194 225 268
#     4   9  17  28  43  65  93 123 156 195 233 271
#     4  10  19  32  50  72  97 125 155 191 235 280
#     4   8  15  28  42  59  87 120 150 182 222 268
#     4  10  20  36  54  71  91 118 155 198 244 291
#
# _framework density 17.188258000000001
#
# number of rings (size 3 to 8) (size 9 to 14) (size 15 to 20)
#    0.000    3.125    0.000    3.375    0.000    3.000 
#    0.000    5.000    0.000    1.125    0.000    1.750 
#    0.000    0.000    0.000    0.000    0.000    0.000 
#
# Total GULP energy -356280.704057 kJ/mol
# GULP energy per Si atom -5566.886001 kJ/mol
# Density = 1.714914 g / cm^3
# Si number density = 17.188258 Si / 1000 Ang^3
#
#
#
# Elastic Constant Matrix: (Units=GPa)
#
#
# Indices 1 2 3 4 5 6 
#
# 1 17.9296 21.5884 15.3586 0.0000 0.0000 0.0000
# 2 21.5884 157.9887 88.0909 0.0000 0.0000 0.0000
# 3 15.3586 88.0909 89.3879 0.0000 0.0000 0.0000
# 4 0.0000 0.0000 0.0000 20.1898 0.0000 0.0000
# 5 0.0000 0.0000 0.0000 0.0000 20.2712 0.0000
# 6 0.0000 0.0000 0.0000 0.0000 0.0000 12.1185
#
#
#
# Elastic Compliance Matrix: (Units=1/GPa)
#
#
# Indices 1 2 3 4 5 6 
#
# 1 0.068001 -0.006165 -0.005609 0.000000 0.000000 0.000000
# 2 -0.006165 0.014609 -0.013337 0.000000 0.000000 0.000000
# 3 -0.005609 -0.013337 0.025295 0.000000 0.000000 0.000000
# 4 0.000000 0.000000 0.000000 0.049530 0.000000 0.000000
# 5 0.000000 0.000000 0.000000 0.000000 0.049331 0.000000
# 6 0.000000 0.000000 0.000000 0.000000 0.000000 0.082518
#
#
# Mechanical properties :
#
#
# Convention : Reuss Voigt Hill
#
# Bulk Modulus (GPa) = 17.33622 57.26467 37.30045
# Shear Modulus (GPa) = 13.93797 19.86714 16.90256
#
# Velocity S-wave (km/s) = 2.85072 3.40348 3.13929
# Velocity P-wave (km/s) = 4.57640 6.98809 5.90664
#
# Compressibility (1/GPa) = 0.05768269
#
# Stress axis : x y z
#
# Youngs Moduli (GPa) = 14.70569 68.45301 39.53395
#
# Poissons Ratio (x) = 0.42199 0.22173
# Poissons Ratio (y) = 0.09066 0.52728
# Poissons Ratio (z) = 0.08248 0.91298
#
# Static dielectric constant tensor:
#      x y z
#    x 1.601790 0.000000 0.000000 
#    y 0.000000 1.619330 0.000000 
#    z 0.000000 0.000000 1.568760 
# 
# From -- ./inp_files/31364.got.cif
#   From: 2010.05.17/outbox.cif.g08.bks.cpg/sg53_16_cif.got.tgz:31364.got - 2010.06.03 12:45:16.
