data_PCOD9415386
_publ_section_title
;
Structure prediction by ZEFSAII (Michael W. Deem and Ramdas Pophale) SiO2 
 PCOD9415386
Probable space group: P M N A
;
_chemical_formula_sum "Si O2"
_cell_formula_units_Z 64
_cell_length_a 8.942159
_cell_length_b 28.388575
_cell_length_c 15.030014
_cell_angle_alpha 90.000000
_cell_angle_beta 90.000000
_cell_angle_gamma 90.000000
_cell_volume 3815.446480
_symmetry_space_group_name_H-M "P M N A"
_symmetry_group_IT_number 53
_symmetry_cell_setting 'orthorhombic'
loop_
_space_group_symop_operation_xyz
x,y,z
1/2-x,-y,1/2+z
x,-y,-z
1/2-x,y,1/2-z
-x,-y,-z
1/2+x,y,1/2-z
-x,y,z
1/2+x,-y,1/2+z
loop_
_atom_site_type_symbol
_atom_site_label
_atom_site_fract_x
_atom_site_fract_y
_atom_site_fract_z
Si Si1 0.680075 0.422663 0.655592
Si Si2 0.678411 0.076479 0.840239
Si Si3 0.820719 0.305581 0.345642
Si Si4 0.319377 0.617210 0.529114
Si Si5 0.179494 0.196535 0.344819
Si Si6 0.169403 0.017582 0.102269
Si Si7 0.680174 0.109672 0.036696
Si Si8 0.679561 0.531229 0.655459
O O1 0.750000 0.409674 0.750000
O O2 0.500000 0.421676 0.662072
O O3 0.724747 0.390031 0.573294
O O4 0.723322 0.477193 0.635639
O O5 0.750000 0.096367 0.750000
O O6 0.500000 0.077430 0.833488
O O7 0.735300 0.022689 0.850060
O O8 0.722646 0.102105 0.932970
O O9 0.750000 0.318401 0.250000
O O10 0.756721 0.339735 0.420625
O O11 0.779965 0.250889 0.363530
O O12 0.000000 0.309408 0.340445
O O13 0.500000 0.622074 0.533500
O O14 0.278956 0.569115 0.581313
O O15 0.250000 0.183255 0.250000
O O16 0.223024 0.159738 0.421334
O O17 0.000000 0.194715 0.336364
O O18 0.246499 0.068274 0.095408
O O19 0.000000 0.020027 0.137536
O O20 0.161610 0.000000 0.000000
O O21 0.500000 0.104580 0.040789
O O22 0.750000 0.544461 0.750000
O O23 0.500000 0.531974 0.663155
#
# Coordination Sequence:
#
# PCOD9415386 Si02
#       8
#     8   8   8   8   8   8   8   8
#     4   9  18  32  48  67  94 128 164 200 236 276
#     4  10  19  31  48  69  96 130 164 198 235 276
#     4  10  20  34  52  74  99 124 153 192 239 290
#     4  10  19  31  49  71  96 127 161 196 237 284
#     4   9  19  35  53  73  96 123 154 191 237 286
#     4   9  17  29  45  67  95 125 158 194 230 272
#     4   9  18  33  51  70  95 127 161 196 237 283
#     4   9  17  29  45  67  96 128 159 193 234 279
#
# _framework density 16.773921000000001
#
# number of rings (size 3 to 8) (size 9 to 14) (size 15 to 20)
#    0.000    2.625    0.000    1.875    0.000    7.000 
#    0.000    1.250    0.000    4.500    0.000    3.500 
#    0.000    0.000    0.000    0.000    0.000    0.000 
#
# Total GULP energy -356837.992614 kJ/mol
# GULP energy per Si atom -5575.593635 kJ/mol
# Density = 1.673574 g / cm^3
# Si number density = 16.773921 Si / 1000 Ang^3
#
#
#
# Elastic Constant Matrix: (Units=GPa)
#
#
# Indices 1 2 3 4 5 6 
#
# 1 30.1217 31.4901 39.9335 0.0000 0.0000 0.0000
# 2 31.4901 86.6842 80.6310 0.0000 0.0000 0.0000
# 3 39.9335 80.6310 132.8284 0.0000 0.0000 0.0000
# 4 0.0000 0.0000 0.0000 27.6165 0.0000 0.0000
# 5 0.0000 0.0000 0.0000 0.0000 27.2489 0.0000
# 6 0.0000 0.0000 0.0000 0.0000 0.0000 21.6922
#
#
#
# Elastic Compliance Matrix: (Units=1/GPa)
#
#
# Indices 1 2 3 4 5 6 
#
# 1 0.059796 -0.011486 -0.011005 0.000000 0.000000 0.000000
# 2 -0.011486 0.028704 -0.013971 0.000000 0.000000 0.000000
# 3 -0.011005 -0.013971 0.019318 0.000000 0.000000 0.000000
# 4 0.000000 0.000000 0.000000 0.036210 0.000000 0.000000
# 5 0.000000 0.000000 0.000000 0.000000 0.036699 0.000000
# 6 0.000000 0.000000 0.000000 0.000000 0.000000 0.046099
#
#
# Mechanical properties :
#
#
# Convention : Reuss Voigt Hill
#
# Bulk Modulus (GPa) = 28.65807 61.52705 45.09256
# Shear Modulus (GPa) = 16.05746 21.81685 18.93715
#
# Velocity S-wave (km/s) = 3.09736 3.61035 3.36365
# Velocity P-wave (km/s) = 5.46933 7.35794 6.48278
#
# Compressibility (1/GPa) = 0.03489418
#
# Stress axis : x y z
#
# Youngs Moduli (GPa) = 16.72358 34.83791 51.76539
#
# Poissons Ratio (x) = 0.40015 0.56966
# Poissons Ratio (y) = 0.19209 0.72323
# Poissons Ratio (z) = 0.18404 0.48673
#
# Static dielectric constant tensor:
#      x y z
#    x 1.567450 0.000000 0.000000 
#    y 0.000000 1.557730 0.000000 
#    z 0.000000 0.000000 1.573420 
# 
# From -- ./inp_files/21074.got.cif
#   From: 2010.05.17/outbox.cif.g08.bks.cpg/sg53_11_cif.got.tgz:21074.got - 2010.06.03 12:45:16.
