data_PCOD9415582
_publ_section_title
;
Structure prediction by ZEFSAII (Michael W. Deem and Ramdas Pophale) SiO2 
 PCOD9415582
Probable space group: P M N A
;
_chemical_formula_sum "Si O2"
_cell_formula_units_Z 48
_cell_length_a 8.828610
_cell_length_b 16.618735
_cell_length_c 19.116315
_cell_angle_alpha 90.000000
_cell_angle_beta 90.000000
_cell_angle_gamma 90.000000
_cell_volume 2804.752045
_symmetry_space_group_name_H-M "P M N A"
_symmetry_group_IT_number 53
_symmetry_cell_setting 'orthorhombic'
loop_
_space_group_symop_operation_xyz
x,y,z
1/2-x,-y,1/2+z
x,-y,-z
1/2-x,y,1/2-z
-x,-y,-z
1/2+x,y,1/2-z
-x,y,z
1/2+x,-y,1/2+z
loop_
_atom_site_type_symbol
_atom_site_label
_atom_site_fract_x
_atom_site_fract_y
_atom_site_fract_z
Si Si1 0.818230 0.521894 0.826770
Si Si2 0.817004 0.912533 0.529067
Si Si3 0.817897 0.755513 0.037520
Si Si4 0.681748 0.670980 0.904597
Si Si5 0.181569 0.834704 0.674339
Si Si6 0.818282 0.663001 0.174384
O O1 0.750000 0.537357 0.750000
O O2 0.748737 0.587469 0.878152
O O3 0.778515 0.429446 0.844841
O O4 0.000000 0.529255 0.824926
O O5 0.744678 0.843117 0.481690
O O6 0.772707 0.892930 0.609696
O O7 0.000000 0.904932 0.526039
O O8 0.775203 0.000000 0.500000
O O9 0.770468 0.723400 0.113449
O O10 0.000000 0.754967 0.033584
O O11 0.750828 0.696619 0.978601
O O12 0.500000 0.667774 0.908718
O O13 0.722027 0.744144 0.851260
O O14 0.250000 0.852705 0.750000
O O15 0.000000 0.838328 0.679893
O O16 0.750000 0.681094 0.250000
O O17 0.000000 0.665992 0.179887
#
# Coordination Sequence:
#
# PCOD9415582 Si02
#       6
#     8   8   8   8   8   8
#     4  10  19  32  49  71 101 137 175 215 256 296
#     4   9  19  37  57  76 102 135 167 202 251 311
#     4  10  20  35  54  77 102 129 166 212 259 304
#     4  10  20  33  49  73 103 137 174 208 252 309
#     4   9  18  31  49  73 100 130 163 199 243 296
#     4   9  20  36  53  73 100 135 174 215 257 300
#
# _framework density 17.113811999999999
#
# number of rings (size 3 to 8) (size 9 to 14) (size 15 to 20)
#    0.000    2.500    0.000    3.000    0.000    7.667 
#    0.000    4.167    0.000    4.000    0.000    0.000 
#    0.000    0.000    0.000    0.000    0.000    0.000 
#
# Total GULP energy -267746.783602 kJ/mol
# GULP energy per Si atom -5578.057992 kJ/mol
# Density = 1.707486 g / cm^3
# Si number density = 17.113812 Si / 1000 Ang^3
#
#
#
# Elastic Constant Matrix: (Units=GPa)
#
#
# Indices 1 2 3 4 5 6 
#
# 1 31.4160 42.0118 45.2688 0.0000 0.0000 0.0000
# 2 42.0118 113.8258 110.2961 0.0000 0.0000 0.0000
# 3 45.2688 110.2961 153.8501 0.0000 0.0000 0.0000
# 4 0.0000 0.0000 0.0000 20.6301 0.0000 0.0000
# 5 0.0000 0.0000 0.0000 0.0000 28.3951 0.0000
# 6 0.0000 0.0000 0.0000 0.0000 0.0000 38.1655
#
#
#
# Elastic Compliance Matrix: (Units=1/GPa)
#
#
# Indices 1 2 3 4 5 6 
#
# 1 0.064652 -0.017781 -0.006276 0.000000 0.000000 0.000000
# 2 -0.017781 0.033664 -0.018902 0.000000 0.000000 0.000000
# 3 -0.006276 -0.018902 0.021897 0.000000 0.000000 0.000000
# 4 0.000000 0.000000 0.000000 0.048473 0.000000 0.000000
# 5 0.000000 0.000000 0.000000 0.000000 0.035217 0.000000
# 6 0.000000 0.000000 0.000000 0.000000 0.000000 0.026202
#
#
# Mechanical properties :
#
#
# Convention : Reuss Voigt Hill
#
# Bulk Modulus (GPa) = 29.15821 77.13837 53.14829
# Shear Modulus (GPa) = 15.26925 24.20583 19.73754
#
# Velocity S-wave (km/s) = 2.99024 3.76494 3.39973
# Velocity P-wave (km/s) = 5.38487 8.00445 6.82159
#
# Compressibility (1/GPa) = 0.03429565
#
# Stress axis : x y z
#
# Youngs Moduli (GPa) = 15.46736 29.70529 45.66752
#
# Poissons Ratio (x) = 0.52819 0.28660
# Poissons Ratio (y) = 0.27503 0.86321
# Poissons Ratio (z) = 0.09707 0.56149
#
# Static dielectric constant tensor:
#      x y z
#    x 1.572940 0.000000 0.000000 
#    y 0.000000 1.570410 0.000000 
#    z 0.000000 0.000000 1.570530 
# 
# From -- ./inp_files/26162.got.cif
#   From: 2010.05.17/outbox.cif.g08.bks.cpg/sg53_14_cif.got.tgz:26162.got - 2010.06.03 12:45:16.
