data_PCOD9415342
_publ_section_title
;
Structure prediction by ZEFSAII (Michael W. Deem and Ramdas Pophale) SiO2 
 PCOD9415342
Probable space group: P M N A
;
_chemical_formula_sum "Si O2"
_cell_formula_units_Z 40
_cell_length_a 9.253750
_cell_length_b 14.236315
_cell_length_c 18.371063
_cell_angle_alpha 90.000000
_cell_angle_beta 90.000000
_cell_angle_gamma 90.000000
_cell_volume 2420.190979
_symmetry_space_group_name_H-M "P M N A"
_symmetry_group_IT_number 53
_symmetry_cell_setting 'orthorhombic'
loop_
_space_group_symop_operation_xyz
x,y,z
1/2-x,-y,1/2+z
x,-y,-z
1/2-x,y,1/2-z
-x,-y,-z
1/2+x,y,1/2-z
-x,y,z
1/2+x,-y,1/2+z
loop_
_atom_site_type_symbol
_atom_site_label
_atom_site_fract_x
_atom_site_fract_y
_atom_site_fract_z
Si Si1 0.665201 0.284732 0.464158
Si Si2 0.172124 0.106525 0.519148
Si Si3 0.333097 0.539104 0.916335
Si Si4 0.165328 0.637050 0.130132
Si Si5 0.671301 0.181056 0.819696
O O1 0.500000 0.277123 0.438657
O O2 0.741395 0.184261 0.473409
O O3 0.757484 0.359554 0.418384
O O4 0.660658 0.328413 0.545895
O O5 0.198394 0.127002 0.604617
O O6 0.000000 0.119339 0.506728
O O7 0.210986 0.000000 0.500000
O O8 0.500000 0.543833 0.893574
O O9 0.332608 0.500000 0.000000
O O10 0.242140 0.536310 0.129519
O O11 0.260340 0.715739 0.169339
O O12 0.000000 0.633884 0.156725
O O13 0.750000 0.137431 0.750000
O O14 0.500000 0.186821 0.808299
#
# Coordination Sequence:
#
# PCOD9415342 Si02
#       5
#     8   8   8   8   8
#     4   9  16  25  39  61  88 116 146 183 227 271
#     4   9  18  32  48  66  90 121 157 198 243 288
#     4   9  15  23  37  58  85 116 146 174 209 257
#     4   9  16  26  40  60  87 116 146 180 218 264
#     4  10  19  31  47  67  92 121 153 189 232 284
#
# _framework density 16.527619999999999
#
# number of rings (size 3 to 8) (size 9 to 14) (size 15 to 20)
#    0.000    2.800    0.000    2.400    0.000    8.400 
#    0.000    0.000    0.000    0.000    0.000    1.400 
#    0.000    3.200    0.000    0.000    0.000    0.000 
#
# Total GULP energy -222895.988982 kJ/mol
# GULP energy per Si atom -5572.399725 kJ/mol
# Density = 1.649000 g / cm^3
# Si number density = 16.527620 Si / 1000 Ang^3
#
#
#
# Elastic Constant Matrix: (Units=GPa)
#
#
# Indices 1 2 3 4 5 6 
#
# 1 123.1529 81.5302 31.9600 0.0000 0.0000 0.0000
# 2 81.5302 147.1308 30.0700 0.0000 0.0000 0.0000
# 3 31.9600 30.0700 32.2279 0.0000 0.0000 0.0000
# 4 0.0000 0.0000 0.0000 7.4203 0.0000 0.0000
# 5 0.0000 0.0000 0.0000 0.0000 17.0329 0.0000
# 6 0.0000 0.0000 0.0000 0.0000 0.0000 24.4707
#
#
#
# Elastic Compliance Matrix: (Units=1/GPa)
#
#
# Indices 1 2 3 4 5 6 
#
# 1 0.014492 -0.006294 -0.008500 0.000000 0.000000 0.000000
# 2 -0.006294 0.011131 -0.004145 0.000000 0.000000 0.000000
# 3 -0.008500 -0.004145 0.043325 0.000000 0.000000 0.000000
# 4 0.000000 0.000000 0.000000 0.134765 0.000000 0.000000
# 5 0.000000 0.000000 0.000000 0.000000 0.058710 0.000000
# 6 0.000000 0.000000 0.000000 0.000000 0.000000 0.040865
#
#
# Mechanical properties :
#
#
# Convention : Reuss Voigt Hill
#
# Bulk Modulus (GPa) = 32.18233 65.51465 48.84849
# Shear Modulus (GPa) = 14.22385 20.38153 17.30269
#
# Velocity S-wave (km/s) = 2.93680 3.51548 3.23909
# Velocity P-wave (km/s) = 5.56901 7.49691 6.60369
#
# Compressibility (1/GPa) = 0.03107295
#
# Stress axis : x y z
#
# Youngs Moduli (GPa) = 69.00249 89.83753 23.08124
#
# Poissons Ratio (x) = 0.56539 0.19618
# Poissons Ratio (y) = 0.43427 0.09566
# Poissons Ratio (z) = 0.58650 0.37235
#
# Static dielectric constant tensor:
#      x y z
#    x 1.558180 0.000000 0.000000 
#    y 0.000000 1.534210 0.000000 
#    z 0.000000 0.000000 1.574770 
# 
# From -- ./inp_files/19887.got.cif
#   From: 2010.05.17/outbox.cif.g08.bks.cpg/sg53_10_cif.got.tgz:19887.got - 2010.06.03 12:45:16.
