data_PCOD9415188
_publ_section_title
;
Structure prediction by ZEFSAII (Michael W. Deem and Ramdas Pophale) SiO2 
 PCOD9415188
Probable space group: P M N A
;
_chemical_formula_sum "Si O2"
_cell_formula_units_Z 64
_cell_length_a 8.649044
_cell_length_b 22.236594
_cell_length_c 19.706766
_cell_angle_alpha 90.000000
_cell_angle_beta 90.000000
_cell_angle_gamma 90.000000
_cell_volume 3790.109287
_symmetry_space_group_name_H-M "P M N A"
_symmetry_group_IT_number 53
_symmetry_cell_setting 'orthorhombic'
loop_
_space_group_symop_operation_xyz
x,y,z
1/2-x,-y,1/2+z
x,-y,-z
1/2-x,y,1/2-z
-x,-y,-z
1/2+x,y,1/2-z
-x,y,z
1/2+x,-y,1/2+z
loop_
_atom_site_type_symbol
_atom_site_label
_atom_site_fract_x
_atom_site_fract_y
_atom_site_fract_z
Si Si1 0.187202 0.852062 0.411225
Si Si2 0.814934 0.308509 0.004431
Si Si3 0.313376 0.965237 0.175307
Si Si4 0.812745 0.561796 0.031986
Si Si5 0.817101 0.394885 0.820008
Si Si6 0.816665 0.815447 0.941917
Si Si7 0.319408 0.727111 0.138174
Si Si8 0.315366 0.897623 0.824370
O O1 0.235834 0.915216 0.378862
O O2 0.258245 0.839439 0.484995
O O3 0.228349 0.796978 0.360176
O O4 0.000000 0.850795 0.417960
O O5 0.781538 0.379001 0.013822
O O6 0.712058 0.289360 0.940409
O O7 0.000000 0.304334 0.986658
O O8 0.786239 0.256716 0.059418
O O9 0.250000 0.950959 0.250000
O O10 0.500000 0.963801 0.177771
O O11 0.265282 0.033664 0.158670
O O12 0.758959 0.575889 0.109117
O O13 0.000000 0.557128 0.035943
O O14 0.753266 0.500000 0.000000
O O15 0.750000 0.419921 0.750000
O O16 0.775573 0.324026 0.823774
O O17 0.000000 0.401326 0.818834
O O18 0.739518 0.851753 0.881410
O O19 0.000000 0.823910 0.938458
O O20 0.500000 0.721434 0.155352
O O21 0.250000 0.883100 0.750000
O O22 0.500000 0.897209 0.821060
#
# Coordination Sequence:
#
# PCOD9415188 Si02
#       8
#     8   8   8   8   8   8   8   8
#     4   9  18  32  48  69  96 126 158 192 234 280
#     4   8  15  28  46  69  95 120 148 183 223 269
#     4   9  19  34  49  65  89 121 157 197 241 288
#     4   8  14  27  49  73  93 120 158 193 227 270
#     4  10  19  30  45  66  94 125 158 195 231 271
#     4  10  19  31  49  73  98 124 155 193 235 279
#     4   9  16  27  44  65  91 121 152 185 223 268
#     4  10  20  35  53  70  90 119 156 199 246 294
#
# _framework density 16.886057000000001
#
# number of rings (size 3 to 8) (size 9 to 14) (size 15 to 20)
#    0.000    2.875    0.000    2.250    0.000    3.000 
#    0.000    3.750    0.000   10.125    0.000    1.750 
#    0.000    0.000    0.000    0.000    0.000    0.000 
#
# Total GULP energy -356274.200666 kJ/mol
# GULP energy per Si atom -5566.784385 kJ/mol
# Density = 1.684762 g / cm^3
# Si number density = 16.886057 Si / 1000 Ang^3
#
#
#
# Elastic Constant Matrix: (Units=GPa)
#
#
# Indices 1 2 3 4 5 6 
#
# 1 21.5192 26.0288 20.3273 0.0000 0.0000 0.0000
# 2 26.0288 131.1564 76.6254 0.0000 0.0000 0.0000
# 3 20.3273 76.6254 85.4681 0.0000 0.0000 0.0000
# 4 0.0000 0.0000 0.0000 14.2228 0.0000 0.0000
# 5 0.0000 0.0000 0.0000 0.0000 26.8441 0.0000
# 6 0.0000 0.0000 0.0000 0.0000 0.0000 17.9056
#
#
#
# Elastic Compliance Matrix: (Units=1/GPa)
#
#
# Indices 1 2 3 4 5 6 
#
# 1 0.063656 -0.007954 -0.008008 0.000000 0.000000 0.000000
# 2 -0.007954 0.017005 -0.013353 0.000000 0.000000 0.000000
# 3 -0.008008 -0.013353 0.025577 0.000000 0.000000 0.000000
# 4 0.000000 0.000000 0.000000 0.070310 0.000000 0.000000
# 5 0.000000 0.000000 0.000000 0.000000 0.037252 0.000000
# 6 0.000000 0.000000 0.000000 0.000000 0.000000 0.055848
#
#
# Mechanical properties :
#
#
# Convention : Reuss Voigt Hill
#
# Bulk Modulus (GPa) = 21.00602 53.78963 37.39783
# Shear Modulus (GPa) = 14.52864 19.47197 17.00030
#
# Velocity S-wave (km/s) = 2.93643 3.39947 3.17640
# Velocity P-wave (km/s) = 4.89527 6.87984 5.97059
#
# Compressibility (1/GPa) = 0.04760539
#
# Stress axis : x y z
#
# Youngs Moduli (GPa) = 15.70943 58.80795 39.09800
#
# Poissons Ratio (x) = 0.46777 0.31311
# Poissons Ratio (y) = 0.12496 0.52209
# Poissons Ratio (z) = 0.12581 0.78529
#
# Static dielectric constant tensor:
#      x y z
#    x 1.576870 0.000000 0.000000 
#    y 0.000000 1.606630 0.000000 
#    z 0.000000 0.000000 1.560200 
# 
# From -- ./inp_files/31363.got.cif
#   From: 2010.05.17/outbox.cif.g08.bks.cpg/sg53_16_cif.got.tgz:31363.got - 2010.06.03 12:45:16.
