data_PCOD9415615
_publ_section_title
;
Structure prediction by ZEFSAII (Michael W. Deem and Ramdas Pophale) SiO2 
 PCOD9415615
Probable space group: P M N A
;
_chemical_formula_sum "Si O2"
_cell_formula_units_Z 64
_cell_length_a 8.782973
_cell_length_b 21.154857
_cell_length_c 20.234150
_cell_angle_alpha 90.000000
_cell_angle_beta 90.000000
_cell_angle_gamma 90.000000
_cell_volume 3759.556421
_symmetry_space_group_name_H-M "P M N A"
_symmetry_group_IT_number 53
_symmetry_cell_setting 'orthorhombic'
loop_
_space_group_symop_operation_xyz
x,y,z
1/2-x,-y,1/2+z
x,-y,-z
1/2-x,y,1/2-z
-x,-y,-z
1/2+x,y,1/2-z
-x,y,z
1/2+x,-y,1/2+z
loop_
_atom_site_type_symbol
_atom_site_label
_atom_site_fract_x
_atom_site_fract_y
_atom_site_fract_z
Si Si1 0.683921 0.935674 0.039217
Si Si2 0.182546 0.982751 0.319554
Si Si3 0.182967 0.486592 0.681327
Si Si4 0.317342 0.821032 0.543985
Si Si5 0.182713 0.372073 0.181367
Si Si6 0.317517 0.868115 0.820290
Si Si7 0.182943 0.679691 0.960792
Si Si8 0.183225 0.437185 0.539692
O O1 0.500000 0.930121 0.036806
O O2 0.732067 0.945256 0.115244
O O3 0.755403 0.875711 0.003437
O O4 0.723501 0.000000 0.000000
O O5 0.250000 0.960808 0.250000
O O6 0.000000 0.979506 0.316170
O O7 0.221897 0.057101 0.327962
O O8 0.250000 0.461137 0.750000
O O9 0.250597 0.557165 0.673342
O O10 0.224147 0.446856 0.616404
O O11 0.000000 0.491179 0.685471
O O12 0.500000 0.823787 0.546689
O O13 0.252313 0.832872 0.617217
O O14 0.271042 0.750808 0.521185
O O15 0.250000 0.346232 0.250000
O O16 0.224821 0.333839 0.115704
O O17 0.000000 0.375383 0.186472
O O18 0.250000 0.847073 0.750000
O O19 0.500000 0.862501 0.820090
O O20 0.000000 0.675412 0.964634
O O21 0.251582 0.625217 0.006248
O O22 0.234385 0.500000 0.500000
O O23 0.000000 0.435081 0.535183
#
# Coordination Sequence:
#
# PCOD9415615 Si02
#       8
#     8   8   8   8   8   8   8   8
#     4  10  19  36  57  79 107 141 180 222 271 323
#     4   9  18  32  53  79 108 136 172 219 266 319
#     4  10  19  32  52  80 109 135 169 216 264 312
#     4  11  23  37  52  78 111 144 184 226 268 321
#     4  10  19  32  50  73 103 141 178 213 255 307
#     4  10  19  34  53  77 108 146 182 222 266 317
#     4  10  23  38  52  75 109 144 181 221 265 317
#     4  10  20  35  56  81 107 136 176 223 266 314
#
# _framework density 17.023285999999999
#
# number of rings (size 3 to 8) (size 9 to 14) (size 15 to 20)
#    0.000    2.000    2.500    2.250    0.000    4.500 
#    0.000    1.250    0.000    0.750    0.000    0.000 
#    0.000    0.000    0.000    0.000    0.000    0.000 
#
# Total GULP energy -357218.167252 kJ/mol
# GULP energy per Si atom -5581.533863 kJ/mol
# Density = 1.698454 g / cm^3
# Si number density = 17.023286 Si / 1000 Ang^3
#
#
#
# Elastic Constant Matrix: (Units=GPa)
#
#
# Indices 1 2 3 4 5 6 
#
# 1 35.5826 35.1221 40.4342 0.0000 0.0000 0.0000
# 2 35.1221 117.5688 77.3695 0.0000 0.0000 0.0000
# 3 40.4342 77.3695 142.0329 0.0000 0.0000 0.0000
# 4 0.0000 0.0000 0.0000 20.3110 0.0000 0.0000
# 5 0.0000 0.0000 0.0000 0.0000 29.9620 0.0000
# 6 0.0000 0.0000 0.0000 0.0000 0.0000 18.0646
#
#
#
# Elastic Compliance Matrix: (Units=1/GPa)
#
#
# Indices 1 2 3 4 5 6 
#
# 1 0.045876 -0.007966 -0.008721 0.000000 0.000000 0.000000
# 2 -0.007966 0.014642 -0.005708 0.000000 0.000000 0.000000
# 3 -0.008721 -0.005708 0.012633 0.000000 0.000000 0.000000
# 4 0.000000 0.000000 0.000000 0.049234 0.000000 0.000000
# 5 0.000000 0.000000 0.000000 0.000000 0.033376 0.000000
# 6 0.000000 0.000000 0.000000 0.000000 0.000000 0.055357
#
#
# Mechanical properties :
#
#
# Convention : Reuss Voigt Hill
#
# Bulk Modulus (GPa) = 35.25960 66.78176 51.02068
# Shear Modulus (GPa) = 18.84226 23.15141 20.99683
#
# Velocity S-wave (km/s) = 3.33055 3.69180 3.51582
# Velocity P-wave (km/s) = 5.96218 7.58204 6.82037
#
# Compressibility (1/GPa) = 0.02836107
#
# Stress axis : x y z
#
# Youngs Moduli (GPa) = 21.79769 68.29818 79.16001
#
# Poissons Ratio (x) = 0.54406 0.69035
# Poissons Ratio (y) = 0.17364 0.45185
# Poissons Ratio (z) = 0.19010 0.38985
#
# Static dielectric constant tensor:
#      x y z
#    x 1.572860 0.000000 0.000000 
#    y 0.000000 1.558020 0.000000 
#    z 0.000000 0.000000 1.581450 
# 
# From -- ./inp_files/31136.got.cif
#   From: 2010.05.17/outbox.cif.g08.bks.cpg/sg53_16_cif.got.tgz:31136.got - 2010.06.03 12:45:16.
