data_PCOD9415335
_publ_section_title
;
Structure prediction by ZEFSAII (Michael W. Deem and Ramdas Pophale) SiO2 
 PCOD9415335
Probable space group: P M N A
;
_chemical_formula_sum "Si O2"
_cell_formula_units_Z 56
_cell_length_a 20.143904
_cell_length_b 13.386915
_cell_length_c 11.324801
_cell_angle_alpha 90.000000
_cell_angle_beta 90.000000
_cell_angle_gamma 90.000000
_cell_volume 3053.899411
_symmetry_space_group_name_H-M "P M N A"
_symmetry_group_IT_number 53
_symmetry_cell_setting 'orthorhombic'
loop_
_space_group_symop_operation_xyz
x,y,z
1/2-x,-y,1/2+z
x,-y,-z
1/2-x,y,1/2-z
-x,-y,-z
1/2+x,y,1/2-z
-x,y,z
1/2+x,-y,1/2+z
loop_
_atom_site_type_symbol
_atom_site_label
_atom_site_fract_x
_atom_site_fract_y
_atom_site_fract_z
Si Si1 0.667521 0.541471 0.373075
Si Si2 0.356324 0.766463 0.431527
Si Si3 0.317771 0.466377 0.121816
Si Si4 0.077167 0.911358 0.908128
Si Si5 0.175923 0.842334 0.304101
Si Si6 0.823077 0.936023 0.692779
Si Si7 0.207239 0.247014 0.469960
O O1 0.643978 0.500000 0.500000
O O2 0.645141 0.655384 0.379381
O O3 0.748045 0.528447 0.376920
O O4 0.649288 0.488197 0.249015
O O5 0.408189 0.806390 0.526386
O O6 0.366498 0.832263 0.313891
O O7 0.284226 0.775262 0.496434
O O8 0.299672 0.350013 0.101319
O O9 0.353101 0.500000 0.000000
O O10 0.123129 0.919335 0.794290
O O11 0.000000 0.921708 0.879309
O O12 0.095711 0.000000 0.000000
O O13 0.250000 0.833076 0.250000
O O14 0.170112 0.757737 0.403437
O O15 0.167573 0.952397 0.357904
O O16 0.750000 0.937555 0.750000
O O17 0.821793 0.843930 0.604531
#
# Coordination Sequence:
#
# PCOD9415335 Si02
#       7
#     8   8   8   8   8   8   8
#     4  10  20  29  47  75 113 150 191 240 295 348
#     4  11  19  35  56  78 114 157 192 238 296 353
#     4  10  19  31  46  78 116 161 188 231 306 364
#     4  11  24  41  60  84 118 161 203 242 291 360
#     4   9  20  31  49  80 119 151 182 236 293 361
#     4  11  21  33  56  87 119 149 192 243 301 354
#     4  11  20  30  55  86 121 150 188 242 309 354
#
# _framework density 18.337211
#
# number of rings (size 3 to 8) (size 9 to 14) (size 15 to 20)
#    0.000    1.571    5.714    1.286    8.000    0.000 
#    0.000    0.000    0.000    3.000    0.000    0.000 
#    0.000    2.286    0.000    0.000    0.000    0.000 
#
# Total GULP energy -311867.732115 kJ/mol
# GULP energy per Si atom -5569.066645 kJ/mol
# Density = 1.829547 g / cm^3
# Si number density = 18.337211 Si / 1000 Ang^3
#
#
#
# Elastic Constant Matrix: (Units=GPa)
#
#
# Indices 1 2 3 4 5 6 
#
# 1 27.1155 7.6339 27.5516 0.0000 0.0000 0.0000
# 2 7.6339 106.7267 46.5611 0.0000 0.0000 0.0000
# 3 27.5516 46.5611 130.4437 0.0000 0.0000 0.0000
# 4 0.0000 0.0000 0.0000 37.0937 0.0000 0.0000
# 5 0.0000 0.0000 0.0000 0.0000 13.5126 0.0000
# 6 0.0000 0.0000 0.0000 0.0000 0.0000 10.8723
#
#
#
# Elastic Compliance Matrix: (Units=1/GPa)
#
#
# Indices 1 2 3 4 5 6 
#
# 1 0.047076 0.001150 -0.010353 0.000000 0.000000 0.000000
# 2 0.001150 0.011126 -0.004214 0.000000 0.000000 0.000000
# 3 -0.010353 -0.004214 0.011357 0.000000 0.000000 0.000000
# 4 0.000000 0.000000 0.000000 0.026959 0.000000 0.000000
# 5 0.000000 0.000000 0.000000 0.000000 0.074005 0.000000
# 6 0.000000 0.000000 0.000000 0.000000 0.000000 0.091977
#
#
# Mechanical properties :
#
#
# Convention : Reuss Voigt Hill
#
# Bulk Modulus (GPa) = 23.40670 47.53102 35.46886
# Shear Modulus (GPa) = 16.47033 24.46500 20.46766
#
# Velocity S-wave (km/s) = 3.00024 3.65660 3.34456
# Velocity P-wave (km/s) = 4.97938 6.61849 5.85656
#
# Compressibility (1/GPa) = 0.04272282
#
# Stress axis : x y z
#
# Youngs Moduli (GPa) = 21.24244 89.87966 88.05022
#
# Poissons Ratio (x) = -0.10333 0.91162
# Poissons Ratio (y) = -0.02442 0.37106
# Poissons Ratio (z) = 0.21993 0.37877
#
# Static dielectric constant tensor:
#      x y z
#    x 1.596650 0.000000 0.000000 
#    y 0.000000 1.699410 0.000000 
#    z 0.000000 0.000000 1.698460 
# 
# From -- ./inp_files/17840.got.cif
#   From: 2010.05.17/outbox.cif.g08.bks.cpg/sg53_9_cif.got.tgz:17840.got - 2010.06.03 12:45:16.
