data_PCOD9415701
_publ_section_title
;
Structure prediction by ZEFSAII (Michael W. Deem and Ramdas Pophale) SiO2 
 PCOD9415701
Probable space group: P M N A
;
_chemical_formula_sum "Si O2"
_cell_formula_units_Z 56
_cell_length_a 9.214148
_cell_length_b 19.680831
_cell_length_c 18.165929
_cell_angle_alpha 90.000000
_cell_angle_beta 90.000000
_cell_angle_gamma 90.000000
_cell_volume 3294.247524
_symmetry_space_group_name_H-M "P M N A"
_symmetry_group_IT_number 53
_symmetry_cell_setting 'orthorhombic'
loop_
_space_group_symop_operation_xyz
x,y,z
1/2-x,-y,1/2+z
x,-y,-z
1/2-x,y,1/2-z
-x,-y,-z
1/2+x,y,1/2-z
-x,y,z
1/2+x,-y,1/2+z
loop_
_atom_site_type_symbol
_atom_site_label
_atom_site_fract_x
_atom_site_fract_y
_atom_site_fract_z
Si Si1 0.672191 0.849152 0.468783
Si Si2 0.173394 0.332554 0.327626
Si Si3 0.835283 0.434528 0.947199
Si Si4 0.172273 0.705018 0.971028
Si Si5 0.675211 0.056931 0.670716
Si Si6 0.833508 0.950102 0.570926
Si Si7 0.670571 0.508881 0.825278
O O1 0.500000 0.861395 0.479087
O O2 0.699396 0.768997 0.475882
O O3 0.709048 0.884189 0.390320
O O4 0.756487 0.884649 0.536102
O O5 0.250000 0.316467 0.250000
O O6 0.238363 0.290957 0.395587
O O7 0.206908 0.412421 0.344307
O O8 0.000000 0.325035 0.321620
O O9 0.724846 0.455887 0.884751
O O10 0.000000 0.425547 0.918384
O O11 0.838327 0.500000 0.000000
O O12 0.793770 0.366023 0.989173
O O13 0.000000 0.704042 0.953442
O O14 0.750000 0.068612 0.750000
O O15 0.500000 0.052456 0.678023
O O16 0.741722 0.988687 0.633570
O O17 0.000000 0.938062 0.594291
O O18 0.837072 0.000000 0.500000
O O19 0.750000 0.493732 0.750000
O O20 0.500000 0.505798 0.815748
#
# Coordination Sequence:
#
# PCOD9415701 Si02
#       7
#     8   8   8   8   8   8   8
#     4   9  19  35  54  77 108 146 180 215 260 314
#     4  10  20  33  51  74  99 129 168 216 269 323
#     4  10  19  32  52  76 102 135 176 222 269 318
#     4  10  20  35  54  76 106 143 180 218 266 321
#     4  10  19  33  55  82 110 141 178 216 258 305
#     4   9  17  31  53  79 105 133 168 210 252 299
#     4  10  20  33  51  73  99 129 167 219 273 324
#
# _framework density 16.999331000000002
#
# number of rings (size 3 to 8) (size 9 to 14) (size 15 to 20)
#    0.000    2.286    1.429    1.714    0.000    4.857 
#    0.000    1.429    0.000    5.143    0.000    0.000 
#    0.000    0.000    0.000    0.000    0.000    0.000 
#
# Total GULP energy -312104.063514 kJ/mol
# GULP energy per Si atom -5573.286848 kJ/mol
# Density = 1.696064 g / cm^3
# Si number density = 16.999331 Si / 1000 Ang^3
#
#
#
# Elastic Constant Matrix: (Units=GPa)
#
#
# Indices 1 2 3 4 5 6 
#
# 1 61.2111 33.0013 61.2231 0.0000 0.0000 0.0000
# 2 33.0013 84.8754 45.7398 0.0000 0.0000 0.0000
# 3 61.2231 45.7398 107.6469 0.0000 0.0000 0.0000
# 4 0.0000 0.0000 0.0000 23.2803 0.0000 0.0000
# 5 0.0000 0.0000 0.0000 0.0000 34.4561 0.0000
# 6 0.0000 0.0000 0.0000 0.0000 0.0000 18.7197
#
#
#
# Elastic Compliance Matrix: (Units=1/GPa)
#
#
# Indices 1 2 3 4 5 6 
#
# 1 0.038994 -0.004163 -0.020408 0.000000 0.000000 0.000000
# 2 -0.004163 0.015726 -0.004314 0.000000 0.000000 0.000000
# 3 -0.020408 -0.004314 0.022730 0.000000 0.000000 0.000000
# 4 0.000000 0.000000 0.000000 0.042955 0.000000 0.000000
# 5 0.000000 0.000000 0.000000 0.000000 0.029022 0.000000
# 6 0.000000 0.000000 0.000000 0.000000 0.000000 0.053420
#
#
# Mechanical properties :
#
#
# Convention : Reuss Voigt Hill
#
# Bulk Modulus (GPa) = 50.81895 59.29574 55.05735
# Shear Modulus (GPa) = 18.71422 22.87585 20.79504
#
# Velocity S-wave (km/s) = 3.32155 3.67235 3.50134
# Velocity P-wave (km/s) = 6.68355 7.27588 6.98600
#
# Compressibility (1/GPa) = 0.01967770
#
# Stress axis : x y z
#
# Youngs Moduli (GPa) = 25.64509 63.59035 43.99541
#
# Poissons Ratio (x) = 0.26476 0.89787
# Poissons Ratio (y) = 0.10677 0.18980
# Poissons Ratio (z) = 0.52337 0.27433
#
# Static dielectric constant tensor:
#      x y z
#    x 1.577130 0.000000 0.000000 
#    y 0.000000 1.581060 0.000000 
#    z 0.000000 0.000000 1.550580 
# 
# From -- ./inp_files/26676.got.cif
#   From: 2010.05.17/outbox.cif.g08.bks.cpg/sg53_14_cif.got.tgz:26676.got - 2010.06.03 12:45:16.
