data_PCOD9415859
_publ_section_title
;
Structure prediction by ZEFSAII (Michael W. Deem and Ramdas Pophale) SiO2 
 PCOD9415859
Probable space group: P M N A
;
_chemical_formula_sum "Si O2"
_cell_formula_units_Z 56
_cell_length_a 8.745834
_cell_length_b 18.396720
_cell_length_c 22.768242
_cell_angle_alpha 90.000000
_cell_angle_beta 90.000000
_cell_angle_gamma 90.000000
_cell_volume 3663.288539
_symmetry_space_group_name_H-M "P M N A"
_symmetry_group_IT_number 53
_symmetry_cell_setting 'orthorhombic'
loop_
_space_group_symop_operation_xyz
x,y,z
1/2-x,-y,1/2+z
x,-y,-z
1/2-x,y,1/2-z
-x,-y,-z
1/2+x,y,1/2-z
-x,y,z
1/2+x,-y,1/2+z
loop_
_atom_site_type_symbol
_atom_site_label
_atom_site_fract_x
_atom_site_fract_y
_atom_site_fract_z
Si Si1 0.819268 0.170535 0.472776
Si Si2 0.676844 0.028698 0.432518
Si Si3 0.184329 0.127354 0.900511
Si Si4 0.684644 0.323689 0.466489
Si Si5 0.819984 0.476629 0.068585
Si Si6 0.685210 0.630749 0.398795
Si Si7 0.317501 0.247086 0.815128
O O1 0.772986 0.102177 0.432294
O O2 0.741097 0.156537 0.536282
O O3 0.758200 0.247442 0.449776
O O4 0.000000 0.172721 0.480870
O O5 0.500000 0.045154 0.418677
O O6 0.680503 0.000000 0.500000
O O7 0.728026 0.957923 0.396269
O O8 0.254345 0.177415 0.850450
O O9 0.000000 0.131599 0.899898
O O10 0.500000 0.319595 0.461681
O O11 0.740974 0.394476 0.430254
O O12 0.718208 0.339370 0.535478
O O13 0.759812 0.546686 0.103359
O O14 0.000000 0.471730 0.083026
O O15 0.811943 0.500000 0.000000
O O16 0.500000 0.632193 0.392516
O O17 0.760661 0.682779 0.351474
O O18 0.250000 0.248552 0.750000
O O19 0.500000 0.245276 0.813507
#
# Coordination Sequence:
#
# PCOD9415859 Si02
#       7
#     8   8   8   8   8   8   8
#     4  11  19  25  39  65  94 120 148 180 217 262
#     4   8  16  29  44  60  81 113 149 180 217 265
#     4  10  19  33  48  61  82 114 150 188 227 264
#     4   9  15  25  43  63  89 121 151 179 213 262
#     4   7  12  23  41  64  83 111 150 180 212 260
#     4   9  16  29  47  63  85 115 149 187 224 261
#     4  12  24  35  48  66  88 116 153 190 227 265
#
# _framework density 15.286811999999999
#
# number of rings (size 3 to 8) (size 9 to 14) (size 15 to 20)
#    0.000    2.571    1.429    5.571    0.000    3.143 
#    0.000    0.714    0.000    2.571    0.000    0.000 
#    0.000    1.143    0.000    5.429    0.000    4.714 
#
# Total GULP energy -311851.151088 kJ/mol
# GULP energy per Si atom -5568.770555 kJ/mol
# Density = 1.525202 g / cm^3
# Si number density = 15.286812 Si / 1000 Ang^3
#
#
#
# Elastic Constant Matrix: (Units=GPa)
#
#
# Indices 1 2 3 4 5 6 
#
# 1 53.3454 54.3800 25.3232 0.0000 0.0000 0.0000
# 2 54.3800 173.8874 48.8442 0.0000 0.0000 0.0000
# 3 25.3232 48.8442 50.2378 0.0000 0.0000 0.0000
# 4 0.0000 0.0000 0.0000 10.7396 0.0000 0.0000
# 5 0.0000 0.0000 0.0000 0.0000 14.3254 0.0000
# 6 0.0000 0.0000 0.0000 0.0000 0.0000 -46.2030
#
#
#
# Elastic Compliance Matrix: (Units=1/GPa)
#
#
# Indices 1 2 3 4 5 6 
#
# 1 0.029785 -0.007013 -0.008196 0.000000 0.000000 0.000000
# 2 -0.007013 0.009563 -0.005762 0.000000 0.000000 0.000000
# 3 -0.008196 -0.005762 0.029639 0.000000 0.000000 0.000000
# 4 0.000000 0.000000 0.000000 0.093114 0.000000 0.000000
# 5 0.000000 0.000000 0.000000 0.000000 0.069806 0.000000
# 6 0.000000 0.000000 0.000000 0.000000 0.000000 -0.021644
#
#
# Mechanical properties :
#
#
# Convention : Reuss Voigt Hill
#
# Bulk Modulus (GPa) = 36.97502 59.39617 48.18560
# Shear Modulus (GPa) = 19.14104 5.70059 12.42082
#
# Velocity S-wave (km/s) = 3.54238 1.93318 2.85356
# Velocity P-wave (km/s) = 6.40088 6.62735 6.51510
#
# Compressibility (1/GPa) = 0.02704529
#
# Stress axis : x y z
#
# Youngs Moduli (GPa) = 33.57420 104.57463 33.73928
#
# Poissons Ratio (x) = 0.73334 0.27651
# Poissons Ratio (y) = 0.23544 0.19442
# Poissons Ratio (z) = 0.27516 0.60261
#
# Static dielectric constant tensor:
#      x y z
#    x 1.506230 0.000000 0.000000 
#    y 0.000000 1.562240 0.000000 
#    z 0.000000 0.000000 1.467930 
# 
# From -- ./inp_files/30994.got.cif
#   From: 2010.05.17/outbox.cif.g08.bks.cpg/sg53_16_cif.got.tgz:30994.got - 2010.06.03 12:45:16.
