data_PCOD9415899
_publ_section_title
;
Structure prediction by ZEFSAII (Michael W. Deem and Ramdas Pophale) SiO2 
 PCOD9415899
Probable space group: P M N A
;
_chemical_formula_sum "Si O2"
_cell_formula_units_Z 56
_cell_length_a 7.974627
_cell_length_b 17.817035
_cell_length_c 20.620045
_cell_angle_alpha 90.000000
_cell_angle_beta 90.000000
_cell_angle_gamma 90.000000
_cell_volume 2929.782770
_symmetry_space_group_name_H-M "P M N A"
_symmetry_group_IT_number 53
_symmetry_cell_setting 'orthorhombic'
loop_
_space_group_symop_operation_xyz
x,y,z
1/2-x,-y,1/2+z
x,-y,-z
1/2-x,y,1/2-z
-x,-y,-z
1/2+x,y,1/2-z
-x,y,z
1/2+x,-y,1/2+z
loop_
_atom_site_type_symbol
_atom_site_label
_atom_site_fract_x
_atom_site_fract_y
_atom_site_fract_z
Si Si1 0.201945 0.445506 0.677494
Si Si2 0.801565 0.818925 0.323133
Si Si3 0.298675 0.951834 0.406855
Si Si4 0.297260 0.109844 0.453689
Si Si5 0.202479 0.617089 0.677567
Si Si6 0.294009 0.686316 0.083799
Si Si7 0.200830 0.720703 0.560891
O O1 0.250000 0.419856 0.750000
O O2 0.263205 0.531052 0.669126
O O3 0.259717 0.388159 0.622270
O O4 0.000000 0.446985 0.674721
O O5 0.750000 0.802712 0.250000
O O6 0.751412 0.901736 0.346317
O O7 0.734398 0.757679 0.374174
O O8 0.000000 0.813830 0.326365
O O9 0.500000 0.953505 0.409839
O O10 0.240583 0.909848 0.472811
O O11 0.241731 0.038214 0.410974
O O12 0.500000 0.111321 0.453924
O O13 0.236824 0.191080 0.432543
O O14 0.250000 0.641883 0.750000
O O15 0.265609 0.671383 0.620807
O O16 0.000000 0.615360 0.674456
O O17 0.500000 0.686797 0.083042
O O18 0.236517 0.693653 0.009677
O O19 0.000000 0.711454 0.559899
#
# Coordination Sequence:
#
# PCOD9415899 Si02
#       7
#     8   8   8   8   8   8   8
#     4   9  17  32  51  72 100 137 174 209 252 301
#     4  11  21  33  50  75 107 142 174 213 258 304
#     4   9  18  34  53  74 100 132 171 209 251 306
#     4   9  18  33  54  77 101 130 165 209 257 304
#     4   9  19  34  54  75  99 133 171 212 259 308
#     4   9  18  31  49  75 105 133 171 213 252 301
#     4  10  19  33  52  78 106 132 169 215 257 306
#
# _framework density 19.114045000000001
#
# number of rings (size 3 to 8) (size 9 to 14) (size 15 to 20)
#    0.000    2.571    1.429    1.714    0.000    1.714 
#    0.000    6.429    0.000    1.714    0.000    5.000 
#    0.000    0.000    0.000    0.000    0.000    0.000 
#
# Total GULP energy -312360.281402 kJ/mol
# GULP energy per Si atom -5577.862168 kJ/mol
# Density = 1.907054 g / cm^3
# Si number density = 19.114045 Si / 1000 Ang^3
#
#
#
# Elastic Constant Matrix: (Units=GPa)
#
#
# Indices 1 2 3 4 5 6 
#
# 1 12.1277 5.6010 9.2573 0.0000 0.0000 0.0000
# 2 5.6010 134.2450 103.3835 0.0000 0.0000 0.0000
# 3 9.2573 103.3835 155.3074 0.0000 0.0000 0.0000
# 4 0.0000 0.0000 0.0000 35.4607 0.0000 0.0000
# 5 0.0000 0.0000 0.0000 0.0000 12.3668 0.0000
# 6 0.0000 0.0000 0.0000 0.0000 0.0000 -2.3992
#
#
#
# Elastic Compliance Matrix: (Units=1/GPa)
#
#
# Indices 1 2 3 4 5 6 
#
# 1 0.086422 0.000741 -0.005645 0.000000 0.000000 0.000000
# 2 0.000741 0.015291 -0.010223 0.000000 0.000000 0.000000
# 3 -0.005645 -0.010223 0.013580 0.000000 0.000000 0.000000
# 4 0.000000 0.000000 0.000000 0.028200 0.000000 0.000000
# 5 0.000000 0.000000 0.000000 0.000000 0.080862 0.000000
# 6 0.000000 0.000000 0.000000 0.000000 0.000000 -0.416801
#
#
# Mechanical properties :
#
#
# Convention : Reuss Voigt Hill
#
# Bulk Modulus (GPa) = 11.75903 59.79597 35.77750
# Shear Modulus (GPa) = -37.35636 21.31487 -8.02075
#
# Velocity S-wave (km/s) = -4.42565 3.34300 -2.05070
# Velocity P-wave (km/s) = 4.46652 6.80092 3.62648
#
# Compressibility (1/GPa) = 0.08504104
#
# Stress axis : x y z
#
# Youngs Moduli (GPa) = 11.57107 65.39852 73.63573
#
# Poissons Ratio (x) = -0.04849 0.41566
# Poissons Ratio (y) = -0.00858 0.75277
# Poissons Ratio (z) = 0.06532 0.66856
#
# Static dielectric constant tensor:
#      x y z
#    x 1.693010 0.000000 0.000000 
#    y 0.000000 1.673930 0.000000 
#    z 0.000000 0.000000 1.640560 
# 
# From -- ./inp_files/31030.got.cif
#   From: 2010.05.17/outbox.cif.g08.bks.cpg/sg53_16_cif.got.tgz:31030.got - 2010.06.03 12:45:16.
