data_PCOD9415203
_publ_section_title
;
Structure prediction by ZEFSAII (Michael W. Deem and Ramdas Pophale) SiO2 
 PCOD9415203
Probable space group: P M N A
;
_chemical_formula_sum "Si O2"
_cell_formula_units_Z 64
_cell_length_a 8.546783
_cell_length_b 21.309113
_cell_length_c 21.262179
_cell_angle_alpha 90.000000
_cell_angle_beta 90.000000
_cell_angle_gamma 90.000000
_cell_volume 3872.360843
_symmetry_space_group_name_H-M "P M N A"
_symmetry_group_IT_number 53
_symmetry_cell_setting 'orthorhombic'
loop_
_space_group_symop_operation_xyz
x,y,z
1/2-x,-y,1/2+z
x,-y,-z
1/2-x,y,1/2-z
-x,-y,-z
1/2+x,y,1/2-z
-x,y,z
1/2+x,-y,1/2+z
loop_
_atom_site_type_symbol
_atom_site_label
_atom_site_fract_x
_atom_site_fract_y
_atom_site_fract_z
Si Si1 0.314250 0.285515 0.351143
Si Si2 0.682352 0.303565 0.012893
Si Si3 0.190551 0.559225 0.541203
Si Si4 0.811190 0.584056 0.685719
Si Si5 0.684851 0.016820 0.183609
Si Si6 0.185531 0.148447 0.146005
Si Si7 0.814433 0.828158 0.001659
Si Si8 0.688781 0.046108 0.943930
O O1 0.500000 0.286261 0.367890
O O2 0.208386 0.291065 0.413109
O O3 0.270419 0.347569 0.314165
O O4 0.282924 0.216605 0.323905
O O5 0.500000 0.303162 0.996551
O O6 0.743825 0.375174 0.008851
O O7 0.761884 0.242737 0.982253
O O8 0.242593 0.500000 0.500000
O O9 0.231607 0.557115 0.615912
O O10 0.000000 0.560865 0.540072
O O11 0.750000 0.551631 0.750000
O O12 0.000000 0.589111 0.687956
O O13 0.750000 0.994780 0.250000
O O14 0.500000 0.009493 0.184509
O O15 0.724430 0.090102 0.174233
O O16 0.747597 0.980233 0.122588
O O17 0.000000 0.135875 0.151105
O O18 0.224460 0.156480 0.071703
O O19 0.738647 0.883070 0.042260
O O20 0.000000 0.831413 0.006884
O O21 0.500000 0.043246 0.943944
O O22 0.744380 0.000000 0.000000
#
# Coordination Sequence:
#
# PCOD9415203 Si02
#       8
#     8   8   8   8   8   8   8   8
#     4   9  17  29  44  64  92 125 162 201 234 276
#     4   9  16  27  46  71  99 128 158 197 242 289
#     4   8  15  29  49  73  98 127 164 201 239 284
#     4  10  19  30  46  67  93 128 163 200 239 281
#     4  11  23  36  50  67  93 125 156 200 248 298
#     4   9  18  31  46  66  92 124 160 195 235 280
#     4  10  19  30  49  74  99 127 159 204 248 288
#     4  10  20  35  53  74  95 121 162 207 250 294
#
# _framework density 16.527384999999999
#
# number of rings (size 3 to 8) (size 9 to 14) (size 15 to 20)
#    0.000    2.500    1.250    3.375    0.000    4.250 
#    0.000    0.000    0.000   13.500    0.000    0.875 
#    0.000    2.000    0.000    0.000    0.000    0.000 
#
# Total GULP energy -356366.300695 kJ/mol
# GULP energy per Si atom -5568.223448 kJ/mol
# Density = 1.648977 g / cm^3
# Si number density = 16.527385 Si / 1000 Ang^3
#
#
#
# Elastic Constant Matrix: (Units=GPa)
#
#
# Indices 1 2 3 4 5 6 
#
# 1 17.9131 10.8973 20.8136 0.0000 0.0000 0.0000
# 2 10.8973 98.9656 55.0536 0.0000 0.0000 0.0000
# 3 20.8136 55.0536 97.4133 0.0000 0.0000 0.0000
# 4 0.0000 0.0000 0.0000 9.9443 0.0000 0.0000
# 5 0.0000 0.0000 0.0000 0.0000 19.2335 0.0000
# 6 0.0000 0.0000 0.0000 0.0000 0.0000 7.9868
#
#
#
# Elastic Compliance Matrix: (Units=1/GPa)
#
#
# Indices 1 2 3 4 5 6 
#
# 1 0.074322 0.000948 -0.016416 0.000000 0.000000 0.000000
# 2 0.000948 0.014750 -0.008539 0.000000 0.000000 0.000000
# 3 -0.016416 -0.008539 0.018599 0.000000 0.000000 0.000000
# 4 0.000000 0.000000 0.000000 0.100560 0.000000 0.000000
# 5 0.000000 0.000000 0.000000 0.000000 0.051993 0.000000
# 6 0.000000 0.000000 0.000000 0.000000 0.000000 0.125207
#
#
# Mechanical properties :
#
#
# Convention : Reuss Voigt Hill
#
# Bulk Modulus (GPa) = 16.76209 43.09124 29.92666
# Shear Modulus (GPa) = 11.02949 15.93473 13.48211
#
# Velocity S-wave (km/s) = 2.58611 3.10843 2.85922
# Velocity P-wave (km/s) = 4.36821 6.24599 5.38951
#
# Compressibility (1/GPa) = 0.05965844
#
# Stress axis : x y z
#
# Youngs Moduli (GPa) = 13.45491 67.79612 53.76730
#
# Poissons Ratio (x) = -0.06428 0.88263
# Poissons Ratio (y) = -0.01276 0.45910
# Poissons Ratio (z) = 0.22087 0.57889
#
# Static dielectric constant tensor:
#      x y z
#    x 1.564340 0.000000 0.000000 
#    y 0.000000 1.580190 0.000000 
#    z 0.000000 0.000000 1.598310 
# 
# From -- ./inp_files/31369.got.cif
#   From: 2010.05.17/outbox.cif.g08.bks.cpg/sg53_16_cif.got.tgz:31369.got - 2010.06.03 12:45:16.
