data_PCOD9415673
_publ_section_title
;
Structure prediction by ZEFSAII (Michael W. Deem and Ramdas Pophale) SiO2 
 PCOD9415673
Probable space group: P M N A
;
_chemical_formula_sum "Si O2"
_cell_formula_units_Z 40
_cell_length_a 14.880351
_cell_length_b 9.826260
_cell_length_c 13.774783
_cell_angle_alpha 90.000000
_cell_angle_beta 90.000000
_cell_angle_gamma 90.000000
_cell_volume 2014.123946
_symmetry_space_group_name_H-M "P M N A"
_symmetry_group_IT_number 53
_symmetry_cell_setting 'orthorhombic'
loop_
_space_group_symop_operation_xyz
x,y,z
1/2-x,-y,1/2+z
x,-y,-z
1/2-x,y,1/2-z
-x,-y,-z
1/2+x,y,1/2-z
-x,y,z
1/2+x,-y,1/2+z
loop_
_atom_site_type_symbol
_atom_site_label
_atom_site_fract_x
_atom_site_fract_y
_atom_site_fract_z
Si Si1 0.898748 0.729972 0.364267
Si Si2 0.649057 0.012076 0.212327
Si Si3 0.295696 0.226525 0.059924
Si Si4 0.400677 0.769409 0.629090
Si Si5 0.604438 0.568349 0.800145
O O1 0.894547 0.866396 0.301463
O O2 0.831091 0.749247 0.452906
O O3 0.878496 0.591925 0.306397
O O4 0.000000 0.715425 0.404256
O O5 0.750000 0.992584 0.250000
O O6 0.659029 0.094939 0.111299
O O7 0.602726 0.110648 0.290288
O O8 0.187905 0.213681 0.064457
O O9 0.329636 0.350255 0.128372
O O10 0.500000 0.768111 0.583278
O O11 0.387735 0.633017 0.693499
O O12 0.500000 0.592730 0.830268
#
# Coordination Sequence:
#
# PCOD9415673 Si02
#       5
#     8   8   8   8   8
#     4  11  21  32  52  82 110 132 161 212 267 303
#     4   9  19  33  51  75 105 138 172 208 251 302
#     4  10  19  32  51  77 105 136 170 207 254 304
#     4   9  18  35  56  74  97 136 180 210 241 299
#     4   9  18  32  50  74 102 131 166 207 255 309
#
# _framework density 19.859749999999998
#
# number of rings (size 3 to 8) (size 9 to 14) (size 15 to 20)
#    0.000    2.400    0.000    4.200    0.000    6.400 
#    0.000    0.000    0.000   13.200    0.000    0.000 
#    0.000    0.000    0.000    0.000    0.000    0.000 
#
# Total GULP energy -223256.726026 kJ/mol
# GULP energy per Si atom -5581.418151 kJ/mol
# Density = 1.981455 g / cm^3
# Si number density = 19.859750 Si / 1000 Ang^3
#
#
#
# Elastic Constant Matrix: (Units=GPa)
#
#
# Indices 1 2 3 4 5 6 
#
# 1 92.5204 9.8534 2.2309 0.0000 0.0000 0.0000
# 2 9.8534 110.4925 -5.0396 0.0000 0.0000 0.0000
# 3 2.2309 -5.0396 6.7722 0.0000 0.0000 0.0000
# 4 0.0000 0.0000 0.0000 2.9721 0.0000 0.0000
# 5 0.0000 0.0000 0.0000 0.0000 -5.6342 0.0000
# 6 0.0000 0.0000 0.0000 0.0000 0.0000 4.1544
#
#
#
# Elastic Compliance Matrix: (Units=1/GPa)
#
#
# Indices 1 2 3 4 5 6 
#
# 1 0.011044 -0.001191 -0.004525 0.000000 0.000000 0.000000
# 2 -0.001191 0.009497 0.007460 0.000000 0.000000 0.000000
# 3 -0.004525 0.007460 0.154705 0.000000 0.000000 0.000000
# 4 0.000000 0.000000 0.000000 0.336461 0.000000 0.000000
# 5 0.000000 0.000000 0.000000 0.000000 -0.177488 0.000000
# 6 0.000000 0.000000 0.000000 0.000000 0.000000 0.240707
#
#
# Mechanical properties :
#
#
# Convention : Reuss Voigt Hill
#
# Bulk Modulus (GPa) = 5.59492 24.87494 15.23493
# Shear Modulus (GPa) = 7.92372 13.81450 10.86911
#
# Velocity S-wave (km/s) = 1.99962 2.64029 2.34197
# Velocity P-wave (km/s) = 2.85564 4.67411 3.87311
#
# Compressibility (1/GPa) = 0.17873360
#
# Stress axis : x y z
#
# Youngs Moduli (GPa) = 90.54363 105.29798 6.46391
#
# Poissons Ratio (x) = 0.12544 0.02925
# Poissons Ratio (y) = 0.10786 -0.04822
# Poissons Ratio (z) = 0.40969 -0.78548
#
# Static dielectric constant tensor:
#      x y z
#    x 1.737700 0.000000 0.000000 
#    y 0.000000 1.711040 0.000000 
#    z 0.000000 0.000000 1.662610 
# 
# From -- ./inp_files/22392.got.cif
#   From: 2010.05.17/outbox.cif.g08.bks.cpg/sg53_12_cif.got.tgz:22392.got - 2010.06.03 12:45:16.
