data_PCOD9415195
_publ_section_title
;
Structure prediction by ZEFSAII (Michael W. Deem and Ramdas Pophale) SiO2 
 PCOD9415195
Probable space group: P M N A
;
_chemical_formula_sum "Si O2"
_cell_formula_units_Z 48
_cell_length_a 8.791529
_cell_length_b 12.239318
_cell_length_c 26.577451
_cell_angle_alpha 90.000000
_cell_angle_beta 90.000000
_cell_angle_gamma 90.000000
_cell_volume 2859.795364
_symmetry_space_group_name_H-M "P M N A"
_symmetry_group_IT_number 53
_symmetry_cell_setting 'orthorhombic'
loop_
_space_group_symop_operation_xyz
x,y,z
1/2-x,-y,1/2+z
x,-y,-z
1/2-x,y,1/2-z
-x,-y,-z
1/2+x,y,1/2-z
-x,y,z
1/2+x,-y,1/2+z
loop_
_atom_site_type_symbol
_atom_site_label
_atom_site_fract_x
_atom_site_fract_y
_atom_site_fract_z
Si Si1 0.681494 0.829131 0.305114
Si Si2 0.820089 0.010146 0.376028
Si Si3 0.315748 0.547719 0.554181
Si Si4 0.318945 0.794891 0.571309
Si Si5 0.321080 0.844613 0.032825
Si Si6 0.182754 0.669185 0.105593
O O1 0.750000 0.817411 0.250000
O O2 0.500000 0.835013 0.302116
O O3 0.721080 0.726675 0.341617
O O4 0.742716 0.937943 0.332731
O O5 0.754633 0.130182 0.385745
O O6 0.000000 0.013996 0.367289
O O7 0.793887 0.941805 0.427661
O O8 0.263408 0.500000 0.500000
O O9 0.500000 0.555342 0.550362
O O10 0.262213 0.669451 0.567301
O O11 0.281085 0.457507 0.596613
O O12 0.500000 0.794844 0.577602
O O13 0.275052 0.847745 0.517732
O O14 0.500000 0.843460 0.020265
O O15 0.270363 0.736916 0.062994
O O16 0.000000 0.682754 0.097704
#
# Coordination Sequence:
#
# PCOD9415195 Si02
#       6
#     8   8   8   8   8   8
#     4  10  20  35  58  81 100 125 162 208 260 310
#     4  10  21  35  49  70 102 133 167 211 257 303
#     4   9  16  29  49  72 101 137 175 211 245 291
#     4  11  20  30  48  71 100 139 178 209 245 300
#     4  10  19  30  45  68 101 137 168 207 254 297
#     4   9  17  32  52  74  99 132 172 209 248 300
#
# _framework density 16.784417999999999
#
# number of rings (size 3 to 8) (size 9 to 14) (size 15 to 20)
#    0.000    2.167    1.667    2.500    0.000    4.667 
#    0.000    2.500    0.000    1.000    0.000    2.333 
#    0.000    0.000    0.000    0.000    0.000    0.000 
#
# Total GULP energy -267686.550819 kJ/mol
# GULP energy per Si atom -5576.803142 kJ/mol
# Density = 1.674622 g / cm^3
# Si number density = 16.784418 Si / 1000 Ang^3
#
#
#
# Elastic Constant Matrix: (Units=GPa)
#
#
# Indices 1 2 3 4 5 6 
#
# 1 26.9630 32.1008 30.5764 0.0000 0.0000 0.0000
# 2 32.1008 94.9092 44.3249 0.0000 0.0000 0.0000
# 3 30.5764 44.3249 91.1730 0.0000 0.0000 0.0000
# 4 0.0000 0.0000 0.0000 9.4853 0.0000 0.0000
# 5 0.0000 0.0000 0.0000 0.0000 24.7057 0.0000
# 6 0.0000 0.0000 0.0000 0.0000 0.0000 12.1190
#
#
#
# Elastic Compliance Matrix: (Units=1/GPa)
#
#
# Indices 1 2 3 4 5 6 
#
# 1 0.078994 -0.018559 -0.017469 0.000000 0.000000 0.000000
# 2 -0.018559 0.017992 -0.002523 0.000000 0.000000 0.000000
# 3 -0.017469 -0.002523 0.018053 0.000000 0.000000 0.000000
# 4 0.000000 0.000000 0.000000 0.105426 0.000000 0.000000
# 5 0.000000 0.000000 0.000000 0.000000 0.040477 0.000000
# 6 0.000000 0.000000 0.000000 0.000000 0.000000 0.082515
#
#
# Mechanical properties :
#
#
# Convention : Reuss Voigt Hill
#
# Bulk Modulus (GPa) = 26.35984 47.44995 36.90490
# Shear Modulus (GPa) = 11.54189 16.33153 13.93671
#
# Velocity S-wave (km/s) = 2.62516 3.12271 2.88468
# Velocity P-wave (km/s) = 4.99276 6.42910 5.75591
#
# Compressibility (1/GPa) = 0.03793650
#
# Stress axis : x y z
#
# Youngs Moduli (GPa) = 12.65921 55.58065 55.39186
#
# Poissons Ratio (x) = 1.03154 0.96764
# Poissons Ratio (y) = 0.23495 0.13974
# Poissons Ratio (z) = 0.22114 0.14022
#
# Static dielectric constant tensor:
#      x y z
#    x 1.560480 0.000000 0.000000 
#    y 0.000000 1.598140 0.000000 
#    z 0.000000 0.000000 1.545770 
# 
# From -- ./inp_files/33838.got.cif
#   From: 2010.05.17/outbox.cif.g08.bks.cpg/sg53_17_cif.got.tgz:33838.got - 2010.06.03 12:45:16.
