data_PCOD9415916
_publ_section_title
;
Structure prediction by ZEFSAII (Michael W. Deem and Ramdas Pophale) SiO2 
 PCOD9415916
Probable space group: P M N A
;
_chemical_formula_sum "Si O2"
_cell_formula_units_Z 64
_cell_length_a 7.935970
_cell_length_b 15.532824
_cell_length_c 25.603584
_cell_angle_alpha 90.000000
_cell_angle_beta 90.000000
_cell_angle_gamma 90.000000
_cell_volume 3156.103240
_symmetry_space_group_name_H-M "P M N A"
_symmetry_group_IT_number 53
_symmetry_cell_setting 'orthorhombic'
loop_
_space_group_symop_operation_xyz
x,y,z
1/2-x,-y,1/2+z
x,-y,-z
1/2-x,y,1/2-z
-x,-y,-z
1/2+x,y,1/2-z
-x,y,z
1/2+x,-y,1/2+z
loop_
_atom_site_type_symbol
_atom_site_label
_atom_site_fract_x
_atom_site_fract_y
_atom_site_fract_z
Si Si1 0.703503 0.935793 0.809202
Si Si2 0.194598 0.260290 0.496151
Si Si3 0.805548 0.354313 0.192130
Si Si4 0.297359 0.131044 0.809123
Si Si5 0.707345 0.282791 0.885418
Si Si6 0.305668 0.530530 0.150118
Si Si7 0.807391 0.563222 0.951699
Si Si8 0.798925 0.790040 0.612809
O O1 0.750000 0.912003 0.750000
O O2 0.500000 0.936400 0.812187
O O3 0.767786 0.866462 0.850639
O O4 0.764503 0.033543 0.818873
O O5 0.266522 0.267559 0.554790
O O6 0.206413 0.355507 0.472265
O O7 0.270677 0.208837 0.446564
O O8 0.000000 0.233126 0.502798
O O9 0.750000 0.327250 0.250000
O O10 0.776253 0.456970 0.185997
O O11 0.723199 0.298741 0.145500
O O12 0.000000 0.335918 0.187437
O O13 0.250000 0.154521 0.750000
O O14 0.500000 0.128837 0.812455
O O15 0.239760 0.202634 0.849915
O O16 0.500000 0.287784 0.886979
O O17 0.763826 0.373031 0.859024
O O18 0.500000 0.537885 0.166200
O O19 0.287410 0.486606 0.093621
O O20 0.000000 0.586671 0.934882
O O21 0.822799 0.500000 0.000000
O O22 0.000000 0.801050 0.607344
#
# Coordination Sequence:
#
# PCOD9415916 Si02
#       8
#     8   8   8   8   8   8   8   8
#     4   9  18  33  55  81 106 136 176 225 272 321
#     4  10  19  33  53  76 107 146 184 218 263 325
#     4  12  25  39  54  76 108 145 183 227 279 328
#     4   9  18  36  58  80 107 136 176 226 274 323
#     4   9  19  34  55  81 107 142 183 223 269 321
#     4  11  21  35  54  76 104 142 185 224 269 323
#     4  11  21  32  49  76 107 139 183 230 268 307
#     4  10  20  34  54  81 110 142 180 220 268 326
#
# _framework density 20.278171
#
# number of rings (size 3 to 8) (size 9 to 14) (size 15 to 20)
#    0.000    1.875    2.500    2.250    0.000    2.500 
#    0.000    3.750    0.000    3.750    0.000    0.000 
#    0.000    6.000    0.000    0.000    0.000    0.000 
#
# Total GULP energy -356871.593942 kJ/mol
# GULP energy per Si atom -5576.118655 kJ/mol
# Density = 2.023202 g / cm^3
# Si number density = 20.278171 Si / 1000 Ang^3
#
#
#
# Elastic Constant Matrix: (Units=GPa)
#
#
# Indices 1 2 3 4 5 6 
#
# 1 22.3559 -6.1968 -7.0530 0.0000 0.0000 0.0000
# 2 -6.1968 106.3481 60.1812 0.0000 0.0000 0.0000
# 3 -7.0530 60.1812 87.2269 0.0000 0.0000 0.0000
# 4 0.0000 0.0000 0.0000 84.2258 0.0000 0.0000
# 5 0.0000 0.0000 0.0000 0.0000 11.1260 0.0000
# 6 0.0000 0.0000 0.0000 0.0000 0.0000 8.1234
#
#
#
# Elastic Compliance Matrix: (Units=1/GPa)
#
#
# Indices 1 2 3 4 5 6 
#
# 1 0.045959 0.000943 0.003065 0.000000 0.000000 0.000000
# 2 0.000943 0.015445 -0.010580 0.000000 0.000000 0.000000
# 3 0.003065 -0.010580 0.019012 0.000000 0.000000 0.000000
# 4 0.000000 0.000000 0.000000 0.011873 0.000000 0.000000
# 5 0.000000 0.000000 0.000000 0.000000 0.089879 0.000000
# 6 0.000000 0.000000 0.000000 0.000000 0.000000 0.123102
#
#
# Mechanical properties :
#
#
# Convention : Reuss Voigt Hill
#
# Bulk Modulus (GPa) = 14.86462 34.42151 24.64307
# Shear Modulus (GPa) = 14.66977 31.96169 23.31573
#
# Velocity S-wave (km/s) = 2.69258 3.97440 3.39454
# Velocity P-wave (km/s) = 4.12467 6.17030 5.24812
#
# Compressibility (1/GPa) = 0.06727382
#
# Stress axis : x y z
#
# Youngs Moduli (GPa) = 21.75834 64.74550 52.59926
#
# Poissons Ratio (x) = -0.06108 -0.16123
# Poissons Ratio (y) = -0.02053 0.55649
# Poissons Ratio (z) = -0.06670 0.68500
#
# Static dielectric constant tensor:
#      x y z
#    x 1.756640 0.000000 0.000000 
#    y 0.000000 1.728970 0.000000 
#    z 0.000000 0.000000 1.669890 
# 
# From -- ./inp_files/34265.got.cif
#   From: 2010.05.17/outbox.cif.g08.bks.cpg/sg53_18_cif.got.tgz:34265.got - 2010.06.03 12:45:16.
