data_PCOD9415955
_publ_section_title
;
Structure prediction by ZEFSAII (Michael W. Deem and Ramdas Pophale) SiO2 
 PCOD9415955
Probable space group: P M N A
;
_chemical_formula_sum "Si O2"
_cell_formula_units_Z 40
_cell_length_a 8.524991
_cell_length_b 13.534852
_cell_length_c 19.546717
_cell_angle_alpha 90.000000
_cell_angle_beta 90.000000
_cell_angle_gamma 90.000000
_cell_volume 2255.388001
_symmetry_space_group_name_H-M "P M N A"
_symmetry_group_IT_number 53
_symmetry_cell_setting 'orthorhombic'
loop_
_space_group_symop_operation_xyz
x,y,z
1/2-x,-y,1/2+z
x,-y,-z
1/2-x,y,1/2-z
-x,-y,-z
1/2+x,y,1/2-z
-x,y,z
1/2+x,-y,1/2+z
loop_
_atom_site_type_symbol
_atom_site_label
_atom_site_fract_x
_atom_site_fract_y
_atom_site_fract_z
Si Si1 0.813180 0.106077 0.077532
Si Si2 0.811087 0.280619 0.327898
Si Si3 0.810190 0.287242 0.672359
Si Si4 0.811365 0.892112 0.423694
Si Si5 0.188970 0.497010 0.327735
O O1 0.755759 0.192945 0.126591
O O2 0.000000 0.102410 0.075784
O O3 0.749091 0.998985 0.100300
O O4 0.749463 0.122512 0.000779
O O5 0.750000 0.272801 0.250000
O O6 0.762692 0.389820 0.356015
O O7 0.000000 0.275454 0.327385
O O8 0.750000 0.277285 0.750000
O O9 0.757966 0.196874 0.625109
O O10 0.761059 0.395875 0.644097
O O11 0.000000 0.285561 0.674255
O O12 0.000000 0.893915 0.425157
O O13 0.250000 0.497251 0.250000
O O14 0.000000 0.496832 0.327436
#
# Coordination Sequence:
#
# PCOD9415955 Si02
#       5
#     8   8   8   8   8
#     4  11  22  36  53  73 100 134 172 211 255 303
#     4  10  19  33  54  78 104 133 167 207 249 296
#     4   9  18  32  53  79 104 131 164 204 248 297
#     4  10  20  36  55  74 100 134 171 209 254 304
#     4   8  15  29  49  74 102 131 162 198 245 296
#
# _framework density 17.735306999999999
#
# number of rings (size 3 to 8) (size 9 to 14) (size 15 to 20)
#    0.000    2.400    0.000    4.200    0.000    3.200 
#    0.000    3.000    0.000    6.000    0.000    0.000 
#    0.000    0.000    0.000    0.000    0.000    0.000 
#
# Total GULP energy -222915.998841 kJ/mol
# GULP energy per Si atom -5572.899971 kJ/mol
# Density = 1.769494 g / cm^3
# Si number density = 17.735307 Si / 1000 Ang^3
#
#
#
# Elastic Constant Matrix: (Units=GPa)
#
#
# Indices 1 2 3 4 5 6 
#
# 1 60.2942 47.6015 21.1080 0.0000 0.0000 0.0000
# 2 47.6015 230.3678 89.3566 0.0000 0.0000 0.0000
# 3 21.1080 89.3566 53.0356 0.0000 0.0000 0.0000
# 4 0.0000 0.0000 0.0000 141.5764 0.0000 0.0000
# 5 0.0000 0.0000 0.0000 0.0000 24.1246 0.0000
# 6 0.0000 0.0000 0.0000 0.0000 0.0000 18.4609
#
#
#
# Elastic Compliance Matrix: (Units=1/GPa)
#
#
# Indices 1 2 3 4 5 6 
#
# 1 0.019969 -0.003012 -0.002873 0.000000 0.000000 0.000000
# 2 -0.003012 0.012983 -0.020676 0.000000 0.000000 0.000000
# 3 -0.002873 -0.020676 0.054834 0.000000 0.000000 0.000000
# 4 0.000000 0.000000 0.000000 0.007063 0.000000 0.000000
# 5 0.000000 0.000000 0.000000 0.000000 0.041451 0.000000
# 6 0.000000 0.000000 0.000000 0.000000 0.000000 0.054169
#
#
# Mechanical properties :
#
#
# Convention : Reuss Voigt Hill
#
# Bulk Modulus (GPa) = 28.84784 73.31442 51.08113
# Shear Modulus (GPa) = 19.59664 49.20781 34.40223
#
# Velocity S-wave (km/s) = 3.32769 5.27313 4.40905
# Velocity P-wave (km/s) = 5.57366 8.86016 7.40163
#
# Compressibility (1/GPa) = 0.03466464
#
# Stress axis : x y z
#
# Youngs Moduli (GPa) = 50.07778 77.02361 18.23683
#
# Poissons Ratio (x) = 0.23197 0.05240
# Poissons Ratio (y) = 0.15082 0.37706
# Poissons Ratio (z) = 0.14389 1.59252
#
# Static dielectric constant tensor:
#      x y z
#    x 1.595890 0.000000 0.000000 
#    y 0.000000 1.655120 0.000000 
#    z 0.000000 0.000000 1.557310 
# 
# From -- ./inp_files/30341.got.cif
#   From: 2010.05.17/outbox.cif.g08.bks.cpg/sg53_16_cif.got.tgz:30341.got - 2010.06.03 12:45:16.
