data_PCOD9415451
_publ_section_title
;
Structure prediction by ZEFSAII (Michael W. Deem and Ramdas Pophale) SiO2 
 PCOD9415451
Probable space group: P M N A
;
_chemical_formula_sum "Si O2"
_cell_formula_units_Z 64
_cell_length_a 7.680989
_cell_length_b 22.613442
_cell_length_c 18.361898
_cell_angle_alpha 90.000000
_cell_angle_beta 90.000000
_cell_angle_gamma 90.000000
_cell_volume 3189.344153
_symmetry_space_group_name_H-M "P M N A"
_symmetry_group_IT_number 53
_symmetry_cell_setting 'orthorhombic'
loop_
_space_group_symop_operation_xyz
x,y,z
1/2-x,-y,1/2+z
x,-y,-z
1/2-x,y,1/2-z
-x,-y,-z
1/2+x,y,1/2-z
-x,y,z
1/2+x,-y,1/2+z
loop_
_atom_site_type_symbol
_atom_site_label
_atom_site_fract_x
_atom_site_fract_y
_atom_site_fract_z
Si Si1 0.793110 0.253628 0.100056
Si Si2 0.789181 0.682012 0.046929
Si Si3 0.712939 0.123129 0.409917
Si Si4 0.709174 0.995901 0.665587
Si Si5 0.793752 0.373015 0.330440
Si Si6 0.212942 0.888863 0.078946
Si Si7 0.208942 0.772374 0.165081
Si Si8 0.707038 0.437092 0.025799
O O1 0.726506 0.187930 0.115925
O O2 0.763068 0.305140 0.158094
O O3 0.000000 0.247570 0.091005
O O4 0.727082 0.279598 0.022898
O O5 0.729394 0.715306 0.119570
O O6 0.000000 0.681969 0.045810
O O7 0.732545 0.615032 0.032840
O O8 0.500000 0.122243 0.407233
O O9 0.762985 0.115790 0.494558
O O10 0.774854 0.067290 0.363345
O O11 0.750000 0.005025 0.750000
O O12 0.500000 0.995315 0.658027
O O13 0.772616 0.050694 0.616861
O O14 0.750000 0.394555 0.250000
O O15 0.720603 0.411563 0.397666
O O16 0.000000 0.372981 0.337814
O O17 0.272086 0.831979 0.125092
O O18 0.000000 0.888691 0.079867
O O19 0.250000 0.771307 0.250000
O O20 0.000000 0.773182 0.158440
O O21 0.500000 0.444915 0.036152
O O22 0.779290 0.500000 0.000000
#
# Coordination Sequence:
#
# PCOD9415451 Si02
#       8
#     8   8   8   8   8   8   8   8
#     4   9  16  30  52  74  98 128 164 208 255 298
#     4   9  17  31  51  74 101 131 165 205 246 295
#     4   9  16  29  51  75  94 124 169 213 252 297
#     4  10  20  32  48  69  96 129 166 209 256 303
#     4  10  20  34  53  78 107 136 169 206 247 296
#     4   9  16  30  51  72  94 125 171 215 249 297
#     4  10  19  31  49  74 102 132 166 209 257 302
#     4   9  19  36  57  79 104 136 170 206 249 293
#
# _framework density 20.066821000000001
#
# number of rings (size 3 to 8) (size 9 to 14) (size 15 to 20)
#    0.000    2.625    1.250    1.125    0.000    3.250 
#    0.000    2.500    0.000    6.000    0.000    0.000 
#    0.000    0.000    0.000    0.000    0.000    0.000 
#
# Total GULP energy -357085.223612 kJ/mol
# GULP energy per Si atom -5579.456619 kJ/mol
# Density = 2.002115 g / cm^3
# Si number density = 20.066821 Si / 1000 Ang^3
#
#
#
# Elastic Constant Matrix: (Units=GPa)
#
#
# Indices 1 2 3 4 5 6 
#
# 1 24.3503 9.8393 -1.1127 0.0000 0.0000 0.0000
# 2 9.8393 158.4730 33.5862 0.0000 0.0000 0.0000
# 3 -1.1127 33.5862 51.6672 0.0000 0.0000 0.0000
# 4 0.0000 0.0000 0.0000 20.1708 0.0000 0.0000
# 5 0.0000 0.0000 0.0000 0.0000 19.0202 0.0000
# 6 0.0000 0.0000 0.0000 0.0000 0.0000 -11.4008
#
#
#
# Elastic Compliance Matrix: (Units=1/GPa)
#
#
# Indices 1 2 3 4 5 6 
#
# 1 0.042535 -0.003288 0.003053 0.000000 0.000000 0.000000
# 2 -0.003288 0.007573 -0.004993 0.000000 0.000000 0.000000
# 3 0.003053 -0.004993 0.022666 0.000000 0.000000 0.000000
# 4 0.000000 0.000000 0.000000 0.049577 0.000000 0.000000
# 5 0.000000 0.000000 0.000000 0.000000 0.052576 0.000000
# 6 0.000000 0.000000 0.000000 0.000000 0.000000 -0.087713
#
#
# Mechanical properties :
#
#
# Convention : Reuss Voigt Hill
#
# Bulk Modulus (GPa) = 16.04664 35.45734 25.75199
# Shear Modulus (GPa) = 42.21468 18.36989 30.29229
#
# Velocity S-wave (km/s) = 4.59159 3.02890 3.88953
# Velocity P-wave (km/s) = 6.01035 5.47177 5.74737
#
# Compressibility (1/GPa) = 0.06231836
#
# Stress axis : x y z
#
# Youngs Moduli (GPa) = 23.50985 132.05398 44.11820
#
# Poissons Ratio (x) = 0.43421 -0.13471
# Poissons Ratio (y) = 0.07730 0.22030
# Poissons Ratio (z) = -0.07179 0.65940
#
# Static dielectric constant tensor:
#      x y z
#    x 1.758950 0.000000 0.000000 
#    y 0.000000 1.713530 0.000000 
#    z 0.000000 0.000000 1.680650 
# 
# From -- ./inp_files/26926.got.cif
#   From: 2010.05.17/outbox.cif.g08.bks.cpg/sg53_14_cif.got.tgz:26926.got - 2010.06.03 12:45:16.
