data_PCOD9415692
_publ_section_title
;
Structure prediction by ZEFSAII (Michael W. Deem and Ramdas Pophale) SiO2 
 PCOD9415692
Probable space group: P M N A
;
_chemical_formula_sum "Si O2"
_cell_formula_units_Z 56
_cell_length_a 9.594646
_cell_length_b 17.784999
_cell_length_c 16.189897
_cell_angle_alpha 90.000000
_cell_angle_beta 90.000000
_cell_angle_gamma 90.000000
_cell_volume 2762.656482
_symmetry_space_group_name_H-M "P M N A"
_symmetry_group_IT_number 53
_symmetry_cell_setting 'orthorhombic'
loop_
_space_group_symop_operation_xyz
x,y,z
1/2-x,-y,1/2+z
x,-y,-z
1/2-x,y,1/2-z
-x,-y,-z
1/2+x,y,1/2-z
-x,y,z
1/2+x,-y,1/2+z
loop_
_atom_site_type_symbol
_atom_site_label
_atom_site_fract_x
_atom_site_fract_y
_atom_site_fract_z
Si Si1 0.341418 0.838856 0.634245
Si Si2 0.155203 0.143405 0.938925
Si Si3 0.842042 0.589646 0.008251
Si Si4 0.167057 0.003689 0.828037
Si Si5 0.330305 0.668900 0.667616
Si Si6 0.152216 0.219878 0.677959
Si Si7 0.657889 0.602204 0.172901
O O1 0.500000 0.837669 0.667090
O O2 0.348675 0.848165 0.536079
O O3 0.277834 0.918447 0.660432
O O4 0.284649 0.756589 0.655907
O O5 0.269909 0.199659 0.905359
O O6 0.000000 0.163111 0.906532
O O7 0.187019 0.059686 0.905526
O O8 0.800363 0.625972 0.919499
O O9 0.000000 0.618624 0.027232
O O10 0.850723 0.500000 0.000000
O O11 0.739184 0.599885 0.085780
O O12 0.250000 0.033853 0.750000
O O13 0.000000 0.001015 0.814970
O O14 0.250000 0.640717 0.750000
O O15 0.500000 0.664946 0.678126
O O16 0.250000 0.191448 0.750000
O O17 0.141760 0.308888 0.688585
O O18 0.000000 0.185551 0.681208
O O19 0.750000 0.571509 0.250000
O O20 0.500000 0.569969 0.169489
#
# Coordination Sequence:
#
# PCOD9415692 Si02
#       7
#     8   8   8   8   8   8   8
#     4   9  18  34  55  77 102 139 186 230 277 333
#     4  10  19  32  52  75 102 138 180 228 280 333
#     4  10  22  40  61  88 121 153 188 234 289 349
#     4  10  20  33  50  73 102 137 180 229 279 335
#     4  10  21  38  61  86 115 153 195 240 288 342
#     4  10  20  33  50  75 106 139 177 220 269 328
#     4  10  21  37  59  86 116 152 192 235 284 342
#
# _framework density 20.270344999999999
#
# number of rings (size 3 to 8) (size 9 to 14) (size 15 to 20)
#    0.000    2.143    0.000    3.000    0.000    7.714 
#    0.000    2.857    0.000    1.714    0.000    0.000 
#    0.000    0.000    0.000    0.000    0.000    0.000 
#
# Total GULP energy -312025.043041 kJ/mol
# GULP energy per Si atom -5571.875769 kJ/mol
# Density = 2.022421 g / cm^3
# Si number density = 20.270345 Si / 1000 Ang^3
#
#
#
# Elastic Constant Matrix: (Units=GPa)
#
#
# Indices 1 2 3 4 5 6 
#
# 1 99.0163 11.1256 63.5556 0.0000 0.0000 0.0000
# 2 11.1256 53.9749 14.7078 0.0000 0.0000 0.0000
# 3 63.5556 14.7078 129.6769 0.0000 0.0000 0.0000
# 4 0.0000 0.0000 0.0000 23.7142 0.0000 0.0000
# 5 0.0000 0.0000 0.0000 0.0000 29.9502 0.0000
# 6 0.0000 0.0000 0.0000 0.0000 0.0000 34.2267
#
#
#
# Elastic Compliance Matrix: (Units=1/GPa)
#
#
# Indices 1 2 3 4 5 6 
#
# 1 0.014799 -0.001108 -0.007127 0.000000 0.000000 0.000000
# 2 -0.001108 0.019201 -0.001635 0.000000 0.000000 0.000000
# 3 -0.007127 -0.001635 0.011390 0.000000 0.000000 0.000000
# 4 0.000000 0.000000 0.000000 0.042169 0.000000 0.000000
# 5 0.000000 0.000000 0.000000 0.000000 0.033389 0.000000
# 6 0.000000 0.000000 0.000000 0.000000 0.000000 0.029217
#
#
# Mechanical properties :
#
#
# Convention : Reuss Voigt Hill
#
# Bulk Modulus (GPa) = 38.98721 51.27179 45.12950
# Shear Modulus (GPa) = 28.01841 30.46348 29.24094
#
# Velocity S-wave (km/s) = 3.72188 3.88088 3.80221
# Velocity P-wave (km/s) = 6.14371 6.74022 6.44887
#
# Compressibility (1/GPa) = 0.02564944
#
# Stress axis : x y z
#
# Youngs Moduli (GPa) = 67.57388 52.08068 87.79660
#
# Poissons Ratio (x) = 0.05772 0.62574
# Poissons Ratio (y) = 0.07489 0.14351
# Poissons Ratio (z) = 0.48161 0.08513
#
# Static dielectric constant tensor:
#      x y z
#    x 1.765120 0.000000 0.000000 
#    y 0.000000 1.752640 0.000000 
#    z 0.000000 0.000000 1.664270 
# 
# From -- ./inp_files/20618.got.cif
#   From: 2010.05.17/outbox.cif.g08.bks.cpg/sg53_11_cif.got.tgz:20618.got - 2010.06.03 12:45:16.
