data_PCOD9415166
_publ_section_title
;
Structure prediction by ZEFSAII (Michael W. Deem and Ramdas Pophale) SiO2 
 PCOD9415166
Probable space group: P M N A
;
_chemical_formula_sum "Si O2"
_cell_formula_units_Z 64
_cell_length_a 8.942040
_cell_length_b 18.573280
_cell_length_c 26.978930
_cell_angle_alpha 90.000000
_cell_angle_beta 90.000000
_cell_angle_gamma 90.000000
_cell_volume 4480.741974
_symmetry_space_group_name_H-M "P M N A"
_symmetry_group_IT_number 53
_symmetry_cell_setting 'orthorhombic'
loop_
_space_group_symop_operation_xyz
x,y,z
1/2-x,-y,1/2+z
x,-y,-z
1/2-x,y,1/2-z
-x,-y,-z
1/2+x,y,1/2-z
-x,y,z
1/2+x,-y,1/2+z
loop_
_atom_site_type_symbol
_atom_site_label
_atom_site_fract_x
_atom_site_fract_y
_atom_site_fract_z
Si Si1 0.327728 0.454757 0.448542
Si Si2 0.180215 0.909806 0.397413
Si Si3 0.322220 0.170896 0.508238
Si Si4 0.178276 0.673016 0.496970
Si Si5 0.178487 0.165194 0.803286
Si Si6 0.178385 0.584387 0.395945
Si Si7 0.671587 0.049992 0.049373
Si Si8 0.678170 0.664669 0.303317
O O1 0.327255 0.500000 0.500000
O O2 0.500000 0.440975 0.435130
O O3 0.241049 0.381862 0.461841
O O4 0.247557 0.506862 0.409443
O O5 0.249030 0.862447 0.441990
O O6 0.245473 0.880783 0.346348
O O7 0.000000 0.903621 0.399123
O O8 0.217972 0.993601 0.408286
O O9 0.500000 0.172308 0.513586
O O10 0.257689 0.250271 0.500412
O O11 0.273676 0.117532 0.463752
O O12 0.209133 0.636429 0.443249
O O13 0.000000 0.680687 0.501644
O O14 0.250000 0.148515 0.750000
O O15 0.206367 0.250288 0.813025
O O16 0.000000 0.154303 0.802376
O O17 0.250358 0.618605 0.347240
O O18 0.000000 0.578929 0.390884
O O19 0.500000 0.073485 0.057422
O O20 0.671440 0.000000 0.000000
O O21 0.750000 0.647582 0.250000
O O22 0.500000 0.654076 0.301512
#
# Coordination Sequence:
#
# PCOD9415166 Si02
#       8
#     8   8   8   8   8   8   8   8
#     4   9  17  29  44  62  85 111 141 178 215 252
#     4  10  19  31  46  62  84 115 148 180 217 259
#     4  11  20  28  42  64  88 114 146 181 216 256
#     4  10  19  30  44  62  87 117 147 178 213 256
#     4  10  20  32  46  64  87 114 146 183 220 256
#     4  10  19  30  45  63  84 114 148 178 213 257
#     4   8  16  30  44  59  82 112 143 176 215 257
#     4  10  20  32  45  62  85 113 145 182 219 253
#
# _framework density 14.283348999999999
#
# number of rings (size 3 to 8) (size 9 to 14) (size 15 to 20)
#    0.000    2.250    0.000    4.875    0.000    9.250 
#    0.000    0.000    0.000    0.000    0.000    0.000 
#    0.000    1.000    0.000    7.000    0.000    5.500 
#
# Total GULP energy -356940.160230 kJ/mol
# GULP energy per Si atom -5577.190004 kJ/mol
# Density = 1.425084 g / cm^3
# Si number density = 14.283349 Si / 1000 Ang^3
#
#
#
# Elastic Constant Matrix: (Units=GPa)
#
#
# Indices 1 2 3 4 5 6 
#
# 1 96.0083 68.6155 57.8602 0.0000 0.0000 0.0000
# 2 68.6155 105.0783 62.5701 0.0000 0.0000 0.0000
# 3 57.8602 62.5701 97.2560 0.0000 0.0000 0.0000
# 4 0.0000 0.0000 0.0000 28.6066 0.0000 0.0000
# 5 0.0000 0.0000 0.0000 0.0000 23.5241 0.0000
# 6 0.0000 0.0000 0.0000 0.0000 0.0000 24.1922
#
#
#
# Elastic Compliance Matrix: (Units=1/GPa)
#
#
# Indices 1 2 3 4 5 6 
#
# 1 0.021559 -0.010440 -0.006109 0.000000 0.000000 0.000000
# 2 -0.010440 0.020482 -0.006966 0.000000 0.000000 0.000000
# 3 -0.006109 -0.006966 0.018399 0.000000 0.000000 0.000000
# 4 0.000000 0.000000 0.000000 0.034957 0.000000 0.000000
# 5 0.000000 0.000000 0.000000 0.000000 0.042510 0.000000
# 6 0.000000 0.000000 0.000000 0.000000 0.000000 0.041336
#
#
# Mechanical properties :
#
#
# Convention : Reuss Voigt Hill
#
# Bulk Modulus (GPa) = 74.58018 75.15936 74.86977
# Shear Modulus (GPa) = 21.66923 22.55104 22.11014
#
# Velocity S-wave (km/s) = 3.89922 3.97777 3.93869
# Velocity P-wave (km/s) = 8.52056 8.59252 8.55662
#
# Compressibility (1/GPa) = 0.01340839
#
# Stress axis : x y z
#
# Youngs Moduli (GPa) = 46.38470 48.82338 54.35214
#
# Poissons Ratio (x) = 0.50971 0.33206
# Poissons Ratio (y) = 0.48425 0.37863
# Poissons Ratio (z) = 0.28338 0.34011
#
# Static dielectric constant tensor:
#      x y z
#    x 1.473370 0.000000 0.000000 
#    y 0.000000 1.462390 0.000000 
#    z 0.000000 0.000000 1.449960 
# 
# From -- ./inp_files/34480.got.cif
#   From: 2010.05.17/outbox.cif.g08.bks.cpg/sg53_18_cif.got.tgz:34480.got - 2010.06.03 12:45:16.
