data_PCOD9415936
_publ_section_title
;
Structure prediction by ZEFSAII (Michael W. Deem and Ramdas Pophale) SiO2 
 PCOD9415936
Probable space group: P M N A
;
_chemical_formula_sum "Si O2"
_cell_formula_units_Z 48
_cell_length_a 14.319582
_cell_length_b 18.945884
_cell_length_c 8.366462
_cell_angle_alpha 90.000000
_cell_angle_beta 90.000000
_cell_angle_gamma 90.000000
_cell_volume 2269.797208
_symmetry_space_group_name_H-M "P M N A"
_symmetry_group_IT_number 53
_symmetry_cell_setting 'orthorhombic'
loop_
_space_group_symop_operation_xyz
x,y,z
1/2-x,-y,1/2+z
x,-y,-z
1/2-x,y,1/2-z
-x,-y,-z
1/2+x,y,1/2-z
-x,y,z
1/2+x,-y,1/2+z
loop_
_atom_site_type_symbol
_atom_site_label
_atom_site_fract_x
_atom_site_fract_y
_atom_site_fract_z
Si Si1 0.389160 0.921277 0.938134
Si Si2 0.389223 0.924308 0.562247
Si Si3 0.887668 0.398867 0.688482
Si Si4 0.221537 0.655293 0.996403
Si Si5 0.256023 0.810246 0.434772
Si Si6 0.606210 0.543780 0.667931
O O1 0.500000 0.912386 0.963125
O O2 0.368510 0.918274 0.749655
O O3 0.332432 0.858453 0.019946
O O4 0.365236 0.000000 0.000000
O O5 0.500000 0.921776 0.541161
O O6 0.342030 0.861965 0.465999
O O7 0.355793 0.000000 0.500000
O O8 0.844774 0.360741 0.846913
O O9 0.824910 0.371301 0.543626
O O10 0.868482 0.482714 0.707206
O O11 0.000000 0.389013 0.678801
O O12 0.229710 0.738378 0.968034
O O13 0.172623 0.609503 0.859923
O O14 0.250000 0.789521 0.250000
O O15 0.606146 0.500000 0.500000
O O16 0.500000 0.566978 0.698628
#
# Coordination Sequence:
#
# PCOD9415936 Si02
#       6
#     8   8   8   8   8   8
#     4  10  22  42  66  89 120 164 207 252 303 358
#     4  10  22  41  65  90 118 159 208 254 300 361
#     4   9  17  33  56  81 109 147 195 245 295 356
#     4  10  19  33  53  86 115 152 197 245 312 362
#     4  12  23  36  56  93 128 164 199 247 313 368
#     4   8  15  30  56  79 102 142 193 242 287 343
#
# _framework density 21.147264
#
# number of rings (size 3 to 8) (size 9 to 14) (size 15 to 20)
#    0.000    2.167    1.667    3.500    0.000    4.000 
#    0.000    0.000   22.000   13.500    0.000    0.000 
#    0.000    0.000    0.000    0.000    0.000    0.000 
#
# Total GULP energy -268322.563972 kJ/mol
# GULP energy per Si atom -5590.053416 kJ/mol
# Density = 2.109913 g / cm^3
# Si number density = 21.147264 Si / 1000 Ang^3
#
#
#
# Elastic Constant Matrix: (Units=GPa)
#
#
# Indices 1 2 3 4 5 6 
#
# 1 117.4279 56.8998 17.4759 0.0000 0.0000 0.0000
# 2 56.8998 165.2792 18.4191 0.0000 0.0000 0.0000
# 3 17.4759 18.4191 32.6205 0.0000 0.0000 0.0000
# 4 0.0000 0.0000 0.0000 26.7610 0.0000 0.0000
# 5 0.0000 0.0000 0.0000 0.0000 30.8624 0.0000
# 6 0.0000 0.0000 0.0000 0.0000 0.0000 -34.6780
#
#
#
# Elastic Compliance Matrix: (Units=1/GPa)
#
#
# Indices 1 2 3 4 5 6 
#
# 1 0.010663 -0.003238 -0.003884 0.000000 0.000000 0.000000
# 2 -0.003238 0.007440 -0.002466 0.000000 0.000000 0.000000
# 3 -0.003884 -0.002466 0.034129 0.000000 0.000000 0.000000
# 4 0.000000 0.000000 0.000000 0.037368 0.000000 0.000000
# 5 0.000000 0.000000 0.000000 0.000000 0.032402 0.000000
# 6 0.000000 0.000000 0.000000 0.000000 0.000000 -0.028837
#
#
# Mechanical properties :
#
#
# Convention : Reuss Voigt Hill
#
# Bulk Modulus (GPa) = 30.25259 55.65748 42.95503
# Shear Modulus (GPa) = 40.53186 19.42461 29.97824
#
# Velocity S-wave (km/s) = 4.38270 3.03403 3.76918
# Velocity P-wave (km/s) = 6.32040 6.21691 6.26887
#
# Compressibility (1/GPa) = 0.03305502
#
# Stress axis : x y z
#
# Youngs Moduli (GPa) = 93.78327 134.40967 29.30065
#
# Poissons Ratio (x) = 0.43522 0.11381
# Poissons Ratio (y) = 0.30367 0.07226
# Poissons Ratio (z) = 0.36427 0.33149
#
# Static dielectric constant tensor:
#      x y z
#    x 1.757810 0.000000 0.000000 
#    y 0.000000 1.725990 0.000000 
#    z 0.000000 0.000000 1.823110 
# 
# From -- ./inp_files/8691.got.cif
#   From: 2010.05.17/outbox.cif.g08.bks.cpg/sg53_5_cif.got.tgz:8691.got - 2010.06.03 12:45:16.
