data_PCOD9415193
_publ_section_title
;
Structure prediction by ZEFSAII (Michael W. Deem and Ramdas Pophale) SiO2 
 PCOD9415193
Probable space group: P M N A
;
_chemical_formula_sum "Si O2"
_cell_formula_units_Z 64
_cell_length_a 8.823095
_cell_length_b 21.443978
_cell_length_c 19.238624
_cell_angle_alpha 90.000000
_cell_angle_beta 90.000000
_cell_angle_gamma 90.000000
_cell_volume 3639.991045
_symmetry_space_group_name_H-M "P M N A"
_symmetry_group_IT_number 53
_symmetry_cell_setting 'orthorhombic'
loop_
_space_group_symop_operation_xyz
x,y,z
1/2-x,-y,1/2+z
x,-y,-z
1/2-x,y,1/2-z
-x,-y,-z
1/2+x,y,1/2-z
-x,y,z
1/2+x,-y,1/2+z
loop_
_atom_site_type_symbol
_atom_site_label
_atom_site_fract_x
_atom_site_fract_y
_atom_site_fract_z
Si Si1 0.829869 0.567559 0.181280
Si Si2 0.319698 0.236211 0.326370
Si Si3 0.677071 0.341516 0.077057
Si Si4 0.318468 0.022167 0.827351
Si Si5 0.671227 0.419172 0.317845
Si Si6 0.175761 0.069571 0.966683
Si Si7 0.680696 0.113898 0.105796
Si Si8 0.182103 0.566220 0.466598
O O1 0.750000 0.593317 0.250000
O O2 0.842493 0.492789 0.190862
O O3 0.732523 0.573015 0.112231
O O4 0.000000 0.592156 0.172503
O O5 0.250000 0.247188 0.250000
O O6 0.500000 0.237009 0.320981
O O7 0.264152 0.287361 0.382553
O O8 0.262366 0.169739 0.354508
O O9 0.500000 0.325652 0.074390
O O10 0.709545 0.402953 0.123067
O O11 0.732869 0.369594 0.004350
O O12 0.250000 0.031664 0.750000
O O13 0.500000 0.030305 0.824725
O O14 0.249925 0.064395 0.890081
O O15 0.287557 0.951184 0.853821
O O16 0.750000 0.391640 0.250000
O O17 0.500000 0.395122 0.330085
O O18 0.000000 0.088549 0.961216
O O19 0.261988 0.108998 0.025957
O O20 0.179635 0.000000 0.000000
O O21 0.500000 0.123272 0.106171
O O22 0.239450 0.500000 0.500000
O O23 0.000000 0.564507 0.472689
#
# Coordination Sequence:
#
# PCOD9415193 Si02
#       8
#     8   8   8   8   8   8   8   8
#     4  10  20  32  50  73 100 129 161 199 243 300
#     4  12  25  40  56  76 105 141 184 225 263 309
#     4  11  22  36  53  72  99 133 169 212 259 308
#     4  10  19  30  48  76 110 146 183 227 275 323
#     4  10  19  30  45  67  95 128 162 198 241 293
#     4   9  17  30  49  74 105 141 181 224 271 321
#     4  10  20  35  54  76 105 143 187 228 270 317
#     4  10  20  35  54  76 102 132 166 207 258 315
#
# _framework density 17.582462
#
# number of rings (size 3 to 8) (size 9 to 14) (size 15 to 20)
#    0.000    1.750    1.250    4.125    0.000    6.250 
#    0.000    0.000    0.000    0.000    0.000    0.875 
#    0.000    4.000    0.000    0.000    0.000    0.000 
#
# Total GULP energy -356658.120928 kJ/mol
# GULP energy per Si atom -5572.783139 kJ/mol
# Density = 1.754244 g / cm^3
# Si number density = 17.582462 Si / 1000 Ang^3
#
#
#
# Elastic Constant Matrix: (Units=GPa)
#
#
# Indices 1 2 3 4 5 6 
#
# 1 61.2354 29.8633 35.2182 0.0000 0.0000 0.0000
# 2 29.8633 45.3879 28.8570 0.0000 0.0000 0.0000
# 3 35.2182 28.8570 133.4138 0.0000 0.0000 0.0000
# 4 0.0000 0.0000 0.0000 56.6291 0.0000 0.0000
# 5 0.0000 0.0000 0.0000 0.0000 28.3877 0.0000
# 6 0.0000 0.0000 0.0000 0.0000 0.0000 21.3141
#
#
#
# Elastic Compliance Matrix: (Units=1/GPa)
#
#
# Indices 1 2 3 4 5 6 
#
# 1 0.025447 -0.014461 -0.003590 0.000000 0.000000 0.000000
# 2 -0.014461 0.033763 -0.003485 0.000000 0.000000 0.000000
# 3 -0.003590 -0.003485 0.009197 0.000000 0.000000 0.000000
# 4 0.000000 0.000000 0.000000 0.017659 0.000000 0.000000
# 5 0.000000 0.000000 0.000000 0.000000 0.035227 0.000000
# 6 0.000000 0.000000 0.000000 0.000000 0.000000 0.046917
#
#
# Mechanical properties :
#
#
# Convention : Reuss Voigt Hill
#
# Bulk Modulus (GPa) = 39.47094 47.54600 43.50847
# Shear Modulus (GPa) = 22.75548 31.00607 26.88078
#
# Velocity S-wave (km/s) = 3.60142 4.20392 3.91428
# Velocity P-wave (km/s) = 6.30805 7.11789 6.72517
#
# Compressibility (1/GPa) = 0.02533509
#
# Stress axis : x y z
#
# Youngs Moduli (GPa) = 39.29690 29.61816 108.73160
#
# Poissons Ratio (x) = 0.42831 0.39031
# Poissons Ratio (y) = 0.56827 0.37898
# Poissons Ratio (z) = 0.14106 0.10323
#
# Static dielectric constant tensor:
#      x y z
#    x 1.616790 0.000000 0.000000 
#    y 0.000000 1.611720 0.000000 
#    z 0.000000 0.000000 1.657370 
# 
# From -- ./inp_files/26814.got.cif
#   From: 2010.05.17/outbox.cif.g08.bks.cpg/sg53_14_cif.got.tgz:26814.got - 2010.06.03 12:45:16.
