data_PCOD9415116
_publ_section_title
;
Structure prediction by ZEFSAII (Michael W. Deem and Ramdas Pophale) SiO2 
 PCOD9415116
Probable space group: P M N A
;
_chemical_formula_sum "Si O2"
_cell_formula_units_Z 56
_cell_length_a 17.520784
_cell_length_b 5.529359
_cell_length_c 30.951690
_cell_angle_alpha 90.000000
_cell_angle_beta 90.000000
_cell_angle_gamma 90.000000
_cell_volume 2998.559635
_symmetry_space_group_name_H-M "P M N A"
_symmetry_group_IT_number 53
_symmetry_cell_setting 'orthorhombic'
loop_
_space_group_symop_operation_xyz
x,y,z
1/2-x,-y,1/2+z
x,-y,-z
1/2-x,y,1/2-z
-x,-y,-z
1/2+x,y,1/2-z
-x,y,z
1/2+x,-y,1/2+z
loop_
_atom_site_type_symbol
_atom_site_label
_atom_site_fract_x
_atom_site_fract_y
_atom_site_fract_z
Si Si1 0.762206 0.742231 0.639289
Si Si2 0.911233 0.722974 0.250249
Si Si3 0.585267 0.985421 0.161138
Si Si4 0.080684 0.298352 0.462810
Si Si5 0.828820 0.778957 0.776736
Si Si6 0.233102 0.004868 0.454108
Si Si7 0.650381 0.642575 0.097417
O O1 0.694223 0.760298 0.672979
O O2 0.744154 0.869812 0.592384
O O3 0.789140 0.468770 0.630569
O O4 0.838524 0.853783 0.661812
O O5 0.908837 0.782701 0.301491
O O6 0.871406 0.468493 0.238168
O O7 0.000000 0.708534 0.237510
O O8 0.873835 0.968995 0.230847
O O9 0.500000 0.094759 0.165116
O O10 0.598113 0.852664 0.115799
O O11 0.078670 0.500000 0.500000
O O12 0.156369 0.147354 0.466000
O O13 0.093465 0.437150 0.418040
O O14 0.000000 0.166140 0.462871
O O15 0.750000 0.792400 0.750000
O O16 0.278496 0.000000 0.500000
O O17 0.204064 0.739930 0.440745
#
# Coordination Sequence:
#
# PCOD9415116 Si02
#       7
#     8   8   8   8   8   8   8
#     4  10  23  35  55  82 109 157 199 246 303 361
#     4  11  25  42  65  91 125 163 205 252 307 362
#     4  10  21  36  52  79 113 152 200 246 294 350
#     4  10  19  29  42  64  93 140 195 243 294 346
#     4  12  23  41  66  91 128 160 208 252 307 367
#     4  10  20  34  49  70 105 142 191 247 302 350
#     4  10  20  33  49  69 104 144 196 241 306 336
#
# _framework density 18.675632
#
# number of rings (size 3 to 8) (size 9 to 14) (size 15 to 20)
#    0.000    1.571    2.857    2.143    4.000    6.571 
#    0.000    0.000    0.000    0.000    0.000    0.000 
#    0.000    3.429    0.000    0.000    0.000    0.000 
#
# Total GULP energy -311888.112654 kJ/mol
# GULP energy per Si atom -5569.430583 kJ/mol
# Density = 1.863313 g / cm^3
# Si number density = 18.675632 Si / 1000 Ang^3
#
#
#
# Elastic Constant Matrix: (Units=GPa)
#
#
# Indices 1 2 3 4 5 6 
#
# 1 66.8850 34.3021 26.6253 0.0000 0.0000 0.0000
# 2 34.3021 75.7699 10.0258 0.0000 0.0000 0.0000
# 3 26.6253 10.0258 95.7465 0.0000 0.0000 0.0000
# 4 0.0000 0.0000 0.0000 35.3057 0.0000 0.0000
# 5 0.0000 0.0000 0.0000 0.0000 -12.2997 0.0000
# 6 0.0000 0.0000 0.0000 0.0000 0.0000 -2.8360
#
#
#
# Elastic Compliance Matrix: (Units=1/GPa)
#
#
# Indices 1 2 3 4 5 6 
#
# 1 0.021650 -0.009131 -0.005064 0.000000 0.000000 0.000000
# 2 -0.009131 0.017234 0.000735 0.000000 0.000000 0.000000
# 3 -0.005064 0.000735 0.011776 0.000000 0.000000 0.000000
# 4 0.000000 0.000000 0.000000 0.028324 0.000000 0.000000
# 5 0.000000 0.000000 0.000000 0.000000 -0.081303 0.000000
# 6 0.000000 0.000000 0.000000 0.000000 0.000000 -0.352611
#
#
# Mechanical properties :
#
#
# Convention : Reuss Voigt Hill
#
# Bulk Modulus (GPa) = 42.12615 42.25643 42.19129
# Shear Modulus (GPa) = -15.62035 15.19723 -0.21156
#
# Velocity S-wave (km/s) = -2.89520 2.85572 -0.33694
# Velocity P-wave (km/s) = 3.38075 5.79216 4.74229
#
# Compressibility (1/GPa) = 0.02373822
#
# Stress axis : x y z
#
# Youngs Moduli (GPa) = 46.18957 58.02334 84.92131
#
# Poissons Ratio (x) = 0.52982 0.43007
# Poissons Ratio (y) = 0.42176 -0.06238
# Poissons Ratio (z) = 0.23392 -0.04262
#
# Static dielectric constant tensor:
#      x y z
#    x 1.616740 0.000000 0.000000 
#    y 0.000000 1.751580 0.000000 
#    z 0.000000 0.000000 1.754240 
# 
# From -- ./inp_files/38873.got.cif
#   From: 2010.05.17/outbox.cif.g08.bks.cpg/sg53_20_cif.got.tgz:38873.got - 2010.06.03 12:45:16.
