data_PCOD9415202
_publ_section_title
;
Structure prediction by ZEFSAII (Michael W. Deem and Ramdas Pophale) SiO2 
 PCOD9415202
Probable space group: P M N A
;
_chemical_formula_sum "Si O2"
_cell_formula_units_Z 48
_cell_length_a 22.933928
_cell_length_b 10.779931
_cell_length_c 6.970155
_cell_angle_alpha 90.000000
_cell_angle_beta 90.000000
_cell_angle_gamma 90.000000
_cell_volume 1723.204665
_symmetry_space_group_name_H-M "P M N A"
_symmetry_group_IT_number 53
_symmetry_cell_setting 'orthorhombic'
loop_
_space_group_symop_operation_xyz
x,y,z
1/2-x,-y,1/2+z
x,-y,-z
1/2-x,y,1/2-z
-x,-y,-z
1/2+x,y,1/2-z
-x,y,z
1/2+x,-y,1/2+z
loop_
_atom_site_type_symbol
_atom_site_label
_atom_site_fract_x
_atom_site_fract_y
_atom_site_fract_z
Si Si1 0.437734 0.972685 0.271807
Si Si2 0.562817 0.620897 0.361850
Si Si3 0.811266 0.380550 0.859096
Si Si4 0.313126 0.032618 0.722522
Si Si5 0.937467 0.741646 0.741481
Si Si6 0.186987 0.249096 0.228948
O O1 0.500000 0.913837 0.220480
O O2 0.375728 0.913839 0.216540
O O3 0.437265 0.113224 0.190186
O O4 0.438213 0.000000 0.500000
O O5 0.562649 0.500000 0.500000
O O6 0.500000 0.622959 0.259827
O O7 0.625138 0.617299 0.256365
O O8 0.561804 0.727999 0.525143
O O9 0.750000 0.378119 0.750000
O O10 0.810820 0.500000 0.000000
O O11 0.817267 0.261669 0.998894
O O12 0.250000 0.092345 0.750000
O O13 0.308877 0.891060 0.809459
O O14 0.317972 0.000000 0.500000
O O15 0.872829 0.693005 0.691115
O O16 0.000000 0.687640 0.678854
O O17 0.250000 0.311086 0.250000
#
# Coordination Sequence:
#
# PCOD9415202 Si02
#       6
#     8   8   8   8   8   8
#     4   8  13  22  37  57  79 102 133 173 208 236
#     4   8  14  25  41  60  80 103 135 172 204 236
#     4  10  19  30  46  66  87 112 140 172 210 250
#     4   9  17  28  43  63  86 112 140 172 210 249
#     4   8  13  22  38  59  79 102 135 171 204 238
#     4   9  17  29  44  63  87 112 139 173 210 248
#
# _framework density 27.855079
#
# number of rings (size 3 to 8) (size 9 to 14) (size 15 to 20)
#    0.000    3.333    0.000    0.500    0.000    0.667 
#    0.000    0.000    0.000    2.000    0.000    0.000 
#    0.000    0.000    0.000    0.000    0.000    0.000 
#
# Total GULP energy -267507.928470 kJ/mol
# GULP energy per Si atom -5573.081843 kJ/mol
# Density = 2.779168 g / cm^3
# Si number density = 27.855079 Si / 1000 Ang^3
#
#
#
# Elastic Constant Matrix: (Units=GPa)
#
#
# Indices 1 2 3 4 5 6 
#
# 1 457.5226 11.6324 50.5568 0.0000 0.0000 0.0000
# 2 11.6324 121.3067 0.4912 0.0000 0.0000 0.0000
# 3 50.5568 0.4912 73.6101 0.0000 0.0000 0.0000
# 4 0.0000 0.0000 0.0000 7.0884 0.0000 0.0000
# 5 0.0000 0.0000 0.0000 0.0000 27.5843 0.0000
# 6 0.0000 0.0000 0.0000 0.0000 0.0000 26.4141
#
#
#
# Elastic Compliance Matrix: (Units=1/GPa)
#
#
# Indices 1 2 3 4 5 6 
#
# 1 0.002371 -0.000221 -0.001627 0.000000 0.000000 0.000000
# 2 -0.000221 0.008264 0.000096 0.000000 0.000000 0.000000
# 3 -0.001627 0.000096 0.014702 0.000000 0.000000 0.000000
# 4 0.000000 0.000000 0.000000 0.141076 0.000000 0.000000
# 5 0.000000 0.000000 0.000000 0.000000 0.036252 0.000000
# 6 0.000000 0.000000 0.000000 0.000000 0.000000 0.037859
#
#
# Mechanical properties :
#
#
# Convention : Reuss Voigt Hill
#
# Bulk Modulus (GPa) = 45.79862 86.42223 66.11043
# Shear Modulus (GPa) = 19.89610 51.53462 35.71536
#
# Velocity S-wave (km/s) = 2.67549 4.30594 3.58465
# Velocity P-wave (km/s) = 5.10115 7.47091 6.39673
#
# Compressibility (1/GPa) = 0.02183472
#
# Stress axis : x y z
#
# Youngs Moduli (GPa) = 421.74749 121.00163 68.01826
#
# Poissons Ratio (x) = 0.02671 0.11067
# Poissons Ratio (y) = 0.09311 -0.00656
# Poissons Ratio (z) = 0.68620 -0.01168
#
# Static dielectric constant tensor:
#      x y z
#    x 2.276410 0.000000 0.000000 
#    y 0.000000 2.220820 0.000000 
#    z 0.000000 0.000000 2.234610 
# 
# From -- ./inp_files/10890.got.cif
#   From: 2010.05.17/outbox.cif.g08.bks.cpg/sg53_6_cif.got.tgz:10890.got - 2010.06.03 12:45:16.
