data_PCOD9415590
_publ_section_title
;
Structure prediction by ZEFSAII (Michael W. Deem and Ramdas Pophale) SiO2 
 PCOD9415590
Probable space group: P M N A
;
_chemical_formula_sum "Si O2"
_cell_formula_units_Z 64
_cell_length_a 8.608644
_cell_length_b 14.679291
_cell_length_c 31.301468
_cell_angle_alpha 90.000000
_cell_angle_beta 90.000000
_cell_angle_gamma 90.000000
_cell_volume 3955.528649
_symmetry_space_group_name_H-M "P M N A"
_symmetry_group_IT_number 53
_symmetry_cell_setting 'orthorhombic'
loop_
_space_group_symop_operation_xyz
x,y,z
1/2-x,-y,1/2+z
x,-y,-z
1/2-x,y,1/2-z
-x,-y,-z
1/2+x,y,1/2-z
-x,y,z
1/2+x,-y,1/2+z
loop_
_atom_site_type_symbol
_atom_site_label
_atom_site_fract_x
_atom_site_fract_y
_atom_site_fract_z
Si Si1 0.683977 0.250863 0.518737
Si Si2 0.188595 0.556903 0.457015
Si Si3 0.815242 0.351759 0.203815
Si Si4 0.812254 0.858464 0.796513
Si Si5 0.182240 0.062570 0.115865
Si Si6 0.318646 0.430424 0.120600
Si Si7 0.678856 0.235649 0.074853
Si Si8 0.184776 0.059990 0.542038
O O1 0.500000 0.253916 0.511238
O O2 0.739200 0.342991 0.541547
O O3 0.775993 0.247942 0.474113
O O4 0.729498 0.156716 0.541510
O O5 0.231360 0.500000 0.500000
O O6 0.238245 0.502864 0.414415
O O7 0.000000 0.562801 0.457131
O O8 0.750000 0.378442 0.250000
O O9 0.760386 0.246784 0.195405
O O10 0.764624 0.417587 0.165671
O O11 0.000000 0.348959 0.205969
O O12 0.750000 0.884629 0.750000
O O13 0.762763 0.923822 0.835301
O O14 0.000000 0.858393 0.796050
O O15 0.207973 0.162238 0.095514
O O16 0.000000 0.039249 0.115549
O O17 0.272665 0.994682 0.084812
O O18 0.500000 0.449511 0.128678
O O19 0.308245 0.332395 0.097652
O O20 0.500000 0.203332 0.078376
O O21 0.000000 0.074272 0.539120
O O22 0.230795 0.000000 0.500000
#
# Coordination Sequence:
#
# PCOD9415590 Si02
#       8
#     8   8   8   8   8   8   8   8
#     4  12  24  36  52  75 104 137 174 222 264 297
#     4  10  20  37  55  74 103 140 178 213 254 307
#     4  10  19  32  49  73 105 138 173 213 259 308
#     4   9  19  32  48  73 104 137 170 208 255 305
#     4  11  21  34  51  77 106 136 175 218 261 302
#     4  10  20  33  52  75 102 140 179 213 254 304
#     4  11  20  32  50  73 103 141 178 211 252 308
#     4  11  23  37  54  75 100 138 180 213 256 313
#
# _framework density 16.179884000000001
#
# number of rings (size 3 to 8) (size 9 to 14) (size 15 to 20)
#    0.000    1.500    3.750    2.625    0.000    3.250 
#    0.000    0.000    0.000    0.000    0.000    0.875 
#    0.000    2.000    0.000    0.000    0.000    0.000 
#
# Total GULP energy -357213.404095 kJ/mol
# GULP energy per Si atom -5581.459439 kJ/mol
# Density = 1.614306 g / cm^3
# Si number density = 16.179884 Si / 1000 Ang^3
#
#
#
# Elastic Constant Matrix: (Units=GPa)
#
#
# Indices 1 2 3 4 5 6 
#
# 1 16.5196 17.5087 13.0884 0.0000 0.0000 0.0000
# 2 17.5087 76.0594 42.9366 0.0000 0.0000 0.0000
# 3 13.0884 42.9366 123.6444 0.0000 0.0000 0.0000
# 4 0.0000 0.0000 0.0000 15.3865 0.0000 0.0000
# 5 0.0000 0.0000 0.0000 0.0000 20.9591 0.0000
# 6 0.0000 0.0000 0.0000 0.0000 0.0000 17.0712
#
#
#
# Elastic Compliance Matrix: (Units=1/GPa)
#
#
# Indices 1 2 3 4 5 6 
#
# 1 0.080738 -0.017116 -0.002603 0.000000 0.000000 0.000000
# 2 -0.017116 0.019982 -0.005127 0.000000 0.000000 0.000000
# 3 -0.002603 -0.005127 0.010144 0.000000 0.000000 0.000000
# 4 0.000000 0.000000 0.000000 0.064992 0.000000 0.000000
# 5 0.000000 0.000000 0.000000 0.000000 0.047712 0.000000
# 6 0.000000 0.000000 0.000000 0.000000 0.000000 0.058578
#
#
# Mechanical properties :
#
#
# Convention : Reuss Voigt Hill
#
# Bulk Modulus (GPa) = 16.34760 40.36566 28.35663
# Shear Modulus (GPa) = 14.19534 20.19600 17.19567
#
# Velocity S-wave (km/s) = 2.96521 3.53684 3.26357
# Velocity P-wave (km/s) = 4.67428 6.45610 5.63605
#
# Compressibility (1/GPa) = 0.06117106
#
# Stress axis : x y z
#
# Youngs Moduli (GPa) = 12.38579 50.04486 98.58385
#
# Poissons Ratio (x) = 0.85659 0.25659
# Poissons Ratio (y) = 0.21200 0.50545
# Poissons Ratio (z) = 0.03224 0.25658
#
# Static dielectric constant tensor:
#      x y z
#    x 1.549330 0.000000 0.000000 
#    y 0.000000 1.539130 0.000000 
#    z 0.000000 0.000000 1.548140 
# 
# From -- ./inp_files/38125.got.cif
#   From: 2010.05.17/outbox.cif.g08.bks.cpg/sg53_20_cif.got.tgz:38125.got - 2010.06.03 12:45:16.
