data_PCOD9415339
_publ_section_title
;
Structure prediction by ZEFSAII (Michael W. Deem and Ramdas Pophale) SiO2 
 PCOD9415339
Probable space group: P M N A
;
_chemical_formula_sum "Si O2"
_cell_formula_units_Z 48
_cell_length_a 33.055476
_cell_length_b 17.273576
_cell_length_c 5.344904
_cell_angle_alpha 90.000000
_cell_angle_beta 90.000000
_cell_angle_gamma 90.000000
_cell_volume 3051.866835
_symmetry_space_group_name_H-M "P M N A"
_symmetry_group_IT_number 53
_symmetry_cell_setting 'orthorhombic'
loop_
_space_group_symop_operation_xyz
x,y,z
1/2-x,-y,1/2+z
x,-y,-z
1/2-x,y,1/2-z
-x,-y,-z
1/2+x,y,1/2-z
-x,y,z
1/2+x,-y,1/2+z
loop_
_atom_site_type_symbol
_atom_site_label
_atom_site_fract_x
_atom_site_fract_y
_atom_site_fract_z
Si Si1 0.547654 0.919664 0.383190
Si Si2 0.048780 0.411840 0.004883
Si Si3 0.048934 0.317705 0.509938
Si Si4 0.169750 0.903348 0.745272
Si Si5 0.079680 0.150794 0.371662
Si Si6 0.703040 0.076071 0.749574
O O1 0.500000 0.927456 0.333283
O O2 0.553980 0.861221 0.615901
O O3 0.563519 0.000000 0.500000
O O4 0.567461 0.899196 0.117423
O O5 0.061362 0.360316 0.766596
O O6 0.000000 0.416123 0.982711
O O7 0.064227 0.500000 0.000000
O O8 0.056942 0.371858 0.270307
O O9 0.072241 0.237822 0.464479
O O10 0.000000 0.302278 0.520514
O O11 0.124459 0.874724 0.709448
O O12 0.194163 0.878181 0.501085
O O13 0.176387 0.997054 0.748205
O O14 0.189642 0.878393 0.004608
O O15 0.750000 0.053004 0.750000
#
# Coordination Sequence:
#
# PCOD9415339 Si02
#       6
#     8   8   8   8   8   8
#     4  11  24  37  48  60  83 126 176 219 249 276
#     4   9  17  30  49  70  88 112 154 201 240 284
#     4  10  19  31  47  66  93 125 155 196 246 292
#     4  10  20  30  48  71  89 115 147 196 247 281
#     4  12  23  34  50  68  95 123 163 206 256 298
#     4  10  19  34  52  70  89 114 155 199 245 292
#
# _framework density 15.72808
#
# number of rings (size 3 to 8) (size 9 to 14) (size 15 to 20)
#    0.000    1.667    0.000    7.000    7.000    4.667 
#    0.000    0.000    0.000    0.000    0.000    0.000 
#    0.000    0.000    0.000    0.000    0.000   75.000 
#
# Total GULP energy -267521.390104 kJ/mol
# GULP energy per Si atom -5573.362294 kJ/mol
# Density = 1.569228 g / cm^3
# Si number density = 15.728080 Si / 1000 Ang^3
#
#
#
# Elastic Constant Matrix: (Units=GPa)
#
#
# Indices 1 2 3 4 5 6 
#
# 1 62.3926 25.1232 25.5631 0.0000 0.0000 0.0000
# 2 25.1232 48.6021 8.5607 0.0000 0.0000 0.0000
# 3 25.5631 8.5607 132.4838 0.0000 0.0000 0.0000
# 4 0.0000 0.0000 0.0000 18.4845 0.0000 0.0000
# 5 0.0000 0.0000 0.0000 0.0000 13.3759 0.0000
# 6 0.0000 0.0000 0.0000 0.0000 0.0000 -2.4880
#
#
#
# Elastic Compliance Matrix: (Units=1/GPa)
#
#
# Indices 1 2 3 4 5 6 
#
# 1 0.021742 -0.010621 -0.003509 0.000000 0.000000 0.000000
# 2 -0.010621 0.026000 0.000369 0.000000 0.000000 0.000000
# 3 -0.003509 0.000369 0.008201 0.000000 0.000000 0.000000
# 4 0.000000 0.000000 0.000000 0.054099 0.000000 0.000000
# 5 0.000000 0.000000 0.000000 0.000000 0.074762 0.000000
# 6 0.000000 0.000000 0.000000 0.000000 0.000000 -0.401928
#
#
# Mechanical properties :
#
#
# Convention : Reuss Voigt Hill
#
# Bulk Modulus (GPa) = 35.18316 40.21918 37.70117
# Shear Modulus (GPa) = -27.75776 18.15657 -4.80059
#
# Velocity S-wave (km/s) = -4.20557 3.40134 -1.74896
# Velocity P-wave (km/s) = 1.07901 6.40723 4.46589
#
# Compressibility (1/GPa) = 0.02842269
#
# Stress axis : x y z
#
# Youngs Moduli (GPa) = 45.99467 38.46138 121.93229
#
# Poissons Ratio (x) = 0.40848 0.42784
# Poissons Ratio (y) = 0.48849 -0.04502
# Poissons Ratio (z) = 0.16139 -0.01420
#
# Static dielectric constant tensor:
#      x y z
#    x 1.526730 0.000000 0.000000 
#    y 0.000000 1.525570 0.000000 
#    z 0.000000 0.000000 3.089810 
# 
# From -- ./inp_files/5281.got.cif
#   From: 2010.05.17/outbox.cif.g08.bks.cpg/sg53_3_cif.got.tgz:5281.got - 2010.06.03 12:45:16.
