data_PCOD9415616
_publ_section_title
;
Structure prediction by ZEFSAII (Michael W. Deem and Ramdas Pophale) SiO2 
 PCOD9415616
Probable space group: P M N A
;
_chemical_formula_sum "Si O2"
_cell_formula_units_Z 64
_cell_length_a 9.224896
_cell_length_b 15.255710
_cell_length_c 23.130723
_cell_angle_alpha 90.000000
_cell_angle_beta 90.000000
_cell_angle_gamma 90.000000
_cell_volume 3255.240731
_symmetry_space_group_name_H-M "P M N A"
_symmetry_group_IT_number 53
_symmetry_cell_setting 'orthorhombic'
loop_
_space_group_symop_operation_xyz
x,y,z
1/2-x,-y,1/2+z
x,-y,-z
1/2-x,y,1/2-z
-x,-y,-z
1/2+x,y,1/2-z
-x,y,z
1/2+x,-y,1/2+z
loop_
_atom_site_type_symbol
_atom_site_label
_atom_site_fract_x
_atom_site_fract_y
_atom_site_fract_z
Si Si1 0.826963 0.250890 0.928815
Si Si2 0.676690 0.556683 0.443771
Si Si3 0.669186 0.294673 0.308869
Si Si4 0.673536 0.009726 0.310678
Si Si5 0.170377 0.505952 0.188695
Si Si6 0.170878 0.805461 0.192261
Si Si7 0.665416 0.157611 0.120315
Si Si8 0.164790 0.901901 0.490468
O O1 0.781371 0.342508 0.956321
O O2 0.791649 0.255342 0.861066
O O3 0.756385 0.162661 0.951583
O O4 0.000000 0.242811 0.934689
O O5 0.723849 0.500000 0.500000
O O6 0.500000 0.550968 0.442184
O O7 0.721369 0.534067 0.376776
O O8 0.750000 0.267560 0.250000
O O9 0.500000 0.269945 0.307280
O O10 0.678304 0.399624 0.313425
O O11 0.750728 0.244222 0.359835
O O12 0.750000 0.030233 0.250000
O O13 0.500000 0.021051 0.308070
O O14 0.746106 0.074648 0.355797
O O15 0.705017 0.907181 0.322337
O O16 0.250000 0.531685 0.250000
O O17 0.000000 0.531641 0.193704
O O18 0.250000 0.779938 0.250000
O O19 0.000000 0.801874 0.201964
O O20 0.500000 0.157744 0.142811
O O21 0.659337 0.145552 0.052098
O O22 0.000000 0.912002 0.467639
O O23 0.223618 0.000000 0.500000
#
# Coordination Sequence:
#
# PCOD9415616 Si02
#       8
#     8   8   8   8   8   8   8   8
#     4  10  21  37  60  87 114 144 190 242 280 331
#     4   9  19  36  60  88 119 154 194 241 293 350
#     4  10  20  34  54  80 111 146 187 232 284 341
#     4  10  19  32  50  73 106 142 181 226 277 333
#     4   9  19  36  59  86 116 153 195 238 290 350
#     4   9  19  34  53  81 110 141 178 223 275 329
#     4  11  22  34  51  75 105 142 186 234 282 338
#     4  10  23  41  58  79 112 153 192 233 289 350
#
# _framework density 19.660603999999999
#
# number of rings (size 3 to 8) (size 9 to 14) (size 15 to 20)
#    0.000    2.250    0.000    2.250    1.750    3.250 
#    0.000    0.625    0.000    0.750    0.000    0.000 
#    0.000    0.000    0.000    0.000    0.000    0.000 
#
# Total GULP energy -356890.189033 kJ/mol
# GULP energy per Si atom -5576.409204 kJ/mol
# Density = 1.961586 g / cm^3
# Si number density = 19.660604 Si / 1000 Ang^3
#
#
#
# Elastic Constant Matrix: (Units=GPa)
#
#
# Indices 1 2 3 4 5 6 
#
# 1 56.8793 31.4447 34.6652 0.0000 0.0000 0.0000
# 2 31.4447 84.0745 45.2806 0.0000 0.0000 0.0000
# 3 34.6652 45.2806 98.0389 0.0000 0.0000 0.0000
# 4 0.0000 0.0000 0.0000 101.7804 0.0000 0.0000
# 5 0.0000 0.0000 0.0000 0.0000 25.4281 0.0000
# 6 0.0000 0.0000 0.0000 0.0000 0.0000 18.5130
#
#
#
# Elastic Compliance Matrix: (Units=1/GPa)
#
#
# Indices 1 2 3 4 5 6 
#
# 1 0.024479 -0.005982 -0.005893 0.000000 0.000000 0.000000
# 2 -0.005982 0.017294 -0.005873 0.000000 0.000000 0.000000
# 3 -0.005893 -0.005873 0.014996 0.000000 0.000000 0.000000
# 4 0.000000 0.000000 0.000000 0.009825 0.000000 0.000000
# 5 0.000000 0.000000 0.000000 0.000000 0.039327 0.000000
# 6 0.000000 0.000000 0.000000 0.000000 0.000000 0.054016
#
#
# Mechanical properties :
#
#
# Convention : Reuss Voigt Hill
#
# Bulk Modulus (GPa) = 47.00270 51.30818 49.15544
# Shear Modulus (GPa) = 24.68850 37.65111 31.16980
#
# Velocity S-wave (km/s) = 3.54748 4.38088 3.98602
# Velocity P-wave (km/s) = 6.38267 7.19327 6.80006
#
# Compressibility (1/GPa) = 0.02127537
#
# Stress axis : x y z
#
# Youngs Moduli (GPa) = 40.85072 57.82259 66.68479
#
# Poissons Ratio (x) = 0.34588 0.39296
# Poissons Ratio (y) = 0.24436 0.39161
# Poissons Ratio (z) = 0.24072 0.33956
#
# Static dielectric constant tensor:
#      x y z
#    x 1.676080 0.000000 0.000000 
#    y 0.000000 1.707480 0.000000 
#    z 0.000000 0.000000 1.760980 
# 
# From -- ./inp_files/34332.got.cif
#   From: 2010.05.17/outbox.cif.g08.bks.cpg/sg53_18_cif.got.tgz:34332.got - 2010.06.03 12:45:16.
