data_PCOD9415274
_publ_section_title
;
Structure prediction by ZEFSAII (Michael W. Deem and Ramdas Pophale) SiO2 
 PCOD9415274
Probable space group: P M N A
;
_chemical_formula_sum "Si O2"
_cell_formula_units_Z 56
_cell_length_a 9.363949
_cell_length_b 19.885569
_cell_length_c 15.863442
_cell_angle_alpha 90.000000
_cell_angle_beta 90.000000
_cell_angle_gamma 90.000000
_cell_volume 2953.891146
_symmetry_space_group_name_H-M "P M N A"
_symmetry_group_IT_number 53
_symmetry_cell_setting 'orthorhombic'
loop_
_space_group_symop_operation_xyz
x,y,z
1/2-x,-y,1/2+z
x,-y,-z
1/2-x,y,1/2-z
-x,-y,-z
1/2+x,y,1/2-z
-x,y,z
1/2+x,-y,1/2+z
loop_
_atom_site_type_symbol
_atom_site_label
_atom_site_fract_x
_atom_site_fract_y
_atom_site_fract_z
Si Si1 0.329372 0.208261 0.932546
Si Si2 0.657885 0.242771 0.125602
Si Si3 0.341696 0.875985 0.680249
Si Si4 0.839211 0.395352 0.330899
Si Si5 0.666104 0.075763 0.510409
Si Si6 0.826995 0.671714 0.161482
Si Si7 0.160053 0.580524 0.997597
O O1 0.500000 0.204050 0.913239
O O2 0.257490 0.133876 0.942460
O O3 0.243415 0.257728 0.869974
O O4 0.315729 0.243522 0.024920
O O5 0.500000 0.211443 0.133572
O O6 0.777279 0.197361 0.166210
O O7 0.654115 0.314583 0.168669
O O8 0.250000 0.913799 0.750000
O O9 0.500000 0.873518 0.711910
O O10 0.339457 0.903925 0.587087
O O11 0.750000 0.419116 0.250000
O O12 0.766014 0.407458 0.420588
O O13 0.000000 0.422542 0.327916
O O14 0.500000 0.073715 0.542168
O O15 0.724445 0.000000 0.500000
O O16 0.750000 0.653489 0.250000
O O17 0.801099 0.616687 0.086280
O O18 0.000000 0.677298 0.171580
O O19 0.000000 0.606460 0.976222
O O20 0.152388 0.500000 0.000000
#
# Coordination Sequence:
#
# PCOD9415274 Si02
#       7
#     8   8   8   8   8   8   8
#     4  10  19  35  59  87 118 150 195 248 300 357
#     4   9  18  32  52  79 111 144 179 224 275 335
#     4  10  19  30  48  74 104 139 178 223 275 334
#     4  11  22  36  56  85 119 155 192 235 289 351
#     4   9  19  36  56  79 111 154 199 241 295 361
#     4  11  23  40  65  92 122 161 208 261 314 372
#     4  10  23  43  64  88 120 158 202 253 310 371
#
# _framework density 18.958044999999998
#
# number of rings (size 3 to 8) (size 9 to 14) (size 15 to 20)
#    0.000    2.000    1.429    2.143    0.000    5.143 
#    0.000    2.143    0.000    1.714    0.000    0.000 
#    0.000    0.000    0.000    0.000    0.000    0.000 
#
# Total GULP energy -311830.879299 kJ/mol
# GULP energy per Si atom -5568.408559 kJ/mol
# Density = 1.891490 g / cm^3
# Si number density = 18.958045 Si / 1000 Ang^3
#
#
#
# Elastic Constant Matrix: (Units=GPa)
#
#
# Indices 1 2 3 4 5 6 
#
# 1 140.2594 35.8922 71.5551 0.0000 0.0000 0.0000
# 2 35.8922 71.7718 29.7977 0.0000 0.0000 0.0000
# 3 71.5551 29.7977 115.9994 0.0000 0.0000 0.0000
# 4 0.0000 0.0000 0.0000 2.1861 0.0000 0.0000
# 5 0.0000 0.0000 0.0000 0.0000 38.1360 0.0000
# 6 0.0000 0.0000 0.0000 0.0000 0.0000 17.3666
#
#
#
# Elastic Compliance Matrix: (Units=1/GPa)
#
#
# Indices 1 2 3 4 5 6 
#
# 1 0.010948 -0.002990 -0.005986 0.000000 0.000000 0.000000
# 2 -0.002990 0.016413 -0.002372 0.000000 0.000000 0.000000
# 3 -0.005986 -0.002372 0.012922 0.000000 0.000000 0.000000
# 4 0.000000 0.000000 0.000000 0.457435 0.000000 0.000000
# 5 0.000000 0.000000 0.000000 0.000000 0.026222 0.000000
# 6 0.000000 0.000000 0.000000 0.000000 0.000000 0.057582
#
#
# Mechanical properties :
#
#
# Convention : Reuss Voigt Hill
#
# Bulk Modulus (GPa) = 56.85375 66.94676 61.90026
# Shear Modulus (GPa) = 8.19565 24.25678 16.22621
#
# Velocity S-wave (km/s) = 2.08145 3.58089 2.92875
# Velocity P-wave (km/s) = 5.98589 7.24478 6.64521
#
# Compressibility (1/GPa) = 0.01758899
#
# Stress axis : x y z
#
# Youngs Moduli (GPa) = 91.33747 60.92716 77.38641
#
# Poissons Ratio (x) = 0.18218 0.46320
# Poissons Ratio (y) = 0.27311 0.18353
# Poissons Ratio (z) = 0.54670 0.14450
#
# Static dielectric constant tensor:
#      x y z
#    x 1.709630 0.000000 0.000000 
#    y 0.000000 1.684850 0.000000 
#    z 0.000000 0.000000 1.717900 
# 
# From -- ./inp_files/20544.got.cif
#   From: 2010.05.17/outbox.cif.g08.bks.cpg/sg53_11_cif.got.tgz:20544.got - 2010.06.03 12:45:16.
