data_PCOD9415603
_publ_section_title
;
Structure prediction by ZEFSAII (Michael W. Deem and Ramdas Pophale) SiO2 
 PCOD9415603
Probable space group: P M N A
;
_chemical_formula_sum "Si O2"
_cell_formula_units_Z 64
_cell_length_a 9.694319
_cell_length_b 15.903809
_cell_length_c 23.350627
_cell_angle_alpha 90.000000
_cell_angle_beta 90.000000
_cell_angle_gamma 90.000000
_cell_volume 3600.120226
_symmetry_space_group_name_H-M "P M N A"
_symmetry_group_IT_number 53
_symmetry_cell_setting 'orthorhombic'
loop_
_space_group_symop_operation_xyz
x,y,z
1/2-x,-y,1/2+z
x,-y,-z
1/2-x,y,1/2-z
-x,-y,-z
1/2+x,y,1/2-z
-x,y,z
1/2+x,-y,1/2+z
loop_
_atom_site_type_symbol
_atom_site_label
_atom_site_fract_x
_atom_site_fract_y
_atom_site_fract_z
Si Si1 0.164102 0.034144 0.806224
Si Si2 0.833600 0.548356 0.409207
Si Si3 0.665506 0.672385 0.190341
Si Si4 0.666286 0.376159 0.032732
Si Si5 0.657483 0.163375 0.301339
Si Si6 0.160231 0.219009 0.072838
Si Si7 0.658121 0.153625 0.879291
Si Si8 0.654662 0.100038 0.008457
O O1 0.250000 0.060235 0.750000
O O2 0.189591 0.934703 0.814160
O O3 0.000000 0.047812 0.800079
O O4 0.230260 0.087947 0.856584
O O5 0.788017 0.595320 0.351314
O O6 0.798041 0.598370 0.467452
O O7 0.794436 0.452490 0.424174
O O8 0.000000 0.549270 0.406571
O O9 0.750000 0.676698 0.250000
O O10 0.500000 0.664945 0.201941
O O11 0.682384 0.756852 0.151572
O O12 0.500000 0.365536 0.035306
O O13 0.747557 0.293631 0.049028
O O14 0.750000 0.194221 0.250000
O O15 0.500000 0.164723 0.282024
O O16 0.671390 0.215350 0.358881
O O17 0.000000 0.226784 0.057041
O O18 0.225950 0.133784 0.048640
O O19 0.500000 0.127788 0.864268
O O20 0.664462 0.149641 0.948047
O O21 0.500000 0.116476 0.031996
O O22 0.665456 0.000000 0.000000
#
# Coordination Sequence:
#
# PCOD9415603 Si02
#       8
#     8   8   8   8   8   8   8   8
#     4  10  19  32  50  70  95 131 175 217 256 300
#     4   8  16  34  59  81 101 129 171 219 260 305
#     4  10  20  34  51  74 106 141 175 213 260 315
#     4   9  17  34  61  84 100 130 174 214 259 316
#     4   9  20  36  52  71  97 132 171 210 252 299
#     4  11  22  35  52  79 112 138 165 209 265 317
#     4  10  20  33  50  74 104 136 175 221 261 308
#     4  10  21  36  55  79 106 141 185 228 269 315
#
# _framework density 17.777184999999999
#
# number of rings (size 3 to 8) (size 9 to 14) (size 15 to 20)
#    0.000    2.375    0.000    3.375    0.000    5.750 
#    0.000    4.375    0.000    3.000    0.000    0.000 
#    0.000    0.000    0.000    0.000    0.000    0.000 
#
# Total GULP energy -356817.817535 kJ/mol
# GULP energy per Si atom -5575.278399 kJ/mol
# Density = 1.773672 g / cm^3
# Si number density = 17.777185 Si / 1000 Ang^3
#
#
#
# Elastic Constant Matrix: (Units=GPa)
#
#
# Indices 1 2 3 4 5 6 
#
# 1 59.1936 32.4000 34.2963 0.0000 0.0000 0.0000
# 2 32.4000 52.6806 21.6970 0.0000 0.0000 0.0000
# 3 34.2963 21.6970 64.3431 0.0000 0.0000 0.0000
# 4 0.0000 0.0000 0.0000 21.3706 0.0000 0.0000
# 5 0.0000 0.0000 0.0000 0.0000 27.9978 0.0000
# 6 0.0000 0.0000 0.0000 0.0000 0.0000 132.5388
#
#
#
# Elastic Compliance Matrix: (Units=1/GPa)
#
#
# Indices 1 2 3 4 5 6 
#
# 1 0.031904 -0.014653 -0.012065 0.000000 0.000000 0.000000
# 2 -0.014653 0.028774 -0.001892 0.000000 0.000000 0.000000
# 3 -0.012065 -0.001892 0.022610 0.000000 0.000000 0.000000
# 4 0.000000 0.000000 0.000000 0.046793 0.000000 0.000000
# 5 0.000000 0.000000 0.000000 0.000000 0.035717 0.000000
# 6 0.000000 0.000000 0.000000 0.000000 0.000000 0.007545
#
#
# Mechanical properties :
#
#
# Convention : Reuss Voigt Hill
#
# Bulk Modulus (GPa) = 38.36036 39.22264 38.79150
# Shear Modulus (GPa) = 20.89834 42.23638 31.56736
#
# Velocity S-wave (km/s) = 3.43238 4.87958 4.21850
# Velocity P-wave (km/s) = 6.11012 7.33883 6.75248
#
# Compressibility (1/GPa) = 0.02606858
#
# Stress axis : x y z
#
# Youngs Moduli (GPa) = 31.34365 34.75385 44.22731
#
# Poissons Ratio (x) = 0.50925 0.53358
# Poissons Ratio (y) = 0.45928 0.08369
# Poissons Ratio (z) = 0.37815 0.06576
#
# Static dielectric constant tensor:
#      x y z
#    x 1.590810 0.000000 0.000000 
#    y 0.000000 1.628580 0.000000 
#    z 0.000000 0.000000 1.625540 
# 
# From -- ./inp_files/34230.got.cif
#   From: 2010.05.17/outbox.cif.g08.bks.cpg/sg53_18_cif.got.tgz:34230.got - 2010.06.03 12:45:16.
