data_PCOD9415892
_publ_section_title
;
Structure prediction by ZEFSAII (Michael W. Deem and Ramdas Pophale) SiO2 
 PCOD9415892
Probable space group: P M N A
;
_chemical_formula_sum "Si O2"
_cell_formula_units_Z 64
_cell_length_a 13.995176
_cell_length_b 15.028899
_cell_length_c 18.087028
_cell_angle_alpha 90.000000
_cell_angle_beta 90.000000
_cell_angle_gamma 90.000000
_cell_volume 3804.282339
_symmetry_space_group_name_H-M "P M N A"
_symmetry_group_IT_number 53
_symmetry_cell_setting 'orthorhombic'
loop_
_space_group_symop_operation_xyz
x,y,z
1/2-x,-y,1/2+z
x,-y,-z
1/2-x,y,1/2-z
-x,-y,-z
1/2+x,y,1/2-z
-x,y,z
1/2+x,-y,1/2+z
loop_
_atom_site_type_symbol
_atom_site_label
_atom_site_fract_x
_atom_site_fract_y
_atom_site_fract_z
Si Si1 0.612129 0.636885 0.371581
Si Si2 0.892124 0.161018 0.657955
Si Si3 0.608125 0.238998 0.007621
Si Si4 0.272696 0.982941 0.328441
Si Si5 0.110793 0.846130 0.095350
Si Si6 0.296230 0.585005 0.050677
Si Si7 0.384673 0.354136 0.796304
Si Si8 0.254524 0.091689 0.034431
O O1 0.500000 0.616332 0.382480
O O2 0.623826 0.743413 0.382584
O O3 0.684370 0.592157 0.428847
O O4 0.638816 0.613887 0.286440
O O5 0.897357 0.193580 0.573234
O O6 0.821049 0.078832 0.659810
O O7 0.854661 0.250189 0.698185
O O8 0.000000 0.140641 0.683254
O O9 0.500000 0.254947 0.033504
O O10 0.665718 0.329552 0.994473
O O11 0.668291 0.166651 0.052270
O O12 0.250000 0.024805 0.250000
O O13 0.357005 0.910571 0.337792
O O14 0.291134 0.056036 0.390484
O O15 0.000000 0.860428 0.077071
O O16 0.179228 0.871303 0.026080
O O17 0.345879 0.593578 0.132076
O O18 0.317007 0.500000 0.000000
O O19 0.500000 0.352965 0.802378
O O20 0.297148 0.000000 0.000000
#
# Coordination Sequence:
#
# PCOD9415892 Si02
#       8
#     8   8   8   8   8   8   8   8
#     4  10  19  33  55  80 106 137 172 219 275 320
#     4   9  16  28  47  73 103 133 165 209 265 317
#     4  10  19  33  52  75 101 132 171 214 255 307
#     4  11  21  30  45  72 107 142 179 223 258 312
#     4  10  19  34  55  77 105 141 179 222 273 322
#     4  11  21  34  53  79 112 143 173 205 259 320
#     4   9  18  31  51  80 111 137 167 214 271 324
#     4  10  19  34  50  75 105 140 182 216 264 312
#
# _framework density 16.823146999999999
#
# number of rings (size 3 to 8) (size 9 to 14) (size 15 to 20)
#    0.000    2.000    3.750    3.000    0.000    5.750 
#    0.000    0.000    0.000    1.500    0.000    0.000 
#    0.000    0.000    0.000    0.000    0.000    0.000 
#
# Total GULP energy -356559.855939 kJ/mol
# GULP energy per Si atom -5571.247749 kJ/mol
# Density = 1.678486 g / cm^3
# Si number density = 16.823147 Si / 1000 Ang^3
#
#
#
# Elastic Constant Matrix: (Units=GPa)
#
#
# Indices 1 2 3 4 5 6 
#
# 1 81.5474 29.4678 15.2303 0.0000 0.0000 0.0000
# 2 29.4678 64.4057 26.1494 0.0000 0.0000 0.0000
# 3 15.2303 26.1494 57.5152 0.0000 0.0000 0.0000
# 4 0.0000 0.0000 0.0000 17.5972 0.0000 0.0000
# 5 0.0000 0.0000 0.0000 0.0000 14.1460 0.0000
# 6 0.0000 0.0000 0.0000 0.0000 0.0000 4.5536
#
#
#
# Elastic Compliance Matrix: (Units=1/GPa)
#
#
# Indices 1 2 3 4 5 6 
#
# 1 0.014741 -0.006328 -0.001027 0.000000 0.000000 0.000000
# 2 -0.006328 0.021758 -0.008217 0.000000 0.000000 0.000000
# 3 -0.001027 -0.008217 0.021394 0.000000 0.000000 0.000000
# 4 0.000000 0.000000 0.000000 0.056827 0.000000 0.000000
# 5 0.000000 0.000000 0.000000 0.000000 0.070691 0.000000
# 6 0.000000 0.000000 0.000000 0.000000 0.000000 0.219606
#
#
# Mechanical properties :
#
#
# Convention : Reuss Voigt Hill
#
# Bulk Modulus (GPa) = 37.38144 38.35149 37.86646
# Shear Modulus (GPa) = 11.23401 16.10074 13.66738
#
# Velocity S-wave (km/s) = 2.58693 3.09699 2.85338
# Velocity P-wave (km/s) = 5.58493 5.96949 5.78041
#
# Compressibility (1/GPa) = 0.02675125
#
# Stress axis : x y z
#
# Youngs Moduli (GPa) = 67.83736 45.96062 46.74156
#
# Poissons Ratio (x) = 0.29083 0.04798
# Poissons Ratio (y) = 0.42926 0.38406
# Poissons Ratio (z) = 0.06964 0.37764
#
# Static dielectric constant tensor:
#      x y z
#    x 1.619190 0.000000 0.000000 
#    y 0.000000 1.550010 0.000000 
#    z 0.000000 0.000000 1.608950 
# 
# From -- ./inp_files/28640.got.cif
#   From: 2010.05.17/outbox.cif.g08.bks.cpg/sg53_15_cif.got.tgz:28640.got - 2010.06.03 12:45:16.
