data_PCOD9415798
_publ_section_title
;
Structure prediction by ZEFSAII (Michael W. Deem and Ramdas Pophale) SiO2 
 PCOD9415798
Probable space group: P M N A
;
_chemical_formula_sum "Si O2"
_cell_formula_units_Z 48
_cell_length_a 9.002905
_cell_length_b 15.969147
_cell_length_c 18.473008
_cell_angle_alpha 90.000000
_cell_angle_beta 90.000000
_cell_angle_gamma 90.000000
_cell_volume 2655.840592
_symmetry_space_group_name_H-M "P M N A"
_symmetry_group_IT_number 53
_symmetry_cell_setting 'orthorhombic'
loop_
_space_group_symop_operation_xyz
x,y,z
1/2-x,-y,1/2+z
x,-y,-z
1/2-x,y,1/2-z
-x,-y,-z
1/2+x,y,1/2-z
-x,y,z
1/2+x,-y,1/2+z
loop_
_atom_site_type_symbol
_atom_site_label
_atom_site_fract_x
_atom_site_fract_y
_atom_site_fract_z
Si Si1 0.177783 0.841284 0.171328
Si Si2 0.828950 0.492285 0.087874
Si Si3 0.822378 0.678025 0.576024
Si Si4 0.179143 0.675731 0.082182
Si Si5 0.321494 0.993064 0.084744
Si Si6 0.178728 0.161949 0.328840
O O1 0.250000 0.847797 0.250000
O O2 0.215495 0.752369 0.134395
O O3 0.240020 0.915479 0.121564
O O4 0.000000 0.847462 0.176829
O O5 0.733263 0.411248 0.106332
O O6 0.776595 0.584122 0.112585
O O7 0.000000 0.478835 0.109857
O O8 0.827029 0.500000 0.000000
O O9 0.752755 0.688479 0.496184
O O10 0.776667 0.755181 0.626778
O O11 0.000000 0.677714 0.569754
O O12 0.000000 0.672564 0.072285
O O13 0.500000 0.981377 0.090786
O O14 0.281810 0.078830 0.125972
O O15 0.285122 0.000000 0.000000
O O16 0.250000 0.159812 0.250000
O O17 0.000000 0.163287 0.321944
#
# Coordination Sequence:
#
# PCOD9415798 Si02
#       6
#     8   8   8   8   8   8
#     4  11  23  38  56  80 110 143 180 220 265 318
#     4   8  15  30  51  75 105 139 173 213 263 313
#     4  10  19  32  53  81 107 134 176 224 265 307
#     4   9  19  35  54  77 106 141 178 215 261 317
#     4  10  21  39  61  83 108 138 173 217 268 318
#     4  10  22  37  53  76 107 142 175 210 258 313
#
# _framework density 18.073374999999999
#
# number of rings (size 3 to 8) (size 9 to 14) (size 15 to 20)
#    0.000    2.333    0.000    3.500    0.000    9.333 
#    0.000    0.833    0.000    4.000    0.000    0.000 
#    0.000    0.000    0.000    0.000    0.000    0.000 
#
# Total GULP energy -267889.751505 kJ/mol
# GULP energy per Si atom -5581.036490 kJ/mol
# Density = 1.803224 g / cm^3
# Si number density = 18.073375 Si / 1000 Ang^3
#
#
#
# Elastic Constant Matrix: (Units=GPa)
#
#
# Indices 1 2 3 4 5 6 
#
# 1 32.0506 51.5385 40.2649 0.0000 0.0000 0.0000
# 2 51.5385 172.3945 75.9675 0.0000 0.0000 0.0000
# 3 40.2649 75.9675 106.4786 0.0000 0.0000 0.0000
# 4 0.0000 0.0000 0.0000 -9.2156 0.0000 0.0000
# 5 0.0000 0.0000 0.0000 0.0000 19.9332 0.0000
# 6 0.0000 0.0000 0.0000 0.0000 0.0000 31.6433
#
#
#
# Elastic Compliance Matrix: (Units=1/GPa)
#
#
# Indices 1 2 3 4 5 6 
#
# 1 0.080503 -0.015537 -0.019357 0.000000 0.000000 0.000000
# 2 -0.015537 0.011459 -0.002300 0.000000 0.000000 0.000000
# 3 -0.019357 -0.002300 0.018353 0.000000 0.000000 0.000000
# 4 0.000000 0.000000 0.000000 -0.108511 0.000000 0.000000
# 5 0.000000 0.000000 0.000000 0.000000 0.050167 0.000000
# 6 0.000000 0.000000 0.000000 0.000000 0.000000 0.031602
#
#
# Mechanical properties :
#
#
# Convention : Reuss Voigt Hill
#
# Bulk Modulus (GPa) = 27.83520 71.82950 49.83235
# Shear Modulus (GPa) = 29.42257 18.01571 23.71914
#
# Velocity S-wave (km/s) = 4.03917 3.16065 3.62661
# Velocity P-wave (km/s) = 6.09818 7.29035 6.72075
#
# Compressibility (1/GPa) = 0.03592573
#
# Stress axis : x y z
#
# Youngs Moduli (GPa) = 12.42191 87.26653 54.48782
#
# Poissons Ratio (x) = 1.35585 1.05474
# Poissons Ratio (y) = 0.19300 0.12534
# Poissons Ratio (z) = 0.24046 0.20074
#
# Static dielectric constant tensor:
#      x y z
#    x 1.606330 0.000000 0.000000 
#    y 0.000000 1.635770 0.000000 
#    z 0.000000 0.000000 1.560020 
# 
# From -- ./inp_files/26232.got.cif
#   From: 2010.05.17/outbox.cif.g08.bks.cpg/sg53_14_cif.got.tgz:26232.got - 2010.06.03 12:45:16.
