data_PCOD9415689
_publ_section_title
;
Structure prediction by ZEFSAII (Michael W. Deem and Ramdas Pophale) SiO2 
 PCOD9415689
Probable space group: P M N A
;
_chemical_formula_sum "Si O2"
_cell_formula_units_Z 56
_cell_length_a 8.202107
_cell_length_b 20.454062
_cell_length_c 18.802395
_cell_angle_alpha 90.000000
_cell_angle_beta 90.000000
_cell_angle_gamma 90.000000
_cell_volume 3154.410217
_symmetry_space_group_name_H-M "P M N A"
_symmetry_group_IT_number 53
_symmetry_cell_setting 'orthorhombic'
loop_
_space_group_symop_operation_xyz
x,y,z
1/2-x,-y,1/2+z
x,-y,-z
1/2-x,y,1/2-z
-x,-y,-z
1/2+x,y,1/2-z
-x,y,z
1/2+x,-y,1/2+z
loop_
_atom_site_type_symbol
_atom_site_label
_atom_site_fract_x
_atom_site_fract_y
_atom_site_fract_z
Si Si1 0.305528 0.514508 0.829875
Si Si2 0.192291 0.431707 0.030906
Si Si3 0.686639 0.047855 0.068573
Si Si4 0.809069 0.701469 0.034509
Si Si5 0.694977 0.846657 0.464416
Si Si6 0.805798 0.935932 0.167957
Si Si7 0.305181 0.637238 0.170159
O O1 0.250000 0.527312 0.750000
O O2 0.500000 0.520758 0.836043
O O3 0.217104 0.560783 0.885453
O O4 0.262275 0.438587 0.845961
O O5 0.000000 0.431405 0.012135
O O6 0.263626 0.500000 0.000000
O O7 0.263407 0.363073 0.003608
O O8 0.500000 0.063533 0.085494
O O9 0.759903 0.006520 0.133789
O O10 0.772883 0.110953 0.035200
O O11 0.690115 0.000000 0.000000
O O12 0.737692 0.773619 0.024689
O O13 0.788732 0.683917 0.116978
O O14 0.000000 0.704612 0.014298
O O15 0.500000 0.841986 0.454996
O O16 0.756837 0.883497 0.392138
O O17 0.750000 0.927776 0.250000
O O18 0.000000 0.930868 0.168547
O O19 0.250000 0.649840 0.250000
O O20 0.500000 0.644440 0.163015
#
# Coordination Sequence:
#
# PCOD9415689 Si02
#       7
#     8   8   8   8   8   8   8
#     4  10  20  33  51  72  96 125 163 212 264 315
#     4  10  19  32  52  75 100 132 172 219 264 308
#     4   9  17  31  52  76 101 131 168 207 244 289
#     4  10  20  34  51  73 103 138 174 212 258 308
#     4   9  19  34  51  73 104 141 174 207 251 303
#     4  10  19  32  52  78 107 137 170 206 246 293
#     4  10  20  32  47  68  96 130 167 208 255 309
#
# _framework density 17.752922000000002
#
# number of rings (size 3 to 8) (size 9 to 14) (size 15 to 20)
#    0.000    2.286    1.429    1.714    0.000    5.429 
#    0.000    1.429    0.000    0.857    0.000    4.000 
#    0.000    0.000    0.000    0.000    0.000    0.000 
#
# Total GULP energy -311934.565376 kJ/mol
# GULP energy per Si atom -5570.260096 kJ/mol
# Density = 1.771252 g / cm^3
# Si number density = 17.752922 Si / 1000 Ang^3
#
#
#
# Elastic Constant Matrix: (Units=GPa)
#
#
# Indices 1 2 3 4 5 6 
#
# 1 15.3437 8.5089 1.4355 0.0000 0.0000 0.0000
# 2 8.5089 133.6580 55.5560 0.0000 0.0000 0.0000
# 3 1.4355 55.5560 56.1371 0.0000 0.0000 0.0000
# 4 0.0000 0.0000 0.0000 10.0880 0.0000 0.0000
# 5 0.0000 0.0000 0.0000 0.0000 27.2285 0.0000
# 6 0.0000 0.0000 0.0000 0.0000 0.0000 10.0719
#
#
#
# Elastic Compliance Matrix: (Units=1/GPa)
#
#
# Indices 1 2 3 4 5 6 
#
# 1 0.068174 -0.006142 0.004335 0.000000 0.000000 0.000000
# 2 -0.006142 0.013264 -0.012969 0.000000 0.000000 0.000000
# 3 0.004335 -0.012969 0.030538 0.000000 0.000000 0.000000
# 4 0.000000 0.000000 0.000000 0.099128 0.000000 0.000000
# 5 0.000000 0.000000 0.000000 0.000000 0.036726 0.000000
# 6 0.000000 0.000000 0.000000 0.000000 0.000000 0.099286
#
#
# Mechanical properties :
#
#
# Convention : Reuss Voigt Hill
#
# Bulk Modulus (GPa) = 12.13257 37.34884 24.74071
# Shear Modulus (GPa) = 12.37191 18.78690 15.57941
#
# Velocity S-wave (km/s) = 2.64274 3.25659 2.96559
# Velocity P-wave (km/s) = 4.02008 5.93501 5.06880
#
# Compressibility (1/GPa) = 0.08242276
#
# Stress axis : x y z
#
# Youngs Moduli (GPa) = 14.66843 75.39475 32.74655
#
# Poissons Ratio (x) = 0.46308 -0.14196
# Poissons Ratio (y) = 0.09009 0.42470
# Poissons Ratio (z) = -0.06359 0.97781
#
# Static dielectric constant tensor:
#      x y z
#    x 1.622770 0.000000 0.000000 
#    y 0.000000 1.642490 0.000000 
#    z 0.000000 0.000000 1.616610 
# 
# From -- ./inp_files/26646.got.cif
#   From: 2010.05.17/outbox.cif.g08.bks.cpg/sg53_14_cif.got.tgz:26646.got - 2010.06.03 12:45:16.
