data_PCOD9415294
_publ_section_title
;
Structure prediction by ZEFSAII (Michael W. Deem and Ramdas Pophale) SiO2 
 PCOD9415294
Probable space group: P M N A
;
_chemical_formula_sum "Si O2"
_cell_formula_units_Z 64
_cell_length_a 8.938477
_cell_length_b 20.056376
_cell_length_c 19.018657
_cell_angle_alpha 90.000000
_cell_angle_beta 90.000000
_cell_angle_gamma 90.000000
_cell_volume 3409.540361
_symmetry_space_group_name_H-M "P M N A"
_symmetry_group_IT_number 53
_symmetry_cell_setting 'orthorhombic'
loop_
_space_group_symop_operation_xyz
x,y,z
1/2-x,-y,1/2+z
x,-y,-z
1/2-x,y,1/2-z
-x,-y,-z
1/2+x,y,1/2-z
-x,y,z
1/2+x,-y,1/2+z
loop_
_atom_site_type_symbol
_atom_site_label
_atom_site_fract_x
_atom_site_fract_y
_atom_site_fract_z
Si Si1 0.674623 0.090590 0.934386
Si Si2 0.173012 0.776398 0.034615
Si Si3 0.824010 0.634804 0.442355
Si Si4 0.675066 0.053544 0.100795
Si Si5 0.678484 0.582404 0.577677
Si Si6 0.827620 0.185385 0.131180
Si Si7 0.676859 0.686669 0.821990
Si Si8 0.822995 0.468159 0.673559
O O1 0.500000 0.102329 0.918302
O O2 0.766607 0.158110 0.925584
O O3 0.724075 0.023549 0.893985
O O4 0.681493 0.071719 0.017467
O O5 0.265724 0.710044 0.050934
O O6 0.000000 0.763858 0.050975
O O7 0.182285 0.794454 0.951519
O O8 0.736988 0.588784 0.498404
O O9 0.803021 0.602502 0.365784
O O10 0.000000 0.632383 0.459688
O O11 0.500000 0.058654 0.121037
O O12 0.774394 0.109274 0.138091
O O13 0.500000 0.579666 0.579195
O O14 0.739717 0.648979 0.615305
O O15 0.748809 0.522884 0.622724
O O16 0.717518 0.235750 0.170314
O O17 0.000000 0.194792 0.153384
O O18 0.750000 0.661054 0.750000
O O19 0.500000 0.675451 0.823783
O O20 0.750000 0.469814 0.750000
O O21 0.000000 0.482102 0.678795
#
# Coordination Sequence:
#
# PCOD9415294 Si02
#       8
#     8   8   8   8   8   8   8   8
#     4   8  14  25  42  66 100 138 180 222 269 325
#     4  10  19  30  49  77 111 144 181 228 279 330
#     4  11  23  39  61  87 116 151 190 231 279 337
#     4   8  14  25  42  65  95 138 181 221 270 325
#     4  12  24  40  62  88 116 147 186 231 281 335
#     4  10  19  31  47  72 105 141 183 231 279 332
#     4  12  24  38  56  77 108 148 190 237 285 340
#     4  11  25  44  64  88 116 149 188 230 280 336
#
# _framework density 18.770859000000002
#
# number of rings (size 3 to 8) (size 9 to 14) (size 15 to 20)
#    0.000    1.750    1.250    5.250    0.000    5.000 
#    0.000    2.500    0.000    0.000    0.000    0.875 
#    0.000    4.000    0.000    0.000    0.000    0.000 
#
# Total GULP energy -357365.836417 kJ/mol
# GULP energy per Si atom -5583.841194 kJ/mol
# Density = 1.872814 g / cm^3
# Si number density = 18.770859 Si / 1000 Ang^3
#
#
#
# Elastic Constant Matrix: (Units=GPa)
#
#
# Indices 1 2 3 4 5 6 
#
# 1 121.3422 55.0405 35.3866 0.0000 0.0000 0.0000
# 2 55.0405 97.6836 31.9684 0.0000 0.0000 0.0000
# 3 35.3866 31.9684 50.8955 0.0000 0.0000 0.0000
# 4 0.0000 0.0000 0.0000 7.2403 0.0000 0.0000
# 5 0.0000 0.0000 0.0000 0.0000 21.7436 0.0000
# 6 0.0000 0.0000 0.0000 0.0000 0.0000 20.0463
#
#
#
# Elastic Compliance Matrix: (Units=1/GPa)
#
#
# Indices 1 2 3 4 5 6 
#
# 1 0.012068 -0.005103 -0.005185 0.000000 0.000000 0.000000
# 2 -0.005103 0.015044 -0.005901 0.000000 0.000000 0.000000
# 3 -0.005185 -0.005901 0.026960 0.000000 0.000000 0.000000
# 4 0.000000 0.000000 0.000000 0.138115 0.000000 0.000000
# 5 0.000000 0.000000 0.000000 0.000000 0.045991 0.000000
# 6 0.000000 0.000000 0.000000 0.000000 0.000000 0.049885
#
#
# Mechanical properties :
#
#
# Convention : Reuss Voigt Hill
#
# Bulk Modulus (GPa) = 46.09857 57.19026 51.64441
# Shear Modulus (GPa) = 15.25915 19.64108 17.45012
#
# Velocity S-wave (km/s) = 2.85426 3.23826 3.05231
# Velocity P-wave (km/s) = 5.95603 6.67199 6.32415
#
# Compressibility (1/GPa) = 0.02169265
#
# Stress axis : x y z
#
# Youngs Moduli (GPa) = 82.86387 66.47340 37.09170
#
# Poissons Ratio (x) = 0.33920 0.19234
# Poissons Ratio (y) = 0.42283 0.21889
# Poissons Ratio (z) = 0.42969 0.39228
#
# Static dielectric constant tensor:
#      x y z
#    x 1.626590 0.000000 0.000000 
#    y 0.000000 1.678550 0.000000 
#    z 0.000000 0.000000 2.015870 
# 
# From -- ./inp_files/31223.got.cif
#   From: 2010.05.17/outbox.cif.g08.bks.cpg/sg53_16_cif.got.tgz:31223.got - 2010.06.03 12:45:16.
