data_PCOD9415620
_publ_section_title
;
Structure prediction by ZEFSAII (Michael W. Deem and Ramdas Pophale) SiO2 
 PCOD9415620
Probable space group: P M N A
;
_chemical_formula_sum "Si O2"
_cell_formula_units_Z 64
_cell_length_a 8.660674
_cell_length_b 18.723283
_cell_length_c 23.629697
_cell_angle_alpha 90.000000
_cell_angle_beta 90.000000
_cell_angle_gamma 90.000000
_cell_volume 3831.703061
_symmetry_space_group_name_H-M "P M N A"
_symmetry_group_IT_number 53
_symmetry_cell_setting 'orthorhombic'
loop_
_space_group_symop_operation_xyz
x,y,z
1/2-x,-y,1/2+z
x,-y,-z
1/2-x,y,1/2-z
-x,-y,-z
1/2+x,y,1/2-z
-x,y,z
1/2+x,-y,1/2+z
loop_
_atom_site_type_symbol
_atom_site_label
_atom_site_fract_x
_atom_site_fract_y
_atom_site_fract_z
Si Si1 0.185745 0.080960 0.313724
Si Si2 0.684656 0.634214 0.610418
Si Si3 0.314382 0.761573 0.814013
Si Si4 0.814894 0.501055 0.811067
Si Si5 0.686208 0.582823 0.005245
Si Si6 0.185855 0.926566 0.314290
Si Si7 0.184093 0.778107 0.186004
Si Si8 0.314625 0.362634 0.870299
O O1 0.250000 0.080543 0.250000
O O2 0.231370 0.158938 0.336355
O O3 0.000000 0.080404 0.311192
O O4 0.230379 0.004106 0.340015
O O5 0.500000 0.638801 0.610077
O O6 0.751677 0.700467 0.645251
O O7 0.729007 0.561583 0.643612
O O8 0.747049 0.626940 0.547058
O O9 0.250000 0.753167 0.750000
O O10 0.500000 0.757695 0.811270
O O11 0.750000 0.521863 0.750000
O O12 0.744376 0.425735 0.829736
O O13 0.000000 0.495890 0.808886
O O14 0.500000 0.583352 0.001777
O O15 0.730493 0.615022 0.065946
O O16 0.737371 0.500000 0.000000
O O17 0.250000 0.928380 0.250000
O O18 0.255993 0.853821 0.338461
O O19 0.000000 0.920708 0.313208
O O20 0.250000 0.770731 0.250000
O O21 0.500000 0.778811 0.310788
O O22 0.243238 0.711774 0.149584
O O23 0.500000 0.358666 0.867208
#
# Coordination Sequence:
#
# PCOD9415620 Si02
#       8
#     8   8   8   8   8   8   8   8
#     4   8  15  26  43  68  98 134 169 205 245 293
#     4  11  23  36  53  76 102 134 170 210 255 300
#     4  10  19  32  50  74 107 140 173 211 254 302
#     4  11  23  36  51  73 101 133 166 202 247 298
#     4  10  21  39  60  78  95 125 167 214 260 303
#     4   9  15  26  44  68  99 133 170 204 244 294
#     4  11  21  33  49  73 106 138 170 205 250 299
#     4  11  22  37  56  75  98 128 166 208 255 302
#
# _framework density 16.702755
#
# number of rings (size 3 to 8) (size 9 to 14) (size 15 to 20)
#    0.000    1.875    1.250    4.500    0.000    4.750 
#    0.000    0.000    0.000    0.000    0.000    0.875 
#    0.000    7.000    0.000    0.000    0.000    0.000 
#
# Total GULP energy -356959.144114 kJ/mol
# GULP energy per Si atom -5577.486627 kJ/mol
# Density = 1.666474 g / cm^3
# Si number density = 16.702755 Si / 1000 Ang^3
#
#
#
# Elastic Constant Matrix: (Units=GPa)
#
#
# Indices 1 2 3 4 5 6 
#
# 1 45.5521 27.9339 15.1864 0.0000 0.0000 0.0000
# 2 27.9339 132.0423 18.7882 0.0000 0.0000 0.0000
# 3 15.1864 18.7882 54.2686 0.0000 0.0000 0.0000
# 4 0.0000 0.0000 0.0000 3.4809 0.0000 0.0000
# 5 0.0000 0.0000 0.0000 0.0000 21.5745 0.0000
# 6 0.0000 0.0000 0.0000 0.0000 0.0000 24.3541
#
#
#
# Elastic Compliance Matrix: (Units=1/GPa)
#
#
# Indices 1 2 3 4 5 6 
#
# 1 0.026877 -0.004855 -0.005840 0.000000 0.000000 0.000000
# 2 -0.004855 0.008843 -0.001703 0.000000 0.000000 0.000000
# 3 -0.005840 -0.001703 0.020651 0.000000 0.000000 0.000000
# 4 0.000000 0.000000 0.000000 0.287281 0.000000 0.000000
# 5 0.000000 0.000000 0.000000 0.000000 0.046351 0.000000
# 6 0.000000 0.000000 0.000000 0.000000 0.000000 0.041061
#
#
# Mechanical properties :
#
#
# Convention : Reuss Voigt Hill
#
# Bulk Modulus (GPa) = 31.67133 39.51999 35.59566
# Shear Modulus (GPa) = 10.72075 21.21219 15.96647
#
# Velocity S-wave (km/s) = 2.53623 3.56755 3.09515
# Velocity P-wave (km/s) = 5.25162 6.37824 5.84215
#
# Compressibility (1/GPa) = 0.03157430
#
# Stress axis : x y z
#
# Youngs Moduli (GPa) = 37.20631 113.08771 48.42433
#
# Poissons Ratio (x) = 0.54903 0.28282
# Poissons Ratio (y) = 0.18063 0.08246
# Poissons Ratio (z) = 0.21730 0.19257
#
# Static dielectric constant tensor:
#      x y z
#    x 1.559480 0.000000 0.000000 
#    y 0.000000 1.605540 0.000000 
#    z 0.000000 0.000000 1.527960 
# 
# From -- ./inp_files/31147.got.cif
#   From: 2010.05.17/outbox.cif.g08.bks.cpg/sg53_16_cif.got.tgz:31147.got - 2010.06.03 12:45:16.
