data_PCOD9415106
_publ_section_title
;
Structure prediction by ZEFSAII (Michael W. Deem and Ramdas Pophale) SiO2 
 PCOD9415106
Probable space group: P M N A
;
_chemical_formula_sum "Si O2"
_cell_formula_units_Z 56
_cell_length_a 29.863899
_cell_length_b 5.163977
_cell_length_c 19.538523
_cell_angle_alpha 90.000000
_cell_angle_beta 90.000000
_cell_angle_gamma 90.000000
_cell_volume 3013.162389
_symmetry_space_group_name_H-M "P M N A"
_symmetry_group_IT_number 53
_symmetry_cell_setting 'orthorhombic'
loop_
_space_group_symop_operation_xyz
x,y,z
1/2-x,-y,1/2+z
x,-y,-z
1/2-x,y,1/2-z
-x,-y,-z
1/2+x,y,1/2-z
-x,y,z
1/2+x,-y,1/2+z
loop_
_atom_site_type_symbol
_atom_site_label
_atom_site_fract_x
_atom_site_fract_y
_atom_site_fract_z
Si Si1 0.050958 0.253431 0.471153
Si Si2 0.766408 0.528767 0.422123
Si Si3 0.152278 0.108116 0.790754
Si Si4 0.451143 0.081923 0.739093
Si Si5 0.332272 0.402947 0.202761
Si Si6 0.435348 0.422991 0.178484
Si Si7 0.793206 0.030170 0.076900
O O1 0.075766 0.500000 0.500000
O O2 0.047998 0.296910 0.391272
O O3 0.000000 0.251050 0.500790
O O4 0.073414 0.000000 0.500000
O O5 0.785214 0.500000 0.500000
O O6 0.798667 0.455493 0.359393
O O7 0.726343 0.318906 0.417529
O O8 0.746869 0.818869 0.415913
O O9 0.097845 0.130145 0.794088
O O10 0.171879 0.376495 0.761147
O O11 0.167274 0.879887 0.738072
O O12 0.171948 0.034397 0.863945
O O13 0.500000 0.118386 0.704167
O O14 0.451205 0.290247 0.801684
O O15 0.448438 0.785195 0.763937
O O16 0.382119 0.436618 0.173663
O O17 0.811583 0.000000 0.000000
#
# Coordination Sequence:
#
# PCOD9415106 Si02
#       7
#     8   8   8   8   8   8   8
#     4  10  19  29  42  61  85 118 163 207 246 294
#     4  10  21  36  54  77 107 144 179 210 255 309
#     4  10  21  35  54  81 106 133 174 217 260 307
#     4  10  19  33  53  73  98 130 164 208 258 310
#     4  10  21  35  52  78 106 134 175 220 255 297
#     4  10  20  33  48  69  97 130 167 209 260 304
#     4  10  21  37  56  78 106 139 171 209 261 318
#
# _framework density 18.585125000000001
#
# number of rings (size 3 to 8) (size 9 to 14) (size 15 to 20)
#    0.000    2.000    0.000    3.857    0.000    5.143 
#    0.000    2.143    0.000    0.429    0.000    0.000 
#    0.000   10.286    0.000    0.000    0.000    1.714 
#
# Total GULP energy -312015.011756 kJ/mol
# GULP energy per Si atom -5571.696638 kJ/mol
# Density = 1.854282 g / cm^3
# Si number density = 18.585125 Si / 1000 Ang^3
#
#
#
# Elastic Constant Matrix: (Units=GPa)
#
#
# Indices 1 2 3 4 5 6 
#
# 1 52.1667 -6.0422 46.9199 0.0000 0.0000 0.0000
# 2 -6.0422 92.8267 1.2561 0.0000 0.0000 0.0000
# 3 46.9199 1.2561 81.7706 0.0000 0.0000 0.0000
# 4 0.0000 0.0000 0.0000 22.1011 0.0000 0.0000
# 5 0.0000 0.0000 0.0000 0.0000 5.6428 0.0000
# 6 0.0000 0.0000 0.0000 0.0000 0.0000 -423.6575
#
#
#
# Elastic Compliance Matrix: (Units=1/GPa)
#
#
# Indices 1 2 3 4 5 6 
#
# 1 0.040402 0.002944 -0.023228 0.000000 0.000000 0.000000
# 2 0.002944 0.010990 -0.001858 0.000000 0.000000 0.000000
# 3 -0.023228 -0.001858 0.025586 0.000000 0.000000 0.000000
# 4 0.000000 0.000000 0.000000 0.045247 0.000000 0.000000
# 5 0.000000 0.000000 0.000000 0.000000 0.177216 0.000000
# 6 0.000000 0.000000 0.000000 0.000000 0.000000 -0.002360
#
#
# Mechanical properties :
#
#
# Convention : Reuss Voigt Hill
#
# Bulk Modulus (GPa) = 30.58685 34.55908 32.57297
# Shear Modulus (GPa) = 14.19401 -66.87403 -26.34001
#
# Velocity S-wave (km/s) = 2.76656 -6.00505 -3.76874
# Velocity P-wave (km/s) = 5.16707 5.42637 1.17194
#
# Compressibility (1/GPa) = 0.03269379
#
# Stress axis : x y z
#
# Youngs Moduli (GPa) = 24.75121 90.99561 39.08382
#
# Poissons Ratio (x) = -0.26791 0.90784
# Poissons Ratio (y) = -0.07287 0.07262
# Poissons Ratio (z) = 0.57492 0.16909
#
# Static dielectric constant tensor:
#      x y z
#    x 1.661630 0.000000 0.000000 
#    y 0.000000 1.675650 0.000000 
#    z 0.000000 0.000000 1.622090 
# 
# From -- ./inp_files/25157.got.cif
#   From: 2010.05.17/outbox.cif.g08.bks.cpg/sg53_13_cif.got.tgz:25157.got - 2010.06.03 12:45:16.
