data_PCOD9415014
_publ_section_title
;
Structure prediction by ZEFSAII (Michael W. Deem and Ramdas Pophale) SiO2 
 PCOD9415014
Probable space group: P M N A
;
_chemical_formula_sum "Si O2"
_cell_formula_units_Z 40
_cell_length_a 20.247945
_cell_length_b 5.471275
_cell_length_c 19.418203
_cell_angle_alpha 90.000000
_cell_angle_beta 90.000000
_cell_angle_gamma 90.000000
_cell_volume 2151.188827
_symmetry_space_group_name_H-M "P M N A"
_symmetry_group_IT_number 53
_symmetry_cell_setting 'orthorhombic'
loop_
_space_group_symop_operation_xyz
x,y,z
1/2-x,-y,1/2+z
x,-y,-z
1/2-x,y,1/2-z
-x,-y,-z
1/2+x,y,1/2-z
-x,y,z
1/2+x,-y,1/2+z
loop_
_atom_site_type_symbol
_atom_site_label
_atom_site_fract_x
_atom_site_fract_y
_atom_site_fract_z
Si Si1 0.426254 0.761803 0.761417
Si Si2 0.800458 0.880377 0.070089
Si Si3 0.796725 0.500000 0.500000
Si Si4 0.695854 0.257300 0.135539
Si Si5 0.250000 0.386041 0.750000
Si Si6 0.883169 0.247803 0.804597
O O1 0.500000 0.739637 0.791078
O O2 0.368597 0.795183 0.818165
O O3 0.411984 0.511296 0.718243
O O4 0.423436 0.006662 0.715157
O O5 0.750706 0.679932 0.041335
O O6 0.858111 0.772975 0.117273
O O7 0.751692 0.059667 0.113683
O O8 0.827573 0.000000 0.000000
O O9 0.831445 0.642102 0.562153
O O10 0.736350 0.447367 0.183429
O O11 0.314773 0.230355 0.738144
#
# Coordination Sequence:
#
# PCOD9415014 Si02
#       6
#     8   8   4   8   4   8
#     4  11  25  40  60  84 118 165 209 246 282 339
#     4  10  20  34  59  93 123 151 185 246 320 373
#     4  10  20  34  55  92 127 150 182 240 314 372
#     4  10  20  35  57  88 127 152 196 242 302 358
#     4  10  18  34  60  92 114 150 192 256 316 352
#     4  11  21  38  61  88 119 150 199 255 302 352
#
# _framework density 18.594370999999999
#
# number of rings (size 3 to 8) (size 9 to 14) (size 15 to 20)
#    0.000    1.600    2.000    4.200    5.600    0.800 
#    0.000    0.500    0.000    9.000    0.000    0.000 
#    0.000    0.000    0.000    0.000    0.000    0.000 
#
# Total GULP energy -222787.126358 kJ/mol
# GULP energy per Si atom -5569.678159 kJ/mol
# Density = 1.855205 g / cm^3
# Si number density = 18.594371 Si / 1000 Ang^3
#
#
#
# Elastic Constant Matrix: (Units=GPa)
#
#
# Indices 1 2 3 4 5 6 
#
# 1 79.0079 26.1524 29.8800 0.0000 0.0000 0.0000
# 2 26.1524 90.9354 50.0008 0.0000 0.0000 0.0000
# 3 29.8800 50.0008 131.5078 0.0000 0.0000 0.0000
# 4 0.0000 0.0000 0.0000 40.1599 0.0000 0.0000
# 5 0.0000 0.0000 0.0000 0.0000 15.0607 0.0000
# 6 0.0000 0.0000 0.0000 0.0000 0.0000 18.7694
#
#
#
# Elastic Compliance Matrix: (Units=1/GPa)
#
#
# Indices 1 2 3 4 5 6 
#
# 1 0.014456 -0.002973 -0.002154 0.000000 0.000000 0.000000
# 2 -0.002973 0.014515 -0.004843 0.000000 0.000000 0.000000
# 3 -0.002154 -0.004843 0.009935 0.000000 0.000000 0.000000
# 4 0.000000 0.000000 0.000000 0.024900 0.000000 0.000000
# 5 0.000000 0.000000 0.000000 0.000000 0.066398 0.000000
# 6 0.000000 0.000000 0.000000 0.000000 0.000000 0.053278
#
#
# Mechanical properties :
#
#
# Convention : Reuss Voigt Hill
#
# Bulk Modulus (GPa) = 52.72878 57.05750 54.89314
# Shear Modulus (GPa) = 23.83849 27.82584 25.83217
#
# Velocity S-wave (km/s) = 3.58443 3.87261 3.73130
# Velocity P-wave (km/s) = 6.74906 7.12377 6.93895
#
# Compressibility (1/GPa) = 0.01896498
#
# Stress axis : x y z
#
# Youngs Moduli (GPa) = 69.17691 68.89490 100.65407
#
# Poissons Ratio (x) = 0.20482 0.21683
# Poissons Ratio (y) = 0.20566 0.48749
# Poissons Ratio (z) = 0.14902 0.33368
#
# Static dielectric constant tensor:
#      x y z
#    x 1.604630 0.000000 0.000000 
#    y 0.000000 1.742610 0.000000 
#    z 0.000000 0.000000 1.637040 
# 
# From -- ./inp_files/29240.got.cif
#   From: 2010.05.17/outbox.cif.g08.bks.cpg/sg53_15_cif.got.tgz:29240.got - 2010.06.03 12:45:16.
