data_PCOD9415252
_publ_section_title
;
Structure prediction by ZEFSAII (Michael W. Deem and Ramdas Pophale) SiO2 
 PCOD9415252
Probable space group: P M N A
;
_chemical_formula_sum "Si O2"
_cell_formula_units_Z 64
_cell_length_a 8.733012
_cell_length_b 23.951480
_cell_length_c 17.950894
_cell_angle_alpha 90.000000
_cell_angle_beta 90.000000
_cell_angle_gamma 90.000000
_cell_volume 3754.762689
_symmetry_space_group_name_H-M "P M N A"
_symmetry_group_IT_number 53
_symmetry_cell_setting 'orthorhombic'
loop_
_space_group_symop_operation_xyz
x,y,z
1/2-x,-y,1/2+z
x,-y,-z
1/2-x,y,1/2-z
-x,-y,-z
1/2+x,y,1/2-z
-x,y,z
1/2+x,-y,1/2+z
loop_
_atom_site_type_symbol
_atom_site_label
_atom_site_fract_x
_atom_site_fract_y
_atom_site_fract_z
Si Si1 0.316596 0.060210 0.167869
Si Si2 0.315744 0.423916 0.106043
Si Si3 0.684994 0.455720 0.832310
Si Si4 0.814714 0.367992 0.550899
Si Si5 0.815349 0.130375 0.478579
Si Si6 0.185503 0.258177 0.473977
Si Si7 0.175661 0.036982 0.924387
Si Si8 0.818211 0.315289 0.172224
O O1 0.250000 0.071860 0.250000
O O2 0.500000 0.061397 0.172152
O O3 0.261777 0.999714 0.137493
O O4 0.268381 0.103440 0.101640
O O5 0.500000 0.418020 0.114854
O O6 0.273674 0.487186 0.124633
O O7 0.234249 0.379210 0.158897
O O8 0.277781 0.404833 0.022197
O O9 0.750000 0.457711 0.750000
O O10 0.500000 0.454204 0.829503
O O11 0.740984 0.401522 0.877521
O O12 0.763924 0.304711 0.534406
O O13 0.000000 0.366476 0.555266
O O14 0.766316 0.194564 0.485784
O O15 0.752514 0.093656 0.546821
O O16 0.000000 0.127660 0.480187
O O17 0.247975 0.280416 0.395626
O O18 0.000000 0.259274 0.471292
O O19 0.000000 0.954388 0.098201
O O20 0.177064 0.000000 0.000000
O O21 0.750000 0.295314 0.250000
O O22 0.000000 0.311664 0.172168
#
# Coordination Sequence:
#
# PCOD9415252 Si02
#       8
#     8   8   8   8   8   8   8   8
#     4  10  19  31  48  73 105 133 158 192 238 287
#     4   9  17  31  50  69  90 118 155 196 239 291
#     4  10  19  30  47  71  95 120 151 191 242 294
#     4   8  15  30  51  70  90 121 160 198 235 283
#     4   9  18  32  51  74  98 127 163 203 243 284
#     4   9  18  34  53  71  92 124 167 205 238 279
#     4   9  17  30  49  72  98 129 163 196 232 276
#     4  11  21  32  46  66  95 128 160 195 239 288
#
# _framework density 17.045017999999999
#
# number of rings (size 3 to 8) (size 9 to 14) (size 15 to 20)
#    0.000    2.625    0.000    3.375    0.000    6.000 
#    0.000    3.750    0.000    4.500    0.000    1.750 
#    0.000    0.000    0.000    0.000    0.000    0.000 
#
# Total GULP energy -356698.959067 kJ/mol
# GULP energy per Si atom -5573.421235 kJ/mol
# Density = 1.700622 g / cm^3
# Si number density = 17.045018 Si / 1000 Ang^3
#
#
#
# Elastic Constant Matrix: (Units=GPa)
#
#
# Indices 1 2 3 4 5 6 
#
# 1 21.2152 27.0724 13.1421 0.0000 0.0000 0.0000
# 2 27.0724 147.4811 45.0635 0.0000 0.0000 0.0000
# 3 13.1421 45.0635 44.4725 0.0000 0.0000 0.0000
# 4 0.0000 0.0000 0.0000 10.1870 0.0000 0.0000
# 5 0.0000 0.0000 0.0000 0.0000 25.4638 0.0000
# 6 0.0000 0.0000 0.0000 0.0000 0.0000 20.4486
#
#
#
# Elastic Compliance Matrix: (Units=1/GPa)
#
#
# Indices 1 2 3 4 5 6 
#
# 1 0.064628 -0.008731 -0.010251 0.000000 0.000000 0.000000
# 2 -0.008731 0.011001 -0.008567 0.000000 0.000000 0.000000
# 3 -0.010251 -0.008567 0.034196 0.000000 0.000000 0.000000
# 4 0.000000 0.000000 0.000000 0.098164 0.000000 0.000000
# 5 0.000000 0.000000 0.000000 0.000000 0.039271 0.000000
# 6 0.000000 0.000000 0.000000 0.000000 0.000000 0.048903
#
#
# Mechanical properties :
#
#
# Convention : Reuss Voigt Hill
#
# Bulk Modulus (GPa) = 18.27271 42.63608 30.45440
# Shear Modulus (GPa) = 13.53167 19.74594 16.63880
#
# Velocity S-wave (km/s) = 2.82064 3.40731 3.12776
# Velocity P-wave (km/s) = 4.62077 6.36771 5.56324
#
# Compressibility (1/GPa) = 0.05472641
#
# Stress axis : x y z
#
# Youngs Moduli (GPa) = 15.47324 90.90109 29.24323
#
# Poissons Ratio (x) = 0.79367 0.29977
# Poissons Ratio (y) = 0.13510 0.25053
# Poissons Ratio (z) = 0.15861 0.77875
#
# Static dielectric constant tensor:
#      x y z
#    x 1.576670 0.000000 0.000000 
#    y 0.000000 1.591000 0.000000 
#    z 0.000000 0.000000 1.564350 
# 
# From -- ./inp_files/20820.got.cif
#   From: 2010.05.17/outbox.cif.g08.bks.cpg/sg53_11_cif.got.tgz:20820.got - 2010.06.03 12:45:16.
