data_PCOD9415151
_publ_section_title
;
Structure prediction by ZEFSAII (Michael W. Deem and Ramdas Pophale) SiO2 
 PCOD9415151
Probable space group: P M N A
;
_chemical_formula_sum "Si O2"
_cell_formula_units_Z 64
_cell_length_a 8.932148
_cell_length_b 14.204356
_cell_length_c 30.263400
_cell_angle_alpha 90.000000
_cell_angle_beta 90.000000
_cell_angle_gamma 90.000000
_cell_volume 3839.681284
_symmetry_space_group_name_H-M "P M N A"
_symmetry_group_IT_number 53
_symmetry_cell_setting 'orthorhombic'
loop_
_space_group_symop_operation_xyz
x,y,z
1/2-x,-y,1/2+z
x,-y,-z
1/2-x,y,1/2-z
-x,-y,-z
1/2+x,y,1/2-z
-x,y,z
1/2+x,-y,1/2+z
loop_
_atom_site_type_symbol
_atom_site_label
_atom_site_fract_x
_atom_site_fract_y
_atom_site_fract_z
Si Si1 0.172291 0.030739 0.937170
Si Si2 0.326305 0.813900 0.008002
Si Si3 0.179240 0.284507 0.075613
Si Si4 0.818743 0.998571 0.797776
Si Si5 0.821440 0.879588 0.623068
Si Si6 0.829158 0.325131 0.592765
Si Si7 0.329223 0.173099 0.646948
Si Si8 0.319997 0.505203 0.551202
O O1 0.248264 0.090050 0.976114
O O2 0.168726 0.104007 0.895833
O O3 0.000000 0.003850 0.946328
O O4 0.266643 0.943649 0.918413
O O5 0.500000 0.828633 0.995112
O O6 0.325195 0.744169 0.050220
O O7 0.233506 0.762987 0.969957
O O8 0.259897 0.224535 0.113561
O O9 0.221242 0.394172 0.072056
O O10 0.000000 0.276428 0.079689
O O11 0.750000 0.980110 0.750000
O O12 0.774998 0.103955 0.814309
O O13 0.000000 0.993671 0.797968
O O14 0.753375 0.926433 0.833930
O O15 0.000000 0.882062 0.626221
O O16 0.764029 0.263842 0.632993
O O17 0.739477 0.417710 0.579093
O O18 0.000000 0.350527 0.601495
O O19 0.500000 0.201193 0.655948
O O20 0.266434 0.500000 0.500000
O O21 0.500000 0.500413 0.549852
#
# Coordination Sequence:
#
# PCOD9415151 Si02
#       8
#     8   8   8   8   8   8   8   8
#     4   9  17  31  49  68  94 131 172 210 250 301
#     4  10  19  30  45  69  97 130 171 215 261 304
#     4  11  22  35  50  68  95 133 178 222 260 305
#     4  10  20  36  59  86 111 138 167 202 248 304
#     4  11  22  36  52  73 103 134 167 211 258 308
#     4  10  19  29  47  72 101 133 169 216 263 303
#     4   8  16  30  49  73 103 134 165 200 244 301
#     4  10  20  34  51  70  94 133 181 224 265 307
#
# _framework density 16.668049
#
# number of rings (size 3 to 8) (size 9 to 14) (size 15 to 20)
#    0.000    2.125    1.250    3.750    0.000    6.250 
#    0.000    2.500    0.000    0.000    0.000    0.875 
#    0.000    4.000    0.000    0.000    0.000    0.000 
#
# Total GULP energy -357216.219975 kJ/mol
# GULP energy per Si atom -5581.503437 kJ/mol
# Density = 1.663011 g / cm^3
# Si number density = 16.668049 Si / 1000 Ang^3
#
#
#
# Elastic Constant Matrix: (Units=GPa)
#
#
# Indices 1 2 3 4 5 6 
#
# 1 78.0216 55.1293 30.1377 0.0000 0.0000 0.0000
# 2 55.1293 125.4814 42.0504 0.0000 0.0000 0.0000
# 3 30.1377 42.0504 69.5402 0.0000 0.0000 0.0000
# 4 0.0000 0.0000 0.0000 16.3461 0.0000 0.0000
# 5 0.0000 0.0000 0.0000 0.0000 16.4915 0.0000
# 6 0.0000 0.0000 0.0000 0.0000 0.0000 14.2081
#
#
#
# Elastic Compliance Matrix: (Units=1/GPa)
#
#
# Indices 1 2 3 4 5 6 
#
# 1 0.019475 -0.007183 -0.004096 0.000000 0.000000 0.000000
# 2 -0.007183 0.012644 -0.004533 0.000000 0.000000 0.000000
# 3 -0.004096 -0.004533 0.018896 0.000000 0.000000 0.000000
# 4 0.000000 0.000000 0.000000 0.061177 0.000000 0.000000
# 5 0.000000 0.000000 0.000000 0.000000 0.060637 0.000000
# 6 0.000000 0.000000 0.000000 0.000000 0.000000 0.070382
#
#
# Mechanical properties :
#
#
# Convention : Reuss Voigt Hill
#
# Bulk Modulus (GPa) = 51.57145 58.63089 55.10117
# Shear Modulus (GPa) = 17.77459 19.12421 18.44940
#
# Velocity S-wave (km/s) = 3.26910 3.39094 3.33058
# Velocity P-wave (km/s) = 6.72732 7.11219 6.92243
#
# Compressibility (1/GPa) = 0.01939058
#
# Stress axis : x y z
#
# Youngs Moduli (GPa) = 51.34773 79.08731 52.92021
#
# Poissons Ratio (x) = 0.56812 0.21678
# Poissons Ratio (y) = 0.36885 0.23987
# Poissons Ratio (z) = 0.21034 0.35848
#
# Static dielectric constant tensor:
#      x y z
#    x 1.560290 0.000000 0.000000 
#    y 0.000000 1.563790 0.000000 
#    z 0.000000 0.000000 1.569380 
# 
# From -- ./inp_files/38453.got.cif
#   From: 2010.05.17/outbox.cif.g08.bks.cpg/sg53_20_cif.got.tgz:38453.got - 2010.06.03 12:45:16.
