data_PCOD9415393
_publ_section_title
;
Structure prediction by ZEFSAII (Michael W. Deem and Ramdas Pophale) SiO2 
 PCOD9415393
Probable space group: P M N A
;
_chemical_formula_sum "Si O2"
_cell_formula_units_Z 64
_cell_length_a 8.897264
_cell_length_b 15.886866
_cell_length_c 29.308173
_cell_angle_alpha 90.000000
_cell_angle_beta 90.000000
_cell_angle_gamma 90.000000
_cell_volume 4142.699730
_symmetry_space_group_name_H-M "P M N A"
_symmetry_group_IT_number 53
_symmetry_cell_setting 'orthorhombic'
loop_
_space_group_symop_operation_xyz
x,y,z
1/2-x,-y,1/2+z
x,-y,-z
1/2-x,y,1/2-z
-x,-y,-z
1/2+x,y,1/2-z
-x,y,z
1/2+x,-y,1/2+z
loop_
_atom_site_type_symbol
_atom_site_label
_atom_site_fract_x
_atom_site_fract_y
_atom_site_fract_z
Si Si1 0.318309 0.340445 0.605786
Si Si2 0.320319 0.821625 0.554200
Si Si3 0.819548 0.395900 0.201172
Si Si4 0.680769 0.172888 0.553111
Si Si5 0.320010 0.593930 0.297861
Si Si6 0.819156 0.501988 0.446959
Si Si7 0.672862 0.002478 0.055354
Si Si8 0.319505 0.333139 0.108775
O O1 0.500000 0.344028 0.604370
O O2 0.271582 0.252833 0.582935
O O3 0.270856 0.353135 0.658235
O O4 0.254987 0.418781 0.577564
O O5 0.500000 0.816293 0.558218
O O6 0.280817 0.811926 0.500303
O O7 0.243197 0.748875 0.583456
O O8 0.263545 0.914111 0.568749
O O9 0.750000 0.371117 0.250000
O O10 0.781211 0.495266 0.194409
O O11 0.750857 0.345813 0.158759
O O12 0.000000 0.388183 0.202093
O O13 0.500000 0.164527 0.555298
O O14 0.753948 0.085813 0.569378
O O15 0.250000 0.620665 0.250000
O O16 0.500000 0.598392 0.294386
O O17 0.774833 0.500000 0.500000
O O18 0.778261 0.415613 0.421229
O O19 0.000000 0.510396 0.444757
O O20 0.500000 0.008690 0.069966
O O21 0.675750 0.000000 0.000000
O O22 0.500000 0.329311 0.111787
#
# Coordination Sequence:
#
# PCOD9415393 Si02
#       8
#     8   8   8   8   8   8   8   8
#     4  10  19  32  48  69  94 125 162 198 236 281
#     4  10  19  31  48  70  96 128 163 199 239 285
#     4  10  19  33  51  70  93 122 160 203 247 288
#     4   9  18  31  48  70  97 127 161 199 239 286
#     4   9  18  31  48  68  91 120 157 200 242 282
#     4  10  21  33  44  63  95 132 165 196 231 275
#     4   9  17  30  48  69  94 124 158 198 242 286
#     4  11  21  32  47  69  97 129 164 200 240 285
#
# _framework density 15.448862999999999
#
# number of rings (size 3 to 8) (size 9 to 14) (size 15 to 20)
#    0.000    2.250    1.250    2.250    0.000    4.250 
#    0.000    0.000    0.000    0.000    0.000    0.875 
#    0.000    2.000    0.000    0.000    0.000    0.000 
#
# Total GULP energy -357004.433166 kJ/mol
# GULP energy per Si atom -5578.194268 kJ/mol
# Density = 1.541370 g / cm^3
# Si number density = 15.448863 Si / 1000 Ang^3
#
#
#
# Elastic Constant Matrix: (Units=GPa)
#
#
# Indices 1 2 3 4 5 6 
#
# 1 39.5439 45.2063 40.1280 0.0000 0.0000 0.0000
# 2 45.2063 135.0952 73.7104 0.0000 0.0000 0.0000
# 3 40.1280 73.7104 119.0425 0.0000 0.0000 0.0000
# 4 0.0000 0.0000 0.0000 6.7405 0.0000 0.0000
# 5 0.0000 0.0000 0.0000 0.0000 22.8650 0.0000
# 6 0.0000 0.0000 0.0000 0.0000 0.0000 21.7845
#
#
#
# Elastic Compliance Matrix: (Units=1/GPa)
#
#
# Indices 1 2 3 4 5 6 
#
# 1 0.046765 -0.010644 -0.009174 0.000000 0.000000 0.000000
# 2 -0.010644 0.013601 -0.004834 0.000000 0.000000 0.000000
# 3 -0.009174 -0.004834 0.014486 0.000000 0.000000 0.000000
# 4 0.000000 0.000000 0.000000 0.148357 0.000000 0.000000
# 5 0.000000 0.000000 0.000000 0.000000 0.043735 0.000000
# 6 0.000000 0.000000 0.000000 0.000000 0.000000 0.045904
#
#
# Mechanical properties :
#
#
# Convention : Reuss Voigt Hill
#
# Bulk Modulus (GPa) = 39.13902 67.97455 53.55678
# Shear Modulus (GPa) = 13.48918 19.25379 16.37149
#
# Velocity S-wave (km/s) = 2.95812 3.53412 3.25887
# Velocity P-wave (km/s) = 6.08743 7.79413 6.99305
#
# Compressibility (1/GPa) = 0.02554995
#
# Stress axis : x y z
#
# Youngs Moduli (GPa) = 21.38350 73.52228 69.03271
#
# Poissons Ratio (x) = 0.78253 0.63328
# Poissons Ratio (y) = 0.22760 0.33371
# Poissons Ratio (z) = 0.19616 0.35541
#
# Static dielectric constant tensor:
#      x y z
#    x 1.515230 0.000000 0.000000 
#    y 0.000000 1.493890 0.000000 
#    z 0.000000 0.000000 1.502300 
# 
# From -- ./inp_files/38429.got.cif
#   From: 2010.05.17/outbox.cif.g08.bks.cpg/sg53_20_cif.got.tgz:38429.got - 2010.06.03 12:45:16.
