data_PCOD9415634
_publ_section_title
;
Structure prediction by ZEFSAII (Michael W. Deem and Ramdas Pophale) SiO2 
 PCOD9415634
Probable space group: P M N A
;
_chemical_formula_sum "Si O2"
_cell_formula_units_Z 64
_cell_length_a 8.940431
_cell_length_b 19.430053
_cell_length_c 21.817946
_cell_angle_alpha 90.000000
_cell_angle_beta 90.000000
_cell_angle_gamma 90.000000
_cell_volume 3790.061905
_symmetry_space_group_name_H-M "P M N A"
_symmetry_group_IT_number 53
_symmetry_cell_setting 'orthorhombic'
loop_
_space_group_symop_operation_xyz
x,y,z
1/2-x,-y,1/2+z
x,-y,-z
1/2-x,y,1/2-z
-x,-y,-z
1/2+x,y,1/2-z
-x,y,z
1/2+x,-y,1/2+z
loop_
_atom_site_type_symbol
_atom_site_label
_atom_site_fract_x
_atom_site_fract_y
_atom_site_fract_z
Si Si1 0.324705 0.318480 0.484108
Si Si2 0.679884 0.462963 0.815119
Si Si3 0.820899 0.830352 0.505929
Si Si4 0.820203 0.545644 0.559904
Si Si5 0.830555 0.967349 0.568663
Si Si6 0.824655 0.329924 0.873101
Si Si7 0.676857 0.204934 0.813140
Si Si8 0.176180 0.904434 0.112427
O O1 0.500000 0.308749 0.470672
O O2 0.241253 0.245172 0.479829
O O3 0.253791 0.379504 0.444649
O O4 0.312530 0.344114 0.554654
O O5 0.750000 0.485546 0.750000
O O6 0.500000 0.458367 0.809595
O O7 0.714987 0.509727 0.874958
O O8 0.749377 0.389071 0.832828
O O9 0.795494 0.887076 0.559399
O O10 0.738726 0.863553 0.447118
O O11 0.000000 0.828345 0.494202
O O12 0.774376 0.500000 0.500000
O O13 0.000000 0.552450 0.556172
O O14 0.000000 0.975045 0.592368
O O15 0.831300 0.000000 0.500000
O O16 0.718573 0.015742 0.605320
O O17 0.737106 0.259456 0.862032
O O18 0.000000 0.322312 0.857634
O O19 0.750000 0.227744 0.750000
O O20 0.500000 0.205054 0.810354
O O21 0.740072 0.130790 0.831245
O O22 0.000000 0.894167 0.116789
#
# Coordination Sequence:
#
# PCOD9415634 Si02
#       8
#     8   8   8   8   8   8   8   8
#     4  11  22  33  53  81 111 142 178 224 273 325
#     4  11  23  39  59  81 107 143 183 229 275 328
#     4  10  19  32  51  73 103 138 173 212 258 314
#     4  10  21  38  58  79 107 142 183 224 273 332
#     4   8  16  30  47  70  97 131 169 204 249 302
#     4  11  22  36  53  77 108 142 181 224 268 323
#     4  12  24  37  52  70 100 141 183 227 267 315
#     4  11  20  31  48  72 101 134 173 216 262 311
#
# _framework density 16.886268999999999
#
# number of rings (size 3 to 8) (size 9 to 14) (size 15 to 20)
#    0.000    1.500    2.500    4.875    0.000    5.000 
#    0.000    0.000    0.000    0.000    0.000    0.875 
#    0.000    4.000    0.000    0.000    0.000    0.000 
#
# Total GULP energy -357131.581661 kJ/mol
# GULP energy per Si atom -5580.180963 kJ/mol
# Density = 1.684783 g / cm^3
# Si number density = 16.886269 Si / 1000 Ang^3
#
#
#
# Elastic Constant Matrix: (Units=GPa)
#
#
# Indices 1 2 3 4 5 6 
#
# 1 107.9357 48.1040 43.5812 0.0000 0.0000 0.0000
# 2 48.1040 98.2949 32.4297 0.0000 0.0000 0.0000
# 3 43.5812 32.4297 57.4554 0.0000 0.0000 0.0000
# 4 0.0000 0.0000 0.0000 17.5231 0.0000 0.0000
# 5 0.0000 0.0000 0.0000 0.0000 10.9424 0.0000
# 6 0.0000 0.0000 0.0000 0.0000 0.0000 27.2152
#
#
#
# Elastic Compliance Matrix: (Units=1/GPa)
#
#
# Indices 1 2 3 4 5 6 
#
# 1 0.014712 -0.004323 -0.008719 0.000000 0.000000 0.000000
# 2 -0.004323 0.013772 -0.004494 0.000000 0.000000 0.000000
# 3 -0.008719 -0.004494 0.026555 0.000000 0.000000 0.000000
# 4 0.000000 0.000000 0.000000 0.057068 0.000000 0.000000
# 5 0.000000 0.000000 0.000000 0.000000 0.091387 0.000000
# 6 0.000000 0.000000 0.000000 0.000000 0.000000 0.036744
#
#
# Mechanical properties :
#
#
# Convention : Reuss Voigt Hill
#
# Bulk Modulus (GPa) = 50.08504 56.87954 53.48229
# Shear Modulus (GPa) = 17.73260 20.44089 19.08675
#
# Velocity S-wave (km/s) = 3.24407 3.48300 3.36566
# Velocity P-wave (km/s) = 6.61488 7.06627 6.84429
#
# Compressibility (1/GPa) = 0.01996604
#
# Stress axis : x y z
#
# Youngs Moduli (GPa) = 67.97129 72.61184 37.65746
#
# Poissons Ratio (x) = 0.31391 0.32835
# Poissons Ratio (y) = 0.29385 0.16923
# Poissons Ratio (z) = 0.59266 0.32632
#
# Static dielectric constant tensor:
#      x y z
#    x 1.560990 0.000000 0.000000 
#    y 0.000000 1.582540 0.000000 
#    z 0.000000 0.000000 1.555390 
# 
# From -- ./inp_files/31128.got.cif
#   From: 2010.05.17/outbox.cif.g08.bks.cpg/sg53_16_cif.got.tgz:31128.got - 2010.06.03 12:45:16.
