data_PCOD9415031
_publ_section_title
;
Structure prediction by ZEFSAII (Michael W. Deem and Ramdas Pophale) SiO2 
 PCOD9415031
Probable space group: P M N A
;
_chemical_formula_sum "Si O2"
_cell_formula_units_Z 48
_cell_length_a 15.615711
_cell_length_b 14.603457
_cell_length_c 9.628489
_cell_angle_alpha 90.000000
_cell_angle_beta 90.000000
_cell_angle_gamma 90.000000
_cell_volume 2195.713023
_symmetry_space_group_name_H-M "P M N A"
_symmetry_group_IT_number 53
_symmetry_cell_setting 'orthorhombic'
loop_
_space_group_symop_operation_xyz
x,y,z
1/2-x,-y,1/2+z
x,-y,-z
1/2-x,y,1/2-z
-x,-y,-z
1/2+x,y,1/2-z
-x,y,z
1/2+x,-y,1/2+z
loop_
_atom_site_type_symbol
_atom_site_label
_atom_site_fract_x
_atom_site_fract_y
_atom_site_fract_z
Si Si1 0.000000 0.528895 0.835255
Si Si2 0.500000 0.251508 0.253716
Si Si3 0.816692 0.739580 0.640265
Si Si4 0.500000 0.764610 0.432771
Si Si5 0.693934 0.753380 0.375622
Si Si6 0.000000 0.968037 0.160524
Si Si7 0.823560 0.029011 0.841920
Si Si8 0.332647 0.478416 0.164857
O O1 0.000000 0.640054 0.806207
O O2 0.916609 0.493483 0.752029
O O3 0.000000 0.500000 0.000000
O O4 0.585755 0.228669 0.166759
O O5 0.500000 0.205192 0.405438
O O6 0.750000 0.779804 0.750000
O O7 0.762221 0.748019 0.500192
O O8 0.827126 0.631419 0.668076
O O9 0.595223 0.719161 0.405790
O O10 0.500000 0.857648 0.343143
O O11 0.750000 0.712800 0.250000
O O12 0.680252 0.860949 0.344381
O O13 0.087168 0.001354 0.223380
O O14 0.000000 0.000000 0.000000
O O15 0.750000 0.990331 0.750000
O O16 0.816853 0.000000 0.000000
O O17 0.250000 0.511897 0.250000
O O18 0.334929 0.500000 0.000000
#
# Coordination Sequence:
#
# PCOD9415031 Si02
#       8
#     4   4   8   4   8   4   8   8
#     4  10  21  39  59  81 113 146 186 232 276 337
#     4  10  20  36  58  82 113 144 186 230 281 326
#     4  10  20  36  56  79 110 142 183 231 273 330
#     4  10  18  35  58  77 107 151 183 220 279 334
#     4  10  21  36  56  83 114 145 185 234 281 334
#     4   8  16  32  52  76 105 137 176 219 266 318
#     4   9  18  34  54  78 108 143 180 226 273 327
#     4  10  21  37  57  81 112 145 182 232 282 332
#
# _framework density 21.860779999999998
#
# number of rings (size 3 to 8) (size 9 to 14) (size 15 to 20)
#    0.000    2.333    1.667    0.750    0.000    2.000 
#    6.000    1.250    0.000    0.000    0.000    0.000 
#    0.000    0.000    0.000    0.000    0.000    0.000 
#
# Total GULP energy -267235.996198 kJ/mol
# GULP energy per Si atom -5567.416587 kJ/mol
# Density = 2.181102 g / cm^3
# Si number density = 21.860780 Si / 1000 Ang^3
#
#
#
# Elastic Constant Matrix: (Units=GPa)
#
#
# Indices 1 2 3 4 5 6 
#
# 1 304.2954 14.4451 117.3202 0.0000 0.0000 0.0000
# 2 14.4451 55.8418 -8.6522 0.0000 0.0000 0.0000
# 3 117.3202 -8.6522 149.3761 0.0000 0.0000 0.0000
# 4 0.0000 0.0000 0.0000 15.6350 0.0000 0.0000
# 5 0.0000 0.0000 0.0000 0.0000 75.5232 0.0000
# 6 0.0000 0.0000 0.0000 0.0000 0.0000 -9.6567
#
#
#
# Elastic Compliance Matrix: (Units=1/GPa)
#
#
# Indices 1 2 3 4 5 6 
#
# 1 0.004902 -0.001881 -0.003959 0.000000 0.000000 0.000000
# 2 -0.001881 0.018792 0.002566 0.000000 0.000000 0.000000
# 3 -0.003959 0.002566 0.009953 0.000000 0.000000 0.000000
# 4 0.000000 0.000000 0.000000 0.063959 0.000000 0.000000
# 5 0.000000 0.000000 0.000000 0.000000 0.013241 0.000000
# 6 0.000000 0.000000 0.000000 0.000000 0.000000 -0.103555
#
#
# Mechanical properties :
#
#
# Convention : Reuss Voigt Hill
#
# Bulk Modulus (GPa) = 36.90312 83.97106 60.43709
# Shear Modulus (GPa) = 218.60489 42.06033 130.33261
#
# Velocity S-wave (km/s) = 10.01078 4.39111 7.72974
# Velocity P-wave (km/s) = 12.26942 8.01276 10.36202
#
# Compressibility (1/GPa) = 0.02709798
#
# Stress axis : x y z
#
# Youngs Moduli (GPa) = 203.99964 53.21409 100.47683
#
# Poissons Ratio (x) = 0.10012 0.39779
# Poissons Ratio (y) = 0.38381 -0.25784
# Poissons Ratio (z) = 0.80763 -0.13656
#
# Static dielectric constant tensor:
#      x y z
#    x 1.875720 0.000000 0.000000 
#    y 0.000000 1.844430 0.000000 
#    z 0.000000 0.000000 1.883780 
# 
# From -- ./inp_files/8775.got.cif
#   From: 2010.05.17/outbox.cif.g08.bks.cpg/sg53_5_cif.got.tgz:8775.got - 2010.06.03 12:45:16.
