data_PCOD9415676
_publ_section_title
;
Structure prediction by ZEFSAII (Michael W. Deem and Ramdas Pophale) SiO2 
 PCOD9415676
Probable space group: P M N A
;
_chemical_formula_sum "Si O2"
_cell_formula_units_Z 56
_cell_length_a 8.971861
_cell_length_b 19.423003
_cell_length_c 17.285678
_cell_angle_alpha 90.000000
_cell_angle_beta 90.000000
_cell_angle_gamma 90.000000
_cell_volume 3012.210599
_symmetry_space_group_name_H-M "P M N A"
_symmetry_group_IT_number 53
_symmetry_cell_setting 'orthorhombic'
loop_
_space_group_symop_operation_xyz
x,y,z
1/2-x,-y,1/2+z
x,-y,-z
1/2-x,y,1/2-z
-x,-y,-z
1/2+x,y,1/2-z
-x,y,z
1/2+x,-y,1/2+z
loop_
_atom_site_type_symbol
_atom_site_label
_atom_site_fract_x
_atom_site_fract_y
_atom_site_fract_z
Si Si1 0.179944 0.330849 0.166607
Si Si2 0.325516 0.280828 0.597208
Si Si3 0.174592 0.795058 0.932417
Si Si4 0.321796 0.150982 0.828532
Si Si5 0.321126 0.471338 0.414651
Si Si6 0.821309 0.921906 0.490350
Si Si7 0.176964 0.405656 0.668712
O O1 0.250000 0.345471 0.250000
O O2 0.230790 0.256664 0.133827
O O3 0.214318 0.392197 0.105789
O O4 0.000000 0.328825 0.172888
O O5 0.500000 0.290358 0.615309
O O6 0.314144 0.249003 0.511748
O O7 0.250676 0.225130 0.653714
O O8 0.239835 0.352065 0.606089
O O9 0.000000 0.808954 0.918972
O O10 0.255875 0.866710 0.949402
O O11 0.250000 0.123308 0.750000
O O12 0.500000 0.156960 0.821380
O O13 0.286873 0.105088 0.903887
O O14 0.283278 0.500000 0.500000
O O15 0.500000 0.479973 0.405448
O O16 0.235526 0.519368 0.354333
O O17 0.500000 0.921423 0.001393
O O18 0.767414 0.000000 0.500000
O O19 0.250000 0.385272 0.750000
O O20 0.000000 0.403331 0.673181
#
# Coordination Sequence:
#
# PCOD9415676 Si02
#       7
#     8   8   8   8   8   8   8
#     4  10  21  37  57  81 109 143 184 229 278 330
#     4  10  19  34  55  77 104 138 176 218 266 320
#     4   9  19  36  58  82 106 137 178 219 262 317
#     4  10  19  32  51  77 108 140 175 215 263 320
#     4  10  21  39  60  79 104 140 181 229 284 334
#     4   9  19  36  57  81 110 143 177 217 267 319
#     4  12  24  36  51  75 107 140 177 219 265 317
#
# _framework density 18.590997000000002
#
# number of rings (size 3 to 8) (size 9 to 14) (size 15 to 20)
#    0.000    2.000    0.000    3.857    0.000    6.286 
#    0.000    2.143    0.000    3.429    0.000    0.000 
#    0.000    0.000    0.000    0.000    0.000    0.000 
#
# Total GULP energy -312620.852188 kJ/mol
# GULP energy per Si atom -5582.515218 kJ/mol
# Density = 1.854868 g / cm^3
# Si number density = 18.590997 Si / 1000 Ang^3
#
#
#
# Elastic Constant Matrix: (Units=GPa)
#
#
# Indices 1 2 3 4 5 6 
#
# 1 40.1990 35.1928 26.8285 0.0000 0.0000 0.0000
# 2 35.1928 131.4611 32.5202 0.0000 0.0000 0.0000
# 3 26.8285 32.5202 68.5268 0.0000 0.0000 0.0000
# 4 0.0000 0.0000 0.0000 15.4477 0.0000 0.0000
# 5 0.0000 0.0000 0.0000 0.0000 24.2535 0.0000
# 6 0.0000 0.0000 0.0000 0.0000 0.0000 26.0946
#
#
#
# Elastic Compliance Matrix: (Units=1/GPa)
#
#
# Indices 1 2 3 4 5 6 
#
# 1 0.039452 -0.007637 -0.011821 0.000000 0.000000 0.000000
# 2 -0.007637 0.010097 -0.001802 0.000000 0.000000 0.000000
# 3 -0.011821 -0.001802 0.020076 0.000000 0.000000 0.000000
# 4 0.000000 0.000000 0.000000 0.064735 0.000000 0.000000
# 5 0.000000 0.000000 0.000000 0.000000 0.041231 0.000000
# 6 0.000000 0.000000 0.000000 0.000000 0.000000 0.038322
#
#
# Mechanical properties :
#
#
# Convention : Reuss Voigt Hill
#
# Bulk Modulus (GPa) = 36.89417 47.69664 42.29540
# Shear Modulus (GPa) = 18.83471 22.86885 20.85178
#
# Velocity S-wave (km/s) = 3.18639 3.51109 3.35267
# Velocity P-wave (km/s) = 5.78150 6.49218 6.14712
#
# Compressibility (1/GPa) = 0.02710456
#
# Stress axis : x y z
#
# Youngs Moduli (GPa) = 25.34746 99.03933 49.81100
#
# Poissons Ratio (x) = 0.75638 0.58883
# Poissons Ratio (y) = 0.19358 0.08974
# Poissons Ratio (z) = 0.29964 0.17844
#
# Static dielectric constant tensor:
#      x y z
#    x 1.617310 0.000000 0.000000 
#    y 0.000000 1.653950 0.000000 
#    z 0.000000 0.000000 1.661810 
# 
# From -- ./inp_files/20471.got.cif
#   From: 2010.05.17/outbox.cif.g08.bks.cpg/sg53_11_cif.got.tgz:20471.got - 2010.06.03 12:45:16.
