data_PCOD9415629
_publ_section_title
;
Structure prediction by ZEFSAII (Michael W. Deem and Ramdas Pophale) SiO2 
 PCOD9415629
Probable space group: P M N A
;
_chemical_formula_sum "Si O2"
_cell_formula_units_Z 56
_cell_length_a 9.846653
_cell_length_b 13.116061
_cell_length_c 20.526663
_cell_angle_alpha 90.000000
_cell_angle_beta 90.000000
_cell_angle_gamma 90.000000
_cell_volume 2651.004186
_symmetry_space_group_name_H-M "P M N A"
_symmetry_group_IT_number 53
_symmetry_cell_setting 'orthorhombic'
loop_
_space_group_symop_operation_xyz
x,y,z
1/2-x,-y,1/2+z
x,-y,-z
1/2-x,y,1/2-z
-x,-y,-z
1/2+x,y,1/2-z
-x,y,z
1/2+x,-y,1/2+z
loop_
_atom_site_type_symbol
_atom_site_label
_atom_site_fract_x
_atom_site_fract_y
_atom_site_fract_z
Si Si1 0.346860 0.104911 0.039873
Si Si2 0.654325 0.570346 0.189462
Si Si3 0.649849 0.621421 0.505052
Si Si4 0.160448 0.631915 0.620563
Si Si5 0.158500 0.186937 0.685562
Si Si6 0.656938 0.811641 0.433016
Si Si7 0.339397 0.840008 0.811764
O O1 0.500000 0.153157 0.033160
O O2 0.320361 0.103966 0.117859
O O3 0.220908 0.153904 0.001304
O O4 0.358435 0.000000 0.000000
O O5 0.750000 0.556712 0.250000
O O6 0.500000 0.543412 0.207323
O O7 0.697575 0.483970 0.138737
O O8 0.653369 0.690329 0.174665
O O9 0.657079 0.500000 0.500000
O O10 0.500000 0.646394 0.532434
O O11 0.766170 0.654700 0.553688
O O12 0.659169 0.687771 0.439307
O O13 0.194490 0.720911 0.671970
O O14 0.000000 0.635499 0.611921
O O15 0.250000 0.167950 0.750000
O O16 0.243907 0.149171 0.623552
O O17 0.000000 0.152204 0.690070
O O18 0.500000 0.842334 0.423793
O O19 0.250000 0.874585 0.750000
O O20 0.500000 0.847689 0.796189
#
# Coordination Sequence:
#
# PCOD9415629 Si02
#       7
#     8   8   8   8   8   8   8
#     4  10  22  43  68  91 118 157 201 247 306 371
#     4   9  18  30  46  72 107 151 197 242 290 345
#     4  10  21  34  50  78 117 159 201 244 292 347
#     4  10  19  32  50  77 112 151 200 246 293 353
#     4  10  20  35  55  80 114 156 202 249 299 351
#     4  11  22  37  59  87 118 153 197 247 301 358
#     4  10  21  37  60  90 121 153 192 242 301 366
#
# _framework density 21.124071000000001
#
# number of rings (size 3 to 8) (size 9 to 14) (size 15 to 20)
#    0.000    2.000    1.429    2.143    0.000    3.429 
#    0.000    0.714    0.000    1.714    0.000    0.000 
#    0.000    0.000    0.000    0.000    0.000    0.000 
#
# Total GULP energy -311992.906809 kJ/mol
# GULP energy per Si atom -5571.301907 kJ/mol
# Density = 2.107599 g / cm^3
# Si number density = 21.124071 Si / 1000 Ang^3
#
#
#
# Elastic Constant Matrix: (Units=GPa)
#
#
# Indices 1 2 3 4 5 6 
#
# 1 119.2153 15.1846 80.4552 0.0000 0.0000 0.0000
# 2 15.1846 29.9036 1.7389 0.0000 0.0000 0.0000
# 3 80.4552 1.7389 115.8158 0.0000 0.0000 0.0000
# 4 0.0000 0.0000 0.0000 14.0556 0.0000 0.0000
# 5 0.0000 0.0000 0.0000 0.0000 -4.0205 0.0000
# 6 0.0000 0.0000 0.0000 0.0000 0.0000 14.1355
#
#
#
# Elastic Compliance Matrix: (Units=1/GPa)
#
#
# Indices 1 2 3 4 5 6 
#
# 1 0.017610 -0.008238 -0.012110 0.000000 0.000000 0.000000
# 2 -0.008238 0.037324 0.005162 0.000000 0.000000 0.000000
# 3 -0.012110 0.005162 0.016969 0.000000 0.000000 0.000000
# 4 0.000000 0.000000 0.000000 0.071146 0.000000 0.000000
# 5 0.000000 0.000000 0.000000 0.000000 -0.248727 0.000000
# 6 0.000000 0.000000 0.000000 0.000000 0.000000 0.070744
#
#
# Mechanical properties :
#
#
# Convention : Reuss Voigt Hill
#
# Bulk Modulus (GPa) = 24.07760 51.07692 37.57726
# Shear Modulus (GPa) = 538.78782 16.00451 277.39617
#
# Velocity S-wave (km/s) = 15.98788 2.75552 11.47182
# Velocity P-wave (km/s) = 18.76804 5.86138 13.90315
#
# Compressibility (1/GPa) = 0.04153237
#
# Stress axis : x y z
#
# Youngs Moduli (GPa) = 56.78631 26.79273 58.93024
#
# Poissons Ratio (x) = 0.22071 0.71362
# Poissons Ratio (y) = 0.46779 -0.30421
# Poissons Ratio (z) = 0.68766 -0.13831
#
# Static dielectric constant tensor:
#      x y z
#    x 1.737860 0.000000 0.000000 
#    y 0.000000 1.870690 0.000000 
#    z 0.000000 0.000000 1.742970 
# 
# From -- ./inp_files/30732.got.cif
#   From: 2010.05.17/outbox.cif.g08.bks.cpg/sg53_16_cif.got.tgz:30732.got - 2010.06.03 12:45:16.
