data_PCOD9415509
_publ_section_title
;
Structure prediction by ZEFSAII (Michael W. Deem and Ramdas Pophale) SiO2 
 PCOD9415509
Probable space group: P M N A
;
_chemical_formula_sum "Si O2"
_cell_formula_units_Z 58
_cell_length_a 16.907458
_cell_length_b 12.363357
_cell_length_c 16.044559
_cell_angle_alpha 90.000000
_cell_angle_beta 90.000000
_cell_angle_gamma 90.000000
_cell_volume 3353.841326
_symmetry_space_group_name_H-M "P M N A"
_symmetry_group_IT_number 53
_symmetry_cell_setting 'orthorhombic'
loop_
_space_group_symop_operation_xyz
x,y,z
1/2-x,-y,1/2+z
x,-y,-z
1/2-x,y,1/2-z
-x,-y,-z
1/2+x,y,1/2-z
-x,y,z
1/2+x,-y,1/2+z
loop_
_atom_site_type_symbol
_atom_site_label
_atom_site_fract_x
_atom_site_fract_y
_atom_site_fract_z
Si Si1 0.335939 0.863418 0.087568
Si Si2 0.000000 0.000000 0.000000
Si Si3 0.208618 0.713077 0.166852
Si Si4 0.121065 0.817822 0.927416
Si Si5 0.087825 0.117463 0.756885
Si Si6 0.801976 0.112802 0.407745
Si Si7 0.090438 0.386504 0.953717
Si Si8 0.909993 0.862854 0.744426
O O1 0.274969 0.768482 0.109547
O O2 0.403403 0.859327 0.158036
O O3 0.297929 0.982535 0.101852
O O4 0.354426 0.862033 0.989863
O O5 0.069056 0.084188 0.035483
O O6 0.250000 0.669176 0.250000
O O7 0.152345 0.811769 0.196514
O O8 0.154170 0.629470 0.118749
O O9 0.214166 0.845772 0.925717
O O10 0.098519 0.799950 0.830693
O O11 0.104209 0.712925 0.982977
O O12 0.000000 0.143020 0.788044
O O13 0.100476 0.989828 0.768623
O O14 0.844748 0.159061 0.325902
O O15 0.000000 0.380086 0.922554
O O16 0.100404 0.500000 0.000000
O O17 0.000000 0.852153 0.712171
#
# Coordination Sequence:
#
# PCOD9415509 Si02
#       8
#     8   2   8   8   8   8   8   8
#     4   9  17  30  47  75 107 142 183 220 272 327
#     4  12  24  32  58  88 114 142 176 236 274 340
#     4  10  19  34  55  77 105 137 184 235 270 315
#     4  12  22  35  54  84 110 142 186 225 273 334
#     4   9  18  28  47  76 111 144 178 223 273 328
#     4  10  19  31  51  75 111 152 180 222 277 333
#     4  11  24  40  58  80 113 149 179 226 281 327
#     4  10  20  33  47  77 117 149 185 221 271 336
#
# _framework density 17.293602
#
# number of rings (size 3 to 8) (size 9 to 14) (size 15 to 20)
#    0.000    1.793    2.759    2.483    1.931    2.759 
#    0.000    4.138    0.000    0.000    0.000    0.000 
#    0.000    3.862    0.000    0.000    0.000    0.000 
#
# Total GULP energy -323030.316145 kJ/mol
# GULP energy per Si atom -5569.488209 kJ/mol
# Density = 1.725424 g / cm^3
# Si number density = 17.293602 Si / 1000 Ang^3
#
#
#
# Elastic Constant Matrix: (Units=GPa)
#
#
# Indices 1 2 3 4 5 6 
#
# 1 57.9595 20.8018 23.2512 0.0000 0.0000 0.0000
# 2 20.8018 38.7264 29.0524 0.0000 0.0000 0.0000
# 3 23.2512 29.0524 79.3515 0.0000 0.0000 0.0000
# 4 0.0000 0.0000 0.0000 12.2345 0.0000 0.0000
# 5 0.0000 0.0000 0.0000 0.0000 20.4425 0.0000
# 6 0.0000 0.0000 0.0000 0.0000 0.0000 12.8057
#
#
#
# Elastic Compliance Matrix: (Units=1/GPa)
#
#
# Indices 1 2 3 4 5 6 
#
# 1 0.021848 -0.009558 -0.002902 0.000000 0.000000 0.000000
# 2 -0.009558 0.039782 -0.011764 0.000000 0.000000 0.000000
# 3 -0.002902 -0.011764 0.017760 0.000000 0.000000 0.000000
# 4 0.000000 0.000000 0.000000 0.081736 0.000000 0.000000
# 5 0.000000 0.000000 0.000000 0.000000 0.048918 0.000000
# 6 0.000000 0.000000 0.000000 0.000000 0.000000 0.078090
#
#
# Mechanical properties :
#
#
# Convention : Reuss Voigt Hill
#
# Bulk Modulus (GPa) = 32.32073 35.80536 34.06304
# Shear Modulus (GPa) = 14.41348 15.95868 15.18608
#
# Velocity S-wave (km/s) = 2.89010 3.04107 2.96655
# Velocity P-wave (km/s) = 5.46506 5.75154 5.61013
#
# Compressibility (1/GPa) = 0.03093990
#
# Stress axis : x y z
#
# Youngs Moduli (GPa) = 45.77028 25.13696 56.30699
#
# Poissons Ratio (x) = 0.24027 0.16342
# Poissons Ratio (y) = 0.43749 0.66242
# Poissons Ratio (z) = 0.13284 0.29572
#
# Static dielectric constant tensor:
#      x y z
#    x 1.602520 0.000000 0.000000 
#    y 0.000000 1.550010 0.000000 
#    z 0.000000 0.000000 1.633660 
# 
# From -- ./inp_files/28496.got.cif
#   From: 2010.05.17/outbox.cif.g08.bks.cpg/sg53_15_cif.got.tgz:28496.got - 2010.06.03 12:45:16.
