data_PCOD9415725
_publ_section_title
;
Structure prediction by ZEFSAII (Michael W. Deem and Ramdas Pophale) SiO2 
 PCOD9415725
Probable space group: P M N A
;
_chemical_formula_sum "Si O2"
_cell_formula_units_Z 40
_cell_length_a 8.848179
_cell_length_b 13.140115
_cell_length_c 20.069340
_cell_angle_alpha 90.000000
_cell_angle_beta 90.000000
_cell_angle_gamma 90.000000
_cell_volume 2333.383683
_symmetry_space_group_name_H-M "P M N A"
_symmetry_group_IT_number 53
_symmetry_cell_setting 'orthorhombic'
loop_
_space_group_symop_operation_xyz
x,y,z
1/2-x,-y,1/2+z
x,-y,-z
1/2-x,y,1/2-z
-x,-y,-z
1/2+x,y,1/2-z
-x,y,z
1/2+x,-y,1/2+z
loop_
_atom_site_type_symbol
_atom_site_label
_atom_site_fract_x
_atom_site_fract_y
_atom_site_fract_z
Si Si1 0.318436 0.383525 0.322088
Si Si2 0.680531 0.783890 0.570537
Si Si3 0.826301 0.006996 0.419183
Si Si4 0.681585 0.381533 0.677179
Si Si5 0.817887 0.781312 0.423242
O O1 0.250000 0.359416 0.250000
O O2 0.500000 0.378313 0.317103
O O3 0.270414 0.304068 0.378505
O O4 0.279071 0.500630 0.338806
O O5 0.500000 0.779629 0.562424
O O6 0.756961 0.770219 0.498446
O O7 0.727917 0.894974 0.597851
O O8 0.774159 0.894840 0.397515
O O9 0.000000 0.023303 0.398123
O O10 0.826565 0.000000 0.500000
O O11 0.750000 0.359703 0.750000
O O12 0.500000 0.372614 0.678908
O O13 0.750264 0.305084 0.623535
O O14 0.000000 0.777977 0.424272
#
# Coordination Sequence:
#
# PCOD9415725 Si02
#       5
#     8   8   8   8   8
#     4   9  20  36  53  74 101 133 167 206 252 300
#     4  10  19  32  52  78 104 131 167 209 252 298
#     4   8  16  31  49  71 101 133 164 203 250 297
#     4  10  20  36  55  74 100 133 168 207 252 300
#     4  10  20  34  52  76 104 134 169 207 249 297
#
# _framework density 17.142488
#
# number of rings (size 3 to 8) (size 9 to 14) (size 15 to 20)
#    0.000    2.600    0.000    3.000    0.000    7.600 
#    0.000    5.000    0.000    2.400    0.000    0.000 
#    0.000    0.000    0.000    0.000    0.000    0.000 
#
# Total GULP energy -223004.272193 kJ/mol
# GULP energy per Si atom -5575.106805 kJ/mol
# Density = 1.710347 g / cm^3
# Si number density = 17.142488 Si / 1000 Ang^3
#
#
#
# Elastic Constant Matrix: (Units=GPa)
#
#
# Indices 1 2 3 4 5 6 
#
# 1 53.3077 57.3206 42.1088 0.0000 0.0000 0.0000
# 2 57.3206 155.2333 99.3029 0.0000 0.0000 0.0000
# 3 42.1088 99.3029 89.1632 0.0000 0.0000 0.0000
# 4 0.0000 0.0000 0.0000 -25.7872 0.0000 0.0000
# 5 0.0000 0.0000 0.0000 0.0000 23.3347 0.0000
# 6 0.0000 0.0000 0.0000 0.0000 0.0000 55.2494
#
#
#
# Elastic Compliance Matrix: (Units=1/GPa)
#
#
# Indices 1 2 3 4 5 6 
#
# 1 0.032271 -0.007536 -0.006848 0.000000 0.000000 0.000000
# 2 -0.007536 0.024162 -0.023351 0.000000 0.000000 0.000000
# 3 -0.006848 -0.023351 0.040456 0.000000 0.000000 0.000000
# 4 0.000000 0.000000 0.000000 -0.038779 0.000000 0.000000
# 5 0.000000 0.000000 0.000000 0.000000 0.042855 0.000000
# 6 0.000000 0.000000 0.000000 0.000000 0.000000 0.018100
#
#
# Mechanical properties :
#
#
# Convention : Reuss Voigt Hill
#
# Bulk Modulus (GPa) = 46.68534 77.24098 61.96316
# Shear Modulus (GPa) = 24.79233 17.15749 20.97491
#
# Velocity S-wave (km/s) = 3.80709 3.16709 3.50174
# Velocity P-wave (km/s) = 6.82774 7.65049 7.25079
#
# Compressibility (1/GPa) = 0.02142000
#
# Stress axis : x y z
#
# Youngs Moduli (GPa) = 30.98723 41.38688 24.71805
#
# Poissons Ratio (x) = 0.31187 0.16927
# Poissons Ratio (y) = 0.23351 0.57720
# Poissons Ratio (z) = 0.21221 0.96643
#
# Static dielectric constant tensor:
#      x y z
#    x 1.576070 0.000000 0.000000 
#    y 0.000000 1.601130 0.000000 
#    z 0.000000 0.000000 1.544150 
# 
# From -- ./inp_files/19892.got.cif
#   From: 2010.05.17/outbox.cif.g08.bks.cpg/sg53_10_cif.got.tgz:19892.got - 2010.06.03 12:45:16.
