data_PCOD9415477
_publ_section_title
;
Structure prediction by ZEFSAII (Michael W. Deem and Ramdas Pophale) SiO2 
 PCOD9415477
Probable space group: P M N A
;
_chemical_formula_sum "Si O2"
_cell_formula_units_Z 48
_cell_length_a 7.841218
_cell_length_b 15.226532
_cell_length_c 19.211992
_cell_angle_alpha 90.000000
_cell_angle_beta 90.000000
_cell_angle_gamma 90.000000
_cell_volume 2293.807270
_symmetry_space_group_name_H-M "P M N A"
_symmetry_group_IT_number 53
_symmetry_cell_setting 'orthorhombic'
loop_
_space_group_symop_operation_xyz
x,y,z
1/2-x,-y,1/2+z
x,-y,-z
1/2-x,y,1/2-z
-x,-y,-z
1/2+x,y,1/2-z
-x,y,z
1/2+x,-y,1/2+z
loop_
_atom_site_type_symbol
_atom_site_label
_atom_site_fract_x
_atom_site_fract_y
_atom_site_fract_z
Si Si1 0.803712 0.980970 0.829426
Si Si2 0.207529 0.374119 0.443993
Si Si3 0.205365 0.273159 0.673085
Si Si4 0.200000 0.128585 0.567300
Si Si5 0.792360 0.560100 0.401475
Si Si6 0.292929 0.176289 0.083984
O O1 0.750000 0.996617 0.750000
O O2 0.774446 0.880627 0.852166
O O3 0.000000 0.004236 0.835231
O O4 0.712354 0.040977 0.887189
O O5 0.253674 0.396823 0.523870
O O6 0.265759 0.459235 0.400345
O O7 0.263035 0.277906 0.420181
O O8 0.000000 0.372305 0.442682
O O9 0.250000 0.243428 0.750000
O O10 0.273201 0.206560 0.614905
O O11 0.266418 0.371811 0.656819
O O12 0.000000 0.273312 0.668069
O O13 0.266590 0.130707 0.488624
O O14 0.000000 0.148366 0.558419
O O15 0.000000 0.557322 0.399985
O O16 0.500000 0.174057 0.088137
#
# Coordination Sequence:
#
# PCOD9415477 Si02
#       6
#     8   8   8   8   8   8
#     4  12  26  42  58  78 107 145 185 229 280 334
#     4   8  13  25  51  81 106 136 176 222 263 307
#     4  10  19  31  49  77 112 147 182 223 271 323
#     4  10  20  36  58  84 112 143 181 226 274 329
#     4   8  13  25  47  77 108 138 179 221 257 307
#     4  10  19  35  60  88 113 142 182 228 274 324
#
# _framework density 20.925909000000001
#
# number of rings (size 3 to 8) (size 9 to 14) (size 15 to 20)
#    0.000    2.333    1.667    3.500    0.000    4.667 
#    0.000    0.833    0.000    3.000    0.000    2.333 
#    0.000    0.000    0.000    0.000    0.000    0.000 
#
# Total GULP energy -267800.613866 kJ/mol
# GULP energy per Si atom -5579.179456 kJ/mol
# Density = 2.087828 g / cm^3
# Si number density = 20.925909 Si / 1000 Ang^3
#
#
#
# Elastic Constant Matrix: (Units=GPa)
#
#
# Indices 1 2 3 4 5 6 
#
# 1 22.3806 -13.8711 1.9659 0.0000 0.0000 0.0000
# 2 -13.8711 97.6217 15.7876 0.0000 0.0000 0.0000
# 3 1.9659 15.7876 46.7243 0.0000 0.0000 0.0000
# 4 0.0000 0.0000 0.0000 -46.3445 0.0000 0.0000
# 5 0.0000 0.0000 0.0000 0.0000 11.3479 0.0000
# 6 0.0000 0.0000 0.0000 0.0000 0.0000 -8.5102
#
#
#
# Elastic Compliance Matrix: (Units=1/GPa)
#
#
# Indices 1 2 3 4 5 6 
#
# 1 0.049979 0.007872 -0.004763 0.000000 0.000000 0.000000
# 2 0.007872 0.012076 -0.004411 0.000000 0.000000 0.000000
# 3 -0.004763 -0.004411 0.023093 0.000000 0.000000 0.000000
# 4 0.000000 0.000000 0.000000 -0.021578 0.000000 0.000000
# 5 0.000000 0.000000 0.000000 0.000000 0.088122 0.000000
# 6 0.000000 0.000000 0.000000 0.000000 0.000000 -0.117507
#
#
# Mechanical properties :
#
#
# Convention : Reuss Voigt Hill
#
# Bulk Modulus (GPa) = 12.11495 19.38794 15.75145
# Shear Modulus (GPa) = 77.75557 2.15493 39.95525
#
# Velocity S-wave (km/s) = 6.10231 1.01589 4.37437
# Velocity P-wave (km/s) = 7.44668 3.26515 5.74953
#
# Compressibility (1/GPa) = 0.08254264
#
# Stress axis : x y z
#
# Youngs Moduli (GPa) = 20.00856 82.81199 43.30297
#
# Poissons Ratio (x) = -0.65187 0.20624
# Poissons Ratio (y) = -0.15750 0.19103
# Poissons Ratio (z) = 0.09529 0.36532
#
# Static dielectric constant tensor:
#      x y z
#    x 1.772330 0.000000 0.000000 
#    y 0.000000 1.793180 0.000000 
#    z 0.000000 0.000000 1.685030 
# 
# From -- ./inp_files/30530.got.cif
#   From: 2010.05.17/outbox.cif.g08.bks.cpg/sg53_16_cif.got.tgz:30530.got - 2010.06.03 12:45:16.
