data_PCOD9415755
_publ_section_title
;
Structure prediction by ZEFSAII (Michael W. Deem and Ramdas Pophale) SiO2 
 PCOD9415755
Probable space group: P M N A
;
_chemical_formula_sum "Si O2"
_cell_formula_units_Z 48
_cell_length_a 8.581940
_cell_length_b 13.978992
_cell_length_c 19.375831
_cell_angle_alpha 90.000000
_cell_angle_beta 90.000000
_cell_angle_gamma 90.000000
_cell_volume 2324.457810
_symmetry_space_group_name_H-M "P M N A"
_symmetry_group_IT_number 53
_symmetry_cell_setting 'orthorhombic'
loop_
_space_group_symop_operation_xyz
x,y,z
1/2-x,-y,1/2+z
x,-y,-z
1/2-x,y,1/2-z
-x,-y,-z
1/2+x,y,1/2-z
-x,y,z
1/2+x,-y,1/2+z
loop_
_atom_site_type_symbol
_atom_site_label
_atom_site_fract_x
_atom_site_fract_y
_atom_site_fract_z
Si Si1 0.188695 0.905151 0.039225
Si Si2 0.187198 0.414299 0.672047
Si Si3 0.185076 0.992799 0.825893
Si Si4 0.313469 0.788756 0.827347
Si Si5 0.187776 0.397250 0.413455
Si Si6 0.686913 0.692783 0.454622
O O1 0.223050 0.925720 0.119386
O O2 0.243724 0.798604 0.021880
O O3 0.000000 0.904567 0.030022
O O4 0.247315 0.000000 0.000000
O O5 0.250000 0.410125 0.750000
O O6 0.236361 0.512478 0.632830
O O7 0.249773 0.332249 0.621097
O O8 0.000000 0.411777 0.674162
O O9 0.250000 0.010436 0.750000
O O10 0.000000 0.983632 0.821657
O O11 0.249557 0.890839 0.851980
O O12 0.250000 0.775976 0.750000
O O13 0.500000 0.792730 0.825394
O O14 0.264828 0.699032 0.873009
O O15 0.254813 0.384854 0.489969
O O16 0.000000 0.400455 0.418917
O O17 0.500000 0.692782 0.453081
#
# Coordination Sequence:
#
# PCOD9415755 Si02
#       6
#     8   8   8   8   8   8
#     4   9  19  36  57  82 112 148 191 237 283 334
#     4  11  24  43  64  87 119 155 194 238 286 341
#     4  10  19  33  53  77 109 147 187 233 287 344
#     4  10  19  32  52  81 115 149 191 240 291 344
#     4  10  22  39  59  85 118 154 190 236 290 342
#     4  11  23  39  62  90 118 151 193 238 286 343
#
# _framework density 20.649978000000001
#
# number of rings (size 3 to 8) (size 9 to 14) (size 15 to 20)
#    0.000    1.833    0.000    5.000    0.000    6.667 
#    0.000    5.000    0.000    6.000    0.000    0.000 
#    0.000    0.000    0.000    0.000    0.000    0.000 
#
# Total GULP energy -268158.138390 kJ/mol
# GULP energy per Si atom -5586.627883 kJ/mol
# Density = 2.060298 g / cm^3
# Si number density = 20.649978 Si / 1000 Ang^3
#
#
#
# Elastic Constant Matrix: (Units=GPa)
#
#
# Indices 1 2 3 4 5 6 
#
# 1 26.4032 14.0176 21.0048 0.0000 0.0000 0.0000
# 2 14.0176 104.7217 52.9093 0.0000 0.0000 0.0000
# 3 21.0048 52.9093 111.4253 0.0000 0.0000 0.0000
# 4 0.0000 0.0000 0.0000 30.6319 0.0000 0.0000
# 5 0.0000 0.0000 0.0000 0.0000 25.7345 0.0000
# 6 0.0000 0.0000 0.0000 0.0000 0.0000 17.3737
#
#
#
# Elastic Compliance Matrix: (Units=1/GPa)
#
#
# Indices 1 2 3 4 5 6 
#
# 1 0.044968 -0.002284 -0.007392 0.000000 0.000000 0.000000
# 2 -0.002284 0.012679 -0.005590 0.000000 0.000000 0.000000
# 3 -0.007392 -0.005590 0.013022 0.000000 0.000000 0.000000
# 4 0.000000 0.000000 0.000000 0.032646 0.000000 0.000000
# 5 0.000000 0.000000 0.000000 0.000000 0.038858 0.000000
# 6 0.000000 0.000000 0.000000 0.000000 0.000000 0.057558
#
#
# Mechanical properties :
#
#
# Convention : Reuss Voigt Hill
#
# Bulk Modulus (GPa) = 24.91503 46.49038 35.70270
# Shear Modulus (GPa) = 20.52177 25.05591 22.78884
#
# Velocity S-wave (km/s) = 3.15587 3.48711 3.32562
# Velocity P-wave (km/s) = 5.03695 6.22701 5.66333
#
# Compressibility (1/GPa) = 0.04013642
#
# Stress axis : x y z
#
# Youngs Moduli (GPa) = 22.23812 78.86965 76.79039
#
# Poissons Ratio (x) = 0.18017 0.56765
# Poissons Ratio (y) = 0.05080 0.42925
# Poissons Ratio (z) = 0.16439 0.44088
#
# Static dielectric constant tensor:
#      x y z
#    x 1.697340 0.000000 0.000000 
#    y 0.000000 1.755390 0.000000 
#    z 0.000000 0.000000 1.732750 
# 
# From -- ./inp_files/26231.got.cif
#   From: 2010.05.17/outbox.cif.g08.bks.cpg/sg53_14_cif.got.tgz:26231.got - 2010.06.03 12:45:16.
