data_PCOD9415093
_publ_section_title
;
Structure prediction by ZEFSAII (Michael W. Deem and Ramdas Pophale) SiO2 
 PCOD9415093
Probable space group: P M N A
;
_chemical_formula_sum "Si O2"
_cell_formula_units_Z 40
_cell_length_a 19.409619
_cell_length_b 9.567271
_cell_length_c 11.211052
_cell_angle_alpha 90.000000
_cell_angle_beta 90.000000
_cell_angle_gamma 90.000000
_cell_volume 2081.859676
_symmetry_space_group_name_H-M "P M N A"
_symmetry_group_IT_number 53
_symmetry_cell_setting 'orthorhombic'
loop_
_space_group_symop_operation_xyz
x,y,z
1/2-x,-y,1/2+z
x,-y,-z
1/2-x,y,1/2-z
-x,-y,-z
1/2+x,y,1/2-z
-x,y,z
1/2+x,-y,1/2+z
loop_
_atom_site_type_symbol
_atom_site_label
_atom_site_fract_x
_atom_site_fract_y
_atom_site_fract_z
Si Si1 0.180310 0.395641 0.319458
Si Si2 0.420722 0.185286 0.736440
Si Si3 0.179889 0.290614 0.575169
Si Si4 0.420573 0.499591 0.631897
Si Si5 0.788128 0.065122 0.868519
O O1 0.250000 0.364309 0.250000
O O2 0.171496 0.297580 0.433453
O O3 0.183380 0.552977 0.373035
O O4 0.119507 0.402554 0.223523
O O5 0.500000 0.139072 0.742750
O O6 0.383764 0.210213 0.863676
O O7 0.419771 0.339908 0.677362
O O8 0.367978 0.087707 0.664087
O O9 0.249346 0.213361 0.614811
O O10 0.388750 0.500000 0.500000
O O11 0.500000 0.545234 0.623466
O O12 0.750000 0.001172 0.750000
O O13 0.780226 0.000000 0.000000
#
# Coordination Sequence:
#
# PCOD9415093 Si02
#       5
#     8   8   8   8   8
#     4  10  19  28  51  79 106 140 177 212 250 317
#     4   9  18  34  56  76 101 138 175 214 261 316
#     4   9  19  34  50  77 106 138 173 215 266 311
#     4   9  18  31  47  74 113 144 165 205 262 311
#     4  10  21  38  56  76 106 138 179 227 275 318
#
# _framework density 19.213591000000001
#
# number of rings (size 3 to 8) (size 9 to 14) (size 15 to 20)
#    0.000    2.600    0.000    3.000    5.600    2.000 
#    0.000    4.000    0.000    9.600    0.000    0.000 
#    0.000    0.000    0.000    0.000    0.000    0.000 
#
# Total GULP energy -223008.933950 kJ/mol
# GULP energy per Si atom -5575.223349 kJ/mol
# Density = 1.916986 g / cm^3
# Si number density = 19.213591 Si / 1000 Ang^3
#
#
#
# Elastic Constant Matrix: (Units=GPa)
#
#
# Indices 1 2 3 4 5 6 
#
# 1 119.8961 15.2368 52.2972 0.0000 0.0000 0.0000
# 2 15.2368 11.5562 19.6074 0.0000 0.0000 0.0000
# 3 52.2972 19.6074 177.9236 0.0000 0.0000 0.0000
# 4 0.0000 0.0000 0.0000 17.7338 0.0000 0.0000
# 5 0.0000 0.0000 0.0000 0.0000 18.8560 0.0000
# 6 0.0000 0.0000 0.0000 0.0000 0.0000 42.7579
#
#
#
# Elastic Compliance Matrix: (Units=1/GPa)
#
#
# Indices 1 2 3 4 5 6 
#
# 1 0.010529 -0.010617 -0.001925 0.000000 0.000000 0.000000
# 2 -0.010617 0.117140 -0.009788 0.000000 0.000000 0.000000
# 3 -0.001925 -0.009788 0.007265 0.000000 0.000000 0.000000
# 4 0.000000 0.000000 0.000000 0.056390 0.000000 0.000000
# 5 0.000000 0.000000 0.000000 0.000000 0.053034 0.000000
# 6 0.000000 0.000000 0.000000 0.000000 0.000000 0.023387
#
#
# Mechanical properties :
#
#
# Convention : Reuss Voigt Hill
#
# Bulk Modulus (GPa) = 11.07737 53.73985 32.40861
# Shear Modulus (GPa) = 14.59865 30.68516 22.64191
#
# Velocity S-wave (km/s) = 2.75945 4.00065 3.43655
# Velocity P-wave (km/s) = 3.99132 7.02643 5.71408
#
# Compressibility (1/GPa) = 0.09027416
#
# Stress axis : x y z
#
# Youngs Moduli (GPa) = 94.97189 8.53676 137.64882
#
# Poissons Ratio (x) = 0.09064 0.26496
# Poissons Ratio (y) = 1.00832 1.34735
# Poissons Ratio (z) = 0.18281 0.08356
#
# Static dielectric constant tensor:
#      x y z
#    x 1.660420 0.000000 0.000000 
#    y 0.000000 1.676350 0.000000 
#    z 0.000000 0.000000 1.710880 
# 
# From -- ./inp_files/10779.got.cif
#   From: 2010.05.17/outbox.cif.g08.bks.cpg/sg53_6_cif.got.tgz:10779.got - 2010.06.03 12:45:16.
