data_PCOD9415653
_publ_section_title
;
Structure prediction by ZEFSAII (Michael W. Deem and Ramdas Pophale) SiO2 
 PCOD9415653
Probable space group: P M N A
;
_chemical_formula_sum "Si O2"
_cell_formula_units_Z 64
_cell_length_a 7.672706
_cell_length_b 14.541966
_cell_length_c 28.388563
_cell_angle_alpha 90.000000
_cell_angle_beta 90.000000
_cell_angle_gamma 90.000000
_cell_volume 3167.488828
_symmetry_space_group_name_H-M "P M N A"
_symmetry_group_IT_number 53
_symmetry_cell_setting 'orthorhombic'
loop_
_space_group_symop_operation_xyz
x,y,z
1/2-x,-y,1/2+z
x,-y,-z
1/2-x,y,1/2-z
-x,-y,-z
1/2+x,y,1/2-z
-x,y,z
1/2+x,-y,1/2+z
loop_
_atom_site_type_symbol
_atom_site_label
_atom_site_fract_x
_atom_site_fract_y
_atom_site_fract_z
Si Si1 0.795722 0.294131 0.609320
Si Si2 0.708016 0.418161 0.694689
Si Si3 0.201981 0.888234 0.065505
Si Si4 0.288832 0.782550 0.526594
Si Si5 0.291105 0.381791 0.305645
Si Si6 0.290339 0.180989 0.304857
Si Si7 0.786682 0.921516 0.892999
Si Si8 0.294724 0.596245 0.018892
O O1 0.774570 0.340235 0.659881
O O2 0.711100 0.194434 0.602999
O O3 0.723795 0.361926 0.568147
O O4 0.000000 0.280530 0.599839
O O5 0.750000 0.405806 0.750000
O O6 0.500000 0.419346 0.690959
O O7 0.775752 0.518953 0.677731
O O8 0.000000 0.908280 0.054402
O O9 0.277818 0.982665 0.085330
O O10 0.275527 0.844146 0.017617
O O11 0.500000 0.778741 0.524860
O O12 0.239005 0.836319 0.573486
O O13 0.226120 0.678857 0.518547
O O14 0.250000 0.382380 0.250000
O O15 0.500000 0.382180 0.312450
O O16 0.225013 0.282123 0.321542
O O17 0.250000 0.167347 0.250000
O O18 0.500000 0.184357 0.308148
O O19 0.227984 0.102753 0.340358
O O20 0.000000 0.926276 0.892468
O O21 0.500000 0.580433 0.027235
O O22 0.219990 0.500000 0.000000
#
# Coordination Sequence:
#
# PCOD9415653 Si02
#       8
#     8   8   8   8   8   8   8   8
#     4  10  20  34  51  71  98 132 167 204 247 293
#     4  10  19  32  51  75 101 130 167 207 246 290
#     4   9  17  32  52  72  96 127 162 201 250 301
#     4   9  17  30  51  77  99 122 160 207 248 291
#     4   8  15  27  44  65  90 120 152 188 230 276
#     4   9  17  31  48  68  97 129 158 191 235 285
#     4   9  17  30  51  75  97 124 160 204 250 293
#     4   9  19  35  51  70 102 139 167 195 241 300
#
# _framework density 20.205279999999998
#
# number of rings (size 3 to 8) (size 9 to 14) (size 15 to 20)
#    0.000    2.875    0.000    1.125    0.000    3.750 
#    0.000    3.750    0.000    4.500    0.000    0.000 
#    0.000    0.000    0.000    0.000    0.000    0.000 
#
# Total GULP energy -356667.425836 kJ/mol
# GULP energy per Si atom -5572.928529 kJ/mol
# Density = 2.015929 g / cm^3
# Si number density = 20.205280 Si / 1000 Ang^3
#
#
#
# Elastic Constant Matrix: (Units=GPa)
#
#
# Indices 1 2 3 4 5 6 
#
# 1 34.4763 -13.7864 -5.3563 0.0000 0.0000 0.0000
# 2 -13.7864 105.1826 59.8537 0.0000 0.0000 0.0000
# 3 -5.3563 59.8537 77.3053 0.0000 0.0000 0.0000
# 4 0.0000 0.0000 0.0000 25.7921 0.0000 0.0000
# 5 0.0000 0.0000 0.0000 0.0000 -223.2712 0.0000
# 6 0.0000 0.0000 0.0000 0.0000 0.0000 6.4713
#
#
#
# Elastic Compliance Matrix: (Units=1/GPa)
#
#
# Indices 1 2 3 4 5 6 
#
# 1 0.030745 0.005037 -0.001769 0.000000 0.000000 0.000000
# 2 0.005037 0.017820 -0.013448 0.000000 0.000000 0.000000
# 3 -0.001769 -0.013448 0.023225 0.000000 0.000000 0.000000
# 4 0.000000 0.000000 0.000000 0.038772 0.000000 0.000000
# 5 0.000000 0.000000 0.000000 0.000000 -0.004479 0.000000
# 6 0.000000 0.000000 0.000000 0.000000 0.000000 0.154528
#
#
# Mechanical properties :
#
#
# Convention : Reuss Voigt Hill
#
# Bulk Modulus (GPa) = 19.44464 33.15401 26.29932
# Shear Modulus (GPa) = 16.77202 -26.45134 -4.83966
#
# Velocity S-wave (km/s) = 2.88424 -3.62212 -1.54934
# Velocity P-wave (km/s) = 4.55370 1.02409 3.13747
#
# Compressibility (1/GPa) = 0.05142806
#
# Stress axis : x y z
#
# Youngs Moduli (GPa) = 32.52608 56.11657 43.05630
#
# Poissons Ratio (x) = -0.28263 0.07618
# Poissons Ratio (y) = -0.16382 0.57903
# Poissons Ratio (z) = 0.05755 0.75467
#
# Static dielectric constant tensor:
#      x y z
#    x 1.772860 0.000000 0.000000 
#    y 0.000000 1.739420 0.000000 
#    z 0.000000 0.000000 1.703590 
# 
# From -- ./inp_files/34171.got.cif
#   From: 2010.05.17/outbox.cif.g08.bks.cpg/sg53_18_cif.got.tgz:34171.got - 2010.06.03 12:45:16.
