data_PCOD9415732
_publ_section_title
;
Structure prediction by ZEFSAII (Michael W. Deem and Ramdas Pophale) SiO2 
 PCOD9415732
Probable space group: P M N A
;
_chemical_formula_sum "Si O2"
_cell_formula_units_Z 64
_cell_length_a 23.829158
_cell_length_b 12.192514
_cell_length_c 11.684226
_cell_angle_alpha 90.000000
_cell_angle_beta 90.000000
_cell_angle_gamma 90.000000
_cell_volume 3394.703971
_symmetry_space_group_name_H-M "P M N A"
_symmetry_group_IT_number 53
_symmetry_cell_setting 'orthorhombic'
loop_
_space_group_symop_operation_xyz
x,y,z
1/2-x,-y,1/2+z
x,-y,-z
1/2-x,y,1/2-z
-x,-y,-z
1/2+x,y,1/2-z
-x,y,z
1/2+x,-y,1/2+z
loop_
_atom_site_type_symbol
_atom_site_label
_atom_site_fract_x
_atom_site_fract_y
_atom_site_fract_z
Si Si1 0.433550 0.316285 0.201388
Si Si2 0.849073 0.115698 0.559402
Si Si3 0.730378 0.132222 0.493270
Si Si4 0.565790 0.310739 0.939110
Si Si5 0.568071 0.451913 0.720291
Si Si6 0.359762 0.097064 0.680342
Si Si7 0.566651 0.740120 0.436212
Si Si8 0.369437 0.841163 0.652157
O O1 0.500000 0.290313 0.221432
O O2 0.415616 0.421196 0.276673
O O3 0.393884 0.214002 0.233714
O O4 0.429190 0.353610 0.069247
O O5 0.793643 0.171693 0.505692
O O6 0.900541 0.198032 0.558770
O O7 0.836776 0.092231 0.692215
O O8 0.861636 0.000000 0.500000
O O9 0.688104 0.149785 0.599364
O O10 0.696118 0.171223 0.381950
O O11 0.736582 0.000000 0.500000
O O12 0.500000 0.291281 0.918249
O O13 0.586077 0.389949 0.837165
O O14 0.500000 0.453189 0.721993
O O15 0.584906 0.378641 0.611622
O O16 0.413505 0.173980 0.661176
O O17 0.376107 0.972800 0.646827
O O18 0.500000 0.739907 0.449652
O O19 0.594823 0.782932 0.552026
#
# Coordination Sequence:
#
# PCOD9415732 Si02
#       8
#     8   8   8   8   8   8   8   8
#     4  10  20  34  54  79 109 145 184 229 277 325
#     4  11  20  32  53  80 106 141 178 221 276 325
#     4   8  18  34  52  75 102 136 180 218 260 322
#     4  10  20  35  52  79 110 140 184 229 276 330
#     4   9  18  34  54  77 104 141 189 228 263 320
#     4  10  19  33  51  75 109 141 179 216 265 331
#     4  10  19  32  52  78 107 143 182 219 269 329
#     4  10  20  34  51  80 112 142 176 225 273 325
#
# _framework density 18.852895
#
# number of rings (size 3 to 8) (size 9 to 14) (size 15 to 20)
#    0.000    2.250    1.250    3.000    0.000    3.750 
#    0.000    3.750    0.000    0.000   19.500    0.000 
#    0.000    0.000    0.000    0.000    0.000    0.000 
#
# Total GULP energy -356612.605877 kJ/mol
# GULP energy per Si atom -5572.071967 kJ/mol
# Density = 1.880998 g / cm^3
# Si number density = 18.852895 Si / 1000 Ang^3
#
#
#
# Elastic Constant Matrix: (Units=GPa)
#
#
# Indices 1 2 3 4 5 6 
#
# 1 46.1673 13.1670 4.2934 0.0000 0.0000 0.0000
# 2 13.1670 62.6741 -8.1191 0.0000 0.0000 0.0000
# 3 4.2934 -8.1191 25.6039 0.0000 0.0000 0.0000
# 4 0.0000 0.0000 0.0000 25.2035 0.0000 0.0000
# 5 0.0000 0.0000 0.0000 0.0000 20.4842 0.0000
# 6 0.0000 0.0000 0.0000 0.0000 0.0000 -5.2591
#
#
#
# Elastic Compliance Matrix: (Units=1/GPa)
#
#
# Indices 1 2 3 4 5 6 
#
# 1 0.023846 -0.005765 -0.005827 0.000000 0.000000 0.000000
# 2 -0.005765 0.018033 0.006685 0.000000 0.000000 0.000000
# 3 -0.005827 0.006685 0.042153 0.000000 0.000000 0.000000
# 4 0.000000 0.000000 0.000000 0.039677 0.000000 0.000000
# 5 0.000000 0.000000 0.000000 0.000000 0.048818 0.000000
# 6 0.000000 0.000000 0.000000 0.000000 0.000000 -0.190146
#
#
# Mechanical properties :
#
#
# Convention : Reuss Voigt Hill
#
# Bulk Modulus (GPa) = 13.47353 17.01420 15.24387
# Shear Modulus (GPa) = 295.26445 16.42598 155.84521
#
# Velocity S-wave (km/s) = 12.52816 2.95493 9.10183
# Velocity P-wave (km/s) = 14.71174 4.54824 10.88857
#
# Compressibility (1/GPa) = 0.07421957
#
# Stress axis : x y z
#
# Youngs Moduli (GPa) = 41.93523 55.45508 23.72283
#
# Poissons Ratio (x) = 0.31968 0.13823
# Poissons Ratio (y) = 0.24174 -0.15858
# Poissons Ratio (z) = 0.24434 -0.37071
#
# Static dielectric constant tensor:
#      x y z
#    x 1.653050 0.000000 0.000000 
#    y 0.000000 1.649400 0.000000 
#    z 0.000000 0.000000 1.749430 
# 
# From -- ./inp_files/18856.got.cif
#   From: 2010.05.17/outbox.cif.g08.bks.cpg/sg53_10_cif.got.tgz:18856.got - 2010.06.03 12:45:16.
