data_PCOD9415957
_publ_section_title
;
Structure prediction by ZEFSAII (Michael W. Deem and Ramdas Pophale) SiO2 
 PCOD9415957
Probable space group: P M N A
;
_chemical_formula_sum "Si O2"
_cell_formula_units_Z 64
_cell_length_a 8.968660
_cell_length_b 23.924387
_cell_length_c 15.276307
_cell_angle_alpha 90.000000
_cell_angle_beta 90.000000
_cell_angle_gamma 90.000000
_cell_volume 3277.832499
_symmetry_space_group_name_H-M "P M N A"
_symmetry_group_IT_number 53
_symmetry_cell_setting 'orthorhombic'
loop_
_space_group_symop_operation_xyz
x,y,z
1/2-x,-y,1/2+z
x,-y,-z
1/2-x,y,1/2-z
-x,-y,-z
1/2+x,y,1/2-z
-x,y,z
1/2+x,-y,1/2+z
loop_
_atom_site_type_symbol
_atom_site_label
_atom_site_fract_x
_atom_site_fract_y
_atom_site_fract_z
Si Si1 0.820731 0.039460 0.157594
Si Si2 0.679745 0.252060 0.029866
Si Si3 0.679971 0.862830 0.526145
Si Si4 0.675268 0.418484 0.839020
Si Si5 0.321049 0.702206 0.153282
Si Si6 0.669386 0.472263 0.404071
Si Si7 0.320597 0.909739 0.342129
Si Si8 0.319885 0.357962 0.152250
O O1 0.750000 0.055737 0.250000
O O2 0.776691 0.083106 0.083062
O O3 0.000000 0.040792 0.164059
O O4 0.779101 0.974816 0.140571
O O5 0.500000 0.249491 0.029449
O O6 0.748594 0.193909 0.061218
O O7 0.720421 0.304209 0.092622
O O8 0.728605 0.259888 0.928088
O O9 0.500000 0.858533 0.528423
O O10 0.726173 0.874101 0.425899
O O11 0.750000 0.400162 0.750000
O O12 0.500000 0.426605 0.834786
O O13 0.703483 0.360540 0.889517
O O14 0.748309 0.477559 0.856173
O O15 0.250000 0.712690 0.250000
O O16 0.500000 0.706329 0.165810
O O17 0.663164 0.500000 0.500000
O O18 0.500000 0.464071 0.372587
O O19 0.757366 0.414668 0.392863
O O20 0.250000 0.892426 0.250000
O O21 0.500000 0.907211 0.335075
O O22 0.250000 0.354452 0.250000
O O23 0.500000 0.361367 0.158017
#
# Coordination Sequence:
#
# PCOD9415957 Si02
#       8
#     8   8   8   8   8   8   8   8
#     4   9  18  34  56  82 112 145 183 226 274 330
#     4  10  23  41  58  79 110 148 191 237 282 331
#     4  10  21  36  56  81 110 147 188 230 278 331
#     4  10  19  33  54  78 105 135 170 213 265 327
#     4   9  19  36  57  81 109 144 184 227 280 339
#     4  11  23  37  56  84 114 142 177 225 280 338
#     4   9  18  34  56  83 115 149 183 223 274 332
#     4  11  24  43  64  84 112 153 198 242 289 339
#
# _framework density 19.525098
#
# number of rings (size 3 to 8) (size 9 to 14) (size 15 to 20)
#    0.000    2.125    0.000    2.625    0.000    7.500 
#    0.000    5.000    0.000    3.750    0.000    0.000 
#    0.000    0.000    0.000    0.000    0.000    0.000 
#
# Total GULP energy -356602.110866 kJ/mol
# GULP energy per Si atom -5571.907982 kJ/mol
# Density = 1.948066 g / cm^3
# Si number density = 19.525098 Si / 1000 Ang^3
#
#
#
# Elastic Constant Matrix: (Units=GPa)
#
#
# Indices 1 2 3 4 5 6 
#
# 1 34.4595 23.9822 23.9796 0.0000 0.0000 0.0000
# 2 23.9822 76.0934 39.6106 0.0000 0.0000 0.0000
# 3 23.9796 39.6106 81.8654 0.0000 0.0000 0.0000
# 4 0.0000 0.0000 0.0000 17.1524 0.0000 0.0000
# 5 0.0000 0.0000 0.0000 0.0000 22.4789 0.0000
# 6 0.0000 0.0000 0.0000 0.0000 0.0000 34.1439
#
#
#
# Elastic Compliance Matrix: (Units=1/GPa)
#
#
# Indices 1 2 3 4 5 6 
#
# 1 0.040415 -0.008789 -0.007586 0.000000 0.000000 0.000000
# 2 -0.008789 0.019477 -0.006850 0.000000 0.000000 0.000000
# 3 -0.007586 -0.006850 0.017751 0.000000 0.000000 0.000000
# 4 0.000000 0.000000 0.000000 0.058301 0.000000 0.000000
# 5 0.000000 0.000000 0.000000 0.000000 0.044486 0.000000
# 6 0.000000 0.000000 0.000000 0.000000 0.000000 0.029288
#
#
# Mechanical properties :
#
#
# Convention : Reuss Voigt Hill
#
# Bulk Modulus (GPa) = 32.05620 40.84033 36.44827
# Shear Modulus (GPa) = 18.75716 21.74478 20.25097
#
# Velocity S-wave (km/s) = 3.10283 3.34081 3.22402
# Velocity P-wave (km/s) = 5.41205 5.98695 5.70675
#
# Compressibility (1/GPa) = 0.03119521
#
# Stress axis : x y z
#
# Youngs Moduli (GPa) = 24.74345 51.34174 56.33359
#
# Poissons Ratio (x) = 0.45123 0.42733
# Poissons Ratio (y) = 0.21746 0.38587
# Poissons Ratio (z) = 0.18770 0.35168
#
# Static dielectric constant tensor:
#      x y z
#    x 1.657110 0.000000 0.000000 
#    y 0.000000 1.728600 0.000000 
#    z 0.000000 0.000000 1.672140 
# 
# From -- ./inp_files/20882.got.cif
#   From: 2010.05.17/outbox.cif.g08.bks.cpg/sg53_11_cif.got.tgz:20882.got - 2010.06.03 12:45:16.
