data_PCOD9415655
_publ_section_title
;
Structure prediction by ZEFSAII (Michael W. Deem and Ramdas Pophale) SiO2 
 PCOD9415655
Probable space group: P M N A
;
_chemical_formula_sum "Si O2"
_cell_formula_units_Z 48
_cell_length_a 8.282311
_cell_length_b 32.727539
_cell_length_c 9.546873
_cell_angle_alpha 90.000000
_cell_angle_beta 90.000000
_cell_angle_gamma 90.000000
_cell_volume 2587.772114
_symmetry_space_group_name_H-M "P M N A"
_symmetry_group_IT_number 53
_symmetry_cell_setting 'orthorhombic'
loop_
_space_group_symop_operation_xyz
x,y,z
1/2-x,-y,1/2+z
x,-y,-z
1/2-x,y,1/2-z
-x,-y,-z
1/2+x,y,1/2-z
-x,y,z
1/2+x,-y,1/2+z
loop_
_atom_site_type_symbol
_atom_site_label
_atom_site_fract_x
_atom_site_fract_y
_atom_site_fract_z
Si Si1 0.195261 0.539328 0.410454
Si Si2 0.304757 0.961810 0.409801
Si Si3 0.304501 0.382837 0.088476
Si Si4 0.193021 0.795173 0.589587
Si Si5 0.305237 0.293421 0.088391
Si Si6 0.807227 0.871381 0.090474
O O1 0.249484 0.500000 0.500000
O O2 0.250000 0.537454 0.250000
O O3 0.251645 0.580318 0.490128
O O4 0.000000 0.539457 0.411378
O O5 0.250000 0.966289 0.250000
O O6 0.500000 0.962246 0.413804
O O7 0.250715 0.916562 0.458666
O O8 0.244721 0.000000 0.500000
O O9 0.250000 0.388116 0.250000
O O10 0.500000 0.383255 0.089256
O O11 0.250176 0.337838 0.034881
O O12 0.250000 0.798650 0.750000
O O13 0.250371 0.750683 0.531359
O O14 0.249651 0.833817 0.502075
O O15 0.000000 0.794702 0.589101
O O16 0.250000 0.293146 0.250000
O O17 0.500000 0.293560 0.082408
O O18 0.750000 0.866391 0.250000
O O19 0.000000 0.871691 0.089081
#
# Coordination Sequence:
#
# PCOD9415655 Si02
#       6
#     8   8   8   8   8   8
#     4  10  21  35  51  73 100 129 162 201 243 289
#     4   9  19  35  53  74  99 127 161 200 242 291
#     4   9  17  31  51  74  99 127 162 201 242 289
#     4  10  19  32  51  75 102 132 168 208 248 290
#     4   8  15  28  47  70  97 128 161 200 242 285
#     4  10  20  35  53  73 100 133 167 203 247 297
#
# _framework density 18.548774999999999
#
# number of rings (size 3 to 8) (size 9 to 14) (size 15 to 20)
#    0.000    2.667    0.000    1.500    0.000    3.333 
#    0.000    2.500    0.000    2.000    0.000    0.000 
#    0.000    0.000    0.000    0.000    0.000    0.000 
#
# Total GULP energy -267440.051569 kJ/mol
# GULP energy per Si atom -5571.667741 kJ/mol
# Density = 1.850656 g / cm^3
# Si number density = 18.548775 Si / 1000 Ang^3
#
#
#
# Elastic Constant Matrix: (Units=GPa)
#
#
# Indices 1 2 3 4 5 6 
#
# 1 13.8700 28.6094 9.5194 0.0000 0.0000 0.0000
# 2 28.6094 253.1276 102.2768 0.0000 0.0000 0.0000
# 3 9.5194 102.2768 81.2282 0.0000 0.0000 0.0000
# 4 0.0000 0.0000 0.0000 34.0201 0.0000 0.0000
# 5 0.0000 0.0000 0.0000 0.0000 27.9885 0.0000
# 6 0.0000 0.0000 0.0000 0.0000 0.0000 20.0974
#
#
#
# Elastic Compliance Matrix: (Units=1/GPa)
#
#
# Indices 1 2 3 4 5 6 
#
# 1 0.094948 -0.012693 0.004855 0.000000 0.000000 0.000000
# 2 -0.012693 0.009739 -0.010775 0.000000 0.000000 0.000000
# 3 0.004855 -0.010775 0.025309 0.000000 0.000000 0.000000
# 4 0.000000 0.000000 0.000000 0.029394 0.000000 0.000000
# 5 0.000000 0.000000 0.000000 0.000000 0.035729 0.000000
# 6 0.000000 0.000000 0.000000 0.000000 0.000000 0.049758
#
#
# Mechanical properties :
#
#
# Convention : Reuss Voigt Hill
#
# Bulk Modulus (GPa) = 10.77940 69.89301 40.33621
# Shear Modulus (GPa) = 15.97312 30.27587 23.12449
#
# Velocity S-wave (km/s) = 2.93770 4.04447 3.53467
# Velocity P-wave (km/s) = 4.16303 7.71834 6.20095
#
# Compressibility (1/GPa) = 0.09276950
#
# Stress axis : x y z
#
# Youngs Moduli (GPa) = 10.53210 102.68223 39.51166
#
# Poissons Ratio (x) = 1.30334 -0.19182
# Poissons Ratio (y) = 0.13368 0.42573
# Poissons Ratio (z) = -0.05113 1.10639
#
# Static dielectric constant tensor:
#      x y z
#    x 1.691170 0.000000 0.000000 
#    y 0.000000 1.711400 0.000000 
#    z 0.000000 0.000000 1.577090 
# 
# From -- ./inp_files/6587.got.cif
#   From: 2010.05.17/outbox.cif.g08.bks.cpg/sg53_4_cif.got.tgz:6587.got - 2010.06.03 12:45:16.
