data_PCOD9415661
_publ_section_title
;
Structure prediction by ZEFSAII (Michael W. Deem and Ramdas Pophale) SiO2 
 PCOD9415661
Probable space group: P M N A
;
_chemical_formula_sum "Si O2"
_cell_formula_units_Z 40
_cell_length_a 8.592798
_cell_length_b 14.129477
_cell_length_c 18.733861
_cell_angle_alpha 90.000000
_cell_angle_beta 90.000000
_cell_angle_gamma 90.000000
_cell_volume 2274.510693
_symmetry_space_group_name_H-M "P M N A"
_symmetry_group_IT_number 53
_symmetry_cell_setting 'orthorhombic'
loop_
_space_group_symop_operation_xyz
x,y,z
1/2-x,-y,1/2+z
x,-y,-z
1/2-x,y,1/2-z
-x,-y,-z
1/2+x,y,1/2-z
-x,y,z
1/2+x,-y,1/2+z
loop_
_atom_site_type_symbol
_atom_site_label
_atom_site_fract_x
_atom_site_fract_y
_atom_site_fract_z
Si Si1 0.685589 0.384972 0.890187
Si Si2 0.686556 0.192169 0.674096
Si Si3 0.688309 0.698546 0.534522
Si Si4 0.810818 0.898807 0.026858
Si Si5 0.686457 0.581512 0.671142
O O1 0.500000 0.388198 0.888730
O O2 0.745563 0.295269 0.844879
O O3 0.753260 0.480688 0.857391
O O4 0.743770 0.365756 0.970861
O O5 0.750000 0.160181 0.750000
O O6 0.500000 0.199001 0.675703
O O7 0.731980 0.124370 0.608457
O O8 0.500000 0.694519 0.528592
O O9 0.737266 0.806770 0.518929
O O10 0.733373 0.658704 0.611567
O O11 0.000000 0.901074 0.023950
O O12 0.752841 0.000000 0.000000
O O13 0.750000 0.600362 0.750000
O O14 0.500000 0.578726 0.674044
#
# Coordination Sequence:
#
# PCOD9415661 Si02
#       5
#     8   8   8   8   8
#     4  11  21  33  52  76 102 132 168 208 251 299
#     4  10  19  32  51  76 105 133 165 207 255 302
#     4   9  19  35  54  75 100 133 170 208 250 298
#     4   8  15  31  55  77  96 126 168 207 246 297
#     4  11  22  35  50  71 103 138 172 206 244 293
#
# _framework density 17.586200000000002
#
# number of rings (size 3 to 8) (size 9 to 14) (size 15 to 20)
#    0.000    2.200    0.000    5.400    0.000    4.000 
#    0.000    1.000    0.000   15.000    0.000    0.000 
#    0.000    0.000    0.000    0.000    0.000    0.000 
#
# Total GULP energy -223269.826215 kJ/mol
# GULP energy per Si atom -5581.745655 kJ/mol
# Density = 1.754617 g / cm^3
# Si number density = 17.586200 Si / 1000 Ang^3
#
#
#
# Elastic Constant Matrix: (Units=GPa)
#
#
# Indices 1 2 3 4 5 6 
#
# 1 45.8245 27.9928 41.9444 0.0000 0.0000 0.0000
# 2 27.9928 111.0333 101.3116 0.0000 0.0000 0.0000
# 3 41.9444 101.3116 178.2030 0.0000 0.0000 0.0000
# 4 0.0000 0.0000 0.0000 19.9339 0.0000 0.0000
# 5 0.0000 0.0000 0.0000 0.0000 32.0481 0.0000
# 6 0.0000 0.0000 0.0000 0.0000 0.0000 6.4410
#
#
#
# Elastic Compliance Matrix: (Units=1/GPa)
#
#
# Indices 1 2 3 4 5 6 
#
# 1 0.028066 -0.002178 -0.005368 0.000000 0.000000 0.000000
# 2 -0.002178 0.018883 -0.010223 0.000000 0.000000 0.000000
# 3 -0.005368 -0.010223 0.012687 0.000000 0.000000 0.000000
# 4 0.000000 0.000000 0.000000 0.050166 0.000000 0.000000
# 5 0.000000 0.000000 0.000000 0.000000 0.031203 0.000000
# 6 0.000000 0.000000 0.000000 0.000000 0.000000 0.155256
#
#
# Mechanical properties :
#
#
# Convention : Reuss Voigt Hill
#
# Bulk Modulus (GPa) = 41.49549 75.28428 58.38988
# Shear Modulus (GPa) = 14.71321 22.60540 18.65930
#
# Velocity S-wave (km/s) = 2.89560 3.58914 3.26086
# Velocity P-wave (km/s) = 5.90136 7.75097 6.88853
#
# Compressibility (1/GPa) = 0.02409901
#
# Stress axis : x y z
#
# Youngs Moduli (GPa) = 35.63009 52.95758 78.82190
#
# Poissons Ratio (x) = 0.11534 0.42310
# Poissons Ratio (y) = 0.07760 0.80577
# Poissons Ratio (z) = 0.19126 0.54137
#
# Static dielectric constant tensor:
#      x y z
#    x 1.594320 0.000000 0.000000 
#    y 0.000000 1.582540 0.000000 
#    z 0.000000 0.000000 1.591440 
# 
# From -- ./inp_files/19847.got.cif
#   From: 2010.05.17/outbox.cif.g08.bks.cpg/sg53_10_cif.got.tgz:19847.got - 2010.06.03 12:45:16.
