data_PCOD9415381
_publ_section_title
;
Structure prediction by ZEFSAII (Michael W. Deem and Ramdas Pophale) SiO2 
 PCOD9415381
Probable space group: P M N A
;
_chemical_formula_sum "Si O2"
_cell_formula_units_Z 64
_cell_length_a 9.159431
_cell_length_b 23.640352
_cell_length_c 17.523283
_cell_angle_alpha 90.000000
_cell_angle_beta 90.000000
_cell_angle_gamma 90.000000
_cell_volume 3794.354545
_symmetry_space_group_name_H-M "P M N A"
_symmetry_group_IT_number 53
_symmetry_cell_setting 'orthorhombic'
loop_
_space_group_symop_operation_xyz
x,y,z
1/2-x,-y,1/2+z
x,-y,-z
1/2-x,y,1/2-z
-x,-y,-z
1/2+x,y,1/2-z
-x,y,z
1/2+x,-y,1/2+z
loop_
_atom_site_type_symbol
_atom_site_label
_atom_site_fract_x
_atom_site_fract_y
_atom_site_fract_z
Si Si1 0.332465 0.830259 0.443057
Si Si2 0.174647 0.563892 0.474023
Si Si3 0.825344 0.934699 0.511181
Si Si4 0.667562 0.725956 0.114181
Si Si5 0.327337 0.118705 0.175137
Si Si6 0.834293 0.775632 0.886388
Si Si7 0.825220 0.383008 0.827669
Si Si8 0.165823 0.673761 0.557525
O O1 0.500000 0.834831 0.417496
O O2 0.258216 0.890909 0.456562
O O3 0.238930 0.787794 0.390819
O O4 0.334626 0.800939 0.527228
O O5 0.200286 0.500000 0.500000
O O6 0.265197 0.581333 0.399500
O O7 0.210429 0.609365 0.540417
O O8 0.000000 0.571048 0.458292
O O9 0.794253 0.916118 0.598264
O O10 0.000000 0.928388 0.499255
O O11 0.785791 0.000000 0.500000
O O12 0.500000 0.726609 0.141891
O O13 0.766521 0.680922 0.158493
O O14 0.663363 0.702043 0.027127
O O15 0.250000 0.095021 0.250000
O O16 0.500000 0.120014 0.185642
O O17 0.266435 0.181688 0.160352
O O18 0.770249 0.712757 0.892429
O O19 0.000000 0.776628 0.858070
O O20 0.750000 0.403734 0.750000
O O21 0.000000 0.384224 0.823585
O O22 0.000000 0.675504 0.587004
#
# Coordination Sequence:
#
# PCOD9415381 Si02
#       8
#     8   8   8   8   8   8   8   8
#     4   9  16  26  43  69  96 120 150 192 238 282
#     4   9  18  33  52  74 101 134 172 211 250 295
#     4   9  18  32  49  69  94 128 169 207 243 289
#     4   9  16  28  46  68  94 123 154 190 237 289
#     4  10  19  31  48  69  94 122 154 196 245 295
#     4   9  16  26  42  65  92 119 148 184 229 280
#     4  11  21  33  50  73 101 131 166 208 256 307
#     4   8  14  25  43  67  93 120 150 187 232 278
#
# _framework density 16.867163999999999
#
# number of rings (size 3 to 8) (size 9 to 14) (size 15 to 20)
#    0.000    2.750    0.000    3.375    0.000    7.000 
#    0.000    0.000    0.000    1.500    0.000    7.000 
#    0.000    0.000    0.000    0.000    0.000    0.000 
#
# Total GULP energy -356639.783915 kJ/mol
# GULP energy per Si atom -5572.496624 kJ/mol
# Density = 1.682877 g / cm^3
# Si number density = 16.867164 Si / 1000 Ang^3
#
#
#
# Elastic Constant Matrix: (Units=GPa)
#
#
# Indices 1 2 3 4 5 6 
#
# 1 103.1046 60.8540 39.1963 0.0000 0.0000 0.0000
# 2 60.8540 138.6332 27.1454 0.0000 0.0000 0.0000
# 3 39.1963 27.1454 40.9981 0.0000 0.0000 0.0000
# 4 0.0000 0.0000 0.0000 8.6502 0.0000 0.0000
# 5 0.0000 0.0000 0.0000 0.0000 18.6635 0.0000
# 6 0.0000 0.0000 0.0000 0.0000 0.0000 21.7871
#
#
#
# Elastic Compliance Matrix: (Units=1/GPa)
#
#
# Indices 1 2 3 4 5 6 
#
# 1 0.018007 -0.005209 -0.013767 0.000000 0.000000 0.000000
# 2 -0.005209 0.009794 -0.001505 0.000000 0.000000 0.000000
# 3 -0.013767 -0.001505 0.038550 0.000000 0.000000 0.000000
# 4 0.000000 0.000000 0.000000 0.115604 0.000000 0.000000
# 5 0.000000 0.000000 0.000000 0.000000 0.053580 0.000000
# 6 0.000000 0.000000 0.000000 0.000000 0.000000 0.045899
#
#
# Mechanical properties :
#
#
# Convention : Reuss Voigt Hill
#
# Bulk Modulus (GPa) = 39.38612 59.68081 49.53346
# Shear Modulus (GPa) = 15.11224 20.18952 17.65088
#
# Velocity S-wave (km/s) = 2.99650 3.46348 3.23842
# Velocity P-wave (km/s) = 5.94756 7.17314 6.58891
#
# Compressibility (1/GPa) = 0.02538966
#
# Stress axis : x y z
#
# Youngs Moduli (GPa) = 55.53542 102.09967 25.94060
#
# Poissons Ratio (x) = 0.53179 0.35711
# Poissons Ratio (y) = 0.28926 0.03905
# Poissons Ratio (z) = 0.76453 0.15370
#
# Static dielectric constant tensor:
#      x y z
#    x 1.568190 0.000000 0.000000 
#    y 0.000000 1.565180 0.000000 
#    z 0.000000 0.000000 1.578920 
# 
# From -- ./inp_files/27080.got.cif
#   From: 2010.05.17/outbox.cif.g08.bks.cpg/sg53_14_cif.got.tgz:27080.got - 2010.06.03 12:45:16.
