data_PCOD9415018
_publ_section_title
;
Structure prediction by ZEFSAII (Michael W. Deem and Ramdas Pophale) SiO2 
 PCOD9415018
Probable space group: P M N A
;
_chemical_formula_sum "Si O2"
_cell_formula_units_Z 56
_cell_length_a 14.591384
_cell_length_b 9.314853
_cell_length_c 20.382071
_cell_angle_alpha 90.000000
_cell_angle_beta 90.000000
_cell_angle_gamma 90.000000
_cell_volume 2770.261731
_symmetry_space_group_name_H-M "P M N A"
_symmetry_group_IT_number 53
_symmetry_cell_setting 'orthorhombic'
loop_
_space_group_symop_operation_xyz
x,y,z
1/2-x,-y,1/2+z
x,-y,-z
1/2-x,y,1/2-z
-x,-y,-z
1/2+x,y,1/2-z
-x,y,z
1/2+x,-y,1/2+z
loop_
_atom_site_type_symbol
_atom_site_label
_atom_site_fract_x
_atom_site_fract_y
_atom_site_fract_z
Si Si1 0.796015 0.051466 0.653093
Si Si2 0.646608 0.308636 0.759111
Si Si3 0.601913 0.189954 0.627730
Si Si4 0.393798 0.169501 0.482546
Si Si5 0.781908 0.237883 0.401848
Si Si6 0.392870 0.791336 0.033844
Si Si7 0.898596 0.508778 0.382783
O O1 0.841938 0.147200 0.710155
O O2 0.688915 0.092052 0.645353
O O3 0.844419 0.108945 0.587304
O O4 0.801208 0.880627 0.653940
O O5 0.750000 0.361838 0.750000
O O6 0.602429 0.301536 0.687698
O O7 0.600925 0.403862 0.814686
O O8 0.500000 0.121781 0.626063
O O9 0.618677 0.245401 0.553787
O O10 0.500000 0.185265 0.462861
O O11 0.321497 0.223745 0.429246
O O12 0.377684 0.000000 0.500000
O O13 0.843175 0.197152 0.465046
O O14 0.818192 0.393397 0.382230
O O15 0.500000 0.824889 0.029679
O O16 0.383821 0.628815 0.061407
O O17 0.000000 0.442686 0.393329
#
# Coordination Sequence:
#
# PCOD9415018 Si02
#       7
#     8   8   8   8   8   8   8
#     4  10  20  34  55  88 115 146 191 248 294 346
#     4   9  20  39  61  83 110 152 207 242 285 344
#     4  10  18  34  61  88 114 150 196 246 288 341
#     4  10  19  33  58  92 125 155 191 241 304 359
#     4  12  20  33  56  87 124 148 187 241 305 348
#     4  10  20  35  53  78 114 158 198 230 281 354
#     4  10  22  38  57  82 116 160 200 237 290 354
#
# _framework density 20.214696
#
# number of rings (size 3 to 8) (size 9 to 14) (size 15 to 20)
#    0.000    1.857    2.857    1.714    0.000    3.429 
#    0.000    2.143    0.000   10.286    0.000    0.000 
#    0.000    0.000    0.000    0.000    0.000    0.000 
#
# Total GULP energy -312430.854091 kJ/mol
# GULP energy per Si atom -5579.122394 kJ/mol
# Density = 2.016869 g / cm^3
# Si number density = 20.214696 Si / 1000 Ang^3
#
#
#
# Elastic Constant Matrix: (Units=GPa)
#
#
# Indices 1 2 3 4 5 6 
#
# 1 116.8824 41.8286 14.1479 0.0000 0.0000 0.0000
# 2 41.8286 68.8531 15.8889 0.0000 0.0000 0.0000
# 3 14.1479 15.8889 63.0416 0.0000 0.0000 0.0000
# 4 0.0000 0.0000 0.0000 5.3543 0.0000 0.0000
# 5 0.0000 0.0000 0.0000 0.0000 0.8021 0.0000
# 6 0.0000 0.0000 0.0000 0.0000 0.0000 7.7017
#
#
#
# Elastic Compliance Matrix: (Units=1/GPa)
#
#
# Indices 1 2 3 4 5 6 
#
# 1 0.010973 -0.006475 -0.000831 0.000000 0.000000 0.000000
# 2 -0.006475 0.019241 -0.003396 0.000000 0.000000 0.000000
# 3 -0.000831 -0.003396 0.016905 0.000000 0.000000 0.000000
# 4 0.000000 0.000000 0.000000 0.186767 0.000000 0.000000
# 5 0.000000 0.000000 0.000000 0.000000 1.246662 0.000000
# 6 0.000000 0.000000 0.000000 0.000000 0.000000 0.129842
#
#
# Mechanical properties :
#
#
# Convention : Reuss Voigt Hill
#
# Bulk Modulus (GPa) = 38.88704 43.61201 41.24953
# Shear Modulus (GPa) = 3.04810 14.56572 8.80691
#
# Velocity S-wave (km/s) = 1.22928 2.68722 2.08953
# Velocity P-wave (km/s) = 4.61450 5.59012 5.12558
#
# Compressibility (1/GPa) = 0.02571551
#
# Stress axis : x y z
#
# Youngs Moduli (GPa) = 91.13095 51.97295 59.15410
#
# Poissons Ratio (x) = 0.33650 0.04914
# Poissons Ratio (y) = 0.59003 0.20091
# Poissons Ratio (z) = 0.07571 0.17652
#
# Static dielectric constant tensor:
#      x y z
#    x 1.734370 0.000000 0.000000 
#    y 0.000000 1.738210 0.000000 
#    z 0.000000 0.000000 1.742920 
# 
# From -- ./inp_files/32490.got.cif
#   From: 2010.05.17/outbox.cif.g08.bks.cpg/sg53_17_cif.got.tgz:32490.got - 2010.06.03 12:45:16.
