data_PCOD9415593
_publ_section_title
;
Structure prediction by ZEFSAII (Michael W. Deem and Ramdas Pophale) SiO2 
 PCOD9415593
Probable space group: P M N A
;
_chemical_formula_sum "Si O2"
_cell_formula_units_Z 48
_cell_length_a 8.607584
_cell_length_b 15.170845
_cell_length_c 21.158151
_cell_angle_alpha 90.000000
_cell_angle_beta 90.000000
_cell_angle_gamma 90.000000
_cell_volume 2762.922818
_symmetry_space_group_name_H-M "P M N A"
_symmetry_group_IT_number 53
_symmetry_cell_setting 'orthorhombic'
loop_
_space_group_symop_operation_xyz
x,y,z
1/2-x,-y,1/2+z
x,-y,-z
1/2-x,y,1/2-z
-x,-y,-z
1/2+x,y,1/2-z
-x,y,z
1/2+x,-y,1/2+z
loop_
_atom_site_type_symbol
_atom_site_label
_atom_site_fract_x
_atom_site_fract_y
_atom_site_fract_z
Si Si1 0.813609 0.424635 0.952171
Si Si2 0.817769 0.000470 0.815935
Si Si3 0.314658 0.614711 0.183530
Si Si4 0.315581 0.223192 0.522025
Si Si5 0.316917 0.815884 0.155342
Si Si6 0.814457 0.071781 0.446358
O O1 0.746288 0.428413 0.881252
O O2 0.780604 0.327315 0.980331
O O3 0.000000 0.432377 0.946768
O O4 0.757236 0.500000 0.000000
O O5 0.750000 0.965631 0.750000
O O6 0.783839 0.105242 0.817416
O O7 0.000000 0.984230 0.819873
O O8 0.734205 0.961976 0.877613
O O9 0.250000 0.579743 0.250000
O O10 0.500000 0.610313 0.184038
O O11 0.270287 0.718625 0.178552
O O12 0.500000 0.213520 0.534886
O O13 0.216263 0.186012 0.580538
O O14 0.267648 0.163938 0.462987
O O15 0.500000 0.830621 0.167528
O O16 0.000000 0.081323 0.449755
O O17 0.767097 0.000000 0.500000
#
# Coordination Sequence:
#
# PCOD9415593 Si02
#       6
#     8   8   8   8   8   8
#     4   9  19  36  57  81 110 141 175 219 271 323
#     4  12  24  36  52  74 105 142 183 225 270 319
#     4  10  20  32  50  76 108 142 176 215 263 321
#     4  10  19  32  54  81 106 138 179 220 265 315
#     4  10  19  32  49  74 107 141 176 214 261 315
#     4  11  22  36  55  77 107 143 182 222 262 312
#
# _framework density 17.372906
#
# number of rings (size 3 to 8) (size 9 to 14) (size 15 to 20)
#    0.000    1.667    1.667    4.000    0.000    5.000 
#    0.000    0.000    0.000    1.000    0.000    4.667 
#    0.000    0.000    0.000    0.000    0.000    0.000 
#
# Total GULP energy -267983.505768 kJ/mol
# GULP energy per Si atom -5582.989703 kJ/mol
# Density = 1.733336 g / cm^3
# Si number density = 17.372906 Si / 1000 Ang^3
#
#
#
# Elastic Constant Matrix: (Units=GPa)
#
#
# Indices 1 2 3 4 5 6 
#
# 1 36.0068 19.6851 20.6035 0.0000 0.0000 0.0000
# 2 19.6851 62.2749 53.1584 0.0000 0.0000 0.0000
# 3 20.6035 53.1584 135.9334 0.0000 0.0000 0.0000
# 4 0.0000 0.0000 0.0000 18.4170 0.0000 0.0000
# 5 0.0000 0.0000 0.0000 0.0000 26.9361 0.0000
# 6 0.0000 0.0000 0.0000 0.0000 0.0000 18.4430
#
#
#
# Elastic Compliance Matrix: (Units=1/GPa)
#
#
# Indices 1 2 3 4 5 6 
#
# 1 0.033755 -0.009461 -0.001417 0.000000 0.000000 0.000000
# 2 -0.009461 0.026756 -0.009029 0.000000 0.000000 0.000000
# 3 -0.001417 -0.009029 0.011102 0.000000 0.000000 0.000000
# 4 0.000000 0.000000 0.000000 0.054298 0.000000 0.000000
# 5 0.000000 0.000000 0.000000 0.000000 0.037125 0.000000
# 6 0.000000 0.000000 0.000000 0.000000 0.000000 0.054221
#
#
# Mechanical properties :
#
#
# Convention : Reuss Voigt Hill
#
# Bulk Modulus (GPa) = 31.44637 46.78990 39.11813
# Shear Modulus (GPa) = 18.67969 22.14376 20.41173
#
# Velocity S-wave (km/s) = 3.28261 3.57405 3.43143
# Velocity P-wave (km/s) = 5.70153 6.63498 6.18589
#
# Compressibility (1/GPa) = 0.03180018
#
# Stress axis : x y z
#
# Youngs Moduli (GPa) = 29.62491 37.37507 90.07211
#
# Poissons Ratio (x) = 0.35360 0.12759
# Poissons Ratio (y) = 0.28028 0.81328
# Poissons Ratio (z) = 0.04196 0.33747
#
# Static dielectric constant tensor:
#      x y z
#    x 1.576370 0.000000 0.000000 
#    y 0.000000 1.593530 0.000000 
#    z 0.000000 0.000000 1.620740 
# 
# From -- ./inp_files/26422.got.cif
#   From: 2010.05.17/outbox.cif.g08.bks.cpg/sg53_14_cif.got.tgz:26422.got - 2010.06.03 12:45:16.
