data_PCOD9415357
_publ_section_title
;
Structure prediction by ZEFSAII (Michael W. Deem and Ramdas Pophale) SiO2 
 PCOD9415357
Probable space group: P M N A
;
_chemical_formula_sum "Si O2"
_cell_formula_units_Z 64
_cell_length_a 7.701497
_cell_length_b 14.548811
_cell_length_c 30.642395
_cell_angle_alpha 90.000000
_cell_angle_beta 90.000000
_cell_angle_gamma 90.000000
_cell_volume 3433.407562
_symmetry_space_group_name_H-M "P M N A"
_symmetry_group_IT_number 53
_symmetry_cell_setting 'orthorhombic'
loop_
_space_group_symop_operation_xyz
x,y,z
1/2-x,-y,1/2+z
x,-y,-z
1/2-x,y,1/2-z
-x,-y,-z
1/2+x,y,1/2-z
-x,y,z
1/2+x,-y,1/2+z
loop_
_atom_site_type_symbol
_atom_site_label
_atom_site_fract_x
_atom_site_fract_y
_atom_site_fract_z
Si Si1 0.700865 0.303400 0.569087
Si Si2 0.798993 0.139211 0.622861
Si Si3 0.712136 0.804555 0.516392
Si Si4 0.702340 0.502932 0.950579
Si Si5 0.212479 0.848275 0.643005
Si Si6 0.201063 0.676584 0.597700
Si Si7 0.799601 0.021372 0.061860
Si Si8 0.292031 0.989662 0.200216
O O1 0.500000 0.323255 0.560542
O O2 0.715171 0.235537 0.609976
O O3 0.767527 0.243911 0.528063
O O4 0.789430 0.402053 0.569998
O O5 0.724826 0.084010 0.664567
O O6 0.000000 0.157969 0.631095
O O7 0.786068 0.069279 0.581662
O O8 0.500000 0.804089 0.518902
O O9 0.786205 0.741886 0.555086
O O10 0.765371 0.911015 0.523371
O O11 0.500000 0.529734 0.956213
O O12 0.780458 0.580691 0.918784
O O13 0.777045 0.500000 0.000000
O O14 0.272297 0.743484 0.635731
O O15 0.285846 0.908177 0.602879
O O16 0.000000 0.849085 0.639448
O O17 0.263378 0.907804 0.685153
O O18 0.000000 0.659321 0.609342
O O19 0.000000 0.996948 0.053266
O O20 0.250000 0.969576 0.250000
O O21 0.500000 0.988224 0.195570
#
# Coordination Sequence:
#
# PCOD9415357 Si02
#       8
#     8   8   8   8   8   8   8   8
#     4  11  22  33  46  65  92 128 166 206 245 280
#     4  10  21  36  49  66  94 124 156 195 235 284
#     4   9  18  29  42  63  91 123 160 200 240 277
#     4  10  19  31  47  69  93 124 169 214 248 279
#     4   8  15  28  45  69  97 124 153 186 226 277
#     4   9  16  28  47  66  91 126 162 199 238 279
#     4   9  16  28  45  64  89 122 158 194 232 276
#     4   9  18  32  52  76  99 121 147 182 229 286
#
# _framework density 18.640374000000001
#
# number of rings (size 3 to 8) (size 9 to 14) (size 15 to 20)
#    0.000    2.625    1.250    1.875    0.000    4.750 
#    0.000    2.500    0.000    0.000    0.000    0.875 
#    0.000    2.000    0.000    0.000    0.000    0.000 
#
# Total GULP energy -356531.531349 kJ/mol
# GULP energy per Si atom -5570.805177 kJ/mol
# Density = 1.859795 g / cm^3
# Si number density = 18.640374 Si / 1000 Ang^3
#
#
#
# Elastic Constant Matrix: (Units=GPa)
#
#
# Indices 1 2 3 4 5 6 
#
# 1 29.9886 -3.6921 -4.2459 0.0000 0.0000 0.0000
# 2 -3.6921 122.4158 34.3852 0.0000 0.0000 0.0000
# 3 -4.2459 34.3852 68.0932 0.0000 0.0000 0.0000
# 4 0.0000 0.0000 0.0000 19.3124 0.0000 0.0000
# 5 0.0000 0.0000 0.0000 0.0000 18.1537 0.0000
# 6 0.0000 0.0000 0.0000 0.0000 0.0000 56.4455
#
#
#
# Elastic Compliance Matrix: (Units=1/GPa)
#
#
# Indices 1 2 3 4 5 6 
#
# 1 0.033669 0.000496 0.001849 0.000000 0.000000 0.000000
# 2 0.000496 0.009526 -0.004780 0.000000 0.000000 0.000000
# 3 0.001849 -0.004780 0.017215 0.000000 0.000000 0.000000
# 4 0.000000 0.000000 0.000000 0.051780 0.000000 0.000000
# 5 0.000000 0.000000 0.000000 0.000000 0.055085 0.000000
# 6 0.000000 0.000000 0.000000 0.000000 0.000000 0.017716
#
#
# Mechanical properties :
#
#
# Convention : Reuss Voigt Hill
#
# Bulk Modulus (GPa) = 18.00484 30.37687 24.19086
# Shear Modulus (GPa) = 23.99530 31.71902 27.85716
#
# Velocity S-wave (km/s) = 3.59175 4.12956 3.87001
# Velocity P-wave (km/s) = 5.18469 6.25054 5.74240
#
# Compressibility (1/GPa) = 0.05554061
#
# Stress axis : x y z
#
# Youngs Moduli (GPa) = 29.70105 104.97156 58.09012
#
# Poissons Ratio (x) = -0.05208 -0.10740
# Poissons Ratio (y) = -0.01474 0.27765
# Poissons Ratio (z) = -0.05491 0.50173
#
# Static dielectric constant tensor:
#      x y z
#    x 1.757730 0.000000 0.000000 
#    y 0.000000 1.684700 0.000000 
#    z 0.000000 0.000000 1.665310 
# 
# From -- ./inp_files/38492.got.cif
#   From: 2010.05.17/outbox.cif.g08.bks.cpg/sg53_20_cif.got.tgz:38492.got - 2010.06.03 12:45:16.
