data_PCOD9415344
_publ_section_title
;
Structure prediction by ZEFSAII (Michael W. Deem and Ramdas Pophale) SiO2 
 PCOD9415344
Probable space group: P M N A
;
_chemical_formula_sum "Si O2"
_cell_formula_units_Z 48
_cell_length_a 10.002665
_cell_length_b 10.357618
_cell_length_c 29.887669
_cell_angle_alpha 90.000000
_cell_angle_beta 90.000000
_cell_angle_gamma 90.000000
_cell_volume 3096.475575
_symmetry_space_group_name_H-M "P M N A"
_symmetry_group_IT_number 53
_symmetry_cell_setting 'orthorhombic'
loop_
_space_group_symop_operation_xyz
x,y,z
1/2-x,-y,1/2+z
x,-y,-z
1/2-x,y,1/2-z
-x,-y,-z
1/2+x,y,1/2-z
-x,y,z
1/2+x,-y,1/2+z
loop_
_atom_site_type_symbol
_atom_site_label
_atom_site_fract_x
_atom_site_fract_y
_atom_site_fract_z
Si Si1 0.342228 0.129294 0.471732
Si Si2 0.659587 0.213775 0.108297
Si Si3 0.845118 0.622085 0.032986
Si Si4 0.346748 0.208444 0.210427
Si Si5 0.347265 0.477283 0.788966
Si Si6 0.341021 0.522712 0.109438
O O1 0.500000 0.133553 0.459141
O O2 0.248633 0.143062 0.428518
O O3 0.316167 0.250691 0.504236
O O4 0.318500 0.000000 0.500000
O O5 0.500000 0.194043 0.101851
O O6 0.692226 0.174210 0.159499
O O7 0.683944 0.368525 0.104283
O O8 0.746116 0.599771 0.073994
O O9 0.000000 0.627544 0.048036
O O10 0.831722 0.500000 0.000000
O O11 0.250000 0.163361 0.250000
O O12 0.500000 0.167599 0.217997
O O13 0.346368 0.365595 0.211362
O O14 0.250000 0.431614 0.750000
O O15 0.500000 0.436888 0.780984
O O16 0.308013 0.440482 0.839386
O O17 0.500000 0.541967 0.102986
#
# Coordination Sequence:
#
# PCOD9415344 Si02
#       6
#     8   8   8   8   8   8
#     4  10  21  35  48  65  92 123 154 192 235 274
#     4   9  17  29  45  66  93 122 153 188 226 270
#     4  10  19  31  47  68  90 116 155 192 222 267
#     4   8  14  24  38  60  89 118 147 181 220 265
#     4   8  14  24  37  58  89 120 148 178 219 269
#     4   9  17  28  44  67  93 121 152 188 229 270
#
# _framework density 15.501493999999999
#
# number of rings (size 3 to 8) (size 9 to 14) (size 15 to 20)
#    0.000    3.000    1.667    2.000    0.000    2.667 
#    0.000    3.333    0.000    0.000    0.000    1.167 
#    0.000    0.000    0.000    0.000    0.000    0.000 
#
# Total GULP energy -267275.862450 kJ/mol
# GULP energy per Si atom -5568.247134 kJ/mol
# Density = 1.546621 g / cm^3
# Si number density = 15.501494 Si / 1000 Ang^3
#
#
#
# Elastic Constant Matrix: (Units=GPa)
#
#
# Indices 1 2 3 4 5 6 
#
# 1 79.3673 28.6909 102.1658 0.0000 0.0000 0.0000
# 2 28.6909 52.0866 38.8459 0.0000 0.0000 0.0000
# 3 102.1658 38.8459 156.1645 0.0000 0.0000 0.0000
# 4 0.0000 0.0000 0.0000 9.8008 0.0000 0.0000
# 5 0.0000 0.0000 0.0000 0.0000 38.7712 0.0000
# 6 0.0000 0.0000 0.0000 0.0000 0.0000 11.8542
#
#
#
# Elastic Compliance Matrix: (Units=1/GPa)
#
#
# Indices 1 2 3 4 5 6 
#
# 1 0.081464 -0.006293 -0.051730 0.000000 0.000000 0.000000
# 2 -0.006293 0.024058 -0.001867 0.000000 0.000000 0.000000
# 3 -0.051730 -0.001867 0.040711 0.000000 0.000000 0.000000
# 4 0.000000 0.000000 0.000000 0.102032 0.000000 0.000000
# 5 0.000000 0.000000 0.000000 0.000000 0.025792 0.000000
# 6 0.000000 0.000000 0.000000 0.000000 0.000000 0.084359
#
#
# Mechanical properties :
#
#
# Convention : Reuss Voigt Hill
#
# Bulk Modulus (GPa) = 37.80428 69.66928 53.73678
# Shear Modulus (GPa) = 10.26663 19.94630 15.10646
#
# Velocity S-wave (km/s) = 2.57631 3.59100 3.12511
# Velocity P-wave (km/s) = 5.76977 7.88891 6.91105
#
# Compressibility (1/GPa) = 0.02645203
#
# Stress axis : x y z
#
# Youngs Moduli (GPa) = 12.27529 41.56651 24.56342
#
# Poissons Ratio (x) = 0.26158 1.27067
# Poissons Ratio (y) = 0.07725 0.04587
# Poissons Ratio (z) = 0.63500 0.07762
#
# Static dielectric constant tensor:
#      x y z
#    x 1.516150 0.000000 0.000000 
#    y 0.000000 1.494550 0.000000 
#    z 0.000000 0.000000 1.511490 
# 
# From -- ./inp_files/34902.got.cif
#   From: 2010.05.17/outbox.cif.g08.bks.cpg/sg53_18_cif.got.tgz:34902.got - 2010.06.03 12:45:16.
