data_PCOD9415390
_publ_section_title
;
Structure prediction by ZEFSAII (Michael W. Deem and Ramdas Pophale) SiO2 
 PCOD9415390
Probable space group: P M N A
;
_chemical_formula_sum "Si O2"
_cell_formula_units_Z 48
_cell_length_a 20.582945
_cell_length_b 5.591186
_cell_length_c 16.137066
_cell_angle_alpha 90.000000
_cell_angle_beta 90.000000
_cell_angle_gamma 90.000000
_cell_volume 1857.103159
_symmetry_space_group_name_H-M "P M N A"
_symmetry_group_IT_number 53
_symmetry_cell_setting 'orthorhombic'
loop_
_space_group_symop_operation_xyz
x,y,z
1/2-x,-y,1/2+z
x,-y,-z
1/2-x,y,1/2-z
-x,-y,-z
1/2+x,y,1/2-z
-x,y,z
1/2+x,-y,1/2+z
loop_
_atom_site_type_symbol
_atom_site_label
_atom_site_fract_x
_atom_site_fract_y
_atom_site_fract_z
Si Si1 0.898677 0.583728 0.093924
Si Si2 0.751537 0.376333 0.649886
Si Si3 0.747802 0.124922 0.148963
Si Si4 0.578453 0.092878 0.831951
Si Si5 0.897128 0.084109 0.149958
Si Si6 0.420773 0.409873 0.090110
O O1 0.823612 0.616552 0.121743
O O2 0.925550 0.352171 0.143693
O O3 0.926471 0.851866 0.104374
O O4 0.903025 0.500000 0.000000
O O5 0.750000 0.374638 0.750000
O O6 0.781452 0.625214 0.620584
O O7 0.780900 0.126323 0.621621
O O8 0.750000 0.129952 0.250000
O O9 0.822803 0.119087 0.120004
O O10 0.500000 0.096565 0.826900
O O11 0.597736 0.368842 0.848798
O O12 0.604880 0.003275 0.744121
O O13 0.594845 0.867756 0.891342
O O14 0.500000 0.411890 0.091066
O O15 0.400342 0.500000 0.000000
#
# Coordination Sequence:
#
# PCOD9415390 Si02
#       6
#     8   8   8   8   8   8
#     4  10  19  31  48  70  95 124 164 210 246 282
#     4   8  14  25  42  65  89 111 142 188 238 283
#     4   8  14  25  42  65  86 110 146 188 225 268
#     4  10  19  31  49  73  99 127 160 199 241 289
#     4  10  19  31  48  71  95 125 162 203 244 289
#     4   9  17  30  49  74 101 128 160 196 234 279
#
# _framework density 25.846706000000001
#
# number of rings (size 3 to 8) (size 9 to 14) (size 15 to 20)
#    0.000    2.833    0.000    2.000    0.000    2.000 
#    0.000    0.000    0.000    3.000    0.000  112.000 
#    0.000    0.000    0.000    0.000    0.000    0.000 
#
# Total GULP energy -268039.426179 kJ/mol
# GULP energy per Si atom -5584.154712 kJ/mol
# Density = 2.578788 g / cm^3
# Si number density = 25.846706 Si / 1000 Ang^3
#
#
#
# Elastic Constant Matrix: (Units=GPa)
#
#
# Indices 1 2 3 4 5 6 
#
# 1 92.9094 35.9660 -14.0775 0.0000 0.0000 0.0000
# 2 35.9660 307.8159 26.8987 0.0000 0.0000 0.0000
# 3 -14.0775 26.8987 64.6740 0.0000 0.0000 0.0000
# 4 0.0000 0.0000 0.0000 44.1666 0.0000 0.0000
# 5 0.0000 0.0000 0.0000 0.0000 -2.6662 0.0000
# 6 0.0000 0.0000 0.0000 0.0000 0.0000 9.6290
#
#
#
# Elastic Compliance Matrix: (Units=1/GPa)
#
#
# Indices 1 2 3 4 5 6 
#
# 1 0.011912 -0.001679 0.003291 0.000000 0.000000 0.000000
# 2 -0.001679 0.003608 -0.001866 0.000000 0.000000 0.000000
# 3 0.003291 -0.001866 0.016955 0.000000 0.000000 0.000000
# 4 0.000000 0.000000 0.000000 0.022642 0.000000 0.000000
# 5 0.000000 0.000000 0.000000 0.000000 -0.375072 0.000000
# 6 0.000000 0.000000 0.000000 0.000000 0.000000 0.103853
#
#
# Mechanical properties :
#
#
# Convention : Reuss Voigt Hill
#
# Bulk Modulus (GPa) = 31.28300 62.55264 46.91782
# Shear Modulus (GPa) = -24.39752 38.00002 6.80125
#
# Velocity S-wave (km/s) = -3.07568 3.83849 1.62391
# Velocity P-wave (km/s) = 0.69536 6.62565 4.65917
#
# Compressibility (1/GPa) = 0.03196625
#
# Stress axis : x y z
#
# Youngs Moduli (GPa) = 83.94890 277.16162 58.98054
#
# Poissons Ratio (x) = 0.46548 -0.19413
# Poissons Ratio (y) = 0.14099 0.11007
# Poissons Ratio (z) = -0.27631 0.51723
#
# Static dielectric constant tensor:
#      x y z
#    x -0.013550 0.000000 0.000000 
#    y 0.000000 2.125370 0.000000 
#    z 0.000000 0.000000 1.965920 
# 
# From -- ./inp_files/24898.got.cif
#   From: 2010.05.17/outbox.cif.g08.bks.cpg/sg53_13_cif.got.tgz:24898.got - 2010.06.03 12:45:16.
