data_PCOD9415141
_publ_section_title
;
Structure prediction by ZEFSAII (Michael W. Deem and Ramdas Pophale) SiO2 
 PCOD9415141
Probable space group: P M N A
;
_chemical_formula_sum "Si O2"
_cell_formula_units_Z 64
_cell_length_a 28.989457
_cell_length_b 5.599658
_cell_length_c 17.124262
_cell_angle_alpha 90.000000
_cell_angle_beta 90.000000
_cell_angle_gamma 90.000000
_cell_volume 2779.799342
_symmetry_space_group_name_H-M "P M N A"
_symmetry_group_IT_number 53
_symmetry_cell_setting 'orthorhombic'
loop_
_space_group_symop_operation_xyz
x,y,z
1/2-x,-y,1/2+z
x,-y,-z
1/2-x,y,1/2-z
-x,-y,-z
1/2+x,y,1/2-z
-x,y,z
1/2+x,-y,1/2+z
loop_
_atom_site_type_symbol
_atom_site_label
_atom_site_fract_x
_atom_site_fract_y
_atom_site_fract_z
Si Si1 0.674823 0.250680 0.459004
Si Si2 0.713230 0.741898 0.177892
Si Si3 0.086219 0.314676 0.202647
Si Si4 0.944582 0.653014 0.616246
Si Si5 0.246491 0.758463 0.656452
Si Si6 0.115742 0.187399 0.759887
Si Si7 0.055573 0.153519 0.611533
Si Si8 0.063619 0.749226 0.959127
O O1 0.688414 0.500000 0.500000
O O2 0.702818 0.254931 0.378955
O O3 0.619541 0.251010 0.457068
O O4 0.687987 0.000000 0.500000
O O5 0.750000 0.736344 0.250000
O O6 0.719909 0.486946 0.135917
O O7 0.661999 0.762265 0.212056
O O8 0.723740 0.988673 0.132864
O O9 0.066977 0.338184 0.291041
O O10 0.108101 0.578112 0.187085
O O11 0.051307 0.263436 0.132365
O O12 0.117821 0.075862 0.203449
O O13 0.927215 0.406113 0.581016
O O14 0.000000 0.651878 0.608000
O O15 0.927125 0.900399 0.581250
O O16 0.250000 0.764597 0.750000
O O17 0.072085 0.165051 0.701606
O O18 0.000000 0.151317 0.605878
O O19 0.049934 0.500000 0.000000
O O20 0.050249 0.000000 0.000000
#
# Coordination Sequence:
#
# PCOD9415141 Si02
#       8
#     8   8   8   8   8   8   8   8
#     4  10  21  36  53  69  91 125 167 203 240 286
#     4  10  21  30  44  68  96 126 150 192 234 286
#     4  10  19  29  48  61  84 115 144 194 236 285
#     4   8  14  25  40  61  79 102 139 181 231 280
#     4  10  21  35  50  72  96 127 160 202 244 281
#     4  10  19  29  44  69  88 118 153 181 237 285
#     4   8  14  25  40  59  85 110 144 185 217 271
#     4  10  21  33  45  63  82 111 149 196 239 280
#
# _framework density 23.023243000000001
#
# number of rings (size 3 to 8) (size 9 to 14) (size 15 to 20)
#    0.000    2.500    0.000    2.250    7.000    0.000 
#    0.000    0.000    0.000    0.750    0.000    0.000 
#    0.000    0.000    0.000    0.000    0.000   12.500 
#
# Total GULP energy -356668.335753 kJ/mol
# GULP energy per Si atom -5572.942746 kJ/mol
# Density = 2.297084 g / cm^3
# Si number density = 23.023243 Si / 1000 Ang^3
#
#
#
# Elastic Constant Matrix: (Units=GPa)
#
#
# Indices 1 2 3 4 5 6 
#
# 1 60.0714 17.5394 17.3152 0.0000 0.0000 0.0000
# 2 17.5394 278.7049 27.8836 0.0000 0.0000 0.0000
# 3 17.3152 27.8836 65.8803 0.0000 0.0000 0.0000
# 4 0.0000 0.0000 0.0000 29.1969 0.0000 0.0000
# 5 0.0000 0.0000 0.0000 0.0000 23.1020 0.0000
# 6 0.0000 0.0000 0.0000 0.0000 0.0000 9.9458
#
#
#
# Elastic Compliance Matrix: (Units=1/GPa)
#
#
# Indices 1 2 3 4 5 6 
#
# 1 0.018139 -0.000694 -0.004474 0.000000 0.000000 0.000000
# 2 -0.000694 0.003773 -0.001415 0.000000 0.000000 0.000000
# 3 -0.004474 -0.001415 0.016954 0.000000 0.000000 0.000000
# 4 0.000000 0.000000 0.000000 0.034250 0.000000 0.000000
# 5 0.000000 0.000000 0.000000 0.000000 0.043286 0.000000
# 6 0.000000 0.000000 0.000000 0.000000 0.000000 0.100545
#
#
# Mechanical properties :
#
#
# Convention : Reuss Voigt Hill
#
# Bulk Modulus (GPa) = 38.90863 58.90368 48.90616
# Shear Modulus (GPa) = 20.94864 35.24349 28.09606
#
# Velocity S-wave (km/s) = 3.01971 3.91676 3.49712
# Velocity P-wave (km/s) = 5.39394 6.78931 6.13145
#
# Compressibility (1/GPa) = 0.02570124
#
# Stress axis : x y z
#
# Youngs Moduli (GPa) = 55.12988 265.02541 58.98456
#
# Poissons Ratio (x) = 0.18391 0.26388
# Poissons Ratio (y) = 0.03826 0.08344
# Poissons Ratio (z) = 0.24664 0.37491
#
# Static dielectric constant tensor:
#      x y z
#    x 1.809330 0.000000 0.000000 
#    y 0.000000 1.935270 0.000000 
#    z 0.000000 0.000000 1.906300 
# 
# From -- ./inp_files/29811.got.cif
#   From: 2010.05.17/outbox.cif.g08.bks.cpg/sg53_15_cif.got.tgz:29811.got - 2010.06.03 12:45:16.
