data_PCOD9415613
_publ_section_title
;
Structure prediction by ZEFSAII (Michael W. Deem and Ramdas Pophale) SiO2 
 PCOD9415613
Probable space group: P M N A
;
_chemical_formula_sum "Si O2"
_cell_formula_units_Z 64
_cell_length_a 15.187791
_cell_length_b 11.511609
_cell_length_c 19.659250
_cell_angle_alpha 90.000000
_cell_angle_beta 90.000000
_cell_angle_gamma 90.000000
_cell_volume 3437.142894
_symmetry_space_group_name_H-M "P M N A"
_symmetry_group_IT_number 53
_symmetry_cell_setting 'orthorhombic'
loop_
_space_group_symop_operation_xyz
x,y,z
1/2-x,-y,1/2+z
x,-y,-z
1/2-x,y,1/2-z
-x,-y,-z
1/2+x,y,1/2-z
-x,y,z
1/2+x,-y,1/2+z
loop_
_atom_site_type_symbol
_atom_site_label
_atom_site_fract_x
_atom_site_fract_y
_atom_site_fract_z
Si Si1 0.719585 0.829504 0.047696
Si Si2 0.206776 0.918809 0.597186
Si Si3 0.095676 0.168348 0.895071
Si Si4 0.100547 0.477142 0.305054
Si Si5 0.149813 0.781049 0.725736
Si Si6 0.274574 0.440962 0.925978
Si Si7 0.595846 0.088563 0.358565
Si Si8 0.397498 0.579238 0.342017
O O1 0.826181 0.836356 0.050947
O O2 0.702730 0.696948 0.068849
O O3 0.693821 0.941650 0.093402
O O4 0.681651 0.859789 0.973972
O O5 0.157538 0.863265 0.660439
O O6 0.311314 0.889239 0.604511
O O7 0.105977 0.281191 0.848313
O O8 0.000000 0.175757 0.928703
O O9 0.097814 0.051001 0.851588
O O10 0.105714 0.339931 0.292246
O O11 0.162234 0.507382 0.368234
O O12 0.127273 0.536751 0.233376
O O13 0.000000 0.512694 0.318992
O O14 0.250000 0.756336 0.750000
O O15 0.102787 0.845916 0.787414
O O16 0.174877 0.459987 0.897354
O O17 0.283860 0.500000 0.000000
O O18 0.500000 0.117021 0.390471
O O19 0.500000 0.543642 0.354867
#
# Coordination Sequence:
#
# PCOD9415613 Si02
#       8
#     8   8   8   8   8   8   8   8
#     4   9  18  32  50  73 100 133 170 205 251 306
#     4   9  18  32  50  72 100 132 165 205 252 305
#     4   8  15  29  49  75 105 133 164 204 249 301
#     4  11  23  38  56  77 104 141 182 223 267 315
#     4  10  19  32  50  73 100 129 166 212 261 309
#     4  11  22  36  56  81 109 143 181 221 265 313
#     4   9  17  29  48  75 103 130 162 201 248 304
#     4   9  19  36  57  81 110 143 179 219 263 313
#
# _framework density 18.620115999999999
#
# number of rings (size 3 to 8) (size 9 to 14) (size 15 to 20)
#    0.000    2.500    0.000    2.250    0.000    3.000 
#    0.000    6.250    0.000    0.750    0.000    5.250 
#    0.000    0.000    0.000    0.000    0.000    0.000 
#
# Total GULP energy -356408.905136 kJ/mol
# GULP energy per Si atom -5568.889143 kJ/mol
# Density = 1.857774 g / cm^3
# Si number density = 18.620116 Si / 1000 Ang^3
#
#
#
# Elastic Constant Matrix: (Units=GPa)
#
#
# Indices 1 2 3 4 5 6 
#
# 1 30.8706 14.5199 19.7716 0.0000 0.0000 0.0000
# 2 14.5199 70.7978 53.8320 0.0000 0.0000 0.0000
# 3 19.7716 53.8320 102.4368 0.0000 0.0000 0.0000
# 4 0.0000 0.0000 0.0000 19.6194 0.0000 0.0000
# 5 0.0000 0.0000 0.0000 0.0000 13.7674 0.0000
# 6 0.0000 0.0000 0.0000 0.0000 0.0000 17.2245
#
#
#
# Elastic Compliance Matrix: (Units=1/GPa)
#
#
# Indices 1 2 3 4 5 6 
#
# 1 0.037519 -0.003645 -0.005326 0.000000 0.000000 0.000000
# 2 -0.003645 0.023879 -0.011845 0.000000 0.000000 0.000000
# 3 -0.005326 -0.011845 0.017015 0.000000 0.000000 0.000000
# 4 0.000000 0.000000 0.000000 0.050970 0.000000 0.000000
# 5 0.000000 0.000000 0.000000 0.000000 0.072636 0.000000
# 6 0.000000 0.000000 0.000000 0.000000 0.000000 0.058057
#
#
# Mechanical properties :
#
#
# Convention : Reuss Voigt Hill
#
# Bulk Modulus (GPa) = 27.18851 42.26135 34.72493
# Shear Modulus (GPa) = 15.92519 17.85435 16.88977
#
# Velocity S-wave (km/s) = 2.92767 3.09993 3.01503
# Velocity P-wave (km/s) = 5.10507 5.96311 5.55069
#
# Compressibility (1/GPa) = 0.03678024
#
# Stress axis : x y z
#
# Youngs Moduli (GPa) = 26.65323 41.87793 58.77178
#
# Poissons Ratio (x) = 0.15264 0.31303
# Poissons Ratio (y) = 0.09715 0.69616
# Poissons Ratio (z) = 0.14196 0.49605
#
# Static dielectric constant tensor:
#      x y z
#    x 1.671110 0.000000 0.000000 
#    y 0.000000 1.642180 0.000000 
#    z 0.000000 0.000000 1.613920 
# 
# From -- ./inp_files/28539.got.cif
#   From: 2010.05.17/outbox.cif.g08.bks.cpg/sg53_15_cif.got.tgz:28539.got - 2010.06.03 12:45:16.
