data_PCOD9415307
_publ_section_title
;
Structure prediction by ZEFSAII (Michael W. Deem and Ramdas Pophale) SiO2 
 PCOD9415307
Probable space group: P M N A
;
_chemical_formula_sum "Si O2"
_cell_formula_units_Z 64
_cell_length_a 8.811342
_cell_length_b 11.235398
_cell_length_c 34.415129
_cell_angle_alpha 90.000000
_cell_angle_beta 90.000000
_cell_angle_gamma 90.000000
_cell_volume 3407.061094
_symmetry_space_group_name_H-M "P M N A"
_symmetry_group_IT_number 53
_symmetry_cell_setting 'orthorhombic'
loop_
_space_group_symop_operation_xyz
x,y,z
1/2-x,-y,1/2+z
x,-y,-z
1/2-x,y,1/2-z
-x,-y,-z
1/2+x,y,1/2-z
-x,y,z
1/2+x,-y,1/2+z
loop_
_atom_site_type_symbol
_atom_site_label
_atom_site_fract_x
_atom_site_fract_y
_atom_site_fract_z
Si Si1 0.177794 0.278315 0.869755
Si Si2 0.819830 0.062041 0.583356
Si Si3 0.323011 0.558426 0.441153
Si Si4 0.682515 0.218710 0.986406
Si Si5 0.680816 0.061888 0.208271
Si Si6 0.679171 0.155075 0.369980
Si Si7 0.179600 0.307748 0.432187
Si Si8 0.681446 0.220049 0.791690
O O1 0.277901 0.176233 0.890304
O O2 0.190398 0.393471 0.897009
O O3 0.239747 0.290694 0.826485
O O4 0.000000 0.242466 0.869572
O O5 0.778305 0.104053 0.539732
O O6 0.000000 0.037820 0.584908
O O7 0.732461 0.953118 0.602307
O O8 0.500000 0.536021 0.449627
O O9 0.262811 0.666730 0.467414
O O10 0.227622 0.439066 0.445539
O O11 0.500000 0.233888 0.982779
O O12 0.718416 0.219491 0.031944
O O13 0.750000 0.095614 0.250000
O O14 0.500000 0.073597 0.209558
O O15 0.746019 0.133929 0.171934
O O16 0.715851 0.921060 0.202037
O O17 0.500000 0.154677 0.365698
O O18 0.735013 0.270727 0.393173
O O19 0.000000 0.301206 0.425835
O O20 0.750000 0.252324 0.750000
O O21 0.500000 0.234178 0.792160
#
# Coordination Sequence:
#
# PCOD9415307 Si02
#       8
#     8   8   8   8   8   8   8   8
#     4  10  19  32  52  78 110 142 175 218 270 324
#     4  10  19  34  54  78 108 143 182 222 272 329
#     4  10  21  36  56  82 109 140 180 230 280 326
#     4   9  20  37  58  81 107 142 184 230 278 328
#     4  10  20  35  56  83 113 146 181 221 265 318
#     4  12  24  37  55  80 114 149 183 227 274 328
#     4  11  23  39  57  78 106 145 191 233 273 323
#     4  10  19  30  50  79 112 143 175 216 265 323
#
# _framework density 18.784516
#
# number of rings (size 3 to 8) (size 9 to 14) (size 15 to 20)
#    0.000    1.750    1.250    3.750    0.000    6.000 
#    0.000    2.500    0.000    0.750    0.000    1.750 
#    0.000    0.000    0.000    0.000    0.000    0.000 
#
# Total GULP energy -357511.436234 kJ/mol
# GULP energy per Si atom -5586.116191 kJ/mol
# Density = 1.874176 g / cm^3
# Si number density = 18.784516 Si / 1000 Ang^3
#
#
#
# Elastic Constant Matrix: (Units=GPa)
#
#
# Indices 1 2 3 4 5 6 
#
# 1 59.0986 6.8412 45.9059 0.0000 0.0000 0.0000
# 2 6.8412 24.8331 12.1756 0.0000 0.0000 0.0000
# 3 45.9059 12.1756 135.9582 0.0000 0.0000 0.0000
# 4 0.0000 0.0000 0.0000 21.0807 0.0000 0.0000
# 5 0.0000 0.0000 0.0000 0.0000 16.0277 0.0000
# 6 0.0000 0.0000 0.0000 0.0000 0.0000 17.3080
#
#
#
# Elastic Compliance Matrix: (Units=1/GPa)
#
#
# Indices 1 2 3 4 5 6 
#
# 1 0.023103 -0.002657 -0.007563 0.000000 0.000000 0.000000
# 2 -0.002657 0.042424 -0.002902 0.000000 0.000000 0.000000
# 3 -0.007563 -0.002902 0.010169 0.000000 0.000000 0.000000
# 4 0.000000 0.000000 0.000000 0.047437 0.000000 0.000000
# 5 0.000000 0.000000 0.000000 0.000000 0.062392 0.000000
# 6 0.000000 0.000000 0.000000 0.000000 0.000000 0.057777
#
#
# Mechanical properties :
#
#
# Convention : Reuss Voigt Hill
#
# Bulk Modulus (GPa) = 20.22156 38.85949 29.54052
# Shear Modulus (GPa) = 17.48082 21.21442 19.34762
#
# Velocity S-wave (km/s) = 3.05388 3.36424 3.21281
# Velocity P-wave (km/s) = 4.81905 5.98520 5.43351
#
# Compressibility (1/GPa) = 0.04945216
#
# Stress axis : x y z
#
# Youngs Moduli (GPa) = 43.28465 23.57172 98.34152
#
# Poissons Ratio (x) = 0.06262 0.74373
# Poissons Ratio (y) = 0.11499 0.28541
# Poissons Ratio (z) = 0.32735 0.06841
#
# Static dielectric constant tensor:
#      x y z
#    x 1.622240 0.000000 0.000000 
#    y 0.000000 1.642490 0.000000 
#    z 0.000000 0.000000 1.667110 
# 
# From -- ./inp_files/38148.got.cif
#   From: 2010.05.17/outbox.cif.g08.bks.cpg/sg53_20_cif.got.tgz:38148.got - 2010.06.03 12:45:16.
