data_PCOD9415059
_publ_section_title
;
Structure prediction by ZEFSAII (Michael W. Deem and Ramdas Pophale) SiO2 
 PCOD9415059
Probable space group: P M N A
;
_chemical_formula_sum "Si O2"
_cell_formula_units_Z 28
_cell_length_a 27.065955
_cell_length_b 5.359847
_cell_length_c 7.820030
_cell_angle_alpha 90.000000
_cell_angle_beta 90.000000
_cell_angle_gamma 90.000000
_cell_volume 1134.446886
_symmetry_space_group_name_H-M "P M N A"
_symmetry_group_IT_number 53
_symmetry_cell_setting 'orthorhombic'
loop_
_space_group_symop_operation_xyz
x,y,z
1/2-x,-y,1/2+z
x,-y,-z
1/2-x,y,1/2-z
-x,-y,-z
1/2+x,y,1/2-z
-x,y,z
1/2+x,-y,1/2+z
loop_
_atom_site_type_symbol
_atom_site_label
_atom_site_fract_x
_atom_site_fract_y
_atom_site_fract_z
Si Si1 0.093517 0.000000 0.000000
Si Si2 0.053658 0.393443 0.802913
Si Si3 0.349877 0.667212 0.728742
Si Si4 0.265853 0.500000 0.500000
Si Si5 0.700278 0.000000 0.000000
O O1 0.130009 0.214630 0.055031
O O2 0.061742 0.900117 0.157846
O O3 0.102738 0.503956 0.713873
O O4 0.000000 0.442208 0.723773
O O5 0.050399 0.500000 0.000000
O O6 0.300786 0.528594 0.667568
O O7 0.334826 0.896001 0.849867
O O8 0.234618 0.244895 0.523261
#
# Coordination Sequence:
#
# PCOD9415059 Si02
#       5
#     4   8   8   4   4
#     4  10  18  36  69  96 142 175 238 287 361 418
#     4   9  18  35  65 101 136 179 234 292 357 427
#     4  11  24  43  67  99 139 179 236 302 353 436
#     4  12  26  46  69 100 139 194 242 298 362 438
#     4  12  31  44  72 102 145 187 244 299 374 422
#
# _framework density 24.681630999999999
#
# number of rings (size 3 to 8) (size 9 to 14) (size 15 to 20)
#    0.000    1.429    4.286    2.143    4.000    5.714 
#    0.000    0.714    0.000    1.714    0.000    0.000 
#    0.000    0.000    0.000    0.000    0.000    0.000 
#
# Total GULP energy -156143.257781 kJ/mol
# GULP energy per Si atom -5576.544921 kJ/mol
# Density = 2.462545 g / cm^3
# Si number density = 24.681631 Si / 1000 Ang^3
#
#
#
# Elastic Constant Matrix: (Units=GPa)
#
#
# Indices 1 2 3 4 5 6 
#
# 1 215.6070 86.2971 43.3330 0.0000 0.0000 0.0000
# 2 86.2971 144.5131 25.8794 0.0000 0.0000 0.0000
# 3 43.3330 25.8794 58.0855 0.0000 0.0000 0.0000
# 4 0.0000 0.0000 0.0000 41.8788 0.0000 0.0000
# 5 0.0000 0.0000 0.0000 0.0000 2.8052 0.0000
# 6 0.0000 0.0000 0.0000 0.0000 0.0000 14.0190
#
#
#
# Elastic Compliance Matrix: (Units=1/GPa)
#
#
# Indices 1 2 3 4 5 6 
#
# 1 0.006687 -0.003369 -0.003488 0.000000 0.000000 0.000000
# 2 -0.003369 0.009217 -0.001593 0.000000 0.000000 0.000000
# 3 -0.003488 -0.001593 0.020528 0.000000 0.000000 0.000000
# 4 0.000000 0.000000 0.000000 0.023878 0.000000 0.000000
# 5 0.000000 0.000000 0.000000 0.000000 0.356479 0.000000
# 6 0.000000 0.000000 0.000000 0.000000 0.000000 0.071332
#
#
# Mechanical properties :
#
#
# Convention : Reuss Voigt Hill
#
# Bulk Modulus (GPa) = 51.19785 81.02495 66.11140
# Shear Modulus (GPa) = 9.77456 29.25369 19.51412
#
# Velocity S-wave (km/s) = 1.99220 3.44647 2.81487
# Velocity P-wave (km/s) = 5.10687 6.98118 6.11625
#
# Compressibility (1/GPa) = 0.01953207
#
# Stress axis : x y z
#
# Youngs Moduli (GPa) = 149.53300 108.49709 48.71390
#
# Poissons Ratio (x) = 0.36551 0.16992
# Poissons Ratio (y) = 0.50375 0.07761
# Poissons Ratio (z) = 0.52158 0.17286
#
# Static dielectric constant tensor:
#      x y z
#    x 2.023600 0.000000 0.000000 
#    y 0.000000 2.158490 0.000000 
#    z 0.000000 0.000000 2.055630 
# 
# From -- ./inp_files/12121.got.cif
#   From: 2010.05.17/outbox.cif.g08.bks.cpg/sg53_7_cif.got.tgz:12121.got - 2010.06.03 12:45:16.
