data_PCOD9415504
_publ_section_title
;
Structure prediction by ZEFSAII (Michael W. Deem and Ramdas Pophale) SiO2 
 PCOD9415504
Probable space group: P M N A
;
_chemical_formula_sum "Si O2"
_cell_formula_units_Z 56
_cell_length_a 9.116029
_cell_length_b 17.630944
_cell_length_c 19.148352
_cell_angle_alpha 90.000000
_cell_angle_beta 90.000000
_cell_angle_gamma 90.000000
_cell_volume 3077.603495
_symmetry_space_group_name_H-M "P M N A"
_symmetry_group_IT_number 53
_symmetry_cell_setting 'orthorhombic'
loop_
_space_group_symop_operation_xyz
x,y,z
1/2-x,-y,1/2+z
x,-y,-z
1/2-x,y,1/2-z
-x,-y,-z
1/2+x,y,1/2-z
-x,y,z
1/2+x,-y,1/2+z
loop_
_atom_site_type_symbol
_atom_site_label
_atom_site_fract_x
_atom_site_fract_y
_atom_site_fract_z
Si Si1 0.826917 0.673315 0.950424
Si Si2 0.172630 0.370822 0.885944
Si Si3 0.176705 0.165747 0.428321
Si Si4 0.172344 0.769601 0.318655
Si Si5 0.169115 0.521932 0.582570
Si Si6 0.176461 0.035085 0.324850
Si Si7 0.673778 0.096322 0.927945
O O1 0.753210 0.752985 0.931500
O O2 0.748985 0.602624 0.912492
O O3 0.000000 0.674113 0.935566
O O4 0.809569 0.657597 0.033674
O O5 0.253156 0.309608 0.838272
O O6 0.245041 0.453508 0.880734
O O7 0.000000 0.373925 0.870886
O O8 0.204543 0.117182 0.358986
O O9 0.228942 0.115264 0.494770
O O10 0.000000 0.175985 0.435392
O O11 0.250000 0.801599 0.250000
O O12 0.190912 0.827773 0.382325
O O13 0.000000 0.759899 0.306239
O O14 0.170033 0.500000 0.500000
O O15 0.000000 0.526018 0.604883
O O16 0.250000 0.025598 0.250000
O O17 0.000000 0.025719 0.317793
O O18 0.231109 0.972713 0.381170
O O19 0.500000 0.080416 0.936607
#
# Coordination Sequence:
#
# PCOD9415504 Si02
#       7
#     8   8   8   8   8   8   8
#     4  10  19  31  50  79 111 139 173 223 276 319
#     4  10  19  32  49  73 107 142 179 222 270 321
#     4  10  19  34  57  81 107 141 185 228 272 327
#     4  11  21  33  51  75 107 146 186 227 276 331
#     4   9  17  29  49  75 104 139 177 215 261 317
#     4  10  21  37  57  80 108 143 181 226 275 329
#     4   9  18  34  56  80 105 139 183 228 272 324
#
# _framework density 18.195975000000001
#
# number of rings (size 3 to 8) (size 9 to 14) (size 15 to 20)
#    0.000    2.143    1.429    2.571    0.000    5.143 
#    0.000    1.429    0.000    2.571    0.000    4.000 
#    0.000    0.000    0.000    0.000    0.000    0.000 
#
# Total GULP energy -312483.956388 kJ/mol
# GULP energy per Si atom -5580.070650 kJ/mol
# Density = 1.815456 g / cm^3
# Si number density = 18.195975 Si / 1000 Ang^3
#
#
#
# Elastic Constant Matrix: (Units=GPa)
#
#
# Indices 1 2 3 4 5 6 
#
# 1 67.3023 52.2519 23.2399 0.0000 0.0000 0.0000
# 2 52.2519 125.2929 24.0774 0.0000 0.0000 0.0000
# 3 23.2399 24.0774 26.5187 0.0000 0.0000 0.0000
# 4 0.0000 0.0000 0.0000 9.4550 0.0000 0.0000
# 5 0.0000 0.0000 0.0000 0.0000 23.1192 0.0000
# 6 0.0000 0.0000 0.0000 0.0000 0.0000 17.8260
#
#
#
# Elastic Compliance Matrix: (Units=1/GPa)
#
#
# Indices 1 2 3 4 5 6 
#
# 1 0.026628 -0.008020 -0.016054 0.000000 0.000000 0.000000
# 2 -0.008020 0.012084 -0.003943 0.000000 0.000000 0.000000
# 3 -0.016054 -0.003943 0.055358 0.000000 0.000000 0.000000
# 4 0.000000 0.000000 0.000000 0.105764 0.000000 0.000000
# 5 0.000000 0.000000 0.000000 0.000000 0.043254 0.000000
# 6 0.000000 0.000000 0.000000 0.000000 0.000000 0.056098
#
#
# Mechanical properties :
#
#
# Convention : Reuss Voigt Hill
#
# Bulk Modulus (GPa) = 26.29081 46.47247 36.38164
# Shear Modulus (GPa) = 13.59064 18.04968 15.82016
#
# Velocity S-wave (km/s) = 2.73592 3.15296 2.95181
# Velocity P-wave (km/s) = 4.94575 6.23300 5.62631
#
# Compressibility (1/GPa) = 0.03803610
#
# Stress axis : x y z
#
# Youngs Moduli (GPa) = 37.55378 82.75676 18.06408
#
# Poissons Ratio (x) = 0.66370 0.29001
# Poissons Ratio (y) = 0.30118 0.07122
# Poissons Ratio (z) = 0.60290 0.32630
#
# Static dielectric constant tensor:
#      x y z
#    x 1.609050 0.000000 0.000000 
#    y 0.000000 1.619020 0.000000 
#    z 0.000000 0.000000 1.641650 
# 
# From -- ./inp_files/30810.got.cif
#   From: 2010.05.17/outbox.cif.g08.bks.cpg/sg53_16_cif.got.tgz:30810.got - 2010.06.03 12:45:16.
