data_PCOD9415310
_publ_section_title
;
Structure prediction by ZEFSAII (Michael W. Deem and Ramdas Pophale) SiO2 
 PCOD9415310
Probable space group: P M N A
;
_chemical_formula_sum "Si O2"
_cell_formula_units_Z 26
_cell_length_a 13.801283
_cell_length_b 8.068577
_cell_length_c 9.459308
_cell_angle_alpha 90.000000
_cell_angle_beta 90.000000
_cell_angle_gamma 90.000000
_cell_volume 1053.357461
_symmetry_space_group_name_H-M "P M N A"
_symmetry_group_IT_number 53
_symmetry_cell_setting 'orthorhombic'
loop_
_space_group_symop_operation_xyz
x,y,z
1/2-x,-y,1/2+z
x,-y,-z
1/2-x,y,1/2-z
-x,-y,-z
1/2+x,y,1/2-z
-x,y,z
1/2+x,-y,1/2+z
loop_
_atom_site_type_symbol
_atom_site_label
_atom_site_fract_x
_atom_site_fract_y
_atom_site_fract_z
Si Si1 0.500000 0.827652 0.090094
Si Si2 0.838476 0.325089 0.146784
Si Si3 0.285481 0.827155 0.088028
Si Si4 0.500000 0.056434 0.338599
Si Si5 0.500000 0.500000 0.500000
O O1 0.393852 0.750970 0.070610
O O2 0.500000 0.890961 0.250333
O O3 0.500000 0.000000 0.000000
O O4 0.750000 0.358753 0.250000
O O5 0.904930 0.166597 0.192497
O O6 0.791379 0.279242 0.997096
O O7 0.916425 0.465014 0.119658
O O8 0.250000 0.848713 0.250000
O O9 0.287057 0.000000 0.000000
O O10 0.500000 0.000000 0.500000
#
# Coordination Sequence:
#
# PCOD9415310 Si02
#       5
#     4   8   8   4   2
#     4  10  19  30  50  89 128 155 193 238 300 392
#     4  11  23  43  67  89 124 173 222 276 336 394
#     4  11  21  35  60  96 134 166 202 254 328 411
#     4  11  21  35  60  97 135 167 200 249 321 407
#     4  10  28  48  66  92 122 172 242 300 342 392
#
# _framework density 24.682979
#
# number of rings (size 3 to 8) (size 9 to 14) (size 15 to 20)
#    0.000    1.231    0.000    9.231    0.000    3.692 
#    0.000    0.000    0.000    6.462    0.000    0.000 
#    0.000    0.000    0.000    0.000    0.000    0.000 
#
# Total GULP energy -144899.572644 kJ/mol
# GULP energy per Si atom -5573.060486 kJ/mol
# Density = 2.462680 g / cm^3
# Si number density = 24.682979 Si / 1000 Ang^3
#
#
#
# Elastic Constant Matrix: (Units=GPa)
#
#
# Indices 1 2 3 4 5 6 
#
# 1 270.5539 52.1621 53.6688 0.0000 0.0000 0.0000
# 2 52.1621 28.1339 10.6560 0.0000 0.0000 0.0000
# 3 53.6688 10.6560 148.5786 0.0000 0.0000 0.0000
# 4 0.0000 0.0000 0.0000 20.8319 0.0000 0.0000
# 5 0.0000 0.0000 0.0000 0.0000 39.8235 0.0000
# 6 0.0000 0.0000 0.0000 0.0000 0.0000 9.4802
#
#
#
# Elastic Compliance Matrix: (Units=1/GPa)
#
#
# Indices 1 2 3 4 5 6 
#
# 1 0.006028 -0.010641 -0.001414 0.000000 0.000000 0.000000
# 2 -0.010641 0.055321 -0.000124 0.000000 0.000000 0.000000
# 3 -0.001414 -0.000124 0.007250 0.000000 0.000000 0.000000
# 4 0.000000 0.000000 0.000000 0.048003 0.000000 0.000000
# 5 0.000000 0.000000 0.000000 0.000000 0.025111 0.000000
# 6 0.000000 0.000000 0.000000 0.000000 0.000000 0.105483
#
#
# Mechanical properties :
#
#
# Convention : Reuss Voigt Hill
#
# Bulk Modulus (GPa) = 22.60374 75.58224 49.09299
# Shear Modulus (GPa) = 17.46413 36.07908 26.77161
#
# Velocity S-wave (km/s) = 2.66284 3.82736 3.29693
# Velocity P-wave (km/s) = 4.31646 7.08656 5.86733
#
# Compressibility (1/GPa) = 0.04424047
#
# Stress axis : x y z
#
# Youngs Moduli (GPa) = 165.88569 18.07646 137.92721
#
# Poissons Ratio (x) = 0.19235 0.19507
# Poissons Ratio (y) = 1.76520 0.01708
# Poissons Ratio (z) = 0.23461 0.00224
#
# Static dielectric constant tensor:
#      x y z
#    x 1.885600 0.000000 0.000000 
#    y 0.000000 1.998380 0.000000 
#    z 0.000000 0.000000 1.905090 
# 
# From -- ./inp_files/7928.got.cif
#   From: 2010.05.17/outbox.cif.g08.bks.cpg/sg53_4_cif.got.tgz:7928.got - 2010.06.03 12:45:16.
