data_PCOD9415038
_publ_section_title
;
Structure prediction by ZEFSAII (Michael W. Deem and Ramdas Pophale) SiO2 
 PCOD9415038
Probable space group: P M N A
;
_chemical_formula_sum "Si O2"
_cell_formula_units_Z 48
_cell_length_a 30.526020
_cell_length_b 10.238316
_cell_length_c 7.609442
_cell_angle_alpha 90.000000
_cell_angle_beta 90.000000
_cell_angle_gamma 90.000000
_cell_volume 2378.217252
_symmetry_space_group_name_H-M "P M N A"
_symmetry_group_IT_number 53
_symmetry_cell_setting 'orthorhombic'
loop_
_space_group_symop_operation_xyz
x,y,z
1/2-x,-y,1/2+z
x,-y,-z
1/2-x,y,1/2-z
-x,-y,-z
1/2+x,y,1/2-z
-x,y,z
1/2+x,-y,1/2+z
loop_
_atom_site_type_symbol
_atom_site_label
_atom_site_fract_x
_atom_site_fract_y
_atom_site_fract_z
Si Si1 0.782378 0.873995 0.904795
Si Si2 0.908197 0.262427 0.731081
Si Si3 0.344278 0.644011 0.518404
Si Si4 0.000000 0.135641 0.723277
Si Si5 0.859120 0.993911 0.687419
Si Si6 0.500000 0.171045 0.203189
Si Si7 0.408182 0.732104 0.826621
O O1 0.750000 0.827586 0.750000
O O2 0.805090 0.750717 0.001917
O O3 0.824884 0.942530 0.823174
O O4 0.761015 0.000000 0.000000
O O5 0.882353 0.348664 0.870430
O O6 0.879765 0.130244 0.733313
O O7 0.908052 0.315218 0.529759
O O8 0.956623 0.213259 0.781807
O O9 0.325044 0.500000 0.500000
O O10 0.371129 0.670388 0.700987
O O11 0.000000 0.148592 0.509489
O O12 0.000000 0.980313 0.772273
O O13 0.836418 0.000000 0.500000
O O14 0.896597 0.886392 0.663916
O O15 0.457354 0.258123 0.246748
#
# Coordination Sequence:
#
# PCOD9415038 Si02
#       7
#     8   8   8   4   8   4   8
#     4  11  22  40  67  95 119 141 190 255 316 374
#     4  10  18  35  59  90 126 168 204 256 307 354
#     4  11  25  43  62  86 123 171 209 243 298 375
#     4   9  16  27  55  94 129 161 210 263 314 359
#     4   9  16  31  57  88 119 152 191 241 310 363
#     4   9  14  29  51  90 129 157 202 271 314 343
#     4   9  19  32  58  87 122 161 208 255 302 357
#
# _framework density 20.183185999999999
#
# number of rings (size 3 to 8) (size 9 to 14) (size 15 to 20)
#    0.000    2.167    3.333    0.500    0.000    1.333 
#    0.000    3.333    0.000    3.000    0.000    0.000 
#    0.000    0.000    0.000    0.000    0.000    0.000 
#
# Total GULP energy -267291.385680 kJ/mol
# GULP energy per Si atom -5568.570535 kJ/mol
# Density = 2.013725 g / cm^3
# Si number density = 20.183186 Si / 1000 Ang^3
#
#
#
# Elastic Constant Matrix: (Units=GPa)
#
#
# Indices 1 2 3 4 5 6 
#
# 1 87.9486 13.7613 9.1236 0.0000 0.0000 0.0000
# 2 13.7613 84.2154 15.4333 0.0000 0.0000 0.0000
# 3 9.1236 15.4333 56.5568 0.0000 0.0000 0.0000
# 4 0.0000 0.0000 0.0000 10.2166 0.0000 0.0000
# 5 0.0000 0.0000 0.0000 0.0000 21.2450 0.0000
# 6 0.0000 0.0000 0.0000 0.0000 0.0000 35.8729
#
#
#
# Elastic Compliance Matrix: (Units=1/GPa)
#
#
# Indices 1 2 3 4 5 6 
#
# 1 0.011780 -0.001660 -0.001447 0.000000 0.000000 0.000000
# 2 -0.001660 0.012733 -0.003207 0.000000 0.000000 0.000000
# 3 -0.001447 -0.003207 0.018790 0.000000 0.000000 0.000000
# 4 0.000000 0.000000 0.000000 0.097880 0.000000 0.000000
# 5 0.000000 0.000000 0.000000 0.000000 0.047070 0.000000
# 6 0.000000 0.000000 0.000000 0.000000 0.000000 0.027876
#
#
# Mechanical properties :
#
#
# Convention : Reuss Voigt Hill
#
# Bulk Modulus (GPa) = 32.59965 33.92859 33.26412
# Shear Modulus (GPa) = 20.92203 26.16041 23.54122
#
# Velocity S-wave (km/s) = 3.22313 3.60411 3.41893
# Velocity P-wave (km/s) = 5.48073 5.84520 5.66589
#
# Compressibility (1/GPa) = 0.03067518
#
# Stress axis : x y z
#
# Youngs Moduli (GPa) = 84.88879 78.53478 53.21995
#
# Poissons Ratio (x) = 0.13034 0.07703
# Poissons Ratio (y) = 0.14089 0.17067
# Poissons Ratio (z) = 0.12287 0.25185
#
# Static dielectric constant tensor:
#      x y z
#    x 1.735640 0.000000 0.000000 
#    y 0.000000 2.165870 0.000000 
#    z 0.000000 0.000000 1.786030 
# 
# From -- ./inp_files/13081.got.cif
#   From: 2010.05.17/outbox.cif.g08.bks.cpg/sg53_7_cif.got.tgz:13081.got - 2010.06.03 12:45:16.
