data_PCOD9415774
_publ_section_title
;
Structure prediction by ZEFSAII (Michael W. Deem and Ramdas Pophale) SiO2 
 PCOD9415774
Probable space group: P M N A
;
_chemical_formula_sum "Si O2"
_cell_formula_units_Z 64
_cell_length_a 9.200081
_cell_length_b 19.438253
_cell_length_c 21.854751
_cell_angle_alpha 90.000000
_cell_angle_beta 90.000000
_cell_angle_gamma 90.000000
_cell_volume 3908.361659
_symmetry_space_group_name_H-M "P M N A"
_symmetry_group_IT_number 53
_symmetry_cell_setting 'orthorhombic'
loop_
_space_group_symop_operation_xyz
x,y,z
1/2-x,-y,1/2+z
x,-y,-z
1/2-x,y,1/2-z
-x,-y,-z
1/2+x,y,1/2-z
-x,y,z
1/2+x,-y,1/2+z
loop_
_atom_site_type_symbol
_atom_site_label
_atom_site_fract_x
_atom_site_fract_y
_atom_site_fract_z
Si Si1 0.173872 0.826164 0.015741
Si Si2 0.673864 0.962453 0.813652
Si Si3 0.668128 0.699437 0.690533
Si Si4 0.825165 0.043206 0.561103
Si Si5 0.163941 0.530367 0.069359
Si Si6 0.672280 0.403232 0.108962
Si Si7 0.326029 0.333019 0.507277
Si Si8 0.168237 0.841238 0.874559
O O1 0.255629 0.881340 0.057022
O O2 0.211762 0.745499 0.023059
O O3 0.000000 0.831954 0.023804
O O4 0.208027 0.847003 0.945600
O O5 0.750000 0.983616 0.750000
O O6 0.500000 0.963619 0.806370
O O7 0.729851 0.886451 0.831714
O O8 0.712967 0.006697 0.874519
O O9 0.750000 0.725712 0.750000
O O10 0.500000 0.684115 0.702575
O O11 0.752511 0.633611 0.665885
O O12 0.674733 0.760959 0.641746
O O13 0.000000 0.047864 0.558557
O O14 0.779214 0.000000 0.500000
O O15 0.276380 0.482114 0.103937
O O16 0.196532 0.610966 0.061020
O O17 0.000000 0.521451 0.093659
O O18 0.162033 0.500000 0.000000
O O19 0.500000 0.397471 0.110451
O O20 0.736422 0.362288 0.050100
O O21 0.500000 0.335030 0.492006
O O22 0.000000 0.863394 0.866113
#
# Coordination Sequence:
#
# PCOD9415774 Si02
#       8
#     8   8   8   8   8   8   8   8
#     4  10  19  32  53  79 104 135 173 213 256 311
#     4  11  23  38  56  76 104 137 176 219 262 314
#     4  11  22  36  49  67  98 134 176 216 254 302
#     4  10  21  37  53  75 106 138 171 214 266 317
#     4   8  15  28  47  66  92 128 159 194 242 291
#     4  11  20  29  45  69  97 130 168 207 249 295
#     4   9  17  32  49  70  99 130 164 202 250 301
#     4  10  20  34  53  75 102 135 174 215 255 304
#
# _framework density 16.375146999999998
#
# number of rings (size 3 to 8) (size 9 to 14) (size 15 to 20)
#    0.000    2.000    2.500    3.000    0.000    6.000 
#    0.000    0.000    0.000    0.000    0.000    0.875 
#    0.000    2.000    0.000    0.000    0.000    0.000 
#
# Total GULP energy -356806.056488 kJ/mol
# GULP energy per Si atom -5575.094633 kJ/mol
# Density = 1.633788 g / cm^3
# Si number density = 16.375147 Si / 1000 Ang^3
#
#
#
# Elastic Constant Matrix: (Units=GPa)
#
#
# Indices 1 2 3 4 5 6 
#
# 1 69.3049 38.1124 35.3639 0.0000 0.0000 0.0000
# 2 38.1124 98.0252 32.4151 0.0000 0.0000 0.0000
# 3 35.3639 32.4151 61.8290 0.0000 0.0000 0.0000
# 4 0.0000 0.0000 0.0000 18.1438 0.0000 0.0000
# 5 0.0000 0.0000 0.0000 0.0000 13.5600 0.0000
# 6 0.0000 0.0000 0.0000 0.0000 0.0000 23.6370
#
#
#
# Elastic Compliance Matrix: (Units=1/GPa)
#
#
# Indices 1 2 3 4 5 6 
#
# 1 0.022548 -0.005446 -0.010041 0.000000 0.000000 0.000000
# 2 -0.005446 0.013656 -0.004045 0.000000 0.000000 0.000000
# 3 -0.010041 -0.004045 0.024037 0.000000 0.000000 0.000000
# 4 0.000000 0.000000 0.000000 0.055115 0.000000 0.000000
# 5 0.000000 0.000000 0.000000 0.000000 0.073747 0.000000
# 6 0.000000 0.000000 0.000000 0.000000 0.000000 0.042307
#
#
# Mechanical properties :
#
#
# Convention : Reuss Voigt Hill
#
# Bulk Modulus (GPa) = 47.22010 48.99355 48.10682
# Shear Modulus (GPa) = 18.01590 19.28601 18.65096
#
# Velocity S-wave (km/s) = 3.32052 3.43558 3.37854
# Velocity P-wave (km/s) = 6.60304 6.76180 6.68290
#
# Compressibility (1/GPa) = 0.02117742
#
# Stress axis : x y z
#
# Youngs Moduli (GPa) = 44.35065 73.22561 41.60199
#
# Poissons Ratio (x) = 0.39880 0.41773
# Poissons Ratio (y) = 0.24154 0.16827
# Poissons Ratio (z) = 0.44533 0.29617
#
# Static dielectric constant tensor:
#      x y z
#    x 1.545100 0.000000 0.000000 
#    y 0.000000 1.561650 0.000000 
#    z 0.000000 0.000000 1.575980 
# 
# From -- ./inp_files/31141.got.cif
#   From: 2010.05.17/outbox.cif.g08.bks.cpg/sg53_16_cif.got.tgz:31141.got - 2010.06.03 12:45:16.
