data_PCOD9415399
_publ_section_title
;
Structure prediction by ZEFSAII (Michael W. Deem and Ramdas Pophale) SiO2 
 PCOD9415399
Probable space group: P M N A
;
_chemical_formula_sum "Si O2"
_cell_formula_units_Z 48
_cell_length_a 9.044695
_cell_length_b 14.263357
_cell_length_c 22.280718
_cell_angle_alpha 90.000000
_cell_angle_beta 90.000000
_cell_angle_gamma 90.000000
_cell_volume 2874.384490
_symmetry_space_group_name_H-M "P M N A"
_symmetry_group_IT_number 53
_symmetry_cell_setting 'orthorhombic'
loop_
_space_group_symop_operation_xyz
x,y,z
1/2-x,-y,1/2+z
x,-y,-z
1/2-x,y,1/2-z
-x,-y,-z
1/2+x,y,1/2-z
-x,y,z
1/2+x,-y,1/2+z
loop_
_atom_site_type_symbol
_atom_site_label
_atom_site_fract_x
_atom_site_fract_y
_atom_site_fract_z
Si Si1 0.169361 0.363680 0.408891
Si Si2 0.821666 0.927580 0.054322
Si Si3 0.829196 0.790830 0.692703
Si Si4 0.323316 0.724595 0.036999
Si Si5 0.677679 0.009239 0.313508
Si Si6 0.173370 0.541022 0.067795
O O1 0.174429 0.284202 0.359358
O O2 0.213611 0.310987 0.469921
O O3 0.266673 0.454030 0.393980
O O4 0.000000 0.396629 0.417389
O O5 0.749269 0.825690 0.046043
O O6 0.784768 0.960982 0.122466
O O7 0.000000 0.919930 0.050786
O O8 0.777480 0.000000 0.000000
O O9 0.750000 0.747355 0.750000
O O10 0.000000 0.816007 0.704947
O O11 0.738579 0.885071 0.679468
O O12 0.500000 0.731001 0.043435
O O13 0.258734 0.638657 0.076176
O O14 0.750000 0.974449 0.250000
O O15 0.500000 0.007181 0.307261
O O16 0.000000 0.556573 0.075414
O O17 0.198151 0.500000 0.000000
#
# Coordination Sequence:
#
# PCOD9415399 Si02
#       6
#     8   8   8   8   8   8
#     4   9  18  31  47  70  99 128 158 195 240 288
#     4  10  21  35  51  74 103 132 165 208 253 294
#     4  10  19  31  48  70  97 127 161 200 240 287
#     4  10  19  31  49  72  99 129 160 198 243 290
#     4  10  20  34  52  72  98 133 169 205 245 294
#     4   9  17  29  47  70  95 125 158 191 232 287
#
# _framework density 16.699225999999999
#
# number of rings (size 3 to 8) (size 9 to 14) (size 15 to 20)
#    0.000    2.333    0.000    4.000    0.000    5.667 
#    0.000    0.000    0.000    1.000    0.000    7.000 
#    0.000    0.000    0.000    0.000    0.000    0.000 
#
# Total GULP energy -267281.225874 kJ/mol
# GULP energy per Si atom -5568.358872 kJ/mol
# Density = 1.666122 g / cm^3
# Si number density = 16.699226 Si / 1000 Ang^3
#
#
#
# Elastic Constant Matrix: (Units=GPa)
#
#
# Indices 1 2 3 4 5 6 
#
# 1 46.6809 50.2077 36.8538 0.0000 0.0000 0.0000
# 2 50.2077 112.4635 51.1479 0.0000 0.0000 0.0000
# 3 36.8538 51.1479 81.7200 0.0000 0.0000 0.0000
# 4 0.0000 0.0000 0.0000 13.8874 0.0000 0.0000
# 5 0.0000 0.0000 0.0000 0.0000 6.1800 0.0000
# 6 0.0000 0.0000 0.0000 0.0000 0.0000 33.7462
#
#
#
# Elastic Compliance Matrix: (Units=1/GPa)
#
#
# Indices 1 2 3 4 5 6 
#
# 1 0.047837 -0.016139 -0.011472 0.000000 0.000000 0.000000
# 2 -0.016139 0.017875 -0.003909 0.000000 0.000000 0.000000
# 3 -0.011472 -0.003909 0.019858 0.000000 0.000000 0.000000
# 4 0.000000 0.000000 0.000000 0.072008 0.000000 0.000000
# 5 0.000000 0.000000 0.000000 0.000000 0.161813 0.000000
# 6 0.000000 0.000000 0.000000 0.000000 0.000000 0.029633
#
#
# Mechanical properties :
#
#
# Convention : Reuss Voigt Hill
#
# Bulk Modulus (GPa) = 44.38829 57.47591 50.93210
# Shear Modulus (GPa) = 11.91686 17.60639 14.76162
#
# Velocity S-wave (km/s) = 2.67426 3.25056 2.97639
# Velocity P-wave (km/s) = 6.01451 6.97002 6.50982
#
# Compressibility (1/GPa) = 0.02252846
#
# Stress axis : x y z
#
# Youngs Moduli (GPa) = 20.90416 55.94517 50.35861
#
# Poissons Ratio (x) = 0.90288 0.57774
# Poissons Ratio (y) = 0.33737 0.19687
# Poissons Ratio (z) = 0.23982 0.21871
#
# Static dielectric constant tensor:
#      x y z
#    x 1.573930 0.000000 0.000000 
#    y 0.000000 1.549990 0.000000 
#    z 0.000000 0.000000 1.606920 
# 
# From -- ./inp_files/30489.got.cif
#   From: 2010.05.17/outbox.cif.g08.bks.cpg/sg53_16_cif.got.tgz:30489.got - 2010.06.03 12:45:16.
