data_PCOD9415563
_publ_section_title
;
Structure prediction by ZEFSAII (Michael W. Deem and Ramdas Pophale) SiO2 
 PCOD9415563
Probable space group: P M N A
;
_chemical_formula_sum "Si O2"
_cell_formula_units_Z 44
_cell_length_a 32.492549
_cell_length_b 16.969868
_cell_length_c 5.131886
_cell_angle_alpha 90.000000
_cell_angle_beta 90.000000
_cell_angle_gamma 90.000000
_cell_volume 2829.692522
_symmetry_space_group_name_H-M "P M N A"
_symmetry_group_IT_number 53
_symmetry_cell_setting 'orthorhombic'
loop_
_space_group_symop_operation_xyz
x,y,z
1/2-x,-y,1/2+z
x,-y,-z
1/2-x,y,1/2-z
-x,-y,-z
1/2+x,y,1/2-z
-x,y,z
1/2+x,-y,1/2+z
loop_
_atom_site_type_symbol
_atom_site_label
_atom_site_fract_x
_atom_site_fract_y
_atom_site_fract_z
Si Si1 0.549786 0.317339 0.084737
Si Si2 0.628585 0.907984 0.579679
Si Si3 0.582233 0.149673 0.902575
Si Si4 0.725350 0.095312 0.494179
Si Si5 0.049886 0.586289 0.084242
Si Si6 0.500000 0.943961 0.244626
O O1 0.500000 0.306996 0.079191
O O2 0.570281 0.235530 0.006245
O O3 0.560839 0.383500 0.870450
O O4 0.561585 0.349138 0.368434
O O5 0.609769 0.853488 0.354617
O O6 0.677262 0.891085 0.561570
O O7 0.622143 0.000000 0.500000
O O8 0.606168 0.893429 0.857595
O O9 0.540626 0.108148 0.796821
O O10 0.750000 0.123124 0.750000
O O11 0.728689 0.000000 0.500000
O O12 0.750000 0.127099 0.250000
O O13 0.000000 0.582424 0.079716
O O14 0.064953 0.500000 0.000000
O O15 0.500000 0.000000 0.500000
O O16 0.500000 0.000000 0.000000
#
# Coordination Sequence:
#
# PCOD9415563 Si02
#       6
#     8   8   8   8   8   4
#     4  10  19  32  46  64  90 121 156 195 238 277
#     4  11  22  34  50  68  92 120 162 209 243 285
#     4  12  22  35  47  66  92 127 166 206 246 273
#     4   9  17  31  50  70  88 110 143 191 248 300
#     4   9  17  29  48  68  86 109 148 196 238 283
#     4  12  24  36  48  60  83 128 179 220 244 264
#
# _framework density 15.549393
#
# number of rings (size 3 to 8) (size 9 to 14) (size 15 to 20)
#    0.000    1.636    0.909    6.000    0.000    5.091 
#    0.000    0.000    0.000    0.000    0.000    0.000 
#    0.000    0.000    0.000    0.000    0.000  229.091 
#
# Total GULP energy -245247.257003 kJ/mol
# GULP energy per Si atom -5573.801296 kJ/mol
# Density = 1.551400 g / cm^3
# Si number density = 15.549393 Si / 1000 Ang^3
#
#
#
# Elastic Constant Matrix: (Units=GPa)
#
#
# Indices 1 2 3 4 5 6 
#
# 1 81.6257 11.5988 34.9550 0.0000 0.0000 0.0000
# 2 11.5988 35.2442 -8.0757 0.0000 0.0000 0.0000
# 3 34.9550 -8.0757 94.6710 0.0000 0.0000 0.0000
# 4 0.0000 0.0000 0.0000 19.9020 0.0000 0.0000
# 5 0.0000 0.0000 0.0000 0.0000 21.0354 0.0000
# 6 0.0000 0.0000 0.0000 0.0000 0.0000 -1.7661
#
#
#
# Elastic Compliance Matrix: (Units=1/GPa)
#
#
# Indices 1 2 3 4 5 6 
#
# 1 0.015983 -0.006744 -0.006477 0.000000 0.000000 0.000000
# 2 -0.006744 0.031785 0.005201 0.000000 0.000000 0.000000
# 3 -0.006477 0.005201 0.013398 0.000000 0.000000 0.000000
# 4 0.000000 0.000000 0.000000 0.050246 0.000000 0.000000
# 5 0.000000 0.000000 0.000000 0.000000 0.047539 0.000000
# 6 0.000000 0.000000 0.000000 0.000000 0.000000 -0.566232
#
#
# Mechanical properties :
#
#
# Convention : Reuss Voigt Hill
#
# Bulk Modulus (GPa) = 22.15958 32.05522 27.10740
# Shear Modulus (GPa) = -13.29077 19.37180 3.04051
#
# Velocity S-wave (km/s) = -2.92677 3.53345 1.39987
# Velocity P-wave (km/s) = 1.69136 6.10794 4.48149
#
# Compressibility (1/GPa) = 0.04512721
#
# Stress axis : x y z
#
# Youngs Moduli (GPa) = 62.56716 31.46165 74.63858
#
# Poissons Ratio (x) = 0.21218 0.48340
# Poissons Ratio (y) = 0.42195 -0.38822
# Poissons Ratio (z) = 0.40522 -0.16364
#
# Static dielectric constant tensor:
#      x y z
#    x 1.474120 0.000000 0.000000 
#    y 0.000000 1.507010 0.000000 
#    z 0.000000 0.000000 1.522120 
# 
# From -- ./inp_files/4410.got.cif
#   From: 2010.05.17/outbox.cif.g08.bks.cpg/sg53_3_cif.got.tgz:4410.got - 2010.06.03 12:45:16.
