data_PCOD9415996
_publ_section_title
;
Structure prediction by ZEFSAII (Michael W. Deem and Ramdas Pophale) SiO2 
 PCOD9415996
Probable space group: P M N A
;
_chemical_formula_sum "Si O2"
_cell_formula_units_Z 48
_cell_length_a 8.040156
_cell_length_b 32.790600
_cell_length_c 9.535956
_cell_angle_alpha 90.000000
_cell_angle_beta 90.000000
_cell_angle_gamma 90.000000
_cell_volume 2514.074119
_symmetry_space_group_name_H-M "P M N A"
_symmetry_group_IT_number 53
_symmetry_cell_setting 'orthorhombic'
loop_
_space_group_symop_operation_xyz
x,y,z
1/2-x,-y,1/2+z
x,-y,-z
1/2-x,y,1/2-z
-x,-y,-z
1/2+x,y,1/2-z
-x,y,z
1/2+x,-y,1/2+z
loop_
_atom_site_type_symbol
_atom_site_label
_atom_site_fract_x
_atom_site_fract_y
_atom_site_fract_z
Si Si1 0.299139 0.628571 0.411971
Si Si2 0.700834 0.461632 0.588177
Si Si3 0.802374 0.961661 0.411718
Si Si4 0.700398 0.794141 0.586371
Si Si5 0.301024 0.883159 0.586986
Si Si6 0.701196 0.705632 0.587210
O O1 0.250000 0.633280 0.250000
O O2 0.500000 0.628634 0.420184
O O3 0.241207 0.583458 0.459316
O O4 0.235931 0.666661 0.501848
O O5 0.764449 0.500000 0.500000
O O6 0.750000 0.466126 0.750000
O O7 0.500000 0.461660 0.579495
O O8 0.750000 0.962191 0.250000
O O9 0.757202 0.919985 0.490594
O O10 0.000000 0.965125 0.412776
O O11 0.731837 0.000000 0.500000
O O12 0.750000 0.793776 0.750000
O O13 0.500000 0.794224 0.575306
O O14 0.760783 0.838420 0.535178
O O15 0.759512 0.750119 0.530951
O O16 0.250000 0.888804 0.750000
O O17 0.500000 0.882519 0.584209
O O18 0.750000 0.702322 0.750000
O O19 0.500000 0.705603 0.580067
#
# Coordination Sequence:
#
# PCOD9415996 Si02
#       6
#     8   8   8   8   8   8
#     4   9  18  32  48  66  92 126 159 194 238 288
#     4   9  18  32  48  67  92 121 155 195 239 287
#     4  11  24  40  58  80 106 136 170 208 250 296
#     4   8  15  28  47  71  99 130 162 199 241 285
#     4  10  19  33  55  80 106 136 170 207 249 296
#     4   9  17  30  48  71  98 126 161 202 241 283
#
# _framework density 19.092517999999998
#
# number of rings (size 3 to 8) (size 9 to 14) (size 15 to 20)
#    0.000    2.667    0.000    1.500    0.000    5.000 
#    0.000    0.833    0.000    2.000    0.000    0.000 
#    0.000    0.000    0.000    0.000    0.000    0.000 
#
# Total GULP energy -267459.171294 kJ/mol
# GULP energy per Si atom -5572.066069 kJ/mol
# Density = 1.904906 g / cm^3
# Si number density = 19.092518 Si / 1000 Ang^3
#
#
#
# Elastic Constant Matrix: (Units=GPa)
#
#
# Indices 1 2 3 4 5 6 
#
# 1 20.3324 18.9115 7.8554 0.0000 0.0000 0.0000
# 2 18.9115 254.5680 103.0725 0.0000 0.0000 0.0000
# 3 7.8554 103.0725 81.0573 0.0000 0.0000 0.0000
# 4 0.0000 0.0000 0.0000 33.8108 0.0000 0.0000
# 5 0.0000 0.0000 0.0000 0.0000 26.3655 0.0000
# 6 0.0000 0.0000 0.0000 0.0000 0.0000 11.6918
#
#
#
# Elastic Compliance Matrix: (Units=1/GPa)
#
#
# Indices 1 2 3 4 5 6 
#
# 1 0.052836 -0.003817 -0.000266 0.000000 0.000000 0.000000
# 2 -0.003817 0.008373 -0.010277 0.000000 0.000000 0.000000
# 3 -0.000266 -0.010277 0.025431 0.000000 0.000000 0.000000
# 4 0.000000 0.000000 0.000000 0.029576 0.000000 0.000000
# 5 0.000000 0.000000 0.000000 0.000000 0.037928 0.000000
# 6 0.000000 0.000000 0.000000 0.000000 0.000000 0.085530
#
#
# Mechanical properties :
#
#
# Convention : Reuss Voigt Hill
#
# Bulk Modulus (GPa) = 17.26565 68.40405 42.83485
# Shear Modulus (GPa) = 17.37911 29.44818 23.41364
#
# Velocity S-wave (km/s) = 3.02032 3.93159 3.50569
# Velocity P-wave (km/s) = 4.60716 7.51767 6.23463
#
# Compressibility (1/GPa) = 0.05791848
#
# Stress axis : x y z
#
# Youngs Moduli (GPa) = 18.92654 119.43311 39.32205
#
# Poissons Ratio (x) = 0.45591 0.01047
# Poissons Ratio (y) = 0.07225 0.40411
# Poissons Ratio (z) = 0.00504 1.22742
#
# Static dielectric constant tensor:
#      x y z
#    x 1.667340 0.000000 0.000000 
#    y 0.000000 1.745270 0.000000 
#    z 0.000000 0.000000 1.585230 
# 
# From -- ./inp_files/6714.got.cif
#   From: 2010.05.17/outbox.cif.g08.bks.cpg/sg53_4_cif.got.tgz:6714.got - 2010.06.03 12:45:16.
