data_PCOD9415784
_publ_section_title
;
Structure prediction by ZEFSAII (Michael W. Deem and Ramdas Pophale) SiO2 
 PCOD9415784
Probable space group: P M N A
;
_chemical_formula_sum "Si O2"
_cell_formula_units_Z 40
_cell_length_a 8.484776
_cell_length_b 12.025521
_cell_length_c 22.312416
_cell_angle_alpha 90.000000
_cell_angle_beta 90.000000
_cell_angle_gamma 90.000000
_cell_volume 2276.621751
_symmetry_space_group_name_H-M "P M N A"
_symmetry_group_IT_number 53
_symmetry_cell_setting 'orthorhombic'
loop_
_space_group_symop_operation_xyz
x,y,z
1/2-x,-y,1/2+z
x,-y,-z
1/2-x,y,1/2-z
-x,-y,-z
1/2+x,y,1/2-z
-x,y,z
1/2+x,-y,1/2+z
loop_
_atom_site_type_symbol
_atom_site_label
_atom_site_fract_x
_atom_site_fract_y
_atom_site_fract_z
Si Si1 0.812659 0.282115 0.185658
Si Si2 0.308439 0.671078 0.039104
Si Si3 0.189839 0.444061 0.414217
Si Si4 0.310218 0.026601 0.316878
Si Si5 0.308712 0.075464 0.942036
O O1 0.750000 0.315378 0.250000
O O2 0.752507 0.370495 0.138811
O O3 0.757343 0.155336 0.174707
O O4 0.000000 0.279203 0.185263
O O5 0.500000 0.675292 0.040502
O O6 0.257958 0.572943 0.084376
O O7 0.254492 0.796809 0.048535
O O8 0.262801 0.620283 0.974901
O O9 0.000000 0.444915 0.413376
O O10 0.250000 0.991465 0.250000
O O11 0.500000 0.021206 0.315575
O O12 0.250179 0.964733 0.376721
O O13 0.500000 0.072592 0.941012
O O14 0.260066 0.000000 0.000000
#
# Coordination Sequence:
#
# PCOD9415784 Si02
#       5
#     8   8   8   8   8
#     4  10  20  33  50  73  98 125 162 205 248 293
#     4   8  16  30  50  76 102 130 162 198 243 293
#     4   9  16  31  53  73  98 130 163 199 241 290
#     4  10  21  36  53  74 102 135 170 211 257 303
#     4  10  19  32  53  80 107 135 170 209 250 300
#
# _framework density 17.569893
#
# number of rings (size 3 to 8) (size 9 to 14) (size 15 to 20)
#    0.000    2.600    0.000    3.600    0.000    4.400 
#    0.000    5.000    0.000    0.000    0.000    0.000 
#    0.000    0.000    0.000    0.000    0.000    0.000 
#
# Total GULP energy -222802.051082 kJ/mol
# GULP energy per Si atom -5570.051277 kJ/mol
# Density = 1.752990 g / cm^3
# Si number density = 17.569893 Si / 1000 Ang^3
#
#
#
# Elastic Constant Matrix: (Units=GPa)
#
#
# Indices 1 2 3 4 5 6 
#
# 1 15.4605 25.6850 25.2759 0.0000 0.0000 0.0000
# 2 25.6850 143.5827 102.1847 0.0000 0.0000 0.0000
# 3 25.2759 102.1847 132.7193 0.0000 0.0000 0.0000
# 4 0.0000 0.0000 0.0000 34.1362 0.0000 0.0000
# 5 0.0000 0.0000 0.0000 0.0000 31.8016 0.0000
# 6 0.0000 0.0000 0.0000 0.0000 0.0000 20.8690
#
#
#
# Elastic Compliance Matrix: (Units=1/GPa)
#
#
# Indices 1 2 3 4 5 6 
#
# 1 0.099504 -0.009542 -0.011603 0.000000 0.000000 0.000000
# 2 -0.009542 0.016322 -0.010749 0.000000 0.000000 0.000000
# 3 -0.011603 -0.010749 0.018021 0.000000 0.000000 0.000000
# 4 0.000000 0.000000 0.000000 0.029294 0.000000 0.000000
# 5 0.000000 0.000000 0.000000 0.000000 0.031445 0.000000
# 6 0.000000 0.000000 0.000000 0.000000 0.000000 0.047918
#
#
# Mechanical properties :
#
#
# Convention : Reuss Voigt Hill
#
# Bulk Modulus (GPa) = 14.27416 66.45040 40.36228
# Shear Modulus (GPa) = 15.16785 26.60250 20.88518
#
# Velocity S-wave (km/s) = 2.94136 3.89536 3.45148
# Velocity P-wave (km/s) = 4.43591 7.62460 6.23746
#
# Compressibility (1/GPa) = 0.07005665
#
# Stress axis : x y z
#
# Youngs Moduli (GPa) = 10.04988 61.26872 55.49181
#
# Poissons Ratio (x) = 0.58462 0.64389
# Poissons Ratio (y) = 0.09590 0.59649
# Poissons Ratio (z) = 0.11661 0.65859
#
# Static dielectric constant tensor:
#      x y z
#    x 1.605800 0.000000 0.000000 
#    y 0.000000 1.616810 0.000000 
#    z 0.000000 0.000000 1.587630 
# 
# From -- ./inp_files/25840.got.cif
#   From: 2010.05.17/outbox.cif.g08.bks.cpg/sg53_13_cif.got.tgz:25840.got - 2010.06.03 12:45:16.
