data_PCOD9415745
_publ_section_title
;
Structure prediction by ZEFSAII (Michael W. Deem and Ramdas Pophale) SiO2 
 PCOD9415745
Probable space group: P M N A
;
_chemical_formula_sum "Si O2"
_cell_formula_units_Z 64
_cell_length_a 9.244582
_cell_length_b 25.075212
_cell_length_c 14.669981
_cell_angle_alpha 90.000000
_cell_angle_beta 90.000000
_cell_angle_gamma 90.000000
_cell_volume 3400.646146
_symmetry_space_group_name_H-M "P M N A"
_symmetry_group_IT_number 53
_symmetry_cell_setting 'orthorhombic'
loop_
_space_group_symop_operation_xyz
x,y,z
1/2-x,-y,1/2+z
x,-y,-z
1/2-x,y,1/2-z
-x,-y,-z
1/2+x,y,1/2-z
-x,y,z
1/2+x,-y,1/2+z
loop_
_atom_site_type_symbol
_atom_site_label
_atom_site_fract_x
_atom_site_fract_y
_atom_site_fract_z
Si Si1 0.673177 0.911555 0.840262
Si Si2 0.328417 0.332797 0.964966
Si Si3 0.665780 0.592630 0.337522
Si Si4 0.673370 0.770741 0.152150
Si Si5 0.664016 0.016999 0.605907
Si Si6 0.331745 0.476086 0.402447
Si Si7 0.828865 0.369848 0.340802
Si Si8 0.672601 0.119742 0.952487
O O1 0.750000 0.888006 0.750000
O O2 0.500000 0.912166 0.828770
O O3 0.737248 0.971363 0.850146
O O4 0.705942 0.884004 0.938656
O O5 0.500000 0.341702 0.951595
O O6 0.241452 0.382573 0.925139
O O7 0.285767 0.280718 0.908250
O O8 0.303430 0.331446 0.072924
O O9 0.750000 0.613291 0.250000
O O10 0.500000 0.609163 0.334577
O O11 0.671173 0.528610 0.339956
O O12 0.750000 0.771194 0.250000
O O13 0.500000 0.768852 0.166064
O O14 0.705093 0.823544 0.092991
O O15 0.500000 0.018359 0.643400
O O16 0.740571 0.074203 0.601867
O O17 0.653644 0.000000 0.500000
O O18 0.285717 0.500000 0.500000
O O19 0.500000 0.458379 0.410932
O O20 0.235799 0.427842 0.367011
O O21 0.750000 0.351258 0.250000
O O22 0.000000 0.374863 0.325800
O O23 0.500000 0.109411 0.944750
#
# Coordination Sequence:
#
# PCOD9415745 Si02
#       8
#     8   8   8   8   8   8   8   8
#     4  10  19  32  52  79 112 151 190 227 272 325
#     4  10  22  40  60  82 109 142 183 229 277 328
#     4  11  22  35  55  81 112 145 180 222 270 325
#     4  10  22  41  62  84 109 139 180 228 280 333
#     4   9  17  30  50  77 110 146 185 228 269 318
#     4  10  20  36  56  82 114 148 183 223 271 325
#     4  11  23  38  59  84 113 149 187 228 275 331
#     4   9  19  36  56  78 110 150 186 227 279 333
#
# _framework density 18.819953000000002
#
# number of rings (size 3 to 8) (size 9 to 14) (size 15 to 20)
#    0.000    2.000    1.250    2.250    0.000    7.250 
#    0.000    1.875    0.000    0.000    0.000    0.000 
#    0.000    0.000    0.000    0.000    0.000    0.000 
#
# Total GULP energy -357170.447095 kJ/mol
# GULP energy per Si atom -5580.788236 kJ/mol
# Density = 1.877712 g / cm^3
# Si number density = 18.819953 Si / 1000 Ang^3
#
#
#
# Elastic Constant Matrix: (Units=GPa)
#
#
# Indices 1 2 3 4 5 6 
#
# 1 69.2965 39.7610 64.6816 0.0000 0.0000 0.0000
# 2 39.7610 87.5833 39.7178 0.0000 0.0000 0.0000
# 3 64.6816 39.7178 131.2671 0.0000 0.0000 0.0000
# 4 0.0000 0.0000 0.0000 -27.2790 0.0000 0.0000
# 5 0.0000 0.0000 0.0000 0.0000 33.2457 0.0000
# 6 0.0000 0.0000 0.0000 0.0000 0.0000 11.1814
#
#
#
# Elastic Compliance Matrix: (Units=1/GPa)
#
#
# Indices 1 2 3 4 5 6 
#
# 1 0.031220 -0.008342 -0.012860 0.000000 0.000000 0.000000
# 2 -0.008342 0.015462 -0.000568 0.000000 0.000000 0.000000
# 3 -0.012860 -0.000568 0.014127 0.000000 0.000000 0.000000
# 4 0.000000 0.000000 0.000000 -0.036658 0.000000 0.000000
# 5 0.000000 0.000000 0.000000 0.000000 0.030079 0.000000
# 6 0.000000 0.000000 0.000000 0.000000 0.000000 0.089434
#
#
# Mechanical properties :
#
#
# Convention : Reuss Voigt Hill
#
# Bulk Modulus (GPa) = 57.90364 64.05196 60.97780
# Shear Modulus (GPa) = 25.91202 13.02872 19.47037
#
# Velocity S-wave (km/s) = 3.71460 2.63398 3.21995
# Velocity P-wave (km/s) = 7.01653 6.58471 6.80405
#
# Compressibility (1/GPa) = 0.01727007
#
# Stress axis : x y z
#
# Youngs Moduli (GPa) = 32.03028 64.67358 70.78830
#
# Poissons Ratio (x) = 0.53948 0.91033
# Poissons Ratio (y) = 0.26719 0.04022
# Poissons Ratio (z) = 0.41191 0.03674
#
# Static dielectric constant tensor:
#      x y z
#    x 1.637070 0.000000 0.000000 
#    y 0.000000 1.632990 0.000000 
#    z 0.000000 0.000000 1.736390 
# 
# From -- ./inp_files/20913.got.cif
#   From: 2010.05.17/outbox.cif.g08.bks.cpg/sg53_11_cif.got.tgz:20913.got - 2010.06.03 12:45:16.
