data_PCOD9415718
_publ_section_title
;
Structure prediction by ZEFSAII (Michael W. Deem and Ramdas Pophale) SiO2 
 PCOD9415718
Probable space group: P M N A
;
_chemical_formula_sum "Si O2"
_cell_formula_units_Z 48
_cell_length_a 8.782216
_cell_length_b 9.908135
_cell_length_c 31.333960
_cell_angle_alpha 90.000000
_cell_angle_beta 90.000000
_cell_angle_gamma 90.000000
_cell_volume 2726.536490
_symmetry_space_group_name_H-M "P M N A"
_symmetry_group_IT_number 53
_symmetry_cell_setting 'orthorhombic'
loop_
_space_group_symop_operation_xyz
x,y,z
1/2-x,-y,1/2+z
x,-y,-z
1/2-x,y,1/2-z
-x,-y,-z
1/2+x,y,1/2-z
-x,y,z
1/2+x,-y,1/2+z
loop_
_atom_site_type_symbol
_atom_site_label
_atom_site_fract_x
_atom_site_fract_y
_atom_site_fract_z
Si Si1 0.183189 0.283190 0.567313
Si Si2 0.681833 0.200927 0.388882
Si Si3 0.817393 0.317834 0.797021
Si Si4 0.183125 0.088939 0.861534
Si Si5 0.317566 0.487984 0.131696
Si Si6 0.682110 0.849459 0.981501
O O1 0.248063 0.166488 0.597821
O O2 0.226086 0.424208 0.589558
O O3 0.229444 0.254623 0.518785
O O4 0.000000 0.273239 0.568165
O O5 0.500000 0.214586 0.386272
O O6 0.758901 0.336880 0.372560
O O7 0.731205 0.174676 0.437674
O O8 0.729412 0.066920 0.362784
O O9 0.750000 0.327234 0.750000
O O10 0.773952 0.176576 0.820176
O O11 0.753696 0.433901 0.828139
O O12 0.000000 0.326281 0.795525
O O13 0.000000 0.093847 0.865304
O O14 0.500000 0.490584 0.135080
O O15 0.500000 0.835756 0.973828
O O16 0.707674 0.000000 0.000000
#
# Coordination Sequence:
#
# PCOD9415718 Si02
#       6
#     8   8   8   8   8   8
#     4   9  18  33  53  76 103 140 186 230 269 315
#     4  11  22  35  52  78 112 148 183 226 275 323
#     4  10  20  38  62  86 108 134 171 215 265 325
#     4   9  19  34  54  78 107 139 174 218 267 317
#     4  10  21  37  56  79 109 146 183 222 272 324
#     4  10  19  32  52  77 106 143 188 235 276 319
#
# _framework density 17.604752000000001
#
# number of rings (size 3 to 8) (size 9 to 14) (size 15 to 20)
#    0.000    2.167    1.667    1.500    0.000    3.667 
#    0.000    4.167    0.000    2.000    0.000    0.000 
#    0.000    0.000    0.000    0.000    0.000    0.000 
#
# Total GULP energy -267857.331927 kJ/mol
# GULP energy per Si atom -5580.361082 kJ/mol
# Density = 1.756468 g / cm^3
# Si number density = 17.604752 Si / 1000 Ang^3
#
#
#
# Elastic Constant Matrix: (Units=GPa)
#
#
# Indices 1 2 3 4 5 6 
#
# 1 37.1834 42.2800 34.2173 0.0000 0.0000 0.0000
# 2 42.2800 147.9934 56.4120 0.0000 0.0000 0.0000
# 3 34.2173 56.4120 102.8905 0.0000 0.0000 0.0000
# 4 0.0000 0.0000 0.0000 13.6885 0.0000 0.0000
# 5 0.0000 0.0000 0.0000 0.0000 26.7816 0.0000
# 6 0.0000 0.0000 0.0000 0.0000 0.0000 28.4807
#
#
#
# Elastic Compliance Matrix: (Units=1/GPa)
#
#
# Indices 1 2 3 4 5 6 
#
# 1 0.047441 -0.009531 -0.010551 0.000000 0.000000 0.000000
# 2 -0.009531 0.010457 -0.002564 0.000000 0.000000 0.000000
# 3 -0.010551 -0.002564 0.014634 0.000000 0.000000 0.000000
# 4 0.000000 0.000000 0.000000 0.073054 0.000000 0.000000
# 5 0.000000 0.000000 0.000000 0.000000 0.037339 0.000000
# 6 0.000000 0.000000 0.000000 0.000000 0.000000 0.035112
#
#
# Mechanical properties :
#
#
# Convention : Reuss Voigt Hill
#
# Bulk Modulus (GPa) = 36.71162 61.54289 49.12725
# Shear Modulus (GPa) = 18.35477 24.13403 21.24440
#
# Velocity S-wave (km/s) = 3.23244 3.70656 3.47759
# Velocity P-wave (km/s) = 5.90170 7.30425 6.64011
#
# Compressibility (1/GPa) = 0.02723933
#
# Stress axis : x y z
#
# Youngs Moduli (GPa) = 21.07876 95.62689 68.33614
#
# Poissons Ratio (x) = 0.91147 0.72103
# Poissons Ratio (y) = 0.20091 0.17519
# Poissons Ratio (z) = 0.22241 0.24515
#
# Static dielectric constant tensor:
#      x y z
#    x 1.589850 0.000000 0.000000 
#    y 0.000000 1.606630 0.000000 
#    z 0.000000 0.000000 1.575420 
# 
# From -- ./inp_files/37685.got.cif
#   From: 2010.05.17/outbox.cif.g08.bks.cpg/sg53_19_cif.got.tgz:37685.got - 2010.06.03 12:45:16.
