data_PCOD9415233
_publ_section_title
;
Structure prediction by ZEFSAII (Michael W. Deem and Ramdas Pophale) SiO2 
 PCOD9415233
Probable space group: P M N A
;
_chemical_formula_sum "Si O2"
_cell_formula_units_Z 56
_cell_length_a 9.178998
_cell_length_b 13.916565
_cell_length_c 24.742156
_cell_angle_alpha 90.000000
_cell_angle_beta 90.000000
_cell_angle_gamma 90.000000
_cell_volume 3160.566033
_symmetry_space_group_name_H-M "P M N A"
_symmetry_group_IT_number 53
_symmetry_cell_setting 'orthorhombic'
loop_
_space_group_symop_operation_xyz
x,y,z
1/2-x,-y,1/2+z
x,-y,-z
1/2-x,y,1/2-z
-x,-y,-z
1/2+x,y,1/2-z
-x,y,z
1/2+x,-y,1/2+z
loop_
_atom_site_type_symbol
_atom_site_label
_atom_site_fract_x
_atom_site_fract_y
_atom_site_fract_z
Si Si1 0.825395 0.168972 0.409041
Si Si2 0.173911 0.487396 0.194108
Si Si3 0.672695 0.836413 0.307611
Si Si4 0.326781 0.946762 0.100424
Si Si5 0.173611 0.260421 0.193732
Si Si6 0.174654 0.233612 0.525391
Si Si7 0.326826 0.347715 0.615846
O O1 0.741819 0.204568 0.356420
O O2 0.780281 0.225700 0.463096
O O3 0.000000 0.181233 0.401763
O O4 0.798929 0.055450 0.417388
O O5 0.250000 0.517031 0.250000
O O6 0.202297 0.374566 0.185630
O O7 0.221633 0.553795 0.144270
O O8 0.000000 0.500388 0.200206
O O9 0.750000 0.834163 0.250000
O O10 0.500000 0.848610 0.301207
O O11 0.739327 0.918686 0.345880
O O12 0.698691 0.737109 0.340310
O O13 0.500000 0.937678 0.111161
O O14 0.289587 0.867624 0.055044
O O15 0.250000 0.232273 0.250000
O O16 0.000000 0.246475 0.197287
O O17 0.246992 0.316236 0.561298
O O18 0.000000 0.243751 0.526984
O O19 0.500000 0.352116 0.605771
#
# Coordination Sequence:
#
# PCOD9415233 Si02
#       7
#     8   8   8   8   8   8   8
#     4  10  20  35  55  76  99 130 167 207 249 292
#     4   9  18  33  53  76 101 131 167 205 247 295
#     4  10  19  30  46  71 102 132 163 202 247 296
#     4   9  18  33  52  72  97 131 168 206 248 293
#     4  10  21  37  56  77 101 130 166 208 250 293
#     4   9  18  33  53  77 102 129 165 205 245 293
#     4   9  18  32  50  74 103 132 163 201 246 296
#
# _framework density 17.718343999999998
#
# number of rings (size 3 to 8) (size 9 to 14) (size 15 to 20)
#    0.000    2.571    0.000    1.714    0.000    5.143 
#    0.000    0.714    0.000    8.571    0.000    0.000 
#    0.000    0.000    0.000    0.000    0.000    0.000 
#
# Total GULP energy -312395.940773 kJ/mol
# GULP energy per Si atom -5578.498942 kJ/mol
# Density = 1.767802 g / cm^3
# Si number density = 17.718344 Si / 1000 Ang^3
#
#
#
# Elastic Constant Matrix: (Units=GPa)
#
#
# Indices 1 2 3 4 5 6 
#
# 1 23.1657 16.7638 37.4336 0.0000 0.0000 0.0000
# 2 16.7638 33.9322 23.3693 0.0000 0.0000 0.0000
# 3 37.4336 23.3693 117.1005 0.0000 0.0000 0.0000
# 4 0.0000 0.0000 0.0000 23.1898 0.0000 0.0000
# 5 0.0000 0.0000 0.0000 0.0000 30.8110 0.0000
# 6 0.0000 0.0000 0.0000 0.0000 0.0000 9.9841
#
#
#
# Elastic Compliance Matrix: (Units=1/GPa)
#
#
# Indices 1 2 3 4 5 6 
#
# 1 0.121236 -0.038495 -0.031073 0.000000 0.000000 0.000000
# 2 -0.038495 0.046389 0.003048 0.000000 0.000000 0.000000
# 3 -0.031073 0.003048 0.017865 0.000000 0.000000 0.000000
# 4 0.000000 0.000000 0.000000 0.043122 0.000000 0.000000
# 5 0.000000 0.000000 0.000000 0.000000 0.032456 0.000000
# 6 0.000000 0.000000 0.000000 0.000000 0.000000 0.100159
#
#
# Mechanical properties :
#
#
# Convention : Reuss Voigt Hill
#
# Bulk Modulus (GPa) = 19.06600 36.59243 27.82921
# Shear Modulus (GPa) = 9.77039 19.23908 14.50474
#
# Velocity S-wave (km/s) = 2.35080 3.29877 2.86427
# Velocity P-wave (km/s) = 4.26055 5.93349 5.16520
#
# Compressibility (1/GPa) = 0.05244940
#
# Stress axis : x y z
#
# Youngs Moduli (GPa) = 8.24841 21.55673 55.97654
#
# Poissons Ratio (x) = 0.82982 1.73937
# Poissons Ratio (y) = 0.31752 -0.17061
# Poissons Ratio (z) = 0.25630 -0.06570
#
# Static dielectric constant tensor:
#      x y z
#    x 1.588090 0.000000 0.000000 
#    y 0.000000 1.609130 0.000000 
#    z 0.000000 0.000000 1.580810 
# 
# From -- ./inp_files/30827.got.cif
#   From: 2010.05.17/outbox.cif.g08.bks.cpg/sg53_16_cif.got.tgz:30827.got - 2010.06.03 12:45:16.
