data_PCOD9415020
_publ_section_title
;
Structure prediction by ZEFSAII (Michael W. Deem and Ramdas Pophale) SiO2 
 PCOD9415020
Probable space group: P M N A
;
_chemical_formula_sum "Si O2"
_cell_formula_units_Z 64
_cell_length_a 8.902710
_cell_length_b 20.375031
_cell_length_c 20.431100
_cell_angle_alpha 90.000000
_cell_angle_beta 90.000000
_cell_angle_gamma 90.000000
_cell_volume 3706.058364
_symmetry_space_group_name_H-M "P M N A"
_symmetry_group_IT_number 53
_symmetry_cell_setting 'orthorhombic'
loop_
_space_group_symop_operation_xyz
x,y,z
1/2-x,-y,1/2+z
x,-y,-z
1/2-x,y,1/2-z
-x,-y,-z
1/2+x,y,1/2-z
-x,y,z
1/2+x,-y,1/2+z
loop_
_atom_site_type_symbol
_atom_site_label
_atom_site_fract_x
_atom_site_fract_y
_atom_site_fract_z
Si Si1 0.317857 0.832262 0.457769
Si Si2 0.320154 0.975431 0.425677
Si Si3 0.180063 0.660591 0.916859
Si Si4 0.180661 0.809963 0.891536
Si Si5 0.820792 0.556798 0.679860
Si Si6 0.181523 0.313906 0.932232
Si Si7 0.320270 0.403764 0.820317
Si Si8 0.178485 0.928470 0.680483
O O1 0.500000 0.832410 0.457148
O O2 0.269883 0.899407 0.423646
O O3 0.276845 0.832053 0.534611
O O4 0.270741 0.762619 0.427807
O O5 0.500000 0.979384 0.413445
O O6 0.296580 0.000000 0.500000
O O7 0.236372 0.021245 0.374586
O O8 0.215722 0.732725 0.887815
O O9 0.259377 0.603901 0.876404
O O10 0.000000 0.652557 0.912722
O O11 0.219354 0.662723 0.993949
O O12 0.263094 0.856624 0.840951
O O13 0.000000 0.817858 0.885160
O O14 0.750000 0.574856 0.750000
O O15 0.781803 0.480409 0.667036
O O16 0.000000 0.561915 0.684097
O O17 0.255592 0.358460 0.877368
O O18 0.000000 0.316477 0.926374
O O19 0.250000 0.386179 0.750000
O O20 0.500000 0.398218 0.817131
O O21 0.250000 0.945960 0.750000
O O22 0.000000 0.929105 0.684392
#
# Coordination Sequence:
#
# PCOD9415020 Si02
#       8
#     8   8   8   8   8   8   8   8
#     4   8  15  31  57  84 107 136 175 213 261 322
#     4  10  18  34  62  85 106 142 180 219 271 326
#     4   9  19  34  56  83 112 143 179 221 266 321
#     4   9  17  35  57  78 105 141 180 215 262 322
#     4  10  21  36  54  75 105 142 184 227 271 325
#     4   9  18  34  56  83 112 141 176 221 266 320
#     4  10  21  37  56  78 104 141 184 227 274 327
#     4  12  25  38  53  78 112 146 185 230 272 320
#
# _framework density 17.269020999999999
#
# number of rings (size 3 to 8) (size 9 to 14) (size 15 to 20)
#    0.000    2.375    1.250    3.375    0.000    3.750 
#    0.000    5.625    0.000    0.000    0.000    0.000 
#    0.000    0.000    0.000    0.000    0.000    0.000 
#
# Total GULP energy -357084.085700 kJ/mol
# GULP energy per Si atom -5579.438839 kJ/mol
# Density = 1.722972 g / cm^3
# Si number density = 17.269021 Si / 1000 Ang^3
#
#
#
# Elastic Constant Matrix: (Units=GPa)
#
#
# Indices 1 2 3 4 5 6 
#
# 1 56.0799 52.3083 56.5291 0.0000 0.0000 0.0000
# 2 52.3083 114.6032 82.0041 0.0000 0.0000 0.0000
# 3 56.5291 82.0041 108.6809 0.0000 0.0000 0.0000
# 4 0.0000 0.0000 0.0000 23.9137 0.0000 0.0000
# 5 0.0000 0.0000 0.0000 0.0000 30.9250 0.0000
# 6 0.0000 0.0000 0.0000 0.0000 0.0000 31.0830
#
#
#
# Elastic Compliance Matrix: (Units=1/GPa)
#
#
# Indices 1 2 3 4 5 6 
#
# 1 0.040146 -0.007351 -0.015335 0.000000 0.000000 0.000000
# 2 -0.007351 0.020311 -0.011502 0.000000 0.000000 0.000000
# 3 -0.015335 -0.011502 0.025856 0.000000 0.000000 0.000000
# 4 0.000000 0.000000 0.000000 0.041817 0.000000 0.000000
# 5 0.000000 0.000000 0.000000 0.000000 0.032336 0.000000
# 6 0.000000 0.000000 0.000000 0.000000 0.000000 0.032172
#
#
# Mechanical properties :
#
#
# Convention : Reuss Voigt Hill
#
# Bulk Modulus (GPa) = 55.74877 73.44968 64.59923
# Shear Modulus (GPa) = 18.72699 23.08583 20.90641
#
# Velocity S-wave (km/s) = 3.29664 3.66024 3.48319
# Velocity P-wave (km/s) = 6.84420 7.77741 7.32568
#
# Compressibility (1/GPa) = 0.01793762
#
# Stress axis : x y z
#
# Youngs Moduli (GPa) = 24.90907 49.23359 38.67523
#
# Poissons Ratio (x) = 0.36192 0.59308
# Poissons Ratio (y) = 0.18311 0.44485
# Poissons Ratio (z) = 0.38198 0.56629
#
# Static dielectric constant tensor:
#      x y z
#    x 1.575700 0.000000 0.000000 
#    y 0.000000 1.595000 0.000000 
#    z 0.000000 0.000000 1.556410 
# 
# From -- ./inp_files/26966.got.cif
#   From: 2010.05.17/outbox.cif.g08.bks.cpg/sg53_14_cif.got.tgz:26966.got - 2010.06.03 12:45:16.
