data_PCOD9415047
_publ_section_title
;
Structure prediction by ZEFSAII (Michael W. Deem and Ramdas Pophale) SiO2 
 PCOD9415047
Probable space group: P M N A
;
_chemical_formula_sum "Si O2"
_cell_formula_units_Z 64
_cell_length_a 14.826941
_cell_length_b 15.893397
_cell_length_c 12.311964
_cell_angle_alpha 90.000000
_cell_angle_beta 90.000000
_cell_angle_gamma 90.000000
_cell_volume 2901.319975
_symmetry_space_group_name_H-M "P M N A"
_symmetry_group_IT_number 53
_symmetry_cell_setting 'orthorhombic'
loop_
_space_group_symop_operation_xyz
x,y,z
1/2-x,-y,1/2+z
x,-y,-z
1/2-x,y,1/2-z
-x,-y,-z
1/2+x,y,1/2-z
-x,y,z
1/2+x,-y,1/2+z
loop_
_atom_site_type_symbol
_atom_site_label
_atom_site_fract_x
_atom_site_fract_y
_atom_site_fract_z
Si Si1 0.892247 0.848855 0.994205
Si Si2 0.889301 0.590826 0.231709
Si Si3 0.390848 0.915427 0.735190
Si Si4 0.890018 0.595845 0.760336
Si Si5 0.397136 0.741695 0.120983
Si Si6 0.110180 0.654715 0.997644
Si Si7 0.389314 0.757034 0.878061
Si Si8 0.647618 0.896305 0.263353
O O1 0.857784 0.896653 0.887508
O O2 0.000000 0.844769 0.980408
O O3 0.861239 0.752211 0.999195
O O4 0.876477 0.891583 0.109864
O O5 0.862214 0.498284 0.270784
O O6 0.856330 0.666253 0.308373
O O7 0.861263 0.608424 0.107546
O O8 0.000000 0.593264 0.230406
O O9 0.500000 0.914932 0.733856
O O10 0.360154 0.839456 0.811945
O O11 0.364234 0.007964 0.773956
O O12 0.860566 0.671948 0.683168
O O13 0.000000 0.597500 0.758988
O O14 0.861805 0.613699 0.884299
O O15 0.500000 0.714475 0.099138
O O16 0.401585 0.826083 0.192387
O O17 0.357367 0.757943 0.002333
O O18 0.000000 0.653735 0.997939
O O19 0.500000 0.759115 0.875782
O O20 0.750000 0.871064 0.250000
#
# Coordination Sequence:
#
# PCOD9415047 Si02
#       8
#     8   8   8   8   8   8   8   8
#     4  10  18  35  63  85 108 142 185 233 278 327
#     4   9  16  25  45  77 113 146 175 214 268 320
#     4  10  20  38  62  84 106 143 189 234 276 323
#     4   9  15  25  44  79 117 141 169 221 275 314
#     4  10  20  36  55  77 109 150 187 217 260 330
#     4   9  14  24  47  77 111 143 171 215 273 320
#     4   9  18  32  52  78 110 146 181 216 265 320
#     4  12  25  39  54  81 111 141 177 230 286 334
#
# _framework density 22.058926
#
# number of rings (size 3 to 8) (size 9 to 14) (size 15 to 20)
#    0.000    2.250    2.500    1.875    0.000    3.500 
#    4.500    4.375    0.000    0.000    0.000    4.375 
#    0.000    0.000    0.000    0.000    0.000    0.000 
#
# Total GULP energy -357539.321649 kJ/mol
# GULP energy per Si atom -5586.551901 kJ/mol
# Density = 2.200872 g / cm^3
# Si number density = 22.058926 Si / 1000 Ang^3
#
#
#
# Elastic Constant Matrix: (Units=GPa)
#
#
# Indices 1 2 3 4 5 6 
#
# 1 41.6421 -9.2808 -5.1225 0.0000 0.0000 0.0000
# 2 -9.2808 184.2465 78.9998 0.0000 0.0000 0.0000
# 3 -5.1225 78.9998 154.6025 0.0000 0.0000 0.0000
# 4 0.0000 0.0000 0.0000 -20.8428 0.0000 0.0000
# 5 0.0000 0.0000 0.0000 0.0000 -15.2388 0.0000
# 6 0.0000 0.0000 0.0000 0.0000 0.0000 -18.1989
#
#
#
# Elastic Compliance Matrix: (Units=1/GPa)
#
#
# Indices 1 2 3 4 5 6 
#
# 1 0.024293 0.001125 0.000230 0.000000 0.000000 0.000000
# 2 0.001125 0.007002 -0.003541 0.000000 0.000000 0.000000
# 3 0.000230 -0.003541 0.008285 0.000000 0.000000 0.000000
# 4 0.000000 0.000000 0.000000 -0.047978 0.000000 0.000000
# 5 0.000000 0.000000 0.000000 0.000000 -0.065622 0.000000
# 6 0.000000 0.000000 0.000000 0.000000 0.000000 -0.054948
#
#
# Mechanical properties :
#
#
# Convention : Reuss Voigt Hill
#
# Bulk Modulus (GPa) = 28.40167 56.63157 42.51662
# Shear Modulus (GPa) = -44.30275 10.20355 -17.04960
#
# Velocity S-wave (km/s) = -4.48636 2.15305 -2.78315
# Velocity P-wave (km/s) = 3.73273 5.64884 2.99801
#
# Compressibility (1/GPa) = 0.03520919
#
# Stress axis : x y z
#
# Youngs Moduli (GPa) = 41.16380 142.80818 120.69789
#
# Poissons Ratio (x) = -0.16067 -0.02776
# Poissons Ratio (y) = -0.04631 0.42737
# Poissons Ratio (z) = -0.00947 0.50566
#
# Static dielectric constant tensor:
#      x y z
#    x 1.782730 0.000000 0.000000 
#    y 0.000000 1.781560 0.000000 
#    z 0.000000 0.000000 1.751470 
# 
# From -- ./inp_files/17078.got.cif
#   From: 2010.05.17/outbox.cif.g08.bks.cpg/sg53_9_cif.got.tgz:17078.got - 2010.06.03 12:45:16.
