data_PCOD9415403
_publ_section_title
;
Structure prediction by ZEFSAII (Michael W. Deem and Ramdas Pophale) SiO2 
 PCOD9415403
Probable space group: P M N A
;
_chemical_formula_sum "Si O2"
_cell_formula_units_Z 64
_cell_length_a 9.088296
_cell_length_b 21.732974
_cell_length_c 19.181176
_cell_angle_alpha 90.000000
_cell_angle_beta 90.000000
_cell_angle_gamma 90.000000
_cell_volume 3788.583417
_symmetry_space_group_name_H-M "P M N A"
_symmetry_group_IT_number 53
_symmetry_cell_setting 'orthorhombic'
loop_
_space_group_symop_operation_xyz
x,y,z
1/2-x,-y,1/2+z
x,-y,-z
1/2-x,y,1/2-z
-x,-y,-z
1/2+x,y,1/2-z
-x,y,z
1/2+x,-y,1/2+z
loop_
_atom_site_type_symbol
_atom_site_label
_atom_site_fract_x
_atom_site_fract_y
_atom_site_fract_z
Si Si1 0.168107 0.767529 0.859826
Si Si2 0.675180 0.890866 0.818193
Si Si3 0.674277 0.647417 0.901577
Si Si4 0.174926 0.394624 0.824649
Si Si5 0.324866 0.538862 0.675081
Si Si6 0.167565 0.188430 0.978851
Si Si7 0.326027 0.308968 0.938722
Si Si8 0.176462 0.067651 0.473696
O O1 0.260672 0.821979 0.825446
O O2 0.249090 0.702238 0.857922
O O3 0.000000 0.764626 0.833812
O O4 0.162563 0.786898 0.941360
O O5 0.750000 0.919467 0.750000
O O6 0.500000 0.889224 0.810199
O O7 0.710812 0.923824 0.891521
O O8 0.500000 0.645756 0.887672
O O9 0.750653 0.584031 0.880280
O O10 0.694900 0.663547 0.983243
O O11 0.250000 0.382812 0.750000
O O12 0.199656 0.466877 0.841577
O O13 0.244997 0.351715 0.883222
O O14 0.000000 0.384821 0.819886
O O15 0.250000 0.550816 0.750000
O O16 0.500000 0.549560 0.679061
O O17 0.259205 0.240282 0.938555
O O18 0.000000 0.184144 0.953455
O O19 0.244064 0.122132 0.984281
O O20 0.500000 0.307047 0.925220
O O21 0.000000 0.075300 0.481040
O O22 0.217152 0.000000 0.500000
#
# Coordination Sequence:
#
# PCOD9415403 Si02
#       8
#     8   8   8   8   8   8   8   8
#     4   9  17  30  47  68  96 128 162 200 243 290
#     4  10  19  31  48  71 100 132 168 208 247 291
#     4  10  20  33  50  74 103 134 169 208 252 302
#     4  10  21  37  56  76  99 129 168 213 262 315
#     4  10  21  36  52  70  96 131 169 211 258 309
#     4   9  17  30  50  76 103 128 159 202 246 290
#     4  10  20  34  54  78 104 134 167 208 256 304
#     4   9  18  33  53  76 103 137 173 207 248 299
#
# _framework density 16.892858
#
# number of rings (size 3 to 8) (size 9 to 14) (size 15 to 20)
#    0.000    2.375    0.000    2.625    0.000    7.750 
#    0.000    5.000    0.000    0.750    0.000    3.500 
#    0.000    0.000    0.000    0.000    0.000    0.000 
#
# Total GULP energy -357043.414820 kJ/mol
# GULP energy per Si atom -5578.803357 kJ/mol
# Density = 1.685441 g / cm^3
# Si number density = 16.892858 Si / 1000 Ang^3
#
#
#
# Elastic Constant Matrix: (Units=GPa)
#
#
# Indices 1 2 3 4 5 6 
#
# 1 114.7181 84.6027 58.7615 0.0000 0.0000 0.0000
# 2 84.6027 128.2113 63.4978 0.0000 0.0000 0.0000
# 3 58.7615 63.4978 62.9970 0.0000 0.0000 0.0000
# 4 0.0000 0.0000 0.0000 13.3428 0.0000 0.0000
# 5 0.0000 0.0000 0.0000 0.0000 27.3061 0.0000
# 6 0.0000 0.0000 0.0000 0.0000 0.0000 28.5401
#
#
#
# Elastic Compliance Matrix: (Units=1/GPa)
#
#
# Indices 1 2 3 4 5 6 
#
# 1 0.020048 -0.007923 -0.010715 0.000000 0.000000 0.000000
# 2 -0.007923 0.018705 -0.011464 0.000000 0.000000 0.000000
# 3 -0.010715 -0.011464 0.037423 0.000000 0.000000 0.000000
# 4 0.000000 0.000000 0.000000 0.074947 0.000000 0.000000
# 5 0.000000 0.000000 0.000000 0.000000 0.036622 0.000000
# 6 0.000000 0.000000 0.000000 0.000000 0.000000 0.035038
#
#
# Mechanical properties :
#
#
# Convention : Reuss Voigt Hill
#
# Bulk Modulus (GPa) = 62.60157 79.96117 71.28137
# Shear Modulus (GPa) = 17.34242 20.44207 18.89225
#
# Velocity S-wave (km/s) = 3.20756 3.48243 3.34781
# Velocity P-wave (km/s) = 7.13136 7.97539 7.56515
#
# Compressibility (1/GPa) = 0.01597404
#
# Stress axis : x y z
#
# Youngs Moduli (GPa) = 49.87991 53.46137 26.72158
#
# Poissons Ratio (x) = 0.42356 0.28631
# Poissons Ratio (y) = 0.39518 0.30633
# Poissons Ratio (z) = 0.53444 0.61287
#
# Static dielectric constant tensor:
#      x y z
#    x 1.567440 0.000000 0.000000 
#    y 0.000000 1.547410 0.000000 
#    z 0.000000 0.000000 1.571390 
# 
# From -- ./inp_files/31408.got.cif
#   From: 2010.05.17/outbox.cif.g08.bks.cpg/sg53_16_cif.got.tgz:31408.got - 2010.06.03 12:45:16.
