data_PCOD9415007
_publ_section_title
;
Structure prediction by ZEFSAII (Michael W. Deem and Ramdas Pophale) SiO2 
 PCOD9415007
Probable space group: P M N A
;
_chemical_formula_sum "Si O2"
_cell_formula_units_Z 64
_cell_length_a 8.429651
_cell_length_b 17.625732
_cell_length_c 20.611610
_cell_angle_alpha 90.000000
_cell_angle_beta 90.000000
_cell_angle_gamma 90.000000
_cell_volume 3062.447649
_symmetry_space_group_name_H-M "P M N A"
_symmetry_group_IT_number 53
_symmetry_cell_setting 'orthorhombic'
loop_
_space_group_symop_operation_xyz
x,y,z
1/2-x,-y,1/2+z
x,-y,-z
1/2-x,y,1/2-z
-x,-y,-z
1/2+x,y,1/2-z
-x,y,z
1/2+x,-y,1/2+z
loop_
_atom_site_type_symbol
_atom_site_label
_atom_site_fract_x
_atom_site_fract_y
_atom_site_fract_z
Si Si1 0.808452 0.121556 0.917573
Si Si2 0.179177 0.417419 0.983975
Si Si3 0.178885 0.414582 0.831398
Si Si4 0.314452 0.305313 0.075271
Si Si5 0.192722 0.246933 0.817794
Si Si6 0.311247 0.417403 0.316162
Si Si7 0.808977 0.133233 0.436075
Si Si8 0.190372 0.981066 0.825101
O O1 0.759672 0.199882 0.881725
O O2 0.000000 0.120789 0.922865
O O3 0.762142 0.056933 0.865267
O O4 0.743903 0.109913 0.990641
O O5 0.162341 0.413797 0.908062
O O6 0.000000 0.414486 0.013080
O O7 0.248507 0.500000 0.000000
O O8 0.279657 0.347230 0.008106
O O9 0.256064 0.333479 0.817076
O O10 0.256522 0.496379 0.818438
O O11 0.000000 0.414578 0.802254
O O12 0.500000 0.301119 0.088510
O O13 0.239798 0.363524 0.126076
O O14 0.251620 0.219992 0.074003
O O15 0.250000 0.210629 0.750000
O O16 0.000000 0.249280 0.818394
O O17 0.250000 0.381752 0.250000
O O18 0.500000 0.424251 0.317046
O O19 0.747095 0.084430 0.375131
O O20 0.000000 0.130851 0.435267
O O21 0.250000 0.977278 0.750000
O O22 0.000000 0.979465 0.821796
#
# Coordination Sequence:
#
# PCOD9415007 Si02
#       8
#     8   8   8   8   8   8   8   8
#     4  10  22  41  66  96 128 164 205 252 309 373
#     4  10  18  34  59  83 109 149 197 246 302 366
#     4   9  18  33  54  81 113 151 197 244 299 364
#     4  11  24  40  57  85 119 155 199 250 306 359
#     4  10  20  35  56  84 122 162 202 252 308 372
#     4  11  22  38  57  79 109 151 201 250 301 359
#     4  11  25  43  65  94 129 166 210 259 311 373
#     4  11  24  43  69 100 132 167 208 253 308 373
#
# _framework density 20.898316000000001
#
# number of rings (size 3 to 8) (size 9 to 14) (size 15 to 20)
#    0.000    1.625    1.250    3.375    0.000    6.750 
#    0.000    1.250    0.000    0.000    0.000    0.000 
#    0.000    0.000    0.000    0.000    0.000    0.000 
#
# Total GULP energy -356956.832571 kJ/mol
# GULP energy per Si atom -5577.450509 kJ/mol
# Density = 2.085075 g / cm^3
# Si number density = 20.898316 Si / 1000 Ang^3
#
#
#
# Elastic Constant Matrix: (Units=GPa)
#
#
# Indices 1 2 3 4 5 6 
#
# 1 29.2300 25.4466 27.8512 0.0000 0.0000 0.0000
# 2 25.4466 132.6983 66.0774 0.0000 0.0000 0.0000
# 3 27.8512 66.0774 168.1319 0.0000 0.0000 0.0000
# 4 0.0000 0.0000 0.0000 -77.9445 0.0000 0.0000
# 5 0.0000 0.0000 0.0000 0.0000 32.7340 0.0000
# 6 0.0000 0.0000 0.0000 0.0000 0.0000 22.9450
#
#
#
# Elastic Compliance Matrix: (Units=1/GPa)
#
#
# Indices 1 2 3 4 5 6 
#
# 1 0.044157 -0.005999 -0.004957 0.000000 0.000000 0.000000
# 2 -0.005999 0.010185 -0.003009 0.000000 0.000000 0.000000
# 3 -0.004957 -0.003009 0.007951 0.000000 0.000000 0.000000
# 4 0.000000 0.000000 0.000000 -0.012830 0.000000 0.000000
# 5 0.000000 0.000000 0.000000 0.000000 0.030549 0.000000
# 6 0.000000 0.000000 0.000000 0.000000 0.000000 0.043583
#
#
# Mechanical properties :
#
#
# Convention : Reuss Voigt Hill
#
# Bulk Modulus (GPa) = 29.10109 63.20119 46.15114
# Shear Modulus (GPa) = 30.67860 9.59256 20.13558
#
# Velocity S-wave (km/s) = 3.83560 2.14478 3.10740
# Velocity P-wave (km/s) = 5.79405 6.03667 5.91660
#
# Compressibility (1/GPa) = 0.03436297
#
# Stress axis : x y z
#
# Youngs Moduli (GPa) = 22.64631 98.18727 125.76536
#
# Poissons Ratio (x) = 0.58907 0.62340
# Poissons Ratio (y) = 0.13587 0.37841
# Poissons Ratio (z) = 0.11225 0.29543
#
# Static dielectric constant tensor:
#      x y z
#    x 1.730070 0.000000 0.000000 
#    y 0.000000 1.794940 0.000000 
#    z 0.000000 0.000000 1.774860 
# 
# From -- ./inp_files/31221.got.cif
#   From: 2010.05.17/outbox.cif.g08.bks.cpg/sg53_16_cif.got.tgz:31221.got - 2010.06.03 12:45:16.
