data_PCOD9415872
_publ_section_title
;
Structure prediction by ZEFSAII (Michael W. Deem and Ramdas Pophale) SiO2 
 PCOD9415872
Probable space group: P M N A
;
_chemical_formula_sum "Si O2"
_cell_formula_units_Z 40
_cell_length_a 8.594431
_cell_length_b 13.008726
_cell_length_c 21.595705
_cell_angle_alpha 90.000000
_cell_angle_beta 90.000000
_cell_angle_gamma 90.000000
_cell_volume 2414.455925
_symmetry_space_group_name_H-M "P M N A"
_symmetry_group_IT_number 53
_symmetry_cell_setting 'orthorhombic'
loop_
_space_group_symop_operation_xyz
x,y,z
1/2-x,-y,1/2+z
x,-y,-z
1/2-x,y,1/2-z
-x,-y,-z
1/2+x,y,1/2-z
-x,y,z
1/2+x,-y,1/2+z
loop_
_atom_site_type_symbol
_atom_site_label
_atom_site_fract_x
_atom_site_fract_y
_atom_site_fract_z
Si Si1 0.812082 0.250355 0.180837
Si Si2 0.686542 0.576872 0.583531
Si Si3 0.311007 0.923645 0.587609
Si Si4 0.188030 0.854255 0.051047
Si Si5 0.184703 0.635056 0.448535
O O1 0.750000 0.253738 0.250000
O O2 0.766618 0.349399 0.139823
O O3 0.757768 0.149447 0.142892
O O4 0.000000 0.248085 0.182505
O O5 0.500000 0.580215 0.577504
O O6 0.741622 0.459529 0.589213
O O7 0.756951 0.618973 0.519233
O O8 0.500000 0.923655 0.588193
O O9 0.267833 0.875906 0.520826
O O10 0.263285 0.042964 0.587808
O O11 0.260597 0.747476 0.072122
O O12 0.000000 0.846217 0.053104
O O13 0.000000 0.626584 0.447012
#
# Coordination Sequence:
#
# PCOD9415872 Si02
#       5
#     8   8   8   8   8
#     4  10  20  34  52  74  99 130 166 203 243 289
#     4  10  19  33  51  69  95 133 174 200 235 300
#     4   8  15  29  50  73  95 126 169 204 232 283
#     4   9  15  29  52  72  96 129 164 202 241 292
#     4  11  20  29  46  75 107 128 154 206 262 294
#
# _framework density 16.566880000000001
#
# number of rings (size 3 to 8) (size 9 to 14) (size 15 to 20)
#    0.000    2.400    2.000    4.800    0.000    1.600 
#    0.000    3.000    0.000    1.200    0.000    2.800 
#    0.000    0.000    0.000    0.000    0.000    0.000 
#
# Total GULP energy -223012.250922 kJ/mol
# GULP energy per Si atom -5575.306273 kJ/mol
# Density = 1.652917 g / cm^3
# Si number density = 16.566880 Si / 1000 Ang^3
#
#
#
# Elastic Constant Matrix: (Units=GPa)
#
#
# Indices 1 2 3 4 5 6 
#
# 1 28.6089 14.2721 15.0838 0.0000 0.0000 0.0000
# 2 14.2721 149.3490 62.0650 0.0000 0.0000 0.0000
# 3 15.0838 62.0650 92.4732 0.0000 0.0000 0.0000
# 4 0.0000 0.0000 0.0000 19.1741 0.0000 0.0000
# 5 0.0000 0.0000 0.0000 0.0000 20.8471 0.0000
# 6 0.0000 0.0000 0.0000 0.0000 0.0000 2.4132
#
#
#
# Elastic Compliance Matrix: (Units=1/GPa)
#
#
# Indices 1 2 3 4 5 6 
#
# 1 0.038478 -0.001482 -0.005282 0.000000 0.000000 0.000000
# 2 -0.001482 0.009343 -0.006029 0.000000 0.000000 0.000000
# 3 -0.005282 -0.006029 0.015722 0.000000 0.000000 0.000000
# 4 0.000000 0.000000 0.000000 0.052154 0.000000 0.000000
# 5 0.000000 0.000000 0.000000 0.000000 0.047968 0.000000
# 6 0.000000 0.000000 0.000000 0.000000 0.000000 0.414388
#
#
# Mechanical properties :
#
#
# Convention : Reuss Voigt Hill
#
# Bulk Modulus (GPa) = 26.34515 50.36366 38.35441
# Shear Modulus (GPa) = 8.11305 20.42089 14.26697
#
# Velocity S-wave (km/s) = 2.21535 3.51470 2.93776
# Velocity P-wave (km/s) = 4.74136 6.85106 5.89141
#
# Compressibility (1/GPa) = 0.03795765
#
# Stress axis : x y z
#
# Youngs Moduli (GPa) = 25.98868 107.03481 63.60603
#
# Poissons Ratio (x) = 0.15864 0.33594
# Poissons Ratio (y) = 0.03852 0.38347
# Poissons Ratio (z) = 0.13726 0.64529
#
# Static dielectric constant tensor:
#      x y z
#    x 1.560880 0.000000 0.000000 
#    y 0.000000 1.591130 0.000000 
#    z 0.000000 0.000000 1.521970 
# 
# From -- ./inp_files/30446.got.cif
#   From: 2010.05.17/outbox.cif.g08.bks.cpg/sg53_16_cif.got.tgz:30446.got - 2010.06.03 12:45:16.
