data_PCOD9415440
_publ_section_title
;
Structure prediction by ZEFSAII (Michael W. Deem and Ramdas Pophale) SiO2 
 PCOD9415440
Probable space group: P M N A
;
_chemical_formula_sum "Si O2"
_cell_formula_units_Z 64
_cell_length_a 28.787246
_cell_length_b 14.987099
_cell_length_c 8.631493
_cell_angle_alpha 90.000000
_cell_angle_beta 90.000000
_cell_angle_gamma 90.000000
_cell_volume 3723.948084
_symmetry_space_group_name_H-M "P M N A"
_symmetry_group_IT_number 53
_symmetry_cell_setting 'orthorhombic'
loop_
_space_group_symop_operation_xyz
x,y,z
1/2-x,-y,1/2+z
x,-y,-z
1/2-x,y,1/2-z
-x,-y,-z
1/2+x,y,1/2-z
-x,y,z
1/2+x,-y,1/2+z
loop_
_atom_site_type_symbol
_atom_site_label
_atom_site_fract_x
_atom_site_fract_y
_atom_site_fract_z
Si Si1 0.444973 0.312601 0.858543
Si Si2 0.943721 0.859035 0.173609
Si Si3 0.703633 0.376416 0.161071
Si Si4 0.799767 0.408140 0.691179
Si Si5 0.444287 0.791716 0.657759
Si Si6 0.894940 0.448844 0.834627
Si Si7 0.443419 0.964262 0.833490
Si Si8 0.601390 0.365692 0.180428
O O1 0.500000 0.317174 0.894827
O O2 0.432883 0.211760 0.808477
O O3 0.433213 0.375505 0.710859
O O4 0.415046 0.343709 0.006185
O O5 0.929226 0.959468 0.211590
O O6 0.000000 0.860719 0.165978
O O7 0.926719 0.822082 0.009988
O O8 0.750000 0.344554 0.250000
O O9 0.704067 0.484213 0.175957
O O10 0.654625 0.342276 0.224061
O O11 0.697417 0.363893 0.977220
O O12 0.750000 0.376609 0.750000
O O13 0.845173 0.401027 0.799857
O O14 0.500000 0.794725 0.654321
O O15 0.429571 0.693835 0.707260
O O16 0.428327 0.866025 0.782428
O O17 0.902170 0.529163 0.711843
O O18 0.895799 0.500000 0.000000
O O19 0.500000 0.962108 0.836848
O O20 0.428044 0.000000 0.000000
#
# Coordination Sequence:
#
# PCOD9415440 Si02
#       8
#     8   8   8   8   8   8   8   8
#     4  11  22  36  51  68  99 144 185 221 256 298
#     4   9  18  32  48  69  97 129 169 214 256 296
#     4   9  18  32  50  71  95 121 157 207 262 309
#     4   9  18  31  51  72  93 119 159 210 268 317
#     4  10  19  31  49  73 101 135 168 205 253 301
#     4  11  23  35  49  72 101 137 178 219 256 304
#     4   9  16  28  48  72  97 127 164 207 256 302
#     4  11  21  34  49  71 101 131 174 212 254 307
#
# _framework density 17.186063000000001
#
# number of rings (size 3 to 8) (size 9 to 14) (size 15 to 20)
#    0.000    2.125    1.250    2.625    5.250    5.250 
#    0.000    0.000    0.000    0.000    0.000    0.000 
#    0.000    7.000    0.000    0.000    0.000    0.125 
#
# Total GULP energy -356401.138814 kJ/mol
# GULP energy per Si atom -5568.767794 kJ/mol
# Density = 1.714695 g / cm^3
# Si number density = 17.186063 Si / 1000 Ang^3
#
#
#
# Elastic Constant Matrix: (Units=GPa)
#
#
# Indices 1 2 3 4 5 6 
#
# 1 50.0404 10.0712 12.4536 0.0000 0.0000 0.0000
# 2 10.0712 36.8244 -8.6568 0.0000 0.0000 0.0000
# 3 12.4536 -8.6568 50.8002 0.0000 0.0000 0.0000
# 4 0.0000 0.0000 0.0000 19.2745 0.0000 0.0000
# 5 0.0000 0.0000 0.0000 0.0000 20.1564 0.0000
# 6 0.0000 0.0000 0.0000 0.0000 0.0000 -3.2326
#
#
#
# Elastic Compliance Matrix: (Units=1/GPa)
#
#
# Indices 1 2 3 4 5 6 
#
# 1 0.023375 -0.008063 -0.007104 0.000000 0.000000 0.000000
# 2 -0.008063 0.031070 0.007271 0.000000 0.000000 0.000000
# 3 -0.007104 0.007271 0.022666 0.000000 0.000000 0.000000
# 4 0.000000 0.000000 0.000000 0.051882 0.000000 0.000000
# 5 0.000000 0.000000 0.000000 0.000000 0.049612 0.000000
# 6 0.000000 0.000000 0.000000 0.000000 0.000000 -0.309352
#
#
# Mechanical properties :
#
#
# Convention : Reuss Voigt Hill
#
# Bulk Modulus (GPa) = 16.30816 18.37789 17.34303
# Shear Modulus (GPa) = -52.90093 15.49281 -18.70406
#
# Velocity S-wave (km/s) = -5.55411 3.00571 -3.30256
# Velocity P-wave (km/s) = 5.62326 4.77100 2.10459
#
# Compressibility (1/GPa) = 0.06131898
#
# Stress axis : x y z
#
# Youngs Moduli (GPa) = 42.78138 32.18496 44.11963
#
# Poissons Ratio (x) = 0.25950 0.31344
# Poissons Ratio (y) = 0.34494 -0.32081
# Poissons Ratio (z) = 0.30393 -0.23403
#
# Static dielectric constant tensor:
#      x y z
#    x 1.598250 0.000000 0.000000 
#    y 0.000000 1.565180 0.000000 
#    z 0.000000 0.000000 1.668450 
# 
# From -- ./inp_files/13285.got.cif
#   From: 2010.05.17/outbox.cif.g08.bks.cpg/sg53_7_cif.got.tgz:13285.got - 2010.06.03 12:45:16.
