data_PCOD9415171
_publ_section_title
;
Structure prediction by ZEFSAII (Michael W. Deem and Ramdas Pophale) SiO2 
 PCOD9415171
Probable space group: P M N A
;
_chemical_formula_sum "Si O2"
_cell_formula_units_Z 64
_cell_length_a 8.249374
_cell_length_b 17.942375
_cell_length_c 27.384799
_cell_angle_alpha 90.000000
_cell_angle_beta 90.000000
_cell_angle_gamma 90.000000
_cell_volume 4053.316163
_symmetry_space_group_name_H-M "P M N A"
_symmetry_group_IT_number 53
_symmetry_cell_setting 'orthorhombic'
loop_
_space_group_symop_operation_xyz
x,y,z
1/2-x,-y,1/2+z
x,-y,-z
1/2-x,y,1/2-z
-x,-y,-z
1/2+x,y,1/2-z
-x,y,z
1/2+x,-y,1/2+z
loop_
_atom_site_type_symbol
_atom_site_label
_atom_site_fract_x
_atom_site_fract_y
_atom_site_fract_z
Si Si1 0.196933 0.479823 0.891419
Si Si2 0.688618 0.666865 0.436396
Si Si3 0.194355 0.412300 0.194825
Si Si4 0.311978 0.017009 0.941672
Si Si5 0.311275 0.395177 0.036310
Si Si6 0.302899 0.143704 0.076825
Si Si7 0.194339 0.825917 0.465707
Si Si8 0.306410 0.288436 0.379094
O O1 0.251773 0.394680 0.898080
O O2 0.250594 0.522653 0.842386
O O3 0.258182 0.529282 0.936875
O O4 0.000000 0.480964 0.892869
O O5 0.500000 0.679029 0.426793
O O6 0.711016 0.626885 0.488804
O O7 0.768078 0.747591 0.440976
O O8 0.250000 0.420032 0.250000
O O9 0.241501 0.333684 0.169550
O O10 0.000000 0.415044 0.194688
O O11 0.500000 0.021143 0.925822
O O12 0.240305 0.100006 0.938388
O O13 0.243884 0.941719 0.917817
O O14 0.312779 0.000000 0.000000
O O15 0.500000 0.398064 0.022991
O O16 0.281323 0.331182 0.076587
O O17 0.500000 0.143619 0.077429
O O18 0.239700 0.202409 0.116094
O O19 0.250253 0.171310 0.022443
O O20 0.000000 0.834185 0.467960
O O21 0.500000 0.297311 0.385504
#
# Coordination Sequence:
#
# PCOD9415171 Si02
#       8
#     8   8   8   8   8   8   8   8
#     4   9  20  35  46  60  84 113 140 171 218 267
#     4  11  20  29  42  59  86 119 146 175 215 258
#     4   9  19  35  51  65  83 108 138 174 218 264
#     4   7  12  23  38  56  81 114 147 179 213 240
#     4  11  20  29  42  61  84 112 148 184 211 243
#     4   9  15  25  42  62  84 114 151 182 209 246
#     4   9  16  26  40  59  85 117 152 185 211 240
#     4  10  19  30  44  64  90 116 141 174 219 263
#
# _framework density 15.789540000000001
#
# number of rings (size 3 to 8) (size 9 to 14) (size 15 to 20)
#    0.000    2.625    1.250    4.500    0.000    5.000 
#    0.000    0.625    0.000    2.250    0.000    0.000 
#    0.000    1.000    0.000    4.500    0.000    4.000 
#
# Total GULP energy -356422.122335 kJ/mol
# GULP energy per Si atom -5569.095661 kJ/mol
# Density = 1.575360 g / cm^3
# Si number density = 15.789540 Si / 1000 Ang^3
#
#
#
# Elastic Constant Matrix: (Units=GPa)
#
#
# Indices 1 2 3 4 5 6 
#
# 1 11.5854 9.6923 1.1713 0.0000 0.0000 0.0000
# 2 9.6923 152.9429 44.0356 0.0000 0.0000 0.0000
# 3 1.1713 44.0356 52.7202 0.0000 0.0000 0.0000
# 4 0.0000 0.0000 0.0000 10.6783 0.0000 0.0000
# 5 0.0000 0.0000 0.0000 0.0000 3.7256 0.0000
# 6 0.0000 0.0000 0.0000 0.0000 0.0000 -18.2723
#
#
#
# Elastic Compliance Matrix: (Units=1/GPa)
#
#
# Indices 1 2 3 4 5 6 
#
# 1 0.091696 -0.006879 0.003708 0.000000 0.000000 0.000000
# 2 -0.006879 0.009125 -0.007469 0.000000 0.000000 0.000000
# 3 0.003708 -0.007469 0.025124 0.000000 0.000000 0.000000
# 4 0.000000 0.000000 0.000000 0.093648 0.000000 0.000000
# 5 0.000000 0.000000 0.000000 0.000000 0.268416 0.000000
# 6 0.000000 0.000000 0.000000 0.000000 0.000000 -0.054728
#
#
# Mechanical properties :
#
#
# Convention : Reuss Voigt Hill
#
# Bulk Modulus (GPa) = 9.55418 36.33855 22.94637
# Shear Modulus (GPa) = 10.21560 10.04960 10.13260
#
# Velocity S-wave (km/s) = 2.54635 2.52558 2.53598
# Velocity P-wave (km/s) = 3.83527 5.61863 4.81032
#
# Compressibility (1/GPa) = 0.10466624
#
# Stress axis : x y z
#
# Youngs Moduli (GPa) = 10.90565 109.59221 39.80237
#
# Poissons Ratio (x) = 0.75385 -0.14760
# Poissons Ratio (y) = 0.07502 0.29728
# Poissons Ratio (z) = -0.04044 0.81852
#
# Static dielectric constant tensor:
#      x y z
#    x 1.553280 0.000000 0.000000 
#    y 0.000000 1.594470 0.000000 
#    z 0.000000 0.000000 1.499340 
# 
# From -- ./inp_files/34474.got.cif
#   From: 2010.05.17/outbox.cif.g08.bks.cpg/sg53_18_cif.got.tgz:34474.got - 2010.06.03 12:45:16.
