data_PCOD9415977
_publ_section_title
;
Structure prediction by ZEFSAII (Michael W. Deem and Ramdas Pophale) SiO2 
 PCOD9415977
Probable space group: P M N A
;
_chemical_formula_sum "Si O2"
_cell_formula_units_Z 64
_cell_length_a 8.727167
_cell_length_b 28.509366
_cell_length_c 11.489657
_cell_angle_alpha 90.000000
_cell_angle_beta 90.000000
_cell_angle_gamma 90.000000
_cell_volume 2858.695578
_symmetry_space_group_name_H-M "P M N A"
_symmetry_group_IT_number 53
_symmetry_cell_setting 'orthorhombic'
loop_
_space_group_symop_operation_xyz
x,y,z
1/2-x,-y,1/2+z
x,-y,-z
1/2-x,y,1/2-z
-x,-y,-z
1/2+x,y,1/2-z
-x,y,z
1/2+x,-y,1/2+z
loop_
_atom_site_type_symbol
_atom_site_label
_atom_site_fract_x
_atom_site_fract_y
_atom_site_fract_z
Si Si1 0.324890 0.154221 0.371070
Si Si2 0.675142 0.282892 0.856168
Si Si3 0.679768 0.612766 0.099184
Si Si4 0.316523 0.127767 0.875874
Si Si5 0.823430 0.634154 0.867049
Si Si6 0.165947 0.258575 0.071700
Si Si7 0.184683 0.022711 0.871774
Si Si8 0.819853 0.514374 0.129584
O O1 0.250000 0.136094 0.250000
O O2 0.500000 0.136608 0.379154
O O3 0.246472 0.145960 0.497886
O O4 0.330923 0.210914 0.358242
O O5 0.750000 0.256757 0.750000
O O6 0.500000 0.289151 0.831991
O O7 0.741481 0.335695 0.866114
O O8 0.702181 0.258044 0.976908
O O9 0.500000 0.606329 0.128599
O O10 0.784782 0.569906 0.136064
O O11 0.705491 0.616277 0.962311
O O12 0.250000 0.145857 0.750000
O O13 0.500000 0.133326 0.873516
O O14 0.265532 0.073332 0.876908
O O15 0.750000 0.617038 0.750000
O O16 0.824669 0.691233 0.866338
O O17 0.000000 0.619406 0.888008
O O18 0.000000 0.259284 0.008393
O O19 0.250000 0.000284 0.750000
O O20 0.000000 0.026996 0.859677
O O21 0.213626 0.000000 0.000000
O O22 0.750000 0.494462 0.250000
O O23 0.000000 0.504890 0.130857
O O24 0.760040 0.500000 0.000000
#
# Coordination Sequence:
#
# PCOD9415977 Si02
#       8
#     8   8   8   8   8   8   8   8
#     4  11  23  40  61  87 119 158 206 256 307 362
#     4  10  20  33  53  80 110 144 185 233 285 344
#     4  10  21  37  58  84 113 148 187 231 285 341
#     4  11  23  41  64  89 121 162 206 254 308 365
#     4  10  19  33  54  81 113 149 190 237 290 347
#     4   9  20  36  54  77 109 149 192 241 294 349
#     4  10  21  38  62  92 125 160 200 248 303 364
#     4  11  25  44  66  92 121 155 195 239 289 346
#
# _framework density 22.387834000000002
#
# number of rings (size 3 to 8) (size 9 to 14) (size 15 to 20)
#    0.000    1.750    0.000    4.875    0.000    7.500 
#    0.000    2.500    0.000    0.000    0.000    0.000 
#    0.000    0.000    0.000    0.000    0.000    0.000 
#
# Total GULP energy -356676.639873 kJ/mol
# GULP energy per Si atom -5573.072498 kJ/mol
# Density = 2.233688 g / cm^3
# Si number density = 22.387834 Si / 1000 Ang^3
#
#
#
# Elastic Constant Matrix: (Units=GPa)
#
#
# Indices 1 2 3 4 5 6 
#
# 1 108.5960 13.6461 61.0313 0.0000 0.0000 0.0000
# 2 13.6461 53.6718 21.4389 0.0000 0.0000 0.0000
# 3 61.0313 21.4389 184.2466 0.0000 0.0000 0.0000
# 4 0.0000 0.0000 0.0000 -21.4393 0.0000 0.0000
# 5 0.0000 0.0000 0.0000 0.0000 38.4789 0.0000
# 6 0.0000 0.0000 0.0000 0.0000 0.0000 26.7771
#
#
#
# Elastic Compliance Matrix: (Units=1/GPa)
#
#
# Indices 1 2 3 4 5 6 
#
# 1 0.011423 -0.001461 -0.003614 0.000000 0.000000 0.000000
# 2 -0.001461 0.019727 -0.001812 0.000000 0.000000 0.000000
# 3 -0.003614 -0.001812 0.006835 0.000000 0.000000 0.000000
# 4 0.000000 0.000000 0.000000 -0.046643 0.000000 0.000000
# 5 0.000000 0.000000 0.000000 0.000000 0.025988 0.000000
# 6 0.000000 0.000000 0.000000 0.000000 0.000000 0.037345
#
#
# Mechanical properties :
#
#
# Convention : Reuss Voigt Hill
#
# Bulk Modulus (GPa) = 41.30041 59.86075 50.58058
# Shear Modulus (GPa) = 65.34358 25.45656 45.40007
#
# Velocity S-wave (km/s) = 5.40837 3.37571 4.50810
# Velocity P-wave (km/s) = 7.58211 6.47997 7.05260
#
# Compressibility (1/GPa) = 0.02421284
#
# Stress axis : x y z
#
# Youngs Moduli (GPa) = 87.54264 50.69255 146.29754
#
# Poissons Ratio (x) = 0.07405 0.52870
# Poissons Ratio (y) = 0.12788 0.26502
# Poissons Ratio (z) = 0.31637 0.09183
#
# Static dielectric constant tensor:
#      x y z
#    x 1.813210 0.000000 0.000000 
#    y 0.000000 1.855490 0.000000 
#    z 0.000000 0.000000 1.992020 
# 
# From -- ./inp_files/14240.got.cif
#   From: 2010.05.17/outbox.cif.g08.bks.cpg/sg53_8_cif.got.tgz:14240.got - 2010.06.03 12:45:16.
