data_PCOD9415217
_publ_section_title
;
Structure prediction by ZEFSAII (Michael W. Deem and Ramdas Pophale) SiO2 
 PCOD9415217
Probable space group: P M N A
;
_chemical_formula_sum "Si O2"
_cell_formula_units_Z 56
_cell_length_a 9.148701
_cell_length_b 19.788657
_cell_length_c 18.353452
_cell_angle_alpha 90.000000
_cell_angle_beta 90.000000
_cell_angle_gamma 90.000000
_cell_volume 3322.718238
_symmetry_space_group_name_H-M "P M N A"
_symmetry_group_IT_number 53
_symmetry_cell_setting 'orthorhombic'
loop_
_space_group_symop_operation_xyz
x,y,z
1/2-x,-y,1/2+z
x,-y,-z
1/2-x,y,1/2-z
-x,-y,-z
1/2+x,y,1/2-z
-x,y,z
1/2+x,-y,1/2+z
loop_
_atom_site_type_symbol
_atom_site_label
_atom_site_fract_x
_atom_site_fract_y
_atom_site_fract_z
Si Si1 0.666449 0.579873 0.520492
Si Si2 0.331409 0.066981 0.051326
Si Si3 0.328074 0.753343 0.175064
Si Si4 0.328322 0.145961 0.570481
Si Si5 0.170832 0.397280 0.621551
Si Si6 0.328105 0.986706 0.327351
Si Si7 0.824552 0.532749 0.824516
O O1 0.663376 0.500000 0.500000
O O2 0.500000 0.605236 0.512278
O O3 0.772448 0.612053 0.461209
O O4 0.709832 0.579382 0.605208
O O5 0.500000 0.085158 0.064928
O O6 0.248253 0.044582 0.124177
O O7 0.247079 0.123068 0.004515
O O8 0.331367 0.000000 0.000000
O O9 0.250000 0.773472 0.250000
O O10 0.500000 0.769516 0.178297
O O11 0.253067 0.792236 0.108627
O O12 0.311695 0.673089 0.163253
O O13 0.500000 0.159260 0.560309
O O14 0.314211 0.082580 0.626331
O O15 0.262789 0.457962 0.657165
O O16 0.000000 0.416200 0.621582
O O17 0.250000 0.979645 0.250000
O O18 0.500000 0.000277 0.318191
O O19 0.750000 0.555696 0.750000
O O20 0.000000 0.529262 0.818118
#
# Coordination Sequence:
#
# PCOD9415217 Si02
#       7
#     8   8   8   8   8   8   8
#     4   8  16  30  46  65  90 119 151 188 230 276
#     4   9  17  30  48  68  92 122 154 190 233 279
#     4  11  23  35  47  67  94 125 161 195 228 269
#     4  10  20  33  49  68  93 126 160 194 231 274
#     4  10  20  32  47  67  92 124 159 193 229 273
#     4  10  19  30  46  70  97 123 155 193 234 278
#     4  10  19  30  46  69  95 122 152 189 233 277
#
# _framework density 16.853670000000001
#
# number of rings (size 3 to 8) (size 9 to 14) (size 15 to 20)
#    0.000    2.286    0.000    4.286    0.000   11.143 
#    0.000    0.000    0.000    0.000    0.000    1.000 
#    0.000    4.571    0.000    0.000    0.000    0.000 
#
# Total GULP energy -312385.969763 kJ/mol
# GULP energy per Si atom -5578.320889 kJ/mol
# Density = 1.681531 g / cm^3
# Si number density = 16.853670 Si / 1000 Ang^3
#
#
#
# Elastic Constant Matrix: (Units=GPa)
#
#
# Indices 1 2 3 4 5 6 
#
# 1 103.4365 17.2282 36.8290 0.0000 0.0000 0.0000
# 2 17.2282 12.2354 -7.4091 0.0000 0.0000 0.0000
# 3 36.8290 -7.4091 73.5808 0.0000 0.0000 0.0000
# 4 0.0000 0.0000 0.0000 22.1005 0.0000 0.0000
# 5 0.0000 0.0000 0.0000 0.0000 33.8490 0.0000
# 6 0.0000 0.0000 0.0000 0.0000 0.0000 17.4385
#
#
#
# Elastic Compliance Matrix: (Units=1/GPa)
#
#
# Indices 1 2 3 4 5 6 
#
# 1 0.021345 -0.038895 -0.014600 0.000000 0.000000 0.000000
# 2 -0.038895 0.157916 0.035369 0.000000 0.000000 0.000000
# 3 -0.014600 0.035369 0.024460 0.000000 0.000000 0.000000
# 4 0.000000 0.000000 0.000000 0.045248 0.000000 0.000000
# 5 0.000000 0.000000 0.000000 0.000000 0.029543 0.000000
# 6 0.000000 0.000000 0.000000 0.000000 0.000000 0.057344
#
#
# Mechanical properties :
#
#
# Convention : Reuss Voigt Hill
#
# Bulk Modulus (GPa) = 5.97133 31.39433 18.68283
# Shear Modulus (GPa) = 11.68416 24.18457 17.93436
#
# Velocity S-wave (km/s) = 2.63586 3.79221 3.26563
# Velocity P-wave (km/s) = 3.57972 6.15163 5.03274
#
# Compressibility (1/GPa) = 0.16746695
#
# Stress axis : x y z
#
# Youngs Moduli (GPa) = 46.85046 6.33250 40.88381
#
# Poissons Ratio (x) = 0.24631 0.59690
# Poissons Ratio (y) = 1.82227 -1.44602
# Poissons Ratio (z) = 0.68401 -0.22397
#
# Static dielectric constant tensor:
#      x y z
#    x 1.564110 0.000000 0.000000 
#    y 0.000000 1.552660 0.000000 
#    z 0.000000 0.000000 1.584240 
# 
# From -- ./inp_files/26729.got.cif
#   From: 2010.05.17/outbox.cif.g08.bks.cpg/sg53_14_cif.got.tgz:26729.got - 2010.06.03 12:45:16.
