data_PCOD9415807
_publ_section_title
;
Structure prediction by ZEFSAII (Michael W. Deem and Ramdas Pophale) SiO2 
 PCOD9415807
Probable space group: P M N A
;
_chemical_formula_sum "Si O2"
_cell_formula_units_Z 58
_cell_length_a 7.812999
_cell_length_b 16.377302
_cell_length_c 23.572161
_cell_angle_alpha 90.000000
_cell_angle_beta 90.000000
_cell_angle_gamma 90.000000
_cell_volume 3016.195759
_symmetry_space_group_name_H-M "P M N A"
_symmetry_group_IT_number 53
_symmetry_cell_setting 'orthorhombic'
loop_
_space_group_symop_operation_xyz
x,y,z
1/2-x,-y,1/2+z
x,-y,-z
1/2-x,y,1/2-z
-x,-y,-z
1/2+x,y,1/2-z
-x,y,z
1/2+x,-y,1/2+z
loop_
_atom_site_type_symbol
_atom_site_label
_atom_site_fract_x
_atom_site_fract_y
_atom_site_fract_z
Si Si1 0.700186 0.387948 0.014470
Si Si2 0.704069 0.139248 0.183632
Si Si3 0.793190 0.215653 0.683586
Si Si4 0.297035 0.696901 0.619159
Si Si5 0.796537 0.535272 0.816199
Si Si6 0.294097 0.038007 0.816803
Si Si7 0.295764 0.371905 0.884369
Si Si8 0.000000 0.500000 0.000000
O O1 0.500000 0.413937 0.014925
O O2 0.715463 0.312426 0.057048
O O3 0.760963 0.372098 0.949901
O O4 0.844806 0.451751 0.034942
O O5 0.750000 0.148083 0.250000
O O6 0.500000 0.136874 0.180086
O O7 0.763473 0.217540 0.149278
O O8 0.770260 0.050313 0.162476
O O9 0.750000 0.224025 0.750000
O O10 0.731329 0.126512 0.662174
O O11 0.726310 0.293446 0.649213
O O12 0.000000 0.215739 0.679511
O O13 0.500000 0.689223 0.613662
O O14 0.229629 0.619943 0.656482
O O15 0.750000 0.528724 0.750000
O O16 0.740183 0.455215 0.850853
O O17 0.000000 0.537976 0.819183
O O18 0.250000 0.038387 0.750000
O O19 0.500000 0.038309 0.823006
O O20 0.500000 0.363889 0.887175
#
# Coordination Sequence:
#
# PCOD9415807 Si02
#       8
#     8   8   8   8   8   8   8   2
#     4  11  24  40  61  86 111 148 194 246 290 339
#     4  10  19  32  53  82 112 148 186 230 285 343
#     4   9  17  32  52  80 112 145 183 227 279 340
#     4  11  23  39  57  80 109 148 190 238 287 338
#     4  11  24  37  53  75 107 142 179 220 272 333
#     4   8  15  28  49  76 109 142 181 227 276 334
#     4  10  22  37  56  80 109 144 186 230 281 336
#     4  12  22  40  60  82 108 138 194 240 292 324
#
# _framework density 19.229521999999999
#
# number of rings (size 3 to 8) (size 9 to 14) (size 15 to 20)
#    0.000    1.931    0.690    3.103    2.897    6.621 
#    0.000    0.000    0.000    0.828    0.000    5.793 
#    0.000    0.000    0.000    0.000    0.000    0.000 
#
# Total GULP energy -322949.147674 kJ/mol
# GULP energy per Si atom -5568.088753 kJ/mol
# Density = 1.918575 g / cm^3
# Si number density = 19.229522 Si / 1000 Ang^3
#
#
#
# Elastic Constant Matrix: (Units=GPa)
#
#
# Indices 1 2 3 4 5 6 
#
# 1 55.1879 11.9383 6.6256 0.0000 0.0000 0.0000
# 2 11.9383 187.6772 75.2120 0.0000 0.0000 0.0000
# 3 6.6256 75.2120 109.1250 0.0000 0.0000 0.0000
# 4 0.0000 0.0000 0.0000 8.4455 0.0000 0.0000
# 5 0.0000 0.0000 0.0000 0.0000 18.5077 0.0000
# 6 0.0000 0.0000 0.0000 0.0000 0.0000 12.7975
#
#
#
# Elastic Compliance Matrix: (Units=1/GPa)
#
#
# Indices 1 2 3 4 5 6 
#
# 1 0.018387 -0.000998 -0.000429 0.000000 0.000000 0.000000
# 2 -0.000998 0.007416 -0.005051 0.000000 0.000000 0.000000
# 3 -0.000429 -0.005051 0.012671 0.000000 0.000000 0.000000
# 4 0.000000 0.000000 0.000000 0.118406 0.000000 0.000000
# 5 0.000000 0.000000 0.000000 0.000000 0.054032 0.000000
# 6 0.000000 0.000000 0.000000 0.000000 0.000000 0.078140
#
#
# Mechanical properties :
#
#
# Convention : Reuss Voigt Hill
#
# Bulk Modulus (GPa) = 39.18541 59.94910 49.56726
# Shear Modulus (GPa) = 16.10238 25.16441 20.63339
#
# Velocity S-wave (km/s) = 2.89689 3.62143 3.27923
# Velocity P-wave (km/s) = 5.62239 6.98066 6.33801
#
# Compressibility (1/GPa) = 0.02551970
#
# Stress axis : x y z
#
# Youngs Moduli (GPa) = 54.38560 134.84701 78.92128
#
# Poissons Ratio (x) = 0.13456 0.03383
# Poissons Ratio (y) = 0.05427 0.39860
# Poissons Ratio (z) = 0.02331 0.68106
#
# Static dielectric constant tensor:
#      x y z
#    x 1.698710 0.000000 0.000000 
#    y 0.000000 1.755900 0.000000 
#    z 0.000000 0.000000 1.707770 
# 
# From -- ./inp_files/34115.got.cif
#   From: 2010.05.17/outbox.cif.g08.bks.cpg/sg53_18_cif.got.tgz:34115.got - 2010.06.03 12:45:16.
