data_PCOD9415262
_publ_section_title
;
Structure prediction by ZEFSAII (Michael W. Deem and Ramdas Pophale) SiO2 
 PCOD9415262
Probable space group: P M N A
;
_chemical_formula_sum "Si O2"
_cell_formula_units_Z 48
_cell_length_a 8.384180
_cell_length_b 13.052976
_cell_length_c 24.410585
_cell_angle_alpha 90.000000
_cell_angle_beta 90.000000
_cell_angle_gamma 90.000000
_cell_volume 2671.457814
_symmetry_space_group_name_H-M "P M N A"
_symmetry_group_IT_number 53
_symmetry_cell_setting 'orthorhombic'
loop_
_space_group_symop_operation_xyz
x,y,z
1/2-x,-y,1/2+z
x,-y,-z
1/2-x,y,1/2-z
-x,-y,-z
1/2+x,y,1/2-z
-x,y,z
1/2+x,-y,1/2+z
loop_
_atom_site_type_symbol
_atom_site_label
_atom_site_fract_x
_atom_site_fract_y
_atom_site_fract_z
Si Si1 0.307500 0.499246 0.812026
Si Si2 0.805229 0.380537 0.498910
Si Si3 0.191251 0.114389 0.688967
Si Si4 0.305172 0.696441 0.116518
Si Si5 0.307023 0.302456 0.119189
Si Si6 0.810689 0.114869 0.189064
O O1 0.250000 0.495855 0.750000
O O2 0.500000 0.499200 0.812344
O O3 0.255013 0.399774 0.846188
O O4 0.254557 0.602482 0.842743
O O5 0.756338 0.500000 0.500000
O O6 0.753162 0.323901 0.554306
O O7 0.754271 0.326222 0.442813
O O8 0.000000 0.381212 0.498845
O O9 0.250000 0.142151 0.750000
O O10 0.246964 0.198390 0.645045
O O11 0.000000 0.114166 0.689778
O O12 0.248839 0.999493 0.677042
O O13 0.500000 0.696992 0.116112
O O14 0.500000 0.300897 0.119380
O O15 0.247197 0.197503 0.145252
O O16 0.750000 0.143414 0.250000
O O17 0.000000 0.112691 0.190748
#
# Coordination Sequence:
#
# PCOD9415262 Si02
#       6
#     8   8   8   8   8   8
#     4  10  19  30  47  75 107 135 165 207 260 313
#     4   9  15  29  53  79 106 139 177 217 257 301
#     4  10  19  33  54  78 106 136 173 216 263 315
#     4   9  17  30  50  78 106 134 172 216 258 305
#     4  10  19  32  54  80 106 137 175 215 260 310
#     4  11  22  37  56  76 104 138 176 218 264 313
#
# _framework density 17.967717
#
# number of rings (size 3 to 8) (size 9 to 14) (size 15 to 20)
#    0.000    2.167    1.667    4.000    0.000    2.000 
#    0.000    1.667    0.000    8.500    0.000    0.000 
#    0.000    0.000    0.000    0.000    0.000    0.000 
#
# Total GULP energy -267923.672686 kJ/mol
# GULP energy per Si atom -5581.743181 kJ/mol
# Density = 1.792682 g / cm^3
# Si number density = 17.967717 Si / 1000 Ang^3
#
#
#
# Elastic Constant Matrix: (Units=GPa)
#
#
# Indices 1 2 3 4 5 6 
#
# 1 29.9633 23.6368 25.0165 0.0000 0.0000 0.0000
# 2 23.6368 135.1269 114.3678 0.0000 0.0000 0.0000
# 3 25.0165 114.3678 192.6375 0.0000 0.0000 0.0000
# 4 0.0000 0.0000 0.0000 28.9057 0.0000 0.0000
# 5 0.0000 0.0000 0.0000 0.0000 22.3948 0.0000
# 6 0.0000 0.0000 0.0000 0.0000 0.0000 11.0210
#
#
#
# Elastic Compliance Matrix: (Units=1/GPa)
#
#
# Indices 1 2 3 4 5 6 
#
# 1 0.039113 -0.005111 -0.002045 0.000000 0.000000 0.000000
# 2 -0.005111 0.015543 -0.008564 0.000000 0.000000 0.000000
# 3 -0.002045 -0.008564 0.010541 0.000000 0.000000 0.000000
# 4 0.000000 0.000000 0.000000 0.034595 0.000000 0.000000
# 5 0.000000 0.000000 0.000000 0.000000 0.044653 0.000000
# 6 0.000000 0.000000 0.000000 0.000000 0.000000 0.090736
#
#
# Mechanical properties :
#
#
# Convention : Reuss Voigt Hill
#
# Bulk Modulus (GPa) = 29.62322 75.97445 52.79884
# Shear Modulus (GPa) = 17.99379 25.44473 21.71926
#
# Velocity S-wave (km/s) = 3.16800 3.76724 3.48054
# Velocity P-wave (km/s) = 5.46849 7.82933 6.75288
#
# Compressibility (1/GPa) = 0.03375730
#
# Stress axis : x y z
#
# Youngs Moduli (GPa) = 25.56670 64.33861 94.86741
#
# Poissons Ratio (x) = 0.32883 0.19401
# Poissons Ratio (y) = 0.13067 0.81244
# Poissons Ratio (z) = 0.05228 0.55099
#
# Static dielectric constant tensor:
#      x y z
#    x 1.628570 0.000000 0.000000 
#    y 0.000000 1.600980 0.000000 
#    z 0.000000 0.000000 1.598070 
# 
# From -- ./inp_files/33879.got.cif
#   From: 2010.05.17/outbox.cif.g08.bks.cpg/sg53_17_cif.got.tgz:33879.got - 2010.06.03 12:45:16.
