data_PCOD9415161
_publ_section_title
;
Structure prediction by ZEFSAII (Michael W. Deem and Ramdas Pophale) SiO2 
 PCOD9415161
Probable space group: P M N A
;
_chemical_formula_sum "Si O2"
_cell_formula_units_Z 64
_cell_length_a 9.183398
_cell_length_b 16.647791
_cell_length_c 23.981030
_cell_angle_alpha 90.000000
_cell_angle_beta 90.000000
_cell_angle_gamma 90.000000
_cell_volume 3666.298778
_symmetry_space_group_name_H-M "P M N A"
_symmetry_group_IT_number 53
_symmetry_cell_setting 'orthorhombic'
loop_
_space_group_symop_operation_xyz
x,y,z
1/2-x,-y,1/2+z
x,-y,-z
1/2-x,y,1/2-z
-x,-y,-z
1/2+x,y,1/2-z
-x,y,z
1/2+x,-y,1/2+z
loop_
_atom_site_type_symbol
_atom_site_label
_atom_site_fract_x
_atom_site_fract_y
_atom_site_fract_z
Si Si1 0.832460 0.750463 0.694824
Si Si2 0.826753 0.408473 0.995605
Si Si3 0.326508 0.285974 0.594232
Si Si4 0.670822 0.955597 0.395719
Si Si5 0.168036 0.809999 0.193288
Si Si6 0.826437 0.151299 0.520159
Si Si7 0.676393 0.273268 0.070742
Si Si8 0.832050 0.055762 0.306715
O O1 0.750000 0.723071 0.750000
O O2 0.773710 0.724356 0.634665
O O3 0.830480 0.847687 0.694082
O O4 0.000000 0.724974 0.698540
O O5 0.807743 0.372468 0.933367
O O6 0.000000 0.406163 0.007988
O O7 0.776264 0.500000 0.000000
O O8 0.746241 0.346225 0.036333
O O9 0.500000 0.264067 0.587120
O O10 0.290153 0.269716 0.658411
O O11 0.226637 0.225278 0.559012
O O12 0.500000 0.972578 0.403731
O O13 0.684343 0.882061 0.351172
O O14 0.744311 0.924709 0.452930
O O15 0.754054 0.025319 0.362664
O O16 0.250000 0.823555 0.250000
O O17 0.000000 0.804200 0.207719
O O18 0.788535 0.187579 0.459289
O O19 0.000000 0.139006 0.523413
O O20 0.500000 0.279039 0.069015
O O21 0.750000 0.028583 0.250000
O O22 0.000000 0.028144 0.305525
#
# Coordination Sequence:
#
# PCOD9415161 Si02
#       8
#     8   8   8   8   8   8   8   8
#     4   9  19  35  53  73  96 124 161 203 245 289
#     4   9  17  30  51  77  99 121 151 186 227 278
#     4   8  15  28  42  60  90 120 146 182 225 267
#     4  10  19  30  43  62  91 124 159 201 245 285
#     4   9  17  26  38  57  82 115 150 184 220 260
#     4   9  16  27  45  67  90 120 156 192 234 282
#     4   9  18  33  52  74 100 127 156 194 240 290
#     4  10  19  31  47  66  90 122 161 206 252 293
#
# _framework density 17.456298
#
# number of rings (size 3 to 8) (size 9 to 14) (size 15 to 20)
#    0.000    2.875    0.000    2.250    0.000    5.250 
#    0.000    0.625    0.000    4.500    0.000    3.500 
#    0.000    0.000    0.000    0.000    0.000    0.000 
#
# Total GULP energy -356395.116489 kJ/mol
# GULP energy per Si atom -5568.673695 kJ/mol
# Density = 1.741657 g / cm^3
# Si number density = 17.456298 Si / 1000 Ang^3
#
#
#
# Elastic Constant Matrix: (Units=GPa)
#
#
# Indices 1 2 3 4 5 6 
#
# 1 49.7385 12.6033 33.9734 0.0000 0.0000 0.0000
# 2 12.6033 26.3249 15.7886 0.0000 0.0000 0.0000
# 3 33.9734 15.7886 87.1928 0.0000 0.0000 0.0000
# 4 0.0000 0.0000 0.0000 9.5551 0.0000 0.0000
# 5 0.0000 0.0000 0.0000 0.0000 23.3551 0.0000
# 6 0.0000 0.0000 0.0000 0.0000 0.0000 -24.7087
#
#
#
# Elastic Compliance Matrix: (Units=1/GPa)
#
#
# Indices 1 2 3 4 5 6 
#
# 1 0.028796 -0.007917 -0.009786 0.000000 0.000000 0.000000
# 2 -0.007917 0.044792 -0.005026 0.000000 0.000000 0.000000
# 3 -0.009786 -0.005026 0.016192 0.000000 0.000000 0.000000
# 4 0.000000 0.000000 0.000000 0.104657 0.000000 0.000000
# 5 0.000000 0.000000 0.000000 0.000000 0.042817 0.000000
# 6 0.000000 0.000000 0.000000 0.000000 0.000000 -0.040472
#
#
# Mechanical properties :
#
#
# Convention : Reuss Voigt Hill
#
# Bulk Modulus (GPa) = 22.56270 31.99856 27.28063
# Shear Modulus (GPa) = 19.45424 8.36634 13.91029
#
# Velocity S-wave (km/s) = 3.34197 2.19161 2.82594
# Velocity P-wave (km/s) = 5.27683 4.97741 5.12931
#
# Compressibility (1/GPa) = 0.04432093
#
# Stress axis : x y z
#
# Youngs Moduli (GPa) = 34.72752 22.32564 61.75886
#
# Poissons Ratio (x) = 0.17675 0.60439
# Poissons Ratio (y) = 0.27493 0.31040
# Poissons Ratio (z) = 0.33985 0.11221
#
# Static dielectric constant tensor:
#      x y z
#    x 1.598490 0.000000 0.000000 
#    y 0.000000 1.608390 0.000000 
#    z 0.000000 0.000000 1.628570 
# 
# From -- ./inp_files/34466.got.cif
#   From: 2010.05.17/outbox.cif.g08.bks.cpg/sg53_18_cif.got.tgz:34466.got - 2010.06.03 12:45:16.
