data_PCOD9415911
_publ_section_title
;
Structure prediction by ZEFSAII (Michael W. Deem and Ramdas Pophale) SiO2 
 PCOD9415911
Probable space group: P M N A
;
_chemical_formula_sum "Si O2"
_cell_formula_units_Z 64
_cell_length_a 8.628423
_cell_length_b 23.101897
_cell_length_c 18.239612
_cell_angle_alpha 90.000000
_cell_angle_beta 90.000000
_cell_angle_gamma 90.000000
_cell_volume 3635.755474
_symmetry_space_group_name_H-M "P M N A"
_symmetry_group_IT_number 53
_symmetry_cell_setting 'orthorhombic'
loop_
_space_group_symop_operation_xyz
x,y,z
1/2-x,-y,1/2+z
x,-y,-z
1/2-x,y,1/2-z
-x,-y,-z
1/2+x,y,1/2-z
-x,y,z
1/2+x,-y,1/2+z
loop_
_atom_site_type_symbol
_atom_site_label
_atom_site_fract_x
_atom_site_fract_y
_atom_site_fract_z
Si Si1 0.811793 0.058456 0.331303
Si Si2 0.314606 0.613116 0.532288
Si Si3 0.814304 0.296848 0.671896
Si Si4 0.678013 0.957156 0.070503
Si Si5 0.811934 0.860164 0.533285
Si Si6 0.185476 0.258894 0.980542
Si Si7 0.814675 0.450923 0.327289
Si Si8 0.313103 0.576042 0.120030
O O1 0.750000 0.068667 0.250000
O O2 0.767123 0.107398 0.391181
O O3 0.000000 0.056901 0.330328
O O4 0.754893 0.996582 0.364591
O O5 0.500000 0.609237 0.534026
O O6 0.270393 0.680084 0.518210
O O7 0.244869 0.587468 0.605905
O O8 0.251523 0.578292 0.462190
O O9 0.750000 0.277127 0.750000
O O10 0.751523 0.261887 0.602061
O O11 0.764157 0.364043 0.658709
O O12 0.000000 0.294797 0.672070
O O13 0.500000 0.944047 0.091321
O O14 0.746681 0.898859 0.035998
O O15 0.672354 0.000000 0.000000
O O16 0.751127 0.795767 0.523900
O O17 0.000000 0.860730 0.530914
O O18 0.000000 0.256064 0.977473
O O19 0.750000 0.430246 0.250000
O O20 0.761561 0.517375 0.340780
O O21 0.000000 0.450484 0.326222
O O22 0.500000 0.576095 0.116996
#
# Coordination Sequence:
#
# PCOD9415911 Si02
#       8
#     8   8   8   8   8   8   8   8
#     4   9  17  30  50  77 106 133 164 205 252 299
#     4  10  21  36  53  73  99 133 171 211 254 301
#     4  10  19  33  53  76 103 132 164 204 252 304
#     4   7  12  26  48  71  95 125 160 195 234 286
#     4   9  17  32  54  75  97 133 176 210 246 295
#     4  10  21  36  53  74 101 134 174 215 252 294
#     4  11  22  35  52  75 103 131 163 206 257 311
#     4   9  19  34  53  77 102 129 161 202 254 311
#
# _framework density 17.602944000000001
#
# number of rings (size 3 to 8) (size 9 to 14) (size 15 to 20)
#    0.000    2.625    0.000    3.750    0.000    5.000 
#    0.000    1.875    0.000    5.250    0.000    0.000 
#    0.000    0.000    0.000    0.000    0.000    0.000 
#
# Total GULP energy -356792.711814 kJ/mol
# GULP energy per Si atom -5574.886122 kJ/mol
# Density = 1.756288 g / cm^3
# Si number density = 17.602944 Si / 1000 Ang^3
#
#
#
# Elastic Constant Matrix: (Units=GPa)
#
#
# Indices 1 2 3 4 5 6 
#
# 1 12.8044 13.3808 19.4971 0.0000 0.0000 0.0000
# 2 13.3808 58.9707 40.3792 0.0000 0.0000 0.0000
# 3 19.4971 40.3792 126.1700 0.0000 0.0000 0.0000
# 4 0.0000 0.0000 0.0000 26.4919 0.0000 0.0000
# 5 0.0000 0.0000 0.0000 0.0000 30.6586 0.0000
# 6 0.0000 0.0000 0.0000 0.0000 0.0000 11.4847
#
#
#
# Elastic Compliance Matrix: (Units=1/GPa)
#
#
# Indices 1 2 3 4 5 6 
#
# 1 0.115153 -0.017858 -0.012079 0.000000 0.000000 0.000000
# 2 -0.017858 0.024486 -0.005077 0.000000 0.000000 0.000000
# 3 -0.012079 -0.005077 0.011417 0.000000 0.000000 0.000000
# 4 0.000000 0.000000 0.000000 0.037747 0.000000 0.000000
# 5 0.000000 0.000000 0.000000 0.000000 0.032617 0.000000
# 6 0.000000 0.000000 0.000000 0.000000 0.000000 0.087073
#
#
# Mechanical properties :
#
#
# Convention : Reuss Voigt Hill
#
# Bulk Modulus (GPa) = 12.34137 38.27324 25.30730
# Shear Modulus (GPa) = 12.32950 22.03956 17.18453
#
# Velocity S-wave (km/s) = 2.64942 3.54225 3.12786
# Velocity P-wave (km/s) = 4.04789 6.20643 5.23952
#
# Compressibility (1/GPa) = 0.08102829
#
# Stress axis : x y z
#
# Youngs Moduli (GPa) = 8.68407 40.83984 87.58675
#
# Poissons Ratio (x) = 0.72931 1.05800
# Poissons Ratio (y) = 0.15508 0.44467
# Poissons Ratio (z) = 0.10490 0.20734
#
# Static dielectric constant tensor:
#      x y z
#    x 1.598330 0.000000 0.000000 
#    y 0.000000 1.612850 0.000000 
#    z 0.000000 0.000000 1.581020 
# 
# From -- ./inp_files/26875.got.cif
#   From: 2010.05.17/outbox.cif.g08.bks.cpg/sg53_14_cif.got.tgz:26875.got - 2010.06.03 12:45:16.
