data_PCOD9415099
_publ_section_title
;
Structure prediction by ZEFSAII (Michael W. Deem and Ramdas Pophale) SiO2 
 PCOD9415099
Probable space group: P M N A
;
_chemical_formula_sum "Si O2"
_cell_formula_units_Z 48
_cell_length_a 8.678361
_cell_length_b 15.849858
_cell_length_c 21.923595
_cell_angle_alpha 90.000000
_cell_angle_beta 90.000000
_cell_angle_gamma 90.000000
_cell_volume 3015.607801
_symmetry_space_group_name_H-M "P M N A"
_symmetry_group_IT_number 53
_symmetry_cell_setting 'orthorhombic'
loop_
_space_group_symop_operation_xyz
x,y,z
1/2-x,-y,1/2+z
x,-y,-z
1/2-x,y,1/2-z
-x,-y,-z
1/2+x,y,1/2-z
-x,y,z
1/2+x,-y,1/2+z
loop_
_atom_site_type_symbol
_atom_site_label
_atom_site_fract_x
_atom_site_fract_y
_atom_site_fract_z
Si Si1 0.312992 0.881272 0.546398
Si Si2 0.683544 0.657450 0.091832
Si Si3 0.686719 0.304580 0.457948
Si Si4 0.315631 0.194414 0.817750
Si Si5 0.686336 0.940002 0.410068
Si Si6 0.320757 0.516503 0.573246
O O1 0.500000 0.881556 0.547752
O O2 0.261550 0.787558 0.564314
O O3 0.270750 0.899765 0.475862
O O4 0.264012 0.961971 0.585923
O O5 0.500000 0.662669 0.084939
O O6 0.733074 0.722147 0.144384
O O7 0.730998 0.560584 0.103343
O O8 0.759724 0.684941 0.027842
O O9 0.500000 0.307197 0.457928
O O10 0.738436 0.387558 0.420780
O O11 0.250000 0.194595 0.750000
O O12 0.500000 0.193382 0.815337
O O13 0.242253 0.114257 0.643690
O O14 0.500000 0.936969 0.405698
O O15 0.314868 0.500000 0.500000
O O16 0.500000 0.512099 0.591387
#
# Coordination Sequence:
#
# PCOD9415099 Si02
#       6
#     8   8   8   8   8   8
#     4   8  14  25  46  71  93 120 151 180 222 274
#     4  10  19  29  41  61  89 117 148 187 228 266
#     4   9  15  26  44  66  92 121 150 176 209 266
#     4  11  23  35  47  65  88 120 158 194 233 273
#     4   9  16  29  48  68  90 120 153 187 226 269
#     4   8  15  25  40  62  87 118 149 174 208 256
#
# _framework density 15.917189
#
# number of rings (size 3 to 8) (size 9 to 14) (size 15 to 20)
#    0.000    2.833    1.667    3.000    0.000    5.000 
#    0.000    2.500    0.000    0.000    0.000    1.167 
#    0.000    2.667    0.000    0.000    0.000    0.000 
#
# Total GULP energy -267246.575728 kJ/mol
# GULP energy per Si atom -5567.636994 kJ/mol
# Density = 1.588096 g / cm^3
# Si number density = 15.917189 Si / 1000 Ang^3
#
#
#
# Elastic Constant Matrix: (Units=GPa)
#
#
# Indices 1 2 3 4 5 6 
#
# 1 15.0182 23.7940 17.2148 0.0000 0.0000 0.0000
# 2 23.7940 179.7484 52.4724 0.0000 0.0000 0.0000
# 3 17.2148 52.4724 64.7846 0.0000 0.0000 0.0000
# 4 0.0000 0.0000 0.0000 14.5029 0.0000 0.0000
# 5 0.0000 0.0000 0.0000 0.0000 9.1347 0.0000
# 6 0.0000 0.0000 0.0000 0.0000 0.0000 -0.2188
#
#
#
# Elastic Compliance Matrix: (Units=1/GPa)
#
#
# Indices 1 2 3 4 5 6 
#
# 1 0.102704 -0.007371 -0.021320 0.000000 0.000000 0.000000
# 2 -0.007371 0.007815 -0.004371 0.000000 0.000000 0.000000
# 3 -0.021320 -0.004371 0.024641 0.000000 0.000000 0.000000
# 4 0.000000 0.000000 0.000000 0.068952 0.000000 0.000000
# 5 0.000000 0.000000 0.000000 0.000000 0.109473 0.000000
# 6 0.000000 0.000000 0.000000 0.000000 0.000000 -4.570887
#
#
# Mechanical properties :
#
#
# Convention : Reuss Voigt Hill
#
# Bulk Modulus (GPa) = 14.48551 49.61264 32.04907
# Shear Modulus (GPa) = -1.19957 15.75510 7.27777
#
# Velocity S-wave (km/s) = -0.86906 3.14955 2.14061
# Velocity P-wave (km/s) = 2.84838 6.66807 5.12720
#
# Compressibility (1/GPa) = 0.06903452
#
# Stress axis : x y z
#
# Youngs Moduli (GPa) = 9.73675 127.95677 40.58200
#
# Poissons Ratio (x) = 0.94323 0.86522
# Poissons Ratio (y) = 0.07177 0.17739
# Poissons Ratio (z) = 0.20759 0.55931
#
# Static dielectric constant tensor:
#      x y z
#    x 1.534400 0.000000 0.000000 
#    y 0.000000 1.597750 0.000000 
#    z 0.000000 0.000000 1.483710 
# 
# From -- ./inp_files/26440.got.cif
#   From: 2010.05.17/outbox.cif.g08.bks.cpg/sg53_14_cif.got.tgz:26440.got - 2010.06.03 12:45:16.
