data_PCOD9415901
_publ_section_title
;
Structure prediction by ZEFSAII (Michael W. Deem and Ramdas Pophale) SiO2 
 PCOD9415901
Probable space group: P M N A
;
_chemical_formula_sum "Si O2"
_cell_formula_units_Z 48
_cell_length_a 16.890665
_cell_length_b 10.065018
_cell_length_c 16.900615
_cell_angle_alpha 90.000000
_cell_angle_beta 90.000000
_cell_angle_gamma 90.000000
_cell_volume 2873.186472
_symmetry_space_group_name_H-M "P M N A"
_symmetry_group_IT_number 53
_symmetry_cell_setting 'orthorhombic'
loop_
_space_group_symop_operation_xyz
x,y,z
1/2-x,-y,1/2+z
x,-y,-z
1/2-x,y,1/2-z
-x,-y,-z
1/2+x,y,1/2-z
-x,y,z
1/2+x,-y,1/2+z
loop_
_atom_site_type_symbol
_atom_site_label
_atom_site_fract_x
_atom_site_fract_y
_atom_site_fract_z
Si Si1 0.593324 0.682819 0.203561
Si Si2 0.710887 0.391409 0.937040
Si Si3 0.188211 0.853220 0.020439
Si Si4 0.594394 0.087746 0.679601
Si Si5 0.593619 0.794045 0.636381
Si Si6 0.321895 0.526887 0.688697
O O1 0.500000 0.677951 0.187313
O O2 0.645164 0.651259 0.126623
O O3 0.613394 0.825160 0.243281
O O4 0.617361 0.574101 0.269619
O O5 0.746015 0.260492 0.978080
O O6 0.782966 0.460074 0.888548
O O7 0.681720 0.500000 0.000000
O O8 0.144789 0.860247 0.105200
O O9 0.124656 0.821357 0.952227
O O10 0.220298 0.000000 0.000000
O O11 0.500000 0.104410 0.663699
O O12 0.609527 0.930064 0.684896
O O13 0.500000 0.771386 0.635914
O O14 0.637840 0.666019 0.669374
O O15 0.250000 0.546241 0.750000
#
# Coordination Sequence:
#
# PCOD9415901 Si02
#       6
#     8   8   8   8   8   8
#     4  10  21  37  57  78 105 145 188 228 270 325
#     4  11  21  37  55  78 112 143 186 230 272 325
#     4  10  19  33  52  79 108 143 173 214 273 331
#     4   9  18  33  52  78 109 139 176 218 265 327
#     4  10  19  33  53  80 110 139 171 216 274 331
#     4  10  20  35  52  78 109 140 177 226 273 323
#
# _framework density 16.706189999999999
#
# number of rings (size 3 to 8) (size 9 to 14) (size 15 to 20)
#    0.000    2.000    3.333    1.000    0.000    2.333 
#    6.000    0.833    0.000    0.500    0.000    0.000 
#    0.000    0.000    0.000    0.000    0.000    0.000 
#
# Total GULP energy -267750.524108 kJ/mol
# GULP energy per Si atom -5578.135919 kJ/mol
# Density = 1.666817 g / cm^3
# Si number density = 16.706190 Si / 1000 Ang^3
#
#
#
# Elastic Constant Matrix: (Units=GPa)
#
#
# Indices 1 2 3 4 5 6 
#
# 1 58.4974 56.1090 29.6055 0.0000 0.0000 0.0000
# 2 56.1090 135.2497 52.5004 0.0000 0.0000 0.0000
# 3 29.6055 52.5004 71.3012 0.0000 0.0000 0.0000
# 4 0.0000 0.0000 0.0000 30.6087 0.0000 0.0000
# 5 0.0000 0.0000 0.0000 0.0000 14.5961 0.0000
# 6 0.0000 0.0000 0.0000 0.0000 0.0000 12.5367
#
#
#
# Elastic Compliance Matrix: (Units=1/GPa)
#
#
# Indices 1 2 3 4 5 6 
#
# 1 0.029396 -0.010442 -0.004517 0.000000 0.000000 0.000000
# 2 -0.010442 0.014062 -0.006018 0.000000 0.000000 0.000000
# 3 -0.004517 -0.006018 0.020332 0.000000 0.000000 0.000000
# 4 0.000000 0.000000 0.000000 0.032670 0.000000 0.000000
# 5 0.000000 0.000000 0.000000 0.000000 0.068512 0.000000
# 6 0.000000 0.000000 0.000000 0.000000 0.000000 0.079766
#
#
# Mechanical properties :
#
#
# Convention : Reuss Voigt Hill
#
# Bulk Modulus (GPa) = 45.79745 60.16424 52.98084
# Shear Modulus (GPa) = 17.00844 20.00385 18.50615
#
# Velocity S-wave (km/s) = 3.19422 3.46409 3.33189
# Velocity P-wave (km/s) = 6.40913 7.21742 6.82525
#
# Compressibility (1/GPa) = 0.02183528
#
# Stress axis : x y z
#
# Youngs Moduli (GPa) = 34.01773 71.11525 49.18317
#
# Poissons Ratio (x) = 0.74256 0.22218
# Poissons Ratio (y) = 0.35520 0.29600
# Poissons Ratio (z) = 0.15367 0.42799
#
# Static dielectric constant tensor:
#      x y z
#    x 1.533220 0.000000 0.000000 
#    y 0.000000 1.571400 0.000000 
#    z 0.000000 0.000000 1.552170 
# 
# From -- ./inp_files/23651.got.cif
#   From: 2010.05.17/outbox.cif.g08.bks.cpg/sg53_12_cif.got.tgz:23651.got - 2010.06.03 12:45:16.
