data_PCOD9415460
_publ_section_title
;
Structure prediction by ZEFSAII (Michael W. Deem and Ramdas Pophale) SiO2 
 PCOD9415460
Probable space group: P M N A
;
_chemical_formula_sum "Si O2"
_cell_formula_units_Z 64
_cell_length_a 7.592865
_cell_length_b 12.841326
_cell_length_c 30.250054
_cell_angle_alpha 90.000000
_cell_angle_beta 90.000000
_cell_angle_gamma 90.000000
_cell_volume 2949.454521
_symmetry_space_group_name_H-M "P M N A"
_symmetry_group_IT_number 53
_symmetry_cell_setting 'orthorhombic'
loop_
_space_group_symop_operation_xyz
x,y,z
1/2-x,-y,1/2+z
x,-y,-z
1/2-x,y,1/2-z
-x,-y,-z
1/2+x,y,1/2-z
-x,y,z
1/2+x,-y,1/2+z
loop_
_atom_site_type_symbol
_atom_site_label
_atom_site_fract_x
_atom_site_fract_y
_atom_site_fract_z
Si Si1 0.211127 0.044960 0.302180
Si Si2 0.784154 0.899419 0.028329
Si Si3 0.708055 0.724169 0.801441
Si Si4 0.784583 0.497609 0.932822
Si Si5 0.204167 0.132780 0.870944
Si Si6 0.711410 0.290210 0.701399
Si Si7 0.708334 0.501107 0.335232
Si Si8 0.785907 0.674555 0.995998
O O1 0.250000 0.025524 0.250000
O O2 0.277478 0.161560 0.313805
O O3 0.000000 0.041294 0.306470
O O4 0.287079 0.963898 0.337136
O O5 0.725495 0.893409 0.079984
O O6 0.727990 0.792026 0.004458
O O7 0.000000 0.902484 0.028597
O O8 0.726793 0.000000 0.000000
O O9 0.750000 0.712359 0.750000
O O10 0.500000 0.728159 0.807662
O O11 0.770721 0.619070 0.823735
O O12 0.718348 0.481146 0.883873
O O13 0.732951 0.402352 0.964184
O O14 0.000000 0.497898 0.932753
O O15 0.730301 0.609244 0.952903
O O16 0.281544 0.225789 0.840736
O O17 0.000000 0.161086 0.879164
O O18 0.750000 0.246394 0.750000
O O19 0.500000 0.286012 0.698551
O O20 0.776706 0.409622 0.697523
O O21 0.500000 0.519324 0.337322
O O22 0.000000 0.677563 0.995514
#
# Coordination Sequence:
#
# PCOD9415460 Si02
#       8
#     8   8   8   8   8   8   8   8
#     4  10  21  37  56  77 102 133 172 217 263 313
#     4   9  17  28  44  69 101 134 167 209 259 307
#     4  10  21  36  52  71  97 129 163 202 249 298
#     4   8  14  24  42  67  94 127 163 202 244 287
#     4  10  20  34  53  77 106 139 175 216 262 311
#     4  10  21  34  49  73 105 139 172 210 256 306
#     4  10  19  31  49  75 105 134 167 206 250 300
#     4   8  13  24  41  64  96 129 163 201 243 290
#
# _framework density 21.698927999999999
#
# number of rings (size 3 to 8) (size 9 to 14) (size 15 to 20)
#    0.000    2.625    0.000    3.000    0.000    8.500 
#    0.000    2.500    0.000    0.375    0.000    2.625 
#    0.000    0.000    0.000    0.000    0.000    0.000 
#
# Total GULP energy -356918.223731 kJ/mol
# GULP energy per Si atom -5576.847246 kJ/mol
# Density = 2.164954 g / cm^3
# Si number density = 21.698928 Si / 1000 Ang^3
#
#
#
# Elastic Constant Matrix: (Units=GPa)
#
#
# Indices 1 2 3 4 5 6 
#
# 1 45.9728 0.4242 2.5684 0.0000 0.0000 0.0000
# 2 0.4242 147.6401 62.3534 0.0000 0.0000 0.0000
# 3 2.5684 62.3534 98.7049 0.0000 0.0000 0.0000
# 4 0.0000 0.0000 0.0000 4.1980 0.0000 0.0000
# 5 0.0000 0.0000 0.0000 0.0000 1.8560 0.0000
# 6 0.0000 0.0000 0.0000 0.0000 0.0000 9.8207
#
#
#
# Elastic Compliance Matrix: (Units=1/GPa)
#
#
# Indices 1 2 3 4 5 6 
#
# 1 0.021790 0.000241 -0.000719 0.000000 0.000000 0.000000
# 2 0.000241 0.009240 -0.005844 0.000000 0.000000 0.000000
# 3 -0.000719 -0.005844 0.013841 0.000000 0.000000 0.000000
# 4 0.000000 0.000000 0.000000 0.238210 0.000000 0.000000
# 5 0.000000 0.000000 0.000000 0.000000 0.538805 0.000000
# 6 0.000000 0.000000 0.000000 0.000000 0.000000 0.101825
#
#
# Mechanical properties :
#
#
# Convention : Reuss Voigt Hill
#
# Bulk Modulus (GPa) = 31.02861 47.00107 39.01484
# Shear Modulus (GPa) = 5.27928 18.30639 11.79284
#
# Velocity S-wave (km/s) = 1.56149 2.90772 2.33379
# Velocity P-wave (km/s) = 4.19305 5.74288 5.02804
#
# Compressibility (1/GPa) = 0.03222832
#
# Stress axis : x y z
#
# Youngs Moduli (GPa) = 45.89266 108.21931 72.24679
#
# Poissons Ratio (x) = -0.02610 0.05197
# Poissons Ratio (y) = -0.01107 0.42218
# Poissons Ratio (z) = 0.03301 0.63239
#
# Static dielectric constant tensor:
#      x y z
#    x 1.861470 0.000000 0.000000 
#    y 0.000000 1.827960 0.000000 
#    z 0.000000 0.000000 1.776810 
# 
# From -- ./inp_files/38282.got.cif
#   From: 2010.05.17/outbox.cif.g08.bks.cpg/sg53_20_cif.got.tgz:38282.got - 2010.06.03 12:45:16.
