data_PCOD9415026
_publ_section_title
;
Structure prediction by ZEFSAII (Michael W. Deem and Ramdas Pophale) SiO2 
 PCOD9415026
Probable space group: P M N A
;
_chemical_formula_sum "Si O2"
_cell_formula_units_Z 64
_cell_length_a 27.900855
_cell_length_b 11.287372
_cell_length_c 9.546002
_cell_angle_alpha 90.000000
_cell_angle_beta 90.000000
_cell_angle_gamma 90.000000
_cell_volume 3006.296917
_symmetry_space_group_name_H-M "P M N A"
_symmetry_group_IT_number 53
_symmetry_cell_setting 'orthorhombic'
loop_
_space_group_symop_operation_xyz
x,y,z
1/2-x,-y,1/2+z
x,-y,-z
1/2-x,y,1/2-z
-x,-y,-z
1/2+x,y,1/2-z
-x,y,z
1/2+x,-y,1/2+z
loop_
_atom_site_type_symbol
_atom_site_label
_atom_site_fract_x
_atom_site_fract_y
_atom_site_fract_z
Si Si1 0.304090 0.049861 0.716211
Si Si2 0.805175 0.323992 0.282208
Si Si3 0.103384 0.093231 0.101922
Si Si4 0.148002 0.197315 0.539895
Si Si5 0.851468 0.567426 0.271538
Si Si6 0.053047 0.543450 0.660252
Si Si7 0.665511 0.736908 0.471145
Si Si8 0.445203 0.825080 0.881415
O O1 0.250000 0.006228 0.750000
O O2 0.325503 0.104769 0.859561
O O3 0.302511 0.160511 0.604788
O O4 0.344310 0.960100 0.653921
O O5 0.750000 0.313550 0.250000
O O6 0.824416 0.231312 0.396798
O O7 0.819801 0.457579 0.324536
O O8 0.825665 0.300504 0.129118
O O9 0.114188 0.201060 0.995208
O O10 0.072892 0.116436 0.238602
O O11 0.079362 0.000000 0.000000
O O12 0.145746 0.321717 0.623303
O O13 0.094820 0.154059 0.499881
O O14 0.904301 0.513845 0.253844
O O15 0.832602 0.624263 0.128709
O O16 0.058274 0.500000 0.500000
O O17 0.057232 0.684507 0.651664
O O18 0.000000 0.510651 0.709731
O O19 0.500000 0.854845 0.918196
#
# Coordination Sequence:
#
# PCOD9415026 Si02
#       8
#     8   8   8   8   8   8   8   8
#     4  10  23  43  67  92 124 168 218 276 332 383
#     4  12  23  36  59  89 128 173 212 253 318 394
#     4  10  22  45  64  88 123 166 219 273 327 385
#     4  11  22  40  63  96 129 163 217 272 319 380
#     4  11  21  36  60  89 132 167 204 259 313 380
#     4  10  18  34  63  95 127 166 209 257 317 381
#     4  10  22  40  60  85 128 167 210 265 319 378
#     4  11  22  40  67  97 131 167 210 266 331 385
#
# _framework density 21.288648999999999
#
# number of rings (size 3 to 8) (size 9 to 14) (size 15 to 20)
#    0.000    1.375    3.750    1.500    0.000    5.250 
#    6.750    1.875    0.000    6.750    0.000    0.000 
#    0.000    0.000    0.000    0.000    0.000    0.000 
#
# Total GULP energy -357407.080778 kJ/mol
# GULP energy per Si atom -5584.485637 kJ/mol
# Density = 2.124019 g / cm^3
# Si number density = 21.288649 Si / 1000 Ang^3
#
#
#
# Elastic Constant Matrix: (Units=GPa)
#
#
# Indices 1 2 3 4 5 6 
#
# 1 99.7288 20.5746 17.1566 0.0000 0.0000 0.0000
# 2 20.5746 57.8727 28.9501 0.0000 0.0000 0.0000
# 3 17.1566 28.9501 106.4032 0.0000 0.0000 0.0000
# 4 0.0000 0.0000 0.0000 48.5442 0.0000 0.0000
# 5 0.0000 0.0000 0.0000 0.0000 16.0073 0.0000
# 6 0.0000 0.0000 0.0000 0.0000 0.0000 14.0556
#
#
#
# Elastic Compliance Matrix: (Units=1/GPa)
#
#
# Indices 1 2 3 4 5 6 
#
# 1 0.010881 -0.003462 -0.000813 0.000000 0.000000 0.000000
# 2 -0.003462 0.021103 -0.005183 0.000000 0.000000 0.000000
# 3 -0.000813 -0.005183 0.010940 0.000000 0.000000 0.000000
# 4 0.000000 0.000000 0.000000 0.020600 0.000000 0.000000
# 5 0.000000 0.000000 0.000000 0.000000 0.062472 0.000000
# 6 0.000000 0.000000 0.000000 0.000000 0.000000 0.071146
#
#
# Mechanical properties :
#
#
# Convention : Reuss Voigt Hill
#
# Bulk Modulus (GPa) = 41.65317 44.15192 42.90254
# Shear Modulus (GPa) = 22.31549 28.87632 25.59590
#
# Velocity S-wave (km/s) = 3.24116 3.68695 3.47122
# Velocity P-wave (km/s) = 5.79786 6.23775 6.02182
#
# Compressibility (1/GPa) = 0.02400778
#
# Stress axis : x y z
#
# Youngs Moduli (GPa) = 91.90158 47.38651 91.41138
#
# Poissons Ratio (x) = 0.16405 0.07428
# Poissons Ratio (y) = 0.31816 0.47383
# Poissons Ratio (z) = 0.07468 0.24563
#
# Static dielectric constant tensor:
#      x y z
#    x 1.697550 0.000000 0.000000 
#    y 0.000000 2.466780 0.000000 
#    z 0.000000 0.000000 1.754150 
# 
# From -- ./inp_files/13258.got.cif
#   From: 2010.05.17/outbox.cif.g08.bks.cpg/sg53_7_cif.got.tgz:13258.got - 2010.06.03 12:45:16.
