data_PCOD9415802
_publ_section_title
;
Structure prediction by ZEFSAII (Michael W. Deem and Ramdas Pophale) SiO2 
 PCOD9415802
Probable space group: P M N A
;
_chemical_formula_sum "Si O2"
_cell_formula_units_Z 64
_cell_length_a 8.765662
_cell_length_b 21.264711
_cell_length_c 19.070858
_cell_angle_alpha 90.000000
_cell_angle_beta 90.000000
_cell_angle_gamma 90.000000
_cell_volume 3554.793993
_symmetry_space_group_name_H-M "P M N A"
_symmetry_group_IT_number 53
_symmetry_cell_setting 'orthorhombic'
loop_
_space_group_symop_operation_xyz
x,y,z
1/2-x,-y,1/2+z
x,-y,-z
1/2-x,y,1/2-z
-x,-y,-z
1/2+x,y,1/2-z
-x,y,z
1/2+x,-y,1/2+z
loop_
_atom_site_type_symbol
_atom_site_label
_atom_site_fract_x
_atom_site_fract_y
_atom_site_fract_z
Si Si1 0.816685 0.506451 0.917938
Si Si2 0.183121 0.936908 0.460623
Si Si3 0.181732 0.612942 0.676045
Si Si4 0.183868 0.616294 0.172134
Si Si5 0.818063 0.247791 0.175824
Si Si6 0.681892 0.805971 0.962913
Si Si7 0.684120 0.746160 0.401795
Si Si8 0.317974 0.123476 0.673623
O O1 0.732498 0.565447 0.884003
O O2 0.773677 0.443583 0.875282
O O3 0.000000 0.515144 0.910785
O O4 0.782437 0.500000 0.000000
O O5 0.216912 0.875504 0.507625
O O6 0.257641 0.924328 0.385294
O O7 0.000000 0.939858 0.451505
O O8 0.233497 0.000000 0.500000
O O9 0.250000 0.589125 0.750000
O O10 0.252768 0.681823 0.664794
O O11 0.000000 0.617838 0.681167
O O12 0.250000 0.611574 0.250000
O O13 0.231698 0.681310 0.134701
O O14 0.000000 0.617465 0.176868
O O15 0.750000 0.225346 0.250000
O O16 0.762814 0.207134 0.110356
O O17 0.000000 0.250211 0.179949
O O18 0.500000 0.799704 0.955173
O O19 0.741469 0.758175 0.022613
O O20 0.500000 0.745722 0.409855
O O21 0.725429 0.806365 0.353702
O O22 0.250000 0.112121 0.750000
O O23 0.500000 0.120710 0.676713
#
# Coordination Sequence:
#
# PCOD9415802 Si02
#       8
#     8   8   8   8   8   8   8   8
#     4  10  22  38  55  78 108 146 186 227 279 332
#     4   9  19  37  59  82 113 152 189 226 272 325
#     4  11  22  38  59  82 107 140 184 230 282 335
#     4  10  21  36  54  77 106 142 182 223 272 329
#     4  11  22  38  60  84 112 144 183 230 282 335
#     4  10  20  35  57  86 115 144 181 225 273 325
#     4   9  19  34  53  80 110 145 184 223 273 330
#     4  10  19  32  53  81 113 146 187 232 275 326
#
# _framework density 18.003855999999999
#
# number of rings (size 3 to 8) (size 9 to 14) (size 15 to 20)
#    0.000    2.000    0.000    4.500    1.750    3.500 
#    0.000    0.625    0.000    0.000    0.000    0.000 
#    0.000    0.000    0.000    0.000    0.000    0.000 
#
# Total GULP energy -357490.483540 kJ/mol
# GULP energy per Si atom -5585.788805 kJ/mol
# Density = 1.796288 g / cm^3
# Si number density = 18.003856 Si / 1000 Ang^3
#
#
#
# Elastic Constant Matrix: (Units=GPa)
#
#
# Indices 1 2 3 4 5 6 
#
# 1 71.7170 36.7265 71.0984 0.0000 0.0000 0.0000
# 2 36.7265 62.5801 67.6040 0.0000 0.0000 0.0000
# 3 71.0984 67.6040 173.8649 0.0000 0.0000 0.0000
# 4 0.0000 0.0000 0.0000 26.7549 0.0000 0.0000
# 5 0.0000 0.0000 0.0000 0.0000 34.1560 0.0000
# 6 0.0000 0.0000 0.0000 0.0000 0.0000 21.3752
#
#
#
# Elastic Compliance Matrix: (Units=1/GPa)
#
#
# Indices 1 2 3 4 5 6 
#
# 1 0.024771 -0.006198 -0.007719 0.000000 0.000000 0.000000
# 2 -0.006198 0.029104 -0.008782 0.000000 0.000000 0.000000
# 3 -0.007719 -0.008782 0.012323 0.000000 0.000000 0.000000
# 4 0.000000 0.000000 0.000000 0.037376 0.000000 0.000000
# 5 0.000000 0.000000 0.000000 0.000000 0.029277 0.000000
# 6 0.000000 0.000000 0.000000 0.000000 0.000000 0.046783
#
#
# Mechanical properties :
#
#
# Convention : Reuss Voigt Hill
#
# Bulk Modulus (GPa) = 48.07996 73.22442 60.65219
# Shear Modulus (GPa) = 21.55489 25.30611 23.43050
#
# Velocity S-wave (km/s) = 3.46387 3.75319 3.61143
# Velocity P-wave (km/s) = 6.53920 7.71633 7.15202
#
# Compressibility (1/GPa) = 0.02079869
#
# Stress axis : x y z
#
# Youngs Moduli (GPa) = 40.37051 34.35962 81.14932
#
# Poissons Ratio (x) = 0.21296 0.62642
# Poissons Ratio (y) = 0.25022 0.71265
# Poissons Ratio (z) = 0.31164 0.30174
#
# Static dielectric constant tensor:
#      x y z
#    x 1.603280 0.000000 0.000000 
#    y 0.000000 1.605950 0.000000 
#    z 0.000000 0.000000 1.598950 
# 
# From -- ./inp_files/26799.got.cif
#   From: 2010.05.17/outbox.cif.g08.bks.cpg/sg53_14_cif.got.tgz:26799.got - 2010.06.03 12:45:16.
