data_PCOD9415598
_publ_section_title
;
Structure prediction by ZEFSAII (Michael W. Deem and Ramdas Pophale) SiO2 
 PCOD9415598
Probable space group: P M N A
;
_chemical_formula_sum "Si O2"
_cell_formula_units_Z 56
_cell_length_a 14.819939
_cell_length_b 9.580919
_cell_length_c 20.477220
_cell_angle_alpha 90.000000
_cell_angle_beta 90.000000
_cell_angle_gamma 90.000000
_cell_volume 2907.532519
_symmetry_space_group_name_H-M "P M N A"
_symmetry_group_IT_number 53
_symmetry_cell_setting 'orthorhombic'
loop_
_space_group_symop_operation_xyz
x,y,z
1/2-x,-y,1/2+z
x,-y,-z
1/2-x,y,1/2-z
-x,-y,-z
1/2+x,y,1/2-z
-x,y,z
1/2+x,-y,1/2+z
loop_
_atom_site_type_symbol
_atom_site_label
_atom_site_fract_x
_atom_site_fract_y
_atom_site_fract_z
Si Si1 0.706530 0.642659 0.528465
Si Si2 0.258316 0.072677 0.407419
Si Si3 0.895214 0.163656 0.928968
Si Si4 0.893521 0.732068 0.219105
Si Si5 0.155840 0.805925 0.777197
Si Si6 0.394805 0.955248 0.177086
Si Si7 0.600980 0.457658 0.343000
O O1 0.751208 0.500000 0.500000
O O2 0.758969 0.782344 0.553487
O O3 0.639809 0.707341 0.473225
O O4 0.654066 0.587803 0.592531
O O5 0.312378 0.114852 0.341946
O O6 0.326856 0.963243 0.438820
O O7 0.168232 0.993190 0.383987
O O8 0.888975 0.193615 0.851364
O O9 0.000000 0.134077 0.944421
O O10 0.858038 0.825017 0.279187
O O11 0.856204 0.580083 0.200905
O O12 0.000000 0.715559 0.235031
O O13 0.250000 0.747484 0.750000
O O14 0.095681 0.678311 0.798306
O O15 0.113410 0.912953 0.726265
O O16 0.500000 0.934377 0.160392
O O17 0.500000 0.503782 0.362758
#
# Coordination Sequence:
#
# PCOD9415598 Si02
#       7
#     8   8   8   8   8   8   8
#     4  11  22  36  54  77 114 153 190 233 274 333
#     4  10  22  36  54  82 112 148 197 233 282 341
#     4  11  21  35  54  81 117 155 191 229 279 339
#     4   9  18  31  52  80 109 143 183 223 276 334
#     4   9  18  32  48  75 106 141 184 225 279 337
#     4  10  19  37  60  80 109 147 189 240 286 333
#     4  10  19  32  49  75 111 147 184 219 266 335
#
# _framework density 19.260316
#
# number of rings (size 3 to 8) (size 9 to 14) (size 15 to 20)
#    0.000    2.000    2.857    1.286    0.000    4.000 
#    2.571    0.000    0.000    2.143    0.000    0.000 
#    0.000    0.000    0.000    0.000    0.000    0.000 
#
# Total GULP energy -311837.889296 kJ/mol
# GULP energy per Si atom -5568.533737 kJ/mol
# Density = 1.921648 g / cm^3
# Si number density = 19.260316 Si / 1000 Ang^3
#
#
#
# Elastic Constant Matrix: (Units=GPa)
#
#
# Indices 1 2 3 4 5 6 
#
# 1 67.8129 45.7275 29.0588 0.0000 0.0000 0.0000
# 2 45.7275 94.5680 40.9313 0.0000 0.0000 0.0000
# 3 29.0588 40.9313 54.6844 0.0000 0.0000 0.0000
# 4 0.0000 0.0000 0.0000 36.9988 0.0000 0.0000
# 5 0.0000 0.0000 0.0000 0.0000 510.4328 0.0000
# 6 0.0000 0.0000 0.0000 0.0000 0.0000 10.3899
#
#
#
# Elastic Compliance Matrix: (Units=1/GPa)
#
#
# Indices 1 2 3 4 5 6 
#
# 1 0.023053 -0.008646 -0.005779 0.000000 0.000000 0.000000
# 2 -0.008646 0.018884 -0.009541 0.000000 0.000000 0.000000
# 3 -0.005779 -0.009541 0.028499 0.000000 0.000000 0.000000
# 4 0.000000 0.000000 0.000000 0.027028 0.000000 0.000000
# 5 0.000000 0.000000 0.000000 0.000000 0.001959 0.000000
# 6 0.000000 0.000000 0.000000 0.000000 0.000000 0.096247
#
#
# Mechanical properties :
#
#
# Convention : Reuss Voigt Hill
#
# Bulk Modulus (GPa) = 44.43346 49.83340 47.13343
# Shear Modulus (GPa) = 19.91223 118.32083 69.11653
#
# Velocity S-wave (km/s) = 3.21884 7.84639 5.99695
# Velocity P-wave (km/s) = 6.07738 10.39315 8.51329
#
# Compressibility (1/GPa) = 0.02250556
#
# Stress axis : x y z
#
# Youngs Moduli (GPa) = 43.37881 52.95368 35.08934
#
# Poissons Ratio (x) = 0.45783 0.20277
# Poissons Ratio (y) = 0.37504 0.33478
# Poissons Ratio (z) = 0.25067 0.50521
#
# Static dielectric constant tensor:
#      x y z
#    x 1.711270 0.000000 0.000000 
#    y 0.000000 1.741570 0.000000 
#    z 0.000000 0.000000 1.728670 
# 
# From -- ./inp_files/32436.got.cif
#   From: 2010.05.17/outbox.cif.g08.bks.cpg/sg53_17_cif.got.tgz:32436.got - 2010.06.03 12:45:16.
