data_PCOD9415819
_publ_section_title
;
Structure prediction by ZEFSAII (Michael W. Deem and Ramdas Pophale) SiO2 
 PCOD9415819
Probable space group: P M N A
;
_chemical_formula_sum "Si O2"
_cell_formula_units_Z 64
_cell_length_a 8.104551
_cell_length_b 24.602079
_cell_length_c 16.003240
_cell_angle_alpha 90.000000
_cell_angle_beta 90.000000
_cell_angle_gamma 90.000000
_cell_volume 3190.866883
_symmetry_space_group_name_H-M "P M N A"
_symmetry_group_IT_number 53
_symmetry_cell_setting 'orthorhombic'
loop_
_space_group_symop_operation_xyz
x,y,z
1/2-x,-y,1/2+z
x,-y,-z
1/2-x,y,1/2-z
-x,-y,-z
1/2+x,y,1/2-z
-x,y,z
1/2+x,-y,1/2+z
loop_
_atom_site_type_symbol
_atom_site_label
_atom_site_fract_x
_atom_site_fract_y
_atom_site_fract_z
Si Si1 0.701895 0.811731 0.000072
Si Si2 0.803895 0.382968 0.341982
Si Si3 0.303034 0.499813 0.404247
Si Si4 0.698876 0.117302 0.158004
Si Si5 0.201274 0.999946 0.597711
Si Si6 0.696245 0.616689 0.158046
Si Si7 0.801125 0.117173 0.658022
Si Si8 0.797585 0.686578 0.499883
O O1 0.500000 0.812256 0.000072
O O2 0.755709 0.844027 0.082889
O O3 0.754415 0.749189 0.000203
O O4 0.755696 0.843883 0.917117
O O5 0.750000 0.365494 0.250000
O O6 0.752608 0.445041 0.359057
O O7 0.740325 0.345460 0.417570
O O8 0.000000 0.380751 0.345021
O O9 0.238812 0.500000 0.500000
O O10 0.500000 0.499461 0.407105
O O11 0.248903 0.554743 0.359016
O O12 0.750000 0.135372 0.250000
O O13 0.500000 0.116233 0.154470
O O14 0.758450 0.055656 0.140668
O O15 0.000000 0.999939 0.599963
O O16 0.247582 0.000000 0.500000
O O17 0.258450 0.055522 0.640748
O O18 0.750000 0.634297 0.250000
O O19 0.500000 0.618438 0.154967
O O20 0.759293 0.654394 0.082583
O O21 0.750000 0.135277 0.750000
O O22 0.000000 0.116102 0.654478
O O23 0.000000 0.685989 0.499890
#
# Coordination Sequence:
#
# PCOD9415819 Si02
#       8
#     8   8   8   8   8   8   8   8
#     4   9  18  35  56  77 102 143 188 223 262 320
#     4  11  22  38  59  84 113 146 182 222 270 325
#     4  11  22  37  60  88 116 144 178 223 271 323
#     4  10  19  32  54  79 107 139 178 223 269 322
#     4   9  15  28  51  78 103 138 181 217 260 322
#     4  11  22  38  59  84 113 146 182 222 270 325
#     4  10  19  32  54  79 107 139 178 223 269 322
#     4   9  20  37  57  79 107 143 186 227 268 318
#
# _framework density 20.057245999999999
#
# number of rings (size 3 to 8) (size 9 to 14) (size 15 to 20)
#    0.000    2.000    2.500    1.875    0.000    1.500 
#    0.000    0.625    0.000    5.250    0.000    0.000 
#    0.000    0.000    0.000    0.000    0.000    0.000 
#
# Total GULP energy -357516.716881 kJ/mol
# GULP energy per Si atom -5586.198701 kJ/mol
# Density = 2.001159 g / cm^3
# Si number density = 20.057246 Si / 1000 Ang^3
#
#
#
# Elastic Constant Matrix: (Units=GPa)
#
#
# Indices 1 2 3 4 5 6 
#
# 1 18.1259 11.8024 13.4266 0.0000 0.0000 0.0000
# 2 11.8024 169.8398 102.2356 0.0000 0.0000 0.0000
# 3 13.4266 102.2356 210.3751 0.0000 0.0000 0.0000
# 4 0.0000 0.0000 0.0000 4.0959 0.0000 0.0000
# 5 0.0000 0.0000 0.0000 0.0000 24.1796 0.0000
# 6 0.0000 0.0000 0.0000 0.0000 0.0000 -4.1825
#
#
#
# Elastic Compliance Matrix: (Units=1/GPa)
#
#
# Indices 1 2 3 4 5 6 
#
# 1 0.058695 -0.002578 -0.002493 0.000000 0.000000 0.000000
# 2 -0.002578 0.008436 -0.003935 0.000000 0.000000 0.000000
# 3 -0.002493 -0.003935 0.006825 0.000000 0.000000 0.000000
# 4 0.000000 0.000000 0.000000 0.244145 0.000000 0.000000
# 5 0.000000 0.000000 0.000000 0.000000 0.041357 0.000000
# 6 0.000000 0.000000 0.000000 0.000000 0.000000 -0.239094
#
#
# Mechanical properties :
#
#
# Convention : Reuss Voigt Hill
#
# Bulk Modulus (GPa) = 17.87527 72.58557 45.23042
# Shear Modulus (GPa) = 31.84227 22.87702 27.35965
#
# Velocity S-wave (km/s) = 3.98875 3.38092 3.69735
# Velocity P-wave (km/s) = 5.49045 7.17695 6.38959
#
# Compressibility (1/GPa) = 0.05594322
#
# Stress axis : x y z
#
# Youngs Moduli (GPa) = 17.03721 118.54372 146.52445
#
# Poissons Ratio (x) = 0.30561 0.36532
# Poissons Ratio (y) = 0.04392 0.57657
# Poissons Ratio (z) = 0.04248 0.46646
#
# Static dielectric constant tensor:
#      x y z
#    x 1.707930 0.000000 0.000000 
#    y 0.000000 1.689560 0.000000 
#    z 0.000000 0.000000 1.712450 
# 
# From -- ./inp_files/20845.got.cif
#   From: 2010.05.17/outbox.cif.g08.bks.cpg/sg53_11_cif.got.tgz:20845.got - 2010.06.03 12:45:16.
