data_PCOD9415178
_publ_section_title
;
Structure prediction by ZEFSAII (Michael W. Deem and Ramdas Pophale) SiO2 
 PCOD9415178
Probable space group: P M N A
;
_chemical_formula_sum "Si O2"
_cell_formula_units_Z 56
_cell_length_a 8.078311
_cell_length_b 21.532049
_cell_length_c 15.301661
_cell_angle_alpha 90.000000
_cell_angle_beta 90.000000
_cell_angle_gamma 90.000000
_cell_volume 2661.610519
_symmetry_space_group_name_H-M "P M N A"
_symmetry_group_IT_number 53
_symmetry_cell_setting 'orthorhombic'
loop_
_space_group_symop_operation_xyz
x,y,z
1/2-x,-y,1/2+z
x,-y,-z
1/2-x,y,1/2-z
-x,-y,-z
1/2+x,y,1/2-z
-x,y,z
1/2+x,-y,1/2+z
loop_
_atom_site_type_symbol
_atom_site_label
_atom_site_fract_x
_atom_site_fract_y
_atom_site_fract_z
Si Si1 0.692741 0.582623 0.913101
Si Si2 0.800438 0.959309 0.847861
Si Si3 0.801897 0.320009 0.659140
Si Si4 0.203048 0.151560 0.028868
Si Si5 0.196139 0.285985 0.035657
Si Si6 0.699170 0.101356 0.653014
Si Si7 0.196178 0.452411 0.619024
O O1 0.500000 0.584663 0.889998
O O2 0.754462 0.652983 0.909823
O O3 0.767898 0.521465 0.866005
O O4 0.704715 0.564140 0.015750
O O5 0.750000 0.941598 0.750000
O O6 0.000000 0.961112 0.853917
O O7 0.741860 0.030133 0.862058
O O8 0.740643 0.907767 0.915723
O O9 0.750000 0.288519 0.750000
O O10 0.746023 0.293200 0.566306
O O11 0.729424 0.390675 0.660846
O O12 0.000000 0.322889 0.656361
O O13 0.255453 0.142627 0.928215
O O14 0.000000 0.150823 0.030557
O O15 0.259578 0.218329 0.064527
O O16 0.000000 0.284239 0.038166
O O17 0.750000 0.120968 0.750000
O O18 0.500000 0.100457 0.651191
O O19 0.000000 0.455316 0.640515
#
# Coordination Sequence:
#
# PCOD9415178 Si02
#       7
#     8   8   8   8   8   8   8
#     4   8  13  26  45  63  83 109 143 183 228 274
#     4   9  17  32  54  76  96 122 161 208 253 295
#     4  10  19  32  47  65  91 123 158 196 239 286
#     4   9  18  32  50  71  99 135 169 199 239 296
#     4  10  19  30  44  66  94 125 160 194 231 279
#     4   9  17  31  51  74  99 129 164 202 246 293
#     4   7  12  24  44  63  80 107 142 181 225 271
#
# _framework density 21.039892999999999
#
# number of rings (size 3 to 8) (size 9 to 14) (size 15 to 20)
#    0.000    3.143    0.000    3.000    0.000    2.286 
#    0.000   11.429    0.000    4.286    0.000    6.000 
#    0.000    0.000    0.000    0.000    0.000    0.000 
#
# Total GULP energy -311845.214261 kJ/mol
# GULP energy per Si atom -5568.664540 kJ/mol
# Density = 2.099201 g / cm^3
# Si number density = 21.039893 Si / 1000 Ang^3
#
#
#
# Elastic Constant Matrix: (Units=GPa)
#
#
# Indices 1 2 3 4 5 6 
#
# 1 13.7377 10.1396 -5.8325 0.0000 0.0000 0.0000
# 2 10.1396 103.4252 17.2953 0.0000 0.0000 0.0000
# 3 -5.8325 17.2953 17.6087 0.0000 0.0000 0.0000
# 4 0.0000 0.0000 0.0000 -0.1504 0.0000 0.0000
# 5 0.0000 0.0000 0.0000 0.0000 3.2991 0.0000
# 6 0.0000 0.0000 0.0000 0.0000 0.0000 39.5380
#
#
#
# Elastic Compliance Matrix: (Units=1/GPa)
#
#
# Indices 1 2 3 4 5 6 
#
# 1 0.112451 -0.020644 0.057523 0.000000 0.000000 0.000000
# 2 -0.020644 0.015359 -0.021923 0.000000 0.000000 0.000000
# 3 0.057523 -0.021923 0.097376 0.000000 0.000000 0.000000
# 4 0.000000 0.000000 0.000000 -6.647927 0.000000 0.000000
# 5 0.000000 0.000000 0.000000 0.000000 0.303111 0.000000
# 6 0.000000 0.000000 0.000000 0.000000 0.000000 0.025292
#
#
# Mechanical properties :
#
#
# Convention : Reuss Voigt Hill
#
# Bulk Modulus (GPa) = 3.92005 19.77515 11.84760
# Shear Modulus (GPa) = -0.82792 16.08197 7.62702
#
# Velocity S-wave (km/s) = -0.62798 2.76770 1.90602
# Velocity P-wave (km/s) = 1.15818 4.43089 3.23838
#
# Compressibility (1/GPa) = 0.25509896
#
# Stress axis : x y z
#
# Youngs Moduli (GPa) = 8.89275 65.10917 10.26943
#
# Poissons Ratio (x) = 1.34410 -0.59073
# Poissons Ratio (y) = 0.18358 0.22514
# Poissons Ratio (z) = -0.51154 1.42740
#
# Static dielectric constant tensor:
#      x y z
#    x 1.755640 0.000000 0.000000 
#    y 0.000000 1.842180 0.000000 
#    z 0.000000 0.000000 2.658660 
# 
# From -- ./inp_files/20575.got.cif
#   From: 2010.05.17/outbox.cif.g08.bks.cpg/sg53_11_cif.got.tgz:20575.got - 2010.06.03 12:45:16.
