data_PCOD9415659
_publ_section_title
;
Structure prediction by ZEFSAII (Michael W. Deem and Ramdas Pophale) SiO2 
 PCOD9415659
Probable space group: P M N A
;
_chemical_formula_sum "Si O2"
_cell_formula_units_Z 48
_cell_length_a 8.429013
_cell_length_b 32.457847
_cell_length_c 9.277876
_cell_angle_alpha 90.000000
_cell_angle_beta 90.000000
_cell_angle_gamma 90.000000
_cell_volume 2538.311961
_symmetry_space_group_name_H-M "P M N A"
_symmetry_group_IT_number 53
_symmetry_cell_setting 'orthorhombic'
loop_
_space_group_symop_operation_xyz
x,y,z
1/2-x,-y,1/2+z
x,-y,-z
1/2-x,y,1/2-z
-x,-y,-z
1/2+x,y,1/2-z
-x,y,z
1/2+x,-y,1/2+z
loop_
_atom_site_type_symbol
_atom_site_label
_atom_site_fract_x
_atom_site_fract_y
_atom_site_fract_z
Si Si1 0.308235 0.540611 0.913542
Si Si2 0.691731 0.879294 0.585597
Si Si3 0.810039 0.789062 0.915221
Si Si4 0.808140 0.959542 0.087224
Si Si5 0.691881 0.621777 0.086753
Si Si6 0.689657 0.702433 0.914617
O O1 0.250000 0.540058 0.750000
O O2 0.500000 0.540571 0.912294
O O3 0.254982 0.500000 0.000000
O O4 0.255122 0.581840 0.996370
O O5 0.750000 0.883399 0.750000
O O6 0.500000 0.879890 0.588623
O O7 0.739805 0.834005 0.526783
O O8 0.747381 0.917788 0.491398
O O9 0.750000 0.789390 0.750000
O O10 0.743936 0.746541 0.977608
O O11 0.000000 0.786793 0.916292
O O12 0.750000 0.961276 0.250000
O O13 0.000000 0.959269 0.086584
O O14 0.755232 0.000000 0.000000
O O15 0.750000 0.619654 0.250000
O O16 0.500000 0.621869 0.087110
O O17 0.745811 0.663660 0.008105
O O18 0.750000 0.698734 0.750000
O O19 0.500000 0.702145 0.909700
#
# Coordination Sequence:
#
# PCOD9415659 Si02
#       6
#     8   8   8   8   8   8
#     4  10  21  37  57  82 109 137 172 211 253 304
#     4   9  18  32  51  76 103 131 166 207 249 298
#     4   9  16  28  48  73 101 132 167 207 251 297
#     4  10  21  36  53  75 102 131 166 206 248 298
#     4  10  22  37  53  76 105 137 174 214 255 303
#     4  10  19  32  51  76 103 132 171 213 253 300
#
# _framework density 18.910205999999999
#
# number of rings (size 3 to 8) (size 9 to 14) (size 15 to 20)
#    0.000    2.333    0.000    3.500    0.000    4.000 
#    0.000    0.833    0.000    4.000    0.000    0.000 
#    0.000    0.000    0.000    0.000    0.000    0.000 
#
# Total GULP energy -267808.240957 kJ/mol
# GULP energy per Si atom -5579.338353 kJ/mol
# Density = 1.886717 g / cm^3
# Si number density = 18.910206 Si / 1000 Ang^3
#
#
#
# Elastic Constant Matrix: (Units=GPa)
#
#
# Indices 1 2 3 4 5 6 
#
# 1 15.7233 31.2416 13.0608 0.0000 0.0000 0.0000
# 2 31.2416 242.3655 109.0758 0.0000 0.0000 0.0000
# 3 13.0608 109.0758 128.0689 0.0000 0.0000 0.0000
# 4 0.0000 0.0000 0.0000 33.2647 0.0000 0.0000
# 5 0.0000 0.0000 0.0000 0.0000 27.5812 0.0000
# 6 0.0000 0.0000 0.0000 0.0000 0.0000 20.8889
#
#
#
# Elastic Compliance Matrix: (Units=1/GPa)
#
#
# Indices 1 2 3 4 5 6 
#
# 1 0.085590 -0.011520 0.001083 0.000000 0.000000 0.000000
# 2 -0.011520 0.008241 -0.005844 0.000000 0.000000 0.000000
# 3 0.001083 -0.005844 0.012675 0.000000 0.000000 0.000000
# 4 0.000000 0.000000 0.000000 0.030062 0.000000 0.000000
# 5 0.000000 0.000000 0.000000 0.000000 0.036257 0.000000
# 6 0.000000 0.000000 0.000000 0.000000 0.000000 0.047872
#
#
# Mechanical properties :
#
#
# Convention : Reuss Voigt Hill
#
# Bulk Modulus (GPa) = 13.52373 76.99047 45.25710
# Shear Modulus (GPa) = 17.99156 31.86560 24.92858
#
# Velocity S-wave (km/s) = 3.08786 4.10945 3.63472
# Velocity P-wave (km/s) = 4.45872 7.95732 6.44977
#
# Compressibility (1/GPa) = 0.07394412
#
# Stress axis : x y z
#
# Youngs Moduli (GPa) = 11.68355 121.34334 78.89439
#
# Poissons Ratio (x) = 1.39791 -0.08545
# Poissons Ratio (y) = 0.13460 0.46106
# Poissons Ratio (z) = -0.01265 0.70913
#
# Static dielectric constant tensor:
#      x y z
#    x 1.653270 0.000000 0.000000 
#    y 0.000000 1.702970 0.000000 
#    z 0.000000 0.000000 1.597630 
# 
# From -- ./inp_files/6742.got.cif
#   From: 2010.05.17/outbox.cif.g08.bks.cpg/sg53_4_cif.got.tgz:6742.got - 2010.06.03 12:45:16.
