data_PCOD9415950
_publ_section_title
;
Structure prediction by ZEFSAII (Michael W. Deem and Ramdas Pophale) SiO2 
 PCOD9415950
Probable space group: P M N A
;
_chemical_formula_sum "Si O2"
_cell_formula_units_Z 48
_cell_length_a 8.668863
_cell_length_b 17.018461
_cell_length_c 18.519963
_cell_angle_alpha 90.000000
_cell_angle_beta 90.000000
_cell_angle_gamma 90.000000
_cell_volume 2732.263233
_symmetry_space_group_name_H-M "P M N A"
_symmetry_group_IT_number 53
_symmetry_cell_setting 'orthorhombic'
loop_
_space_group_symop_operation_xyz
x,y,z
1/2-x,-y,1/2+z
x,-y,-z
1/2-x,y,1/2-z
-x,-y,-z
1/2+x,y,1/2-z
-x,y,z
1/2+x,-y,1/2+z
loop_
_atom_site_type_symbol
_atom_site_label
_atom_site_fract_x
_atom_site_fract_y
_atom_site_fract_z
Si Si1 0.685840 0.177853 0.098750
Si Si2 0.684890 0.337626 0.172180
Si Si3 0.815594 0.853898 0.169972
Si Si4 0.313989 0.003082 0.085330
Si Si5 0.185869 0.255749 0.956061
Si Si6 0.813516 0.584550 0.970528
O O1 0.500000 0.178185 0.096271
O O2 0.734954 0.247982 0.152067
O O3 0.734240 0.088863 0.114924
O O4 0.746817 0.202336 0.020088
O O5 0.750000 0.359683 0.250000
O O6 0.500000 0.339974 0.173215
O O7 0.745780 0.391838 0.107148
O O8 0.750000 0.850453 0.250000
O O9 0.764980 0.780389 0.120082
O O10 0.000000 0.854043 0.173473
O O11 0.760753 0.932329 0.128977
O O12 0.500000 0.996233 0.090657
O O13 0.274932 0.000000 0.000000
O O14 0.000000 0.251669 0.959773
O O15 0.231017 0.344942 0.974860
O O16 0.000000 0.584154 0.964741
O O17 0.763675 0.500000 0.000000
#
# Coordination Sequence:
#
# PCOD9415950 Si02
#       6
#     8   8   8   8   8   8
#     4   9  18  32  52  77 102 135 174 212 256 310
#     4  10  20  34  53  78 110 141 174 214 262 312
#     4  11  23  36  51  73 104 139 179 221 262 307
#     4  10  19  33  54  77 105 139 177 219 264 311
#     4   9  18  33  53  76 101 133 172 211 255 310
#     4   9  18  35  59  83 107 136 171 213 262 318
#
# _framework density 17.567854000000001
#
# number of rings (size 3 to 8) (size 9 to 14) (size 15 to 20)
#    0.000    2.333    1.667    1.000    0.000    3.333 
#    0.000    2.500    0.000    2.000    0.000    0.000 
#    0.000    0.000    0.000    0.000    0.000    0.000 
#
# Total GULP energy -267741.477108 kJ/mol
# GULP energy per Si atom -5577.947440 kJ/mol
# Density = 1.752787 g / cm^3
# Si number density = 17.567854 Si / 1000 Ang^3
#
#
#
# Elastic Constant Matrix: (Units=GPa)
#
#
# Indices 1 2 3 4 5 6 
#
# 1 16.3516 33.6477 33.7035 0.0000 0.0000 0.0000
# 2 33.6477 150.5377 88.0887 0.0000 0.0000 0.0000
# 3 33.7035 88.0887 149.0563 0.0000 0.0000 0.0000
# 4 0.0000 0.0000 0.0000 17.8732 0.0000 0.0000
# 5 0.0000 0.0000 0.0000 0.0000 25.3631 0.0000
# 6 0.0000 0.0000 0.0000 0.0000 0.0000 19.1063
#
#
#
# Elastic Compliance Matrix: (Units=1/GPa)
#
#
# Indices 1 2 3 4 5 6 
#
# 1 0.146700 -0.020453 -0.021084 0.000000 0.000000 0.000000
# 2 -0.020453 0.013006 -0.003062 0.000000 0.000000 0.000000
# 3 -0.021084 -0.003062 0.013285 0.000000 0.000000 0.000000
# 4 0.000000 0.000000 0.000000 0.055950 0.000000 0.000000
# 5 0.000000 0.000000 0.000000 0.000000 0.039427 0.000000
# 6 0.000000 0.000000 0.000000 0.000000 0.000000 0.052339
#
#
# Mechanical properties :
#
#
# Convention : Reuss Voigt Hill
#
# Bulk Modulus (GPa) = 11.93378 69.64726 40.79052
# Shear Modulus (GPa) = 11.41982 23.16890 17.29436
#
# Velocity S-wave (km/s) = 2.55236 3.63550 3.14097
# Velocity P-wave (km/s) = 3.93621 7.57319 6.03519
#
# Compressibility (1/GPa) = 0.08379577
#
# Stress axis : x y z
#
# Youngs Moduli (GPa) = 6.81662 76.88827 75.27016
#
# Poissons Ratio (x) = 1.57257 1.58697
# Poissons Ratio (y) = 0.13942 0.23045
# Poissons Ratio (z) = 0.14372 0.23540
#
# Static dielectric constant tensor:
#      x y z
#    x 1.587840 0.000000 0.000000 
#    y 0.000000 1.611210 0.000000 
#    z 0.000000 0.000000 1.574440 
# 
# From -- ./inp_files/20139.got.cif
#   From: 2010.05.17/outbox.cif.g08.bks.cpg/sg53_11_cif.got.tgz:20139.got - 2010.06.03 12:45:16.
