data_PCOD9415389
_publ_section_title
;
Structure prediction by ZEFSAII (Michael W. Deem and Ramdas Pophale) SiO2 
 PCOD9415389
Probable space group: P M N A
;
_chemical_formula_sum "Si O2"
_cell_formula_units_Z 64
_cell_length_a 9.110807
_cell_length_b 14.792141
_cell_length_c 30.614134
_cell_angle_alpha 90.000000
_cell_angle_beta 90.000000
_cell_angle_gamma 90.000000
_cell_volume 4125.816074
_symmetry_space_group_name_H-M "P M N A"
_symmetry_group_IT_number 53
_symmetry_cell_setting 'orthorhombic'
loop_
_space_group_symop_operation_xyz
x,y,z
1/2-x,-y,1/2+z
x,-y,-z
1/2-x,y,1/2-z
-x,-y,-z
1/2+x,y,1/2-z
-x,y,z
1/2+x,-y,1/2+z
loop_
_atom_site_type_symbol
_atom_site_label
_atom_site_fract_x
_atom_site_fract_y
_atom_site_fract_z
Si Si1 0.177189 0.440710 0.042739
Si Si2 0.826748 0.253401 0.477289
Si Si3 0.335317 0.249302 0.565720
Si Si4 0.170502 0.065080 0.879667
Si Si5 0.171731 0.568003 0.121514
Si Si6 0.325458 0.354543 0.796236
Si Si7 0.323173 0.049889 0.045661
Si Si8 0.675549 0.858385 0.203430
O O1 0.242655 0.340865 0.040292
O O2 0.220835 0.491455 0.087348
O O3 0.000000 0.437055 0.041737
O O4 0.221984 0.500000 0.000000
O O5 0.784531 0.246526 0.528192
O O6 0.786177 0.156015 0.457343
O O7 0.000000 0.266048 0.471900
O O8 0.500000 0.251804 0.545638
O O9 0.325574 0.161646 0.595716
O O10 0.319581 0.338767 0.594345
O O11 0.256458 0.080442 0.834620
O O12 0.000000 0.042032 0.871872
O O13 0.245698 0.996091 0.913194
O O14 0.263070 0.583411 0.165237
O O15 0.000000 0.553156 0.132350
O O16 0.250000 0.374863 0.750000
O O17 0.500000 0.363477 0.792596
O O18 0.293136 0.248225 0.806253
O O19 0.500000 0.040762 0.049435
O O20 0.280682 0.000000 0.000000
O O21 0.750000 0.878011 0.250000
O O22 0.500000 0.868687 0.205847
#
# Coordination Sequence:
#
# PCOD9415389 Si02
#       8
#     8   8   8   8   8   8   8   8
#     4  10  20  35  52  71  99 136 171 206 252 300
#     4  11  22  34  50  71  99 134 172 216 254 291
#     4  10  19  31  48  70 101 135 170 208 247 297
#     4  11  21  32  51  76 100 133 174 212 250 298
#     4  10  19  33  51  71 100 137 171 206 249 297
#     4  10  20  32  49  73 102 134 168 206 249 298
#     4  10  21  36  50  69 101 136 170 210 257 303
#     4  10  20  33  50  73 104 137 168 206 252 300
#
# _framework density 15.512083000000001
#
# number of rings (size 3 to 8) (size 9 to 14) (size 15 to 20)
#    0.000    1.750    3.750    1.500    0.000    4.000 
#    0.000    0.000    0.000    0.000    0.000    0.875 
#    0.000    2.000    0.000    0.000    0.000    0.000 
#
# Total GULP energy -357115.250065 kJ/mol
# GULP energy per Si atom -5579.925782 kJ/mol
# Density = 1.547678 g / cm^3
# Si number density = 15.512083 Si / 1000 Ang^3
#
#
#
# Elastic Constant Matrix: (Units=GPa)
#
#
# Indices 1 2 3 4 5 6 
#
# 1 53.7593 43.0796 60.7763 0.0000 0.0000 0.0000
# 2 43.0796 94.9232 54.4873 0.0000 0.0000 0.0000
# 3 60.7763 54.4873 125.6517 0.0000 0.0000 0.0000
# 4 0.0000 0.0000 0.0000 20.8614 0.0000 0.0000
# 5 0.0000 0.0000 0.0000 0.0000 30.5900 0.0000
# 6 0.0000 0.0000 0.0000 0.0000 0.0000 19.3221
#
#
#
# Elastic Compliance Matrix: (Units=1/GPa)
#
#
# Indices 1 2 3 4 5 6 
#
# 1 0.048926 -0.011477 -0.018688 0.000000 0.000000 0.000000
# 2 -0.011477 0.016718 -0.001698 0.000000 0.000000 0.000000
# 3 -0.018688 -0.001698 0.017734 0.000000 0.000000 0.000000
# 4 0.000000 0.000000 0.000000 0.047935 0.000000 0.000000
# 5 0.000000 0.000000 0.000000 0.000000 0.032690 0.000000
# 6 0.000000 0.000000 0.000000 0.000000 0.000000 0.051754
#
#
# Mechanical properties :
#
#
# Convention : Reuss Voigt Hill
#
# Bulk Modulus (GPa) = 50.88683 65.66895 58.27789
# Shear Modulus (GPa) = 17.48035 21.88745 19.68390
#
# Velocity S-wave (km/s) = 3.36055 3.76039 3.56608
# Velocity P-wave (km/s) = 6.92341 7.82816 7.38964
#
# Compressibility (1/GPa) = 0.01965145
#
# Stress axis : x y z
#
# Youngs Moduli (GPa) = 20.43917 59.81403 56.38852
#
# Poissons Ratio (x) = 0.68649 1.05378
# Poissons Ratio (y) = 0.23458 0.09577
# Poissons Ratio (z) = 0.38196 0.10159
#
# Static dielectric constant tensor:
#      x y z
#    x 1.524270 0.000000 0.000000 
#    y 0.000000 1.508260 0.000000 
#    z 0.000000 0.000000 1.498200 
# 
# From -- ./inp_files/38501.got.cif
#   From: 2010.05.17/outbox.cif.g08.bks.cpg/sg53_20_cif.got.tgz:38501.got - 2010.06.03 12:45:16.
