data_PCOD9415586
_publ_section_title
;
Structure prediction by ZEFSAII (Michael W. Deem and Ramdas Pophale) SiO2 
 PCOD9415586
Probable space group: P M N A
;
_chemical_formula_sum "Si O2"
_cell_formula_units_Z 40
_cell_length_a 8.495081
_cell_length_b 15.356881
_cell_length_c 13.200156
_cell_angle_alpha 90.000000
_cell_angle_beta 90.000000
_cell_angle_gamma 90.000000
_cell_volume 1722.065265
_symmetry_space_group_name_H-M "P M N A"
_symmetry_group_IT_number 53
_symmetry_cell_setting 'orthorhombic'
loop_
_space_group_symop_operation_xyz
x,y,z
1/2-x,-y,1/2+z
x,-y,-z
1/2-x,y,1/2-z
-x,-y,-z
1/2+x,y,1/2-z
-x,y,z
1/2+x,-y,1/2+z
loop_
_atom_site_type_symbol
_atom_site_label
_atom_site_fract_x
_atom_site_fract_y
_atom_site_fract_z
Si Si1 0.315013 0.069136 0.140106
Si Si2 0.680574 0.665930 0.646412
Si Si3 0.309765 0.305319 0.580422
Si Si4 0.686693 0.887479 0.423083
Si Si5 0.175958 0.514076 0.379448
O O1 0.250000 0.094356 0.250000
O O2 0.500000 0.087857 0.132125
O O3 0.224227 0.109613 0.043755
O O4 0.284277 0.965416 0.126321
O O5 0.750000 0.702374 0.750000
O O6 0.500000 0.689889 0.643946
O O7 0.748724 0.691620 0.537150
O O8 0.704412 0.561445 0.651541
O O9 0.500000 0.316695 0.580208
O O10 0.274237 0.208422 0.617859
O O11 0.233761 0.387668 0.635458
O O12 0.500000 0.903636 0.409448
O O13 0.166581 0.500000 0.500000
O O14 0.000000 0.500160 0.338466
#
# Coordination Sequence:
#
# PCOD9415586 Si02
#       5
#     8   8   8   8   8
#     4  11  22  38  59  83 111 146 184 224 274 329
#     4  10  19  32  49  72 103 137 174 216 262 311
#     4   9  19  34  53  76 104 137 171 213 264 315
#     4  10  20  37  59  85 114 144 181 225 275 331
#     4   9  17  30  49  71  96 130 169 206 247 298
#
# _framework density 23.227924000000002
#
# number of rings (size 3 to 8) (size 9 to 14) (size 15 to 20)
#    0.000    2.200    0.000    4.800    0.000    5.600 
#    0.000    3.000    0.000    4.800    0.000    0.000 
#    0.000    0.000    0.000    0.000    0.000    0.000 
#
# Total GULP energy -223514.653778 kJ/mol
# GULP energy per Si atom -5587.866344 kJ/mol
# Density = 2.317506 g / cm^3
# Si number density = 23.227924 Si / 1000 Ang^3
#
#
#
# Elastic Constant Matrix: (Units=GPa)
#
#
# Indices 1 2 3 4 5 6 
#
# 1 45.2638 -3.8364 1.0151 0.0000 0.0000 0.0000
# 2 -3.8364 115.6426 -11.3429 0.0000 0.0000 0.0000
# 3 1.0151 -11.3429 86.8442 0.0000 0.0000 0.0000
# 4 0.0000 0.0000 0.0000 -9.2235 0.0000 0.0000
# 5 0.0000 0.0000 0.0000 0.0000 27.9801 0.0000
# 6 0.0000 0.0000 0.0000 0.0000 0.0000 19.5832
#
#
#
# Elastic Compliance Matrix: (Units=1/GPa)
#
#
# Indices 1 2 3 4 5 6 
#
# 1 0.022157 0.000719 -0.000165 0.000000 0.000000 0.000000
# 2 0.000719 0.008783 0.001139 0.000000 0.000000 0.000000
# 3 -0.000165 0.001139 0.011666 0.000000 0.000000 0.000000
# 4 0.000000 0.000000 0.000000 -0.108419 0.000000 0.000000
# 5 0.000000 0.000000 0.000000 0.000000 0.035740 0.000000
# 6 0.000000 0.000000 0.000000 0.000000 0.000000 0.051064
#
#
# Mechanical properties :
#
#
# Convention : Reuss Voigt Hill
#
# Bulk Modulus (GPa) = 21.74350 24.38025 23.06188
# Shear Modulus (GPa) = 151.80869 25.12894 88.46882
#
# Velocity S-wave (km/s) = 8.09308 3.29270 6.17818
# Velocity P-wave (km/s) = 9.83422 4.99747 7.80021
#
# Compressibility (1/GPa) = 0.04599076
#
# Stress axis : x y z
#
# Youngs Moduli (GPa) = 45.13180 113.85791 85.72258
#
# Poissons Ratio (x) = -0.08185 0.01415
# Poissons Ratio (y) = -0.03244 -0.09762
# Poissons Ratio (z) = 0.00745 -0.12966
#
# Static dielectric constant tensor:
#      x y z
#    x 1.804470 0.000000 0.000000 
#    y 0.000000 1.888090 0.000000 
#    z 0.000000 0.000000 1.922210 
# 
# From -- ./inp_files/19862.got.cif
#   From: 2010.05.17/outbox.cif.g08.bks.cpg/sg53_10_cif.got.tgz:19862.got - 2010.06.03 12:45:16.
