data_PCOD9415129
_publ_section_title
;
Structure prediction by ZEFSAII (Michael W. Deem and Ramdas Pophale) SiO2 
 PCOD9415129
Probable space group: P M N A
;
_chemical_formula_sum "Si O2"
_cell_formula_units_Z 56
_cell_length_a 8.673674
_cell_length_b 15.018643
_cell_length_c 27.528594
_cell_angle_alpha 90.000000
_cell_angle_beta 90.000000
_cell_angle_gamma 90.000000
_cell_volume 3586.062215
_symmetry_space_group_name_H-M "P M N A"
_symmetry_group_IT_number 53
_symmetry_cell_setting 'orthorhombic'
loop_
_space_group_symop_operation_xyz
x,y,z
1/2-x,-y,1/2+z
x,-y,-z
1/2-x,y,1/2-z
-x,-y,-z
1/2+x,y,1/2-z
-x,y,z
1/2+x,-y,1/2+z
loop_
_atom_site_type_symbol
_atom_site_label
_atom_site_fract_x
_atom_site_fract_y
_atom_site_fract_z
Si Si1 0.315502 0.121032 0.196150
Si Si2 0.687775 0.378270 0.541420
Si Si3 0.817199 0.137311 0.044141
Si Si4 0.185521 0.572406 0.931697
Si Si5 0.682596 0.730476 0.877673
Si Si6 0.316707 0.983925 0.380199
Si Si7 0.187815 0.182501 0.935239
O O1 0.250000 0.115423 0.250000
O O2 0.500000 0.122761 0.197687
O O3 0.261248 0.211126 0.168239
O O4 0.263356 0.037970 0.162863
O O5 0.500000 0.377110 0.541514
O O6 0.735793 0.469205 0.568068
O O7 0.732722 0.388192 0.484648
O O8 0.740065 0.285072 0.564243
O O9 0.726432 0.208504 0.076172
O O10 0.000000 0.159884 0.046752
O O11 0.797404 0.043210 0.070894
O O12 0.771745 0.142772 0.988152
O O13 0.246174 0.634655 0.888966
O O14 0.000000 0.574108 0.930805
O O15 0.500000 0.721627 0.873978
O O16 0.500000 0.981409 0.369933
O O17 0.259741 0.885065 0.393370
O O18 0.000000 0.182492 0.932852
#
# Coordination Sequence:
#
# PCOD9415129 Si02
#       7
#     8   8   8   8   8   8   8
#     4  10  21  36  51  67  88 112 142 183 230 279
#     4   8  14  23  40  64  89 120 159 192 210 235
#     4   9  15  25  41  61  87 121 156 183 208 250
#     4   9  15  26  43  62  86 121 159 188 214 249
#     4  10  19  29  43  65  91 116 144 184 232 273
#     4   9  17  27  44  68  90 115 148 184 223 262
#     4   9  14  23  41  65  91 120 155 189 211 243
#
# _framework density 15.616014
#
# number of rings (size 3 to 8) (size 9 to 14) (size 15 to 20)
#    0.000    2.857    1.429    2.143    0.000    3.429 
#    0.000    2.143    0.000    3.429    0.000    1.000 
#    0.000    2.286    0.000    0.000    0.000    0.000 
#
# Total GULP energy -311819.972184 kJ/mol
# GULP energy per Si atom -5568.213789 kJ/mol
# Density = 1.558047 g / cm^3
# Si number density = 15.616014 Si / 1000 Ang^3
#
#
#
# Elastic Constant Matrix: (Units=GPa)
#
#
# Indices 1 2 3 4 5 6 
#
# 1 12.2288 28.3765 19.6235 0.0000 0.0000 0.0000
# 2 28.3765 129.2130 66.6774 0.0000 0.0000 0.0000
# 3 19.6235 66.6774 88.9302 0.0000 0.0000 0.0000
# 4 0.0000 0.0000 0.0000 12.5098 0.0000 0.0000
# 5 0.0000 0.0000 0.0000 0.0000 13.7765 0.0000
# 6 0.0000 0.0000 0.0000 0.0000 0.0000 -328.9865
#
#
#
# Elastic Compliance Matrix: (Units=1/GPa)
#
#
# Indices 1 2 3 4 5 6 
#
# 1 0.180438 -0.031121 -0.016482 0.000000 0.000000 0.000000
# 2 -0.031121 0.017991 -0.006622 0.000000 0.000000 0.000000
# 3 -0.016482 -0.006622 0.019847 0.000000 0.000000 0.000000
# 4 0.000000 0.000000 0.000000 0.079937 0.000000 0.000000
# 5 0.000000 0.000000 0.000000 0.000000 0.072587 0.000000
# 6 0.000000 0.000000 0.000000 0.000000 0.000000 -0.003040
#
#
# Mechanical properties :
#
#
# Convention : Reuss Voigt Hill
#
# Bulk Modulus (GPa) = 9.10537 51.08077 30.09307
# Shear Modulus (GPa) = 9.75006 -52.82707 -21.53850
#
# Velocity S-wave (km/s) = 2.50144 -5.82256 -3.71786
# Velocity P-wave (km/s) = 3.76648 3.52441 0.93939
#
# Compressibility (1/GPa) = 0.10982536
#
# Stress axis : x y z
#
# Youngs Moduli (GPa) = 5.54208 55.58485 50.38654
#
# Poissons Ratio (x) = 1.72983 0.83049
# Poissons Ratio (y) = 0.17247 0.33364
# Poissons Ratio (z) = 0.09135 0.36806
#
# Static dielectric constant tensor:
#      x y z
#    x 1.528600 0.000000 0.000000 
#    y 0.000000 1.563100 0.000000 
#    z 0.000000 0.000000 1.493780 
# 
# From -- ./inp_files/38326.got.cif
#   From: 2010.05.17/outbox.cif.g08.bks.cpg/sg53_20_cif.got.tgz:38326.got - 2010.06.03 12:45:16.
