data_PCOD9415679
_publ_section_title
;
Structure prediction by ZEFSAII (Michael W. Deem and Ramdas Pophale) SiO2 
 PCOD9415679
Probable space group: P M N A
;
_chemical_formula_sum "Si O2"
_cell_formula_units_Z 48
_cell_length_a 18.602778
_cell_length_b 16.099021
_cell_length_c 7.939876
_cell_angle_alpha 90.000000
_cell_angle_beta 90.000000
_cell_angle_gamma 90.000000
_cell_volume 2377.885782
_symmetry_space_group_name_H-M "P M N A"
_symmetry_group_IT_number 53
_symmetry_cell_setting 'orthorhombic'
loop_
_space_group_symop_operation_xyz
x,y,z
1/2-x,-y,1/2+z
x,-y,-z
1/2-x,y,1/2-z
-x,-y,-z
1/2+x,y,1/2-z
-x,y,z
1/2+x,-y,1/2+z
loop_
_atom_site_type_symbol
_atom_site_label
_atom_site_fract_x
_atom_site_fract_y
_atom_site_fract_z
Si Si1 0.079602 0.016738 0.696287
Si Si2 0.832598 0.497533 0.202892
Si Si3 0.833777 0.823791 0.210849
Si Si4 0.585610 0.160910 0.364896
Si Si5 0.582820 0.339649 0.714391
Si Si6 0.918437 0.661548 0.801256
O O1 0.135588 0.090033 0.719551
O O2 0.000000 0.043602 0.759092
O O3 0.074664 0.000000 0.500000
O O4 0.096344 0.929062 0.783837
O O5 0.750000 0.506153 0.250000
O O6 0.878368 0.575644 0.267779
O O7 0.864776 0.409233 0.259754
O O8 0.838484 0.500000 0.000000
O O9 0.750000 0.815646 0.250000
O O10 0.875328 0.741942 0.275208
O O11 0.858032 0.830091 0.015886
O O12 0.500000 0.166001 0.415879
O O13 0.596471 0.243066 0.250760
O O14 0.500000 0.337693 0.766291
O O15 0.583873 0.337958 0.507703
O O16 0.000000 0.639555 0.753651
#
# Coordination Sequence:
#
# PCOD9415679 Si02
#       6
#     8   8   8   8   8   8
#     4  10  21  37  56  79 107 142 184 225 265 314
#     4  10  19  32  51  78 110 139 169 212 265 315
#     4  11  21  33  52  81 111 139 174 220 274 325
#     4   9  18  36  60  80 103 140 184 224 263 315
#     4   9  17  32  55  78 101 136 183 224 255 302
#     4   8  15  30  54  80 101 133 183 224 253 299
#
# _framework density 20.185998000000001
#
# number of rings (size 3 to 8) (size 9 to 14) (size 15 to 20)
#    0.000    2.500    0.000    4.000    0.000    4.667 
#    0.000    7.500    0.000    4.000    0.000    0.000 
#    0.000    0.000    0.000    0.000    0.000    0.000 
#
# Total GULP energy -267751.399998 kJ/mol
# GULP energy per Si atom -5578.154167 kJ/mol
# Density = 2.014005 g / cm^3
# Si number density = 20.185998 Si / 1000 Ang^3
#
#
#
# Elastic Constant Matrix: (Units=GPa)
#
#
# Indices 1 2 3 4 5 6 
#
# 1 182.6665 122.0926 21.1004 0.0000 0.0000 0.0000
# 2 122.0926 189.7298 20.7401 0.0000 0.0000 0.0000
# 3 21.1004 20.7401 21.3105 0.0000 0.0000 0.0000
# 4 0.0000 0.0000 0.0000 -13.5433 0.0000 0.0000
# 5 0.0000 0.0000 0.0000 0.0000 10.3400 0.0000
# 6 0.0000 0.0000 0.0000 0.0000 0.0000 1.8953
#
#
#
# Elastic Compliance Matrix: (Units=1/GPa)
#
#
# Indices 1 2 3 4 5 6 
#
# 1 0.009907 -0.005934 -0.004034 0.000000 0.000000 0.000000
# 2 -0.005934 0.009453 -0.003324 0.000000 0.000000 0.000000
# 3 -0.004034 -0.003324 0.054154 0.000000 0.000000 0.000000
# 4 0.000000 0.000000 0.000000 -0.073837 0.000000 0.000000
# 5 0.000000 0.000000 0.000000 0.000000 0.096711 0.000000
# 6 0.000000 0.000000 0.000000 0.000000 0.000000 0.527616
#
#
# Mechanical properties :
#
#
# Convention : Reuss Voigt Hill
#
# Bulk Modulus (GPa) = 21.30837 80.17478 50.74158
# Shear Modulus (GPa) = 7.50490 15.05665 11.28078
#
# Velocity S-wave (km/s) = 1.93027 2.73407 2.36655
# Velocity P-wave (km/s) = 3.94295 7.05486 5.71480
#
# Compressibility (1/GPa) = 0.04692991
#
# Stress axis : x y z
#
# Youngs Moduli (GPa) = 100.94163 105.79024 18.46571
#
# Poissons Ratio (x) = 0.62777 0.07449
# Poissons Ratio (y) = 0.59900 0.06138
# Poissons Ratio (z) = 0.40718 0.35166
#
# Static dielectric constant tensor:
#      x y z
#    x 1.677530 0.000000 0.000000 
#    y 0.000000 1.748150 0.000000 
#    z 0.000000 0.000000 1.748150 
# 
# From -- ./inp_files/9911.got.cif
#   From: 2010.05.17/outbox.cif.g08.bks.cpg/sg53_5_cif.got.tgz:9911.got - 2010.06.03 12:45:16.
