data_PCOD9415376
_publ_section_title
;
Structure prediction by ZEFSAII (Michael W. Deem and Ramdas Pophale) SiO2 
 PCOD9415376
Probable space group: P M N A
;
_chemical_formula_sum "Si O2"
_cell_formula_units_Z 36
_cell_length_a 15.543787
_cell_length_b 6.018925
_cell_length_c 20.201852
_cell_angle_alpha 90.000000
_cell_angle_beta 90.000000
_cell_angle_gamma 90.000000
_cell_volume 1890.022408
_symmetry_space_group_name_H-M "P M N A"
_symmetry_group_IT_number 53
_symmetry_cell_setting 'orthorhombic'
loop_
_space_group_symop_operation_xyz
x,y,z
1/2-x,-y,1/2+z
x,-y,-z
1/2-x,y,1/2-z
-x,-y,-z
1/2+x,y,1/2-z
-x,y,z
1/2+x,-y,1/2+z
loop_
_atom_site_type_symbol
_atom_site_label
_atom_site_fract_x
_atom_site_fract_y
_atom_site_fract_z
Si Si1 0.597786 0.000621 0.709271
Si Si2 0.594831 0.740648 0.429170
Si Si3 0.250000 0.707958 0.250000
Si Si4 0.313355 0.619620 0.646528
Si Si5 0.266113 0.242106 0.016975
O O1 0.500000 0.002064 0.732745
O O2 0.640162 0.761169 0.702494
O O3 0.597699 0.092808 0.633368
O O4 0.663562 0.147940 0.750644
O O5 0.500000 0.753814 0.459857
O O6 0.612620 0.501817 0.395858
O O7 0.675169 0.770743 0.477336
O O8 0.242697 0.563285 0.183893
O O9 0.255250 0.753078 0.594917
O O10 0.298496 0.500000 0.000000
O O11 0.309274 0.000000 0.000000
#
# Coordination Sequence:
#
# PCOD9415376 Si02
#       5
#     8   8   4   8   8
#     4  10  19  33  53  73 102 143 186 226 270 323
#     4   9  18  29  45  73 107 139 174 212 260 323
#     4  10  22  36  48  74 104 144 186 234 272 320
#     4  10  19  32  49  69 103 144 180 224 265 315
#     4  10  19  31  47  73 106 140 178 218 263 325
#
# _framework density 19.047391000000001
#
# number of rings (size 3 to 8) (size 9 to 14) (size 15 to 20)
#    0.000    2.222    2.222    1.333    0.000    6.222 
#    0.000    0.000    0.000    0.000    0.000    0.000 
#    0.000   23.111    0.000   12.889    0.000    4.444 
#
# Total GULP energy -200474.386957 kJ/mol
# GULP energy per Si atom -5568.732971 kJ/mol
# Density = 1.900404 g / cm^3
# Si number density = 19.047391 Si / 1000 Ang^3
#
#
#
# Elastic Constant Matrix: (Units=GPa)
#
#
# Indices 1 2 3 4 5 6 
#
# 1 63.1944 31.2721 30.8332 0.0000 0.0000 0.0000
# 2 31.2721 112.8417 14.4312 0.0000 0.0000 0.0000
# 3 30.8332 14.4312 32.7591 0.0000 0.0000 0.0000
# 4 0.0000 0.0000 0.0000 23.7637 0.0000 0.0000
# 5 0.0000 0.0000 0.0000 0.0000 15.3513 0.0000
# 6 0.0000 0.0000 0.0000 0.0000 0.0000 8.3934
#
#
#
# Elastic Compliance Matrix: (Units=1/GPa)
#
#
# Indices 1 2 3 4 5 6 
#
# 1 0.032015 -0.005318 -0.027790 0.000000 0.000000 0.000000
# 2 -0.005318 0.010275 0.000480 0.000000 0.000000 0.000000
# 3 -0.027790 0.000480 0.056471 0.000000 0.000000 0.000000
# 4 0.000000 0.000000 0.000000 0.042081 0.000000 0.000000
# 5 0.000000 0.000000 0.000000 0.000000 0.065141 0.000000
# 6 0.000000 0.000000 0.000000 0.000000 0.000000 0.119141
#
#
# Mechanical properties :
#
#
# Convention : Reuss Voigt Hill
#
# Bulk Modulus (GPa) = 29.84830 40.20758 35.02794
# Shear Modulus (GPa) = 12.45179 18.31892 15.38536
#
# Velocity S-wave (km/s) = 2.55958 3.10458 2.84516
# Velocity P-wave (km/s) = 4.94367 5.83149 5.40584
#
# Compressibility (1/GPa) = 0.03350275
#
# Stress axis : x y z
#
# Youngs Moduli (GPa) = 31.23529 97.32790 17.70822
#
# Poissons Ratio (x) = 0.51763 0.49211
# Poissons Ratio (y) = 0.16612 -0.00849
# Poissons Ratio (z) = 0.86803 -0.04667
#
# Static dielectric constant tensor:
#      x y z
#    x 1.625630 0.000000 0.000000 
#    y 0.000000 1.802220 0.000000 
#    z 0.000000 0.000000 1.707260 
# 
# From -- ./inp_files/32149.got.cif
#   From: 2010.05.17/outbox.cif.g08.bks.cpg/sg53_17_cif.got.tgz:32149.got - 2010.06.03 12:45:16.
