data_PCOD9415589
_publ_section_title
;
Structure prediction by ZEFSAII (Michael W. Deem and Ramdas Pophale) SiO2 
 PCOD9415589
Probable space group: P M N A
;
_chemical_formula_sum "Si O2"
_cell_formula_units_Z 48
_cell_length_a 8.799366
_cell_length_b 15.472792
_cell_length_c 20.988086
_cell_angle_alpha 90.000000
_cell_angle_beta 90.000000
_cell_angle_gamma 90.000000
_cell_volume 2857.543857
_symmetry_space_group_name_H-M "P M N A"
_symmetry_group_IT_number 53
_symmetry_cell_setting 'orthorhombic'
loop_
_space_group_symop_operation_xyz
x,y,z
1/2-x,-y,1/2+z
x,-y,-z
1/2-x,y,1/2-z
-x,-y,-z
1/2+x,y,1/2-z
-x,y,z
1/2+x,-y,1/2+z
loop_
_atom_site_type_symbol
_atom_site_label
_atom_site_fract_x
_atom_site_fract_y
_atom_site_fract_z
Si Si1 0.818453 0.616740 0.816555
Si Si2 0.676106 0.197011 0.157324
Si Si3 0.183828 0.578180 0.547859
Si Si4 0.682766 0.930187 0.447459
Si Si5 0.324998 0.766766 0.991799
Si Si6 0.682018 0.987511 0.685377
O O1 0.750000 0.581851 0.750000
O O2 0.761449 0.716207 0.821714
O O3 0.756548 0.573112 0.881743
O O4 0.000000 0.613303 0.814888
O O5 0.500000 0.200065 0.178531
O O6 0.677801 0.197940 0.080548
O O7 0.756665 0.110128 0.179281
O O8 0.218018 0.500000 0.500000
O O9 0.233247 0.668700 0.515257
O O10 0.000000 0.583418 0.556368
O O11 0.500000 0.931970 0.449137
O O12 0.736587 0.834819 0.465527
O O13 0.737813 0.000000 0.500000
O O14 0.731369 0.961322 0.377726
O O15 0.500000 0.763153 0.013098
O O16 0.750000 0.025482 0.750000
O O17 0.500000 0.986037 0.688121
#
# Coordination Sequence:
#
# PCOD9415589 Si02
#       6
#     8   8   8   8   8   8
#     4  11  21  33  51  76 108 141 175 213 259 316
#     4  10  19  32  49  73 104 137 172 208 257 312
#     4   9  19  37  58  81 110 139 171 215 268 321
#     4  10  20  34  51  72 101 136 174 214 257 300
#     4   9  18  31  52  79 102 132 171 211 255 304
#     4  11  22  34  48  69 100 137 175 216 263 306
#
# _framework density 16.797640999999999
#
# number of rings (size 3 to 8) (size 9 to 14) (size 15 to 20)
#    0.000    2.000    1.667    4.000    0.000    4.667 
#    0.000    0.000    0.000    1.000    0.000    2.333 
#    0.000    0.000    0.000    0.000    0.000    0.000 
#
# Total GULP energy -267814.406537 kJ/mol
# GULP energy per Si atom -5579.466803 kJ/mol
# Density = 1.675941 g / cm^3
# Si number density = 16.797641 Si / 1000 Ang^3
#
#
#
# Elastic Constant Matrix: (Units=GPa)
#
#
# Indices 1 2 3 4 5 6 
#
# 1 66.1153 27.4176 53.1315 0.0000 0.0000 0.0000
# 2 27.4176 81.4410 69.7753 0.0000 0.0000 0.0000
# 3 53.1315 69.7753 145.5412 0.0000 0.0000 0.0000
# 4 0.0000 0.0000 0.0000 16.9903 0.0000 0.0000
# 5 0.0000 0.0000 0.0000 0.0000 24.5435 0.0000
# 6 0.0000 0.0000 0.0000 0.0000 0.0000 20.6431
#
#
#
# Elastic Compliance Matrix: (Units=1/GPa)
#
#
# Indices 1 2 3 4 5 6 
#
# 1 0.021441 -0.000869 -0.007411 0.000000 0.000000 0.000000
# 2 -0.000869 0.020873 -0.009690 0.000000 0.000000 0.000000
# 3 -0.007411 -0.009690 0.014222 0.000000 0.000000 0.000000
# 4 0.000000 0.000000 0.000000 0.058857 0.000000 0.000000
# 5 0.000000 0.000000 0.000000 0.000000 0.040744 0.000000
# 6 0.000000 0.000000 0.000000 0.000000 0.000000 0.048442
#
#
# Mechanical properties :
#
#
# Convention : Reuss Voigt Hill
#
# Bulk Modulus (GPa) = 48.55113 65.97181 57.26147
# Shear Modulus (GPa) = 20.21156 21.95360 21.08258
#
# Velocity S-wave (km/s) = 3.47254 3.61909 3.54657
# Velocity P-wave (km/s) = 6.71150 7.53814 7.13680
#
# Compressibility (1/GPa) = 0.02059684
#
# Stress axis : x y z
#
# Youngs Moduli (GPa) = 46.64017 47.90832 70.31525
#
# Poissons Ratio (x) = 0.04164 0.52107
# Poissons Ratio (y) = 0.04054 0.68134
# Poissons Ratio (z) = 0.34563 0.46422
#
# Static dielectric constant tensor:
#      x y z
#    x 1.572190 0.000000 0.000000 
#    y 0.000000 1.546240 0.000000 
#    z 0.000000 0.000000 1.593150 
# 
# From -- ./inp_files/30543.got.cif
#   From: 2010.05.17/outbox.cif.g08.bks.cpg/sg53_16_cif.got.tgz:30543.got - 2010.06.03 12:45:16.
