data_PCOD9415707
_publ_section_title
;
Structure prediction by ZEFSAII (Michael W. Deem and Ramdas Pophale) SiO2 
 PCOD9415707
Probable space group: P M N A
;
_chemical_formula_sum "Si O2"
_cell_formula_units_Z 56
_cell_length_a 7.825604
_cell_length_b 19.880032
_cell_length_c 19.000623
_cell_angle_alpha 90.000000
_cell_angle_beta 90.000000
_cell_angle_gamma 90.000000
_cell_volume 2955.988823
_symmetry_space_group_name_H-M "P M N A"
_symmetry_group_IT_number 53
_symmetry_cell_setting 'orthorhombic'
loop_
_space_group_symop_operation_xyz
x,y,z
1/2-x,-y,1/2+z
x,-y,-z
1/2-x,y,1/2-z
-x,-y,-z
1/2+x,y,1/2-z
-x,y,z
1/2+x,-y,1/2+z
loop_
_atom_site_type_symbol
_atom_site_label
_atom_site_fract_x
_atom_site_fract_y
_atom_site_fract_z
Si Si1 0.795887 0.716391 0.987932
Si Si2 0.295800 0.969343 0.668053
Si Si3 0.706740 0.573082 0.024037
Si Si4 0.804864 0.761451 0.359467
Si Si5 0.202193 0.147672 0.071176
Si Si6 0.794324 0.378922 0.676338
Si Si7 0.703634 0.896318 0.085401
O O1 0.761888 0.637478 0.977541
O O2 0.698437 0.736398 0.059486
O O3 0.000000 0.724671 0.999521
O O4 0.739012 0.774568 0.933677
O O5 0.250000 0.975045 0.750000
O O6 0.500000 0.968178 0.663835
O O7 0.225217 0.901806 0.630475
O O8 0.238318 0.032926 0.621573
O O9 0.500000 0.572510 0.023365
O O10 0.764924 0.586911 0.104317
O O11 0.767265 0.500000 0.000000
O O12 0.720787 0.697400 0.322685
O O13 0.727106 0.835631 0.364897
O O14 0.000000 0.768317 0.333790
O O15 0.000000 0.151332 0.083557
O O16 0.227850 0.114247 0.993746
O O17 0.750000 0.412799 0.750000
O O18 0.000000 0.374175 0.671443
O O19 0.500000 0.886912 0.080074
#
# Coordination Sequence:
#
# PCOD9415707 Si02
#       7
#     8   8   8   8   8   8   8
#     4   9  16  28  49  75  96 116 150 194 238 281
#     4  11  23  37  50  67  96 131 168 211 260 305
#     4   9  18  33  51  71  98 130 160 192 234 284
#     4   8  16  30  45  65  95 127 156 186 225 280
#     4   9  19  35  53  72  97 129 162 203 253 299
#     4   9  17  29  45  66  93 125 157 187 224 274
#     4  10  19  32  52  76  99 126 165 207 245 294
#
# _framework density 18.944592
#
# number of rings (size 3 to 8) (size 9 to 14) (size 15 to 20)
#    0.000    2.714    0.000    2.571    0.000    7.143 
#    0.000    1.429    0.000    0.857    0.000    6.000 
#    0.000    0.000    0.000    0.000    0.000    0.000 
#
# Total GULP energy -311805.990509 kJ/mol
# GULP energy per Si atom -5567.964116 kJ/mol
# Density = 1.890147 g / cm^3
# Si number density = 18.944592 Si / 1000 Ang^3
#
#
#
# Elastic Constant Matrix: (Units=GPa)
#
#
# Indices 1 2 3 4 5 6 
#
# 1 26.0666 -1.4418 -11.4456 0.0000 0.0000 0.0000
# 2 -1.4418 149.0138 34.2671 0.0000 0.0000 0.0000
# 3 -11.4456 34.2671 36.8410 0.0000 0.0000 0.0000
# 4 0.0000 0.0000 0.0000 13.1032 0.0000 0.0000
# 5 0.0000 0.0000 0.0000 0.0000 14.1406 0.0000
# 6 0.0000 0.0000 0.0000 0.0000 0.0000 19.5554
#
#
#
# Elastic Compliance Matrix: (Units=1/GPa)
#
#
# Indices 1 2 3 4 5 6 
#
# 1 0.045898 -0.003606 0.017614 0.000000 0.000000 0.000000
# 2 -0.003606 0.008820 -0.009324 0.000000 0.000000 0.000000
# 3 0.017614 -0.009324 0.041289 0.000000 0.000000 0.000000
# 4 0.000000 0.000000 0.000000 0.076317 0.000000 0.000000
# 5 0.000000 0.000000 0.000000 0.000000 0.070718 0.000000
# 6 0.000000 0.000000 0.000000 0.000000 0.000000 0.051137
#
#
# Mechanical properties :
#
#
# Convention : Reuss Voigt Hill
#
# Bulk Modulus (GPa) = 9.49010 28.29786 18.89398
# Shear Modulus (GPa) = 15.62807 22.06262 18.84535
#
# Velocity S-wave (km/s) = 2.87529 3.41631 3.15741
# Velocity P-wave (km/s) = 4.00541 5.52550 4.82568
#
# Compressibility (1/GPa) = 0.10537293
#
# Stress axis : x y z
#
# Youngs Moduli (GPa) = 21.78748 113.37745 24.21974
#
# Poissons Ratio (x) = 0.40888 -0.42660
# Poissons Ratio (y) = 0.07857 0.22583
# Poissons Ratio (z) = -0.38376 1.05716
#
# Static dielectric constant tensor:
#      x y z
#    x 1.704640 0.000000 0.000000 
#    y 0.000000 1.718970 0.000000 
#    z 0.000000 0.000000 1.666780 
# 
# From -- ./inp_files/30987.got.cif
#   From: 2010.05.17/outbox.cif.g08.bks.cpg/sg53_16_cif.got.tgz:30987.got - 2010.06.03 12:45:16.
