data_PCOD9415124
_publ_section_title
;
Structure prediction by ZEFSAII (Michael W. Deem and Ramdas Pophale) SiO2 
 PCOD9415124
Probable space group: P M N A
;
_chemical_formula_sum "Si O2"
_cell_formula_units_Z 48
_cell_length_a 7.353548
_cell_length_b 17.348494
_cell_length_c 18.530118
_cell_angle_alpha 90.000000
_cell_angle_beta 90.000000
_cell_angle_gamma 90.000000
_cell_volume 2363.942435
_symmetry_space_group_name_H-M "P M N A"
_symmetry_group_IT_number 53
_symmetry_cell_setting 'orthorhombic'
loop_
_space_group_symop_operation_xyz
x,y,z
1/2-x,-y,1/2+z
x,-y,-z
1/2-x,y,1/2-z
-x,-y,-z
1/2+x,y,1/2-z
-x,y,z
1/2+x,-y,1/2+z
loop_
_atom_site_type_symbol
_atom_site_label
_atom_site_fract_x
_atom_site_fract_y
_atom_site_fract_z
Si Si1 0.220696 0.178652 0.602970
Si Si2 0.777976 0.991700 0.416006
Si Si3 0.222239 0.584265 0.476233
Si Si4 0.220666 0.259643 0.453023
Si Si5 0.217004 0.144374 0.334596
Si Si6 0.716384 0.665181 0.168886
O O1 0.268400 0.207162 0.522284
O O2 0.284385 0.247312 0.655246
O O3 0.000000 0.176697 0.606348
O O4 0.282718 0.091359 0.613789
O O5 0.715308 0.064485 0.369428
O O6 0.000000 0.991748 0.415248
O O7 0.725521 0.000000 0.500000
O O8 0.283562 0.500000 0.500000
O O9 0.279513 0.653468 0.529575
O O10 0.281425 0.610629 0.396050
O O11 0.000000 0.582886 0.476381
O O12 0.284807 0.216965 0.381232
O O13 0.000000 0.262236 0.451546
O O14 0.250000 0.149681 0.250000
O O15 0.000000 0.143160 0.344723
O O16 0.750000 0.639045 0.250000
O O17 0.500000 0.668868 0.159643
#
# Coordination Sequence:
#
# PCOD9415124 Si02
#       6
#     8   8   8   8   8   8
#     4   8  13  23  41  64  83 105 144 183 209 241
#     4   9  14  23  42  65  84 108 148 189 214 239
#     4   8  14  26  46  69  87 108 145 186 214 243
#     4   8  13  24  42  62  82 107 142 179 210 245
#     4  10  19  29  43  64  89 115 143 179 218 254
#     4   9  17  28  44  66  92 115 137 175 221 260
#
# _framework density 20.305060999999998
#
# number of rings (size 3 to 8) (size 9 to 14) (size 15 to 20)
#    0.000    3.333    1.667    2.000    0.000    0.667 
#    0.000    0.833    0.000    5.000    0.000    0.000 
#    0.000    0.000    0.000    0.000    0.000    0.000 
#
# Total GULP energy -267678.553707 kJ/mol
# GULP energy per Si atom -5576.636536 kJ/mol
# Density = 2.025885 g / cm^3
# Si number density = 20.305061 Si / 1000 Ang^3
#
#
#
# Elastic Constant Matrix: (Units=GPa)
#
#
# Indices 1 2 3 4 5 6 
#
# 1 73.1220 8.7068 -0.6789 0.0000 0.0000 0.0000
# 2 8.7068 208.8206 106.3569 0.0000 0.0000 0.0000
# 3 -0.6789 106.3569 148.0733 0.0000 0.0000 0.0000
# 4 0.0000 0.0000 0.0000 21.6006 0.0000 0.0000
# 5 0.0000 0.0000 0.0000 0.0000 13.5991 0.0000
# 6 0.0000 0.0000 0.0000 0.0000 0.0000 -14.6532
#
#
#
# Elastic Compliance Matrix: (Units=1/GPa)
#
#
# Indices 1 2 3 4 5 6 
#
# 1 0.013797 -0.000958 0.000751 0.000000 0.000000 0.000000
# 2 -0.000958 0.007618 -0.005476 0.000000 0.000000 0.000000
# 3 0.000751 -0.005476 0.010690 0.000000 0.000000 0.000000
# 4 0.000000 0.000000 0.000000 0.046295 0.000000 0.000000
# 5 0.000000 0.000000 0.000000 0.000000 0.073534 0.000000
# 6 0.000000 0.000000 0.000000 0.000000 0.000000 -0.068245
#
#
# Mechanical properties :
#
#
# Convention : Reuss Voigt Hill
#
# Bulk Modulus (GPa) = 48.21731 73.19837 60.70784
# Shear Modulus (GPa) = 49.03504 25.15139 37.09321
#
# Velocity S-wave (km/s) = 4.91951 3.52330 4.27874
# Velocity P-wave (km/s) = 7.48778 7.25804 7.37380
#
# Compressibility (1/GPa) = 0.02073944
#
# Stress axis : x y z
#
# Youngs Moduli (GPa) = 72.48054 131.27134 93.54405
#
# Poissons Ratio (x) = 0.12575 -0.07028
# Poissons Ratio (y) = 0.06943 0.51225
# Poissons Ratio (z) = -0.05445 0.71885
#
# Static dielectric constant tensor:
#      x y z
#    x 1.801740 0.000000 0.000000 
#    y 0.000000 1.713740 0.000000 
#    z 0.000000 0.000000 1.700570 
# 
# From -- ./inp_files/14922.got.cif
#   From: 2010.05.17/outbox.cif.g08.bks.cpg/sg53_8_cif.got.tgz:14922.got - 2010.06.03 12:45:16.
