data_PCOD9415267
_publ_section_title
;
Structure prediction by ZEFSAII (Michael W. Deem and Ramdas Pophale) SiO2 
 PCOD9415267
Probable space group: P M N A
;
_chemical_formula_sum "Si O2"
_cell_formula_units_Z 64
_cell_length_a 14.830142
_cell_length_b 7.935880
_cell_length_c 32.310412
_cell_angle_alpha 90.000000
_cell_angle_beta 90.000000
_cell_angle_gamma 90.000000
_cell_volume 3802.619732
_symmetry_space_group_name_H-M "P M N A"
_symmetry_group_IT_number 53
_symmetry_cell_setting 'orthorhombic'
loop_
_space_group_symop_operation_xyz
x,y,z
1/2-x,-y,1/2+z
x,-y,-z
1/2-x,y,1/2-z
-x,-y,-z
1/2+x,y,1/2-z
-x,y,z
1/2+x,-y,1/2+z
loop_
_atom_site_type_symbol
_atom_site_label
_atom_site_fract_x
_atom_site_fract_y
_atom_site_fract_z
Si Si1 0.397366 0.373211 0.328210
Si Si2 0.105533 0.201171 0.088399
Si Si3 0.103690 0.298501 0.999869
Si Si4 0.785307 0.309542 0.830408
Si Si5 0.600854 0.856036 0.264832
Si Si6 0.856724 0.213357 0.255122
Si Si7 0.399149 0.439791 0.801930
Si Si8 0.394110 0.197231 0.590653
O O1 0.500000 0.431569 0.334361
O O2 0.360271 0.297332 0.371095
O O3 0.335604 0.524690 0.313997
O O4 0.397203 0.243521 0.290615
O O5 0.146057 0.240367 0.043284
O O6 0.000000 0.252790 0.085523
O O7 0.107795 0.003118 0.096105
O O8 0.000000 0.232977 0.999833
O O9 0.101959 0.500000 0.000000
O O10 0.139524 0.238907 0.955666
O O11 0.820035 0.163744 0.799006
O O12 0.681120 0.363102 0.829826
O O13 0.830309 0.276012 0.874752
O O14 0.500000 0.864070 0.284267
O O15 0.602831 0.689174 0.236775
O O16 0.614379 0.021083 0.236166
O O17 0.750000 0.219133 0.250000
O O18 0.883689 0.368718 0.285067
O O19 0.500000 0.432607 0.820042
O O20 0.500000 0.253020 0.594327
#
# Coordination Sequence:
#
# PCOD9415267 Si02
#       8
#     8   8   8   8   8   8   8   8
#     4  11  20  31  49  72 101 133 166 211 256 308
#     4   9  18  30  45  72 106 140 174 204 246 306
#     4   9  16  28  45  68 101 142 176 202 241 300
#     4  12  21  35  50  75 101 134 175 218 264 311
#     4  11  22  35  54  77 103 134 170 215 266 322
#     4  12  21  36  54  75 103 138 177 218 263 312
#     4  11  23  40  54  71  99 134 179 227 272 315
#     4  10  19  30  48  72 105 142 173 209 252 307
#
# _framework density 16.830503
#
# number of rings (size 3 to 8) (size 9 to 14) (size 15 to 20)
#    0.000    1.375    2.500    5.250    0.000    4.500 
#    0.000    0.000    0.000    0.000    0.000    0.000 
#    0.000    6.500    0.000    0.000    0.000    0.250 
#
# Total GULP energy -356723.910029 kJ/mol
# GULP energy per Si atom -5573.811094 kJ/mol
# Density = 1.679220 g / cm^3
# Si number density = 16.830503 Si / 1000 Ang^3
#
#
#
# Elastic Constant Matrix: (Units=GPa)
#
#
# Indices 1 2 3 4 5 6 
#
# 1 93.3585 16.7245 21.1829 0.0000 0.0000 0.0000
# 2 16.7245 67.5589 11.9173 0.0000 0.0000 0.0000
# 3 21.1829 11.9173 64.2009 0.0000 0.0000 0.0000
# 4 0.0000 0.0000 0.0000 23.5664 0.0000 0.0000
# 5 0.0000 0.0000 0.0000 0.0000 10.5152 0.0000
# 6 0.0000 0.0000 0.0000 0.0000 0.0000 14.4583
#
#
#
# Elastic Compliance Matrix: (Units=1/GPa)
#
#
# Indices 1 2 3 4 5 6 
#
# 1 0.011924 -0.002334 -0.003501 0.000000 0.000000 0.000000
# 2 -0.002334 0.015760 -0.002155 0.000000 0.000000 0.000000
# 3 -0.003501 -0.002155 0.017131 0.000000 0.000000 0.000000
# 4 0.000000 0.000000 0.000000 0.042433 0.000000 0.000000
# 5 0.000000 0.000000 0.000000 0.000000 0.095100 0.000000
# 6 0.000000 0.000000 0.000000 0.000000 0.000000 0.069164
#
#
# Mechanical properties :
#
#
# Convention : Reuss Voigt Hill
#
# Bulk Modulus (GPa) = 34.68103 36.08530 35.38317
# Shear Modulus (GPa) = 18.04366 21.39423 19.71894
#
# Velocity S-wave (km/s) = 3.27782 3.56920 3.42661
# Velocity P-wave (km/s) = 5.91407 6.20262 6.06006
#
# Compressibility (1/GPa) = 0.02883420
#
# Stress axis : x y z
#
# Youngs Moduli (GPa) = 83.86498 63.45207 58.37270
#
# Poissons Ratio (x) = 0.14811 0.20436
# Poissons Ratio (y) = 0.19576 0.12581
# Poissons Ratio (z) = 0.29361 0.13676
#
# Static dielectric constant tensor:
#      x y z
#    x 1.633590 0.000000 0.000000 
#    y 0.000000 1.636830 0.000000 
#    z 0.000000 0.000000 1.606720 
# 
# From -- ./inp_files/38946.got.cif
#   From: 2010.05.17/outbox.cif.g08.bks.cpg/sg53_20_cif.got.tgz:38946.got - 2010.06.03 12:45:16.
