data_PCOD9415272
_publ_section_title
;
Structure prediction by ZEFSAII (Michael W. Deem and Ramdas Pophale) SiO2 
 PCOD9415272
Probable space group: P M N A
;
_chemical_formula_sum "Si O2"
_cell_formula_units_Z 48
_cell_length_a 10.222049
_cell_length_b 8.418023
_cell_length_c 28.227215
_cell_angle_alpha 90.000000
_cell_angle_beta 90.000000
_cell_angle_gamma 90.000000
_cell_volume 2428.936145
_symmetry_space_group_name_H-M "P M N A"
_symmetry_group_IT_number 53
_symmetry_cell_setting 'orthorhombic'
loop_
_space_group_symop_operation_xyz
x,y,z
1/2-x,-y,1/2+z
x,-y,-z
1/2-x,y,1/2-z
-x,-y,-z
1/2+x,y,1/2-z
-x,y,z
1/2+x,-y,1/2+z
loop_
_atom_site_type_symbol
_atom_site_label
_atom_site_fract_x
_atom_site_fract_y
_atom_site_fract_z
Si Si1 0.852301 0.041896 0.788744
Si Si2 0.354391 0.882031 0.559440
Si Si3 0.146614 0.657436 0.526440
Si Si4 0.852485 0.709444 0.837394
Si Si5 0.851834 0.485304 0.625584
Si Si6 0.648902 0.787651 0.390522
O O1 0.750000 0.096512 0.750000
O O2 0.845767 0.139473 0.837533
O O3 0.000000 0.053711 0.770311
O O4 0.827925 0.858017 0.802976
O O5 0.500000 0.863995 0.539052
O O6 0.245310 0.803351 0.526728
O O7 0.354943 0.786794 0.609727
O O8 0.332688 0.063956 0.574263
O O9 0.196921 0.500000 0.500000
O O10 0.134453 0.602650 0.580867
O O11 0.000000 0.692841 0.508015
O O12 0.739226 0.578252 0.836818
O O13 0.000000 0.646498 0.828722
O O14 0.764379 0.339066 0.607132
O O15 0.000000 0.443734 0.640937
O O16 0.500000 0.723858 0.397756
#
# Coordination Sequence:
#
# PCOD9415272 Si02
#       6
#     8   8   8   8   8   8
#     4   9  18  32  51  73  95 122 155 190 232 279
#     4   8  15  29  49  69  88 118 160 193 221 271
#     4   9  18  32  48  68  96 125 153 193 243 284
#     4   8  15  30  49  67  90 120 151 186 229 271
#     4  10  19  30  48  73  94 119 159 196 228 275
#     4   9  18  33  50  69  97 129 156 189 238 285
#
# _framework density 19.761738999999999
#
# number of rings (size 3 to 8) (size 9 to 14) (size 15 to 20)
#    0.000    3.167    0.000    2.500    0.000    3.000 
#    0.000    5.000    0.000    5.000    0.000    0.000 
#    0.000    0.000    0.000    0.000    0.000    0.000 
#
# Total GULP energy -267520.582107 kJ/mol
# GULP energy per Si atom -5573.345461 kJ/mol
# Density = 1.971676 g / cm^3
# Si number density = 19.761739 Si / 1000 Ang^3
#
#
#
# Elastic Constant Matrix: (Units=GPa)
#
#
# Indices 1 2 3 4 5 6 
#
# 1 145.9469 70.1581 20.7206 0.0000 0.0000 0.0000
# 2 70.1581 58.9716 -5.6059 0.0000 0.0000 0.0000
# 3 20.7206 -5.6059 35.3360 0.0000 0.0000 0.0000
# 4 0.0000 0.0000 0.0000 10.6366 0.0000 0.0000
# 5 0.0000 0.0000 0.0000 0.0000 17.8830 0.0000
# 6 0.0000 0.0000 0.0000 0.0000 0.0000 -13.6894
#
#
#
# Elastic Compliance Matrix: (Units=1/GPa)
#
#
# Indices 1 2 3 4 5 6 
#
# 1 0.024435 -0.030899 -0.019230 0.000000 0.000000 0.000000
# 2 -0.030899 0.056288 0.027048 0.000000 0.000000 0.000000
# 3 -0.019230 0.027048 0.043867 0.000000 0.000000 0.000000
# 4 0.000000 0.000000 0.000000 0.094015 0.000000 0.000000
# 5 0.000000 0.000000 0.000000 0.000000 0.055919 0.000000
# 6 0.000000 0.000000 0.000000 0.000000 0.000000 -0.073049
#
#
# Mechanical properties :
#
#
# Convention : Reuss Voigt Hill
#
# Bulk Modulus (GPa) = 12.75027 45.64446 29.19736
# Shear Modulus (GPa) = 18.26287 13.29817 15.78052
#
# Velocity S-wave (km/s) = 3.04329 2.59689 2.82891
# Velocity P-wave (km/s) = 4.33760 5.66916 5.04748
#
# Compressibility (1/GPa) = 0.07842971
#
# Stress axis : x y z
#
# Youngs Moduli (GPa) = 40.92450 17.76567 22.79604
#
# Poissons Ratio (x) = 0.54893 0.43838
# Poissons Ratio (y) = 1.26451 -0.61660
# Poissons Ratio (z) = 0.78699 -0.48053
#
# Static dielectric constant tensor:
#      x y z
#    x 1.722970 0.000000 0.000000 
#    y 0.000000 1.699470 0.000000 
#    z 0.000000 0.000000 1.711480 
# 
# From -- ./inp_files/36677.got.cif
#   From: 2010.05.17/outbox.cif.g08.bks.cpg/sg53_19_cif.got.tgz:36677.got - 2010.06.03 12:45:16.
