data_PCOD9415604
_publ_section_title
;
Structure prediction by ZEFSAII (Michael W. Deem and Ramdas Pophale) SiO2 
 PCOD9415604
Probable space group: P M N A
;
_chemical_formula_sum "Si O2"
_cell_formula_units_Z 64
_cell_length_a 7.388844
_cell_length_b 25.002976
_cell_length_c 15.875074
_cell_angle_alpha 90.000000
_cell_angle_beta 90.000000
_cell_angle_gamma 90.000000
_cell_volume 2932.810212
_symmetry_space_group_name_H-M "P M N A"
_symmetry_group_IT_number 53
_symmetry_cell_setting 'orthorhombic'
loop_
_space_group_symop_operation_xyz
x,y,z
1/2-x,-y,1/2+z
x,-y,-z
1/2-x,y,1/2-z
-x,-y,-z
1/2+x,y,1/2-z
-x,y,z
1/2+x,-y,1/2+z
loop_
_atom_site_type_symbol
_atom_site_label
_atom_site_fract_x
_atom_site_fract_y
_atom_site_fract_z
Si Si1 0.719539 0.941644 0.099533
Si Si2 0.221675 0.633621 0.500000
Si Si3 0.215671 0.172355 0.656156
Si Si4 0.715671 0.827645 0.843844
Si Si5 0.280461 0.941644 0.900467
Si Si6 0.216054 0.439204 0.653899
Si Si7 0.716054 0.560797 0.846101
Si Si8 0.721693 0.756481 0.000000
O O1 0.500000 0.942330 0.104875
O O2 0.786111 0.888345 0.145156
O O3 0.783303 0.000000 0.129823
O O4 0.762874 0.936993 0.000000
O O5 0.281820 0.601280 0.417185
O O6 0.281820 0.601280 0.582815
O O7 0.279848 0.695064 0.500000
O O8 0.000000 0.634105 0.500000
O O9 0.250000 0.192206 0.750000
O O10 0.281961 0.211130 0.582605
O O11 0.000000 0.169102 0.644686
O O12 0.750000 0.807794 0.750000
O O13 0.500000 0.830898 0.855314
O O14 0.786111 0.888345 0.854844
O O15 0.781961 0.788870 0.917395
O O16 0.500000 0.942329 0.895126
O O17 0.250000 0.422125 0.750000
O O18 0.286584 0.500000 0.643693
O O19 0.000000 0.442153 0.643487
O O20 0.750000 0.577875 0.750000
O O21 0.500000 0.557848 0.856513
O O22 0.500000 0.756219 0.000000
#
# Coordination Sequence:
#
# PCOD9415604 Si02
#       8
#     8   8   8   8   8   8   8   8
#     4   8  13  24  45  69  90 116 152 190 226 272
#     4   9  17  30  50  71  92 125 164 196 226 271
#     4  10  19  32  50  71  93 121 156 194 234 278
#     4  10  19  32  50  71  93 121 156 194 234 278
#     4   8  13  24  45  69  90 116 152 190 226 272
#     4   9  17  30  49  73  99 125 155 192 233 276
#     4   9  17  30  49  73  99 125 155 192 233 276
#     4   9  18  33  50  68  93 125 162 196 228 273
#
# _framework density 21.822074000000001
#
# number of rings (size 3 to 8) (size 9 to 14) (size 15 to 20)
#    0.000    3.000    1.250    1.125    0.000    3.000 
#    0.000    1.250    0.000    4.500    0.000    1.750 
#    0.000    0.000    0.000    0.000    0.000    0.000 
#
# Total GULP energy -357324.120894 kJ/mol
# GULP energy per Si atom -5583.189389 kJ/mol
# Density = 2.177241 g / cm^3
# Si number density = 21.822074 Si / 1000 Ang^3
#
#
#
# Elastic Constant Matrix: (Units=GPa)
#
#
# Indices 1 2 3 4 5 6 
#
# 1 75.3769 9.3913 -2.0621 0.0000 0.0000 0.0000
# 2 9.3913 183.9018 137.0533 0.0000 0.0000 0.0000
# 3 -2.0621 137.0533 188.4865 0.0000 0.0000 0.0000
# 4 0.0000 0.0000 0.0000 4.4977 0.0000 0.0000
# 5 0.0000 0.0000 0.0000 0.0000 10.6104 0.0000
# 6 0.0000 0.0000 0.0000 0.0000 0.0000 -5.7234
#
#
#
# Elastic Compliance Matrix: (Units=1/GPa)
#
#
# Indices 1 2 3 4 5 6 
#
# 1 0.013523 -0.001748 0.001419 0.000000 0.000000 0.000000
# 2 -0.001748 0.012096 -0.008814 0.000000 0.000000 0.000000
# 3 0.001419 -0.008814 0.011730 0.000000 0.000000 0.000000
# 4 0.000000 0.000000 0.000000 0.222333 0.000000 0.000000
# 5 0.000000 0.000000 0.000000 0.000000 0.094247 0.000000
# 6 0.000000 0.000000 0.000000 0.000000 0.000000 -0.174722
#
#
# Mechanical properties :
#
#
# Convention : Reuss Voigt Hill
#
# Bulk Modulus (GPa) = 52.45933 81.83670 67.14801
# Shear Modulus (GPa) = 24.52805 22.10248 23.31526
#
# Velocity S-wave (km/s) = 3.35625 3.18598 3.27222
# Velocity P-wave (km/s) = 6.25388 7.14963 6.71670
#
# Compressibility (1/GPa) = 0.01906238
#
# Stress axis : x y z
#
# Youngs Moduli (GPa) = 73.94654 82.67288 85.25100
#
# Poissons Ratio (x) = 0.14453 -0.12098
# Poissons Ratio (y) = 0.12927 0.75143
# Poissons Ratio (z) = -0.10494 0.72871
#
# Static dielectric constant tensor:
#      x y z
#    x 1.840770 0.000000 0.000000 
#    y 0.000000 1.775950 0.000000 
#    z 0.000000 0.000000 1.761470 
# 
# From -- ./inp_files/21034.got.cif
#   From: 2010.05.17/outbox.cif.g08.bks.cpg/sg53_11_cif.got.tgz:21034.got - 2010.06.03 12:45:16.
