data_PCOD9415995
_publ_section_title
;
Structure prediction by ZEFSAII (Michael W. Deem and Ramdas Pophale) SiO2 
 PCOD9415995
Probable space group: P M N A
;
_chemical_formula_sum "Si O2"
_cell_formula_units_Z 60
_cell_length_a 11.270026
_cell_length_b 21.055810
_cell_length_c 12.406675
_cell_angle_alpha 90.000000
_cell_angle_beta 90.000000
_cell_angle_gamma 90.000000
_cell_volume 2944.098099
_symmetry_space_group_name_H-M "P M N A"
_symmetry_group_IT_number 53
_symmetry_cell_setting 'orthorhombic'
loop_
_space_group_symop_operation_xyz
x,y,z
1/2-x,-y,1/2+z
x,-y,-z
1/2-x,y,1/2-z
-x,-y,-z
1/2+x,y,1/2-z
-x,y,z
1/2+x,-y,1/2+z
loop_
_atom_site_type_symbol
_atom_site_label
_atom_site_fract_x
_atom_site_fract_y
_atom_site_fract_z
Si Si1 0.365578 0.454248 0.675103
Si Si2 0.868201 0.893115 0.591378
Si Si3 0.200712 0.000000 0.000000
Si Si4 0.629364 0.205138 0.284885
Si Si5 0.370601 0.092277 0.682478
Si Si6 0.288558 0.803018 0.473315
Si Si7 0.133253 0.328977 0.965648
Si Si8 0.131596 0.402739 0.180234
O O1 0.250000 0.452576 0.750000
O O2 0.500000 0.447314 0.723575
O O3 0.350311 0.394273 0.597632
O O4 0.365711 0.526047 0.628813
O O5 0.778839 0.950204 0.569141
O O6 0.865691 0.857474 0.707395
O O7 0.832503 0.839069 0.504196
O O8 0.000000 0.916854 0.574227
O O9 0.130383 0.040959 0.913457
O O10 0.750000 0.240925 0.250000
O O11 0.500000 0.234390 0.263802
O O12 0.641280 0.191583 0.412021
O O13 0.250000 0.081537 0.750000
O O14 0.500000 0.089829 0.738132
O O15 0.352288 0.159246 0.621580
O O16 0.279160 0.729118 0.445765
O O17 0.000000 0.305037 0.941325
O O18 0.136602 0.349368 0.089666
O O19 0.250000 0.398252 0.250000
O O20 0.000000 0.398547 0.233969
#
# Coordination Sequence:
#
# PCOD9415995 Si02
#       8
#     8   8   4   8   8   8   8   8
#     4   9  18  34  55  79 108 143 187 238 287 336
#     4   9  19  35  57  86 117 147 180 226 282 337
#     4  10  22  40  64  88 111 144 187 232 277 334
#     4   9  17  31  52  77 104 136 173 214 263 317
#     4  11  25  43  62  86 116 149 187 232 282 333
#     4  10  21  37  56  79 111 152 191 231 274 330
#     4  10  19  33  55  79 106 147 196 235 274 332
#     4   9  18  33  54  81 113 147 184 231 285 337
#
# _framework density 20.379754999999999
#
# number of rings (size 3 to 8) (size 9 to 14) (size 15 to 20)
#    0.000    2.400    0.000    2.000    0.000    9.067 
#    0.000    8.000    0.000    3.200    0.000    0.000 
#    0.000    0.000    0.000    0.000    0.000    0.000 
#
# Total GULP energy -334184.852848 kJ/mol
# GULP energy per Si atom -5569.747547 kJ/mol
# Density = 2.033337 g / cm^3
# Si number density = 20.379755 Si / 1000 Ang^3
#
#
#
# Elastic Constant Matrix: (Units=GPa)
#
#
# Indices 1 2 3 4 5 6 
#
# 1 148.0203 21.0635 29.7464 0.0000 0.0000 0.0000
# 2 21.0635 102.6580 14.4289 0.0000 0.0000 0.0000
# 3 29.7464 14.4289 33.8039 0.0000 0.0000 0.0000
# 4 0.0000 0.0000 0.0000 23.2673 0.0000 0.0000
# 5 0.0000 0.0000 0.0000 0.0000 11.0064 0.0000
# 6 0.0000 0.0000 0.0000 0.0000 0.0000 -4.0283
#
#
#
# Elastic Compliance Matrix: (Units=1/GPa)
#
#
# Indices 1 2 3 4 5 6 
#
# 1 0.008256 -0.000716 -0.006960 0.000000 0.000000 0.000000
# 2 -0.000716 0.010425 -0.003820 0.000000 0.000000 0.000000
# 3 -0.006960 -0.003820 0.037337 0.000000 0.000000 0.000000
# 4 0.000000 0.000000 0.000000 0.042979 0.000000 0.000000
# 5 0.000000 0.000000 0.000000 0.000000 0.090856 0.000000
# 6 0.000000 0.000000 0.000000 0.000000 0.000000 -0.248243
#
#
# Mechanical properties :
#
#
# Convention : Reuss Voigt Hill
#
# Bulk Modulus (GPa) = 30.27778 46.10665 38.19222
# Shear Modulus (GPa) = -205.00538 20.66530 -92.17004
#
# Velocity S-wave (km/s) = -10.04047 3.18781 -6.73234
# Velocity P-wave (km/s) = 10.93278 6.01850 6.45381
#
# Compressibility (1/GPa) = 0.03302752
#
# Stress axis : x y z
#
# Youngs Moduli (GPa) = 121.11894 95.92462 26.78288
#
# Poissons Ratio (x) = 0.06867 0.18640
# Poissons Ratio (y) = 0.08670 0.10231
# Poissons Ratio (z) = 0.84296 0.36642
#
# Static dielectric constant tensor:
#      x y z
#    x 1.778760 0.000000 0.000000 
#    y 0.000000 1.735930 0.000000 
#    z 0.000000 0.000000 1.728570 
# 
# From -- ./inp_files/15009.got.cif
#   From: 2010.05.17/outbox.cif.g08.bks.cpg/sg53_8_cif.got.tgz:15009.got - 2010.06.03 12:45:16.
