data_PCOD9415288
_publ_section_title
;
Structure prediction by ZEFSAII (Michael W. Deem and Ramdas Pophale) SiO2 
 PCOD9415288
Probable space group: P M N A
;
_chemical_formula_sum "Si O2"
_cell_formula_units_Z 64
_cell_length_a 8.686317
_cell_length_b 15.219948
_cell_length_c 30.675570
_cell_angle_alpha 90.000000
_cell_angle_beta 90.000000
_cell_angle_gamma 90.000000
_cell_volume 4055.472721
_symmetry_space_group_name_H-M "P M N A"
_symmetry_group_IT_number 53
_symmetry_cell_setting 'orthorhombic'
loop_
_space_group_symop_operation_xyz
x,y,z
1/2-x,-y,1/2+z
x,-y,-z
1/2-x,y,1/2-z
-x,-y,-z
1/2+x,y,1/2-z
-x,y,z
1/2+x,-y,1/2+z
loop_
_atom_site_type_symbol
_atom_site_label
_atom_site_fract_x
_atom_site_fract_y
_atom_site_fract_z
Si Si1 0.685391 0.326442 0.039765
Si Si2 0.815524 0.539374 0.892090
Si Si3 0.184613 0.370043 0.557893
Si Si4 0.184894 0.290700 0.795636
Si Si5 0.316691 0.043427 0.562086
Si Si6 0.814004 0.210599 0.886588
Si Si7 0.185349 0.504154 0.203790
Si Si8 0.183623 0.123944 0.473492
O O1 0.500000 0.333237 0.042789
O O2 0.758681 0.379134 0.079391
O O3 0.725672 0.223232 0.038774
O O4 0.731318 0.368016 0.993003
O O5 0.753443 0.451411 0.915499
O O6 0.765063 0.541210 0.841353
O O7 0.000000 0.535203 0.892336
O O8 0.239709 0.279891 0.580186
O O9 0.000000 0.374938 0.559415
O O10 0.250000 0.257522 0.750000
O O11 0.234547 0.237392 0.838075
O O12 0.231982 0.392996 0.800482
O O13 0.000000 0.289116 0.793946
O O14 0.500000 0.029375 0.561702
O O15 0.275485 0.111317 0.600195
O O16 0.267800 0.093759 0.517729
O O17 0.231977 0.950075 0.561274
O O18 0.000000 0.220059 0.889771
O O19 0.250000 0.471204 0.250000
O O20 0.000000 0.501055 0.206018
O O21 0.000000 0.120631 0.480836
#
# Coordination Sequence:
#
# PCOD9415288 Si02
#       8
#     8   8   8   8   8   8   8   8
#     4  10  22  36  48  68  97 132 169 205 241 282
#     4  11  22  35  50  71  97 129 165 202 243 288
#     4  11  21  33  48  68  98 133 170 201 231 282
#     4   9  17  31  47  67  96 125 157 196 238 287
#     4  10  19  30  49  73  95 123 161 198 239 285
#     4  10  19  32  49  70 100 130 160 200 241 284
#     4   9  18  32  49  69  94 122 157 197 240 287
#     4  10  19  33  49  67  97 128 158 200 241 277
#
# _framework density 15.781143999999999
#
# number of rings (size 3 to 8) (size 9 to 14) (size 15 to 20)
#    0.000    2.000    2.500    2.625    0.000    5.500 
#    0.000    0.000    0.000    0.000    0.000    0.875 
#    0.000    2.000    0.000    0.000    0.000    0.000 
#
# Total GULP energy -357015.775661 kJ/mol
# GULP energy per Si atom -5578.371495 kJ/mol
# Density = 1.574523 g / cm^3
# Si number density = 15.781144 Si / 1000 Ang^3
#
#
#
# Elastic Constant Matrix: (Units=GPa)
#
#
# Indices 1 2 3 4 5 6 
#
# 1 18.5465 17.2047 25.1308 0.0000 0.0000 0.0000
# 2 17.2047 67.2760 47.9844 0.0000 0.0000 0.0000
# 3 25.1308 47.9844 138.6999 0.0000 0.0000 0.0000
# 4 0.0000 0.0000 0.0000 22.0300 0.0000 0.0000
# 5 0.0000 0.0000 0.0000 0.0000 23.6107 0.0000
# 6 0.0000 0.0000 0.0000 0.0000 0.0000 24.9962
#
#
#
# Elastic Compliance Matrix: (Units=1/GPa)
#
#
# Indices 1 2 3 4 5 6 
#
# 1 0.079594 -0.013367 -0.009797 0.000000 0.000000 0.000000
# 2 -0.013367 0.021978 -0.005182 0.000000 0.000000 0.000000
# 3 -0.009797 -0.005182 0.010778 0.000000 0.000000 0.000000
# 4 0.000000 0.000000 0.000000 0.045393 0.000000 0.000000
# 5 0.000000 0.000000 0.000000 0.000000 0.042354 0.000000
# 6 0.000000 0.000000 0.000000 0.000000 0.000000 0.040006
#
#
# Mechanical properties :
#
#
# Convention : Reuss Voigt Hill
#
# Bulk Modulus (GPa) = 17.96679 45.01800 31.49240
# Shear Modulus (GPa) = 15.85560 23.07421 19.46491
#
# Velocity S-wave (km/s) = 3.17317 3.82794 3.51583
# Velocity P-wave (km/s) = 4.98347 6.93728 6.03990
#
# Compressibility (1/GPa) = 0.05565823
#
# Stress axis : x y z
#
# Youngs Moduli (GPa) = 12.56381 45.49935 92.78548
#
# Poissons Ratio (x) = 0.60819 0.90902
# Poissons Ratio (y) = 0.16794 0.48078
# Poissons Ratio (z) = 0.12309 0.23576
#
# Static dielectric constant tensor:
#      x y z
#    x 1.533670 0.000000 0.000000 
#    y 0.000000 1.520070 0.000000 
#    z 0.000000 0.000000 1.530740 
# 
# From -- ./inp_files/38488.got.cif
#   From: 2010.05.17/outbox.cif.g08.bks.cpg/sg53_20_cif.got.tgz:38488.got - 2010.06.03 12:45:16.
