data_PCOD9415723
_publ_section_title
;
Structure prediction by ZEFSAII (Michael W. Deem and Ramdas Pophale) SiO2 
 PCOD9415723
Probable space group: P M N A
;
_chemical_formula_sum "Si O2"
_cell_formula_units_Z 64
_cell_length_a 8.352374
_cell_length_b 15.262798
_cell_length_c 24.622580
_cell_angle_alpha 90.000000
_cell_angle_beta 90.000000
_cell_angle_gamma 90.000000
_cell_volume 3138.901203
_symmetry_space_group_name_H-M "P M N A"
_symmetry_group_IT_number 53
_symmetry_cell_setting 'orthorhombic'
loop_
_space_group_symop_operation_xyz
x,y,z
1/2-x,-y,1/2+z
x,-y,-z
1/2-x,y,1/2-z
-x,-y,-z
1/2+x,y,1/2-z
-x,y,z
1/2+x,-y,1/2+z
loop_
_atom_site_type_symbol
_atom_site_label
_atom_site_fract_x
_atom_site_fract_y
_atom_site_fract_z
Si Si1 0.193297 0.809304 0.376284
Si Si2 0.693297 0.865176 0.894433
Si Si3 0.304829 0.549791 0.847033
Si Si4 0.310520 0.216214 0.503656
Si Si5 0.693565 0.018738 0.811978
Si Si6 0.307885 0.728829 0.805522
Si Si7 0.806504 0.589928 0.529295
Si Si8 0.306264 0.359025 0.810723
O O1 0.248568 0.816729 0.438155
O O2 0.245429 0.887517 0.336389
O O3 0.247888 0.716753 0.351480
O O4 0.000000 0.810054 0.376509
O O5 0.500000 0.868107 0.897507
O O6 0.754735 0.847427 0.954811
O O7 0.742559 0.781450 0.858459
O O8 0.745299 0.947200 0.857243
O O9 0.500000 0.547687 0.845118
O O10 0.247687 0.629571 0.809966
O O11 0.261491 0.576042 0.908077
O O12 0.247550 0.454701 0.829140
O O13 0.500000 0.217779 0.504321
O O14 0.251800 0.316455 0.492973
O O15 0.750000 0.004808 0.750000
O O16 0.500000 0.015819 0.810505
O O17 0.250000 0.771354 0.750000
O O18 0.500000 0.728602 0.805085
O O19 0.753385 0.500000 0.500000
O O20 0.000000 0.592887 0.525528
O O21 0.250000 0.340268 0.750000
O O22 0.500000 0.360180 0.811524
#
# Coordination Sequence:
#
# PCOD9415723 Si02
#       8
#     8   8   8   8   8   8   8   8
#     4  10  22  41  62  85 117 160 204 245 299 370
#     4  10  21  40  62  84 117 159 198 240 294 364
#     4   9  17  31  51  79 110 148 193 231 280 345
#     4  12  25  39  59  90 124 157 199 255 310 353
#     4  10  22  40  66  95 121 155 200 251 307 365
#     4  10  19  32  52  77 110 146 185 232 282 342
#     4  10  19  36  62  84 113 162 209 246 290 357
#     4  10  20  35  57  84 116 153 196 242 291 351
#
# _framework density 20.389299999999999
#
# number of rings (size 3 to 8) (size 9 to 14) (size 15 to 20)
#    0.000    1.875    1.250    3.000    0.000    4.750 
#    0.000    3.125    0.000    0.000    0.000    0.000 
#    0.000    0.000    0.000    0.000    0.000    0.000 
#
# Total GULP energy -357309.520079 kJ/mol
# GULP energy per Si atom -5582.961251 kJ/mol
# Density = 2.034289 g / cm^3
# Si number density = 20.389300 Si / 1000 Ang^3
#
#
#
# Elastic Constant Matrix: (Units=GPa)
#
#
# Indices 1 2 3 4 5 6 
#
# 1 10.3924 19.0029 10.1720 0.0000 0.0000 0.0000
# 2 19.0029 90.8153 43.6828 0.0000 0.0000 0.0000
# 3 10.1720 43.6828 130.7457 0.0000 0.0000 0.0000
# 4 0.0000 0.0000 0.0000 35.4589 0.0000 0.0000
# 5 0.0000 0.0000 0.0000 0.0000 31.1609 0.0000
# 6 0.0000 0.0000 0.0000 0.0000 0.0000 8.0763
#
#
#
# Elastic Compliance Matrix: (Units=1/GPa)
#
#
# Indices 1 2 3 4 5 6 
#
# 1 0.156094 -0.031957 -0.001467 0.000000 0.000000 0.000000
# 2 -0.031957 0.019662 -0.004083 0.000000 0.000000 0.000000
# 3 -0.001467 -0.004083 0.009127 0.000000 0.000000 0.000000
# 4 0.000000 0.000000 0.000000 0.028202 0.000000 0.000000
# 5 0.000000 0.000000 0.000000 0.000000 0.032091 0.000000
# 6 0.000000 0.000000 0.000000 0.000000 0.000000 0.123819
#
#
# Mechanical properties :
#
#
# Convention : Reuss Voigt Hill
#
# Bulk Modulus (GPa) = 9.10173 41.96321 25.53247
# Shear Modulus (GPa) = 10.40296 25.54560 17.97428
#
# Velocity S-wave (km/s) = 2.26125 3.54346 2.97232
# Velocity P-wave (km/s) = 3.36026 6.11287 4.93247
#
# Compressibility (1/GPa) = 0.10986922
#
# Stress axis : x y z
#
# Youngs Moduli (GPa) = 6.40639 50.85898 109.56818
#
# Poissons Ratio (x) = 1.62529 0.16076
# Poissons Ratio (y) = 0.20473 0.44737
# Poissons Ratio (z) = 0.00940 0.20766
#
# Static dielectric constant tensor:
#      x y z
#    x 1.705240 0.000000 0.000000 
#    y 0.000000 1.751870 0.000000 
#    z 0.000000 0.000000 1.730990 
# 
# From -- ./inp_files/34282.got.cif
#   From: 2010.05.17/outbox.cif.g08.bks.cpg/sg53_18_cif.got.tgz:34282.got - 2010.06.03 12:45:16.
