data_PCOD9415783
_publ_section_title
;
Structure prediction by ZEFSAII (Michael W. Deem and Ramdas Pophale) SiO2 
 PCOD9415783
Probable space group: P M N A
;
_chemical_formula_sum "Si O2"
_cell_formula_units_Z 48
_cell_length_a 23.884837
_cell_length_b 10.121415
_cell_length_c 12.367056
_cell_angle_alpha 90.000000
_cell_angle_beta 90.000000
_cell_angle_gamma 90.000000
_cell_volume 2989.715351
_symmetry_space_group_name_H-M "P M N A"
_symmetry_group_IT_number 53
_symmetry_cell_setting 'orthorhombic'
loop_
_space_group_symop_operation_xyz
x,y,z
1/2-x,-y,1/2+z
x,-y,-z
1/2-x,y,1/2-z
-x,-y,-z
1/2+x,y,1/2-z
-x,y,z
1/2+x,-y,1/2+z
loop_
_atom_site_type_symbol
_atom_site_label
_atom_site_fract_x
_atom_site_fract_y
_atom_site_fract_z
Si Si1 0.225608 0.111252 0.079212
Si Si2 0.937169 0.116198 0.411642
Si Si3 0.433490 0.636868 0.062897
Si Si4 0.727415 0.633659 0.430950
Si Si5 0.833782 0.295273 0.715696
Si Si6 0.668525 0.975381 0.794430
O O1 0.288733 0.069132 0.111534
O O2 0.190890 0.098421 0.188702
O O3 0.223702 0.248044 0.017056
O O4 0.202626 0.000000 0.000000
O O5 0.920940 0.247132 0.477057
O O6 0.892804 0.073381 0.323420
O O7 0.000000 0.133077 0.368709
O O8 0.937729 0.000000 0.500000
O O9 0.500000 0.644944 0.090337
O O10 0.392972 0.660081 0.165041
O O11 0.423507 0.500000 0.000000
O O12 0.724167 0.500000 0.500000
O O13 0.681305 0.651248 0.335403
O O14 0.785986 0.650916 0.366167
O O15 0.829045 0.134633 0.717720
#
# Coordination Sequence:
#
# PCOD9415783 Si02
#       6
#     8   8   8   8   8   8
#     4  11  19  34  52  75 102 138 176 209 249 303
#     4  10  19  32  53  80 105 131 169 217 259 299
#     4  10  21  35  54  80 108 136 169 212 262 312
#     4  11  23  35  52  78 109 136 172 215 257 308
#     4  11  20  35  55  76 105 141 169 213 265 305
#     4  11  20  31  57  79 102 139 178 209 253 312
#
# _framework density 16.055040999999999
#
# number of rings (size 3 to 8) (size 9 to 14) (size 15 to 20)
#    0.000    1.333    5.000    3.000    0.000    4.000 
#    0.000    0.000    0.000    2.000    0.000    0.000 
#    0.000    0.000    0.000    0.000    0.000    0.000 
#
# Total GULP energy -267767.258911 kJ/mol
# GULP energy per Si atom -5578.484561 kJ/mol
# Density = 1.601850 g / cm^3
# Si number density = 16.055041 Si / 1000 Ang^3
#
#
#
# Elastic Constant Matrix: (Units=GPa)
#
#
# Indices 1 2 3 4 5 6 
#
# 1 72.8007 23.2964 50.7265 0.0000 0.0000 0.0000
# 2 23.2964 143.6357 64.2923 0.0000 0.0000 0.0000
# 3 50.7265 64.2923 117.2571 0.0000 0.0000 0.0000
# 4 0.0000 0.0000 0.0000 26.8791 0.0000 0.0000
# 5 0.0000 0.0000 0.0000 0.0000 21.7501 0.0000
# 6 0.0000 0.0000 0.0000 0.0000 0.0000 28.4952
#
#
#
# Elastic Compliance Matrix: (Units=1/GPa)
#
#
# Indices 1 2 3 4 5 6 
#
# 1 0.019736 0.000823 -0.008989 0.000000 0.000000 0.000000
# 2 0.000823 0.009261 -0.005434 0.000000 0.000000 0.000000
# 3 -0.008989 -0.005434 0.015396 0.000000 0.000000 0.000000
# 4 0.000000 0.000000 0.000000 0.037204 0.000000 0.000000
# 5 0.000000 0.000000 0.000000 0.000000 0.045977 0.000000
# 6 0.000000 0.000000 0.000000 0.000000 0.000000 0.035094
#
#
# Mechanical properties :
#
#
# Convention : Reuss Voigt Hill
#
# Bulk Modulus (GPa) = 58.16265 67.81376 62.98821
# Shear Modulus (GPa) = 25.56252 28.45009 27.00631
#
# Velocity S-wave (km/s) = 3.99454 4.21412 4.10580
# Velocity P-wave (km/s) = 7.58820 8.12456 7.86096
#
# Compressibility (1/GPa) = 0.01719316
#
# Stress axis : x y z
#
# Youngs Moduli (GPa) = 50.66771 107.98292 64.95082
#
# Poissons Ratio (x) = -0.08882 0.58385
# Poissons Ratio (y) = -0.04168 0.35291
# Poissons Ratio (z) = 0.45546 0.58673
#
# Static dielectric constant tensor:
#      x y z
#    x 1.570320 0.000000 0.000000 
#    y 0.000000 1.547960 0.000000 
#    z 0.000000 0.000000 -7.527780 
# 
# From -- ./inp_files/18264.got.cif
#   From: 2010.05.17/outbox.cif.g08.bks.cpg/sg53_10_cif.got.tgz:18264.got - 2010.06.03 12:45:16.
