data_PCOD9415962
_publ_section_title
;
Structure prediction by ZEFSAII (Michael W. Deem and Ramdas Pophale) SiO2 
 PCOD9415962
Probable space group: P M N A
;
_chemical_formula_sum "Si O2"
_cell_formula_units_Z 40
_cell_length_a 16.505944
_cell_length_b 24.458994
_cell_length_c 5.093423
_cell_angle_alpha 90.000000
_cell_angle_beta 90.000000
_cell_angle_gamma 90.000000
_cell_volume 2056.310546
_symmetry_space_group_name_H-M "P M N A"
_symmetry_group_IT_number 53
_symmetry_cell_setting 'orthorhombic'
loop_
_space_group_symop_operation_xyz
x,y,z
1/2-x,-y,1/2+z
x,-y,-z
1/2-x,y,1/2-z
-x,-y,-z
1/2+x,y,1/2-z
-x,y,z
1/2+x,-y,1/2+z
loop_
_atom_site_type_symbol
_atom_site_label
_atom_site_fract_x
_atom_site_fract_y
_atom_site_fract_z
Si Si1 0.308761 0.677768 0.998294
Si Si2 0.158345 0.844321 0.165670
Si Si3 0.092755 0.784642 0.651527
Si Si4 0.406258 0.962917 0.243081
Si Si5 0.690734 0.441439 0.998961
O O1 0.250000 0.675192 0.750000
O O2 0.368485 0.727141 0.934981
O O3 0.250000 0.686812 0.250000
O O4 0.351051 0.617898 0.016721
O O5 0.250000 0.831519 0.250000
O O6 0.100413 0.820473 0.390030
O O7 0.143652 0.909153 0.181304
O O8 0.138957 0.815872 0.887788
O O9 0.000000 0.777920 0.733303
O O10 0.500000 0.947160 0.178866
O O11 0.407991 0.000000 0.500000
O O12 0.375802 0.000000 0.000000
O O13 0.750000 0.442007 0.750000
O O14 0.645154 0.500000 0.000000
O O15 0.750000 0.441358 0.250000
#
# Coordination Sequence:
#
# PCOD9415962 Si02
#       5
#     8   8   8   8   8
#     4  10  19  33  54  79 109 144 187 236 281 329
#     4  12  25  41  62  87 115 147 188 235 279 326
#     4  12  24  39  58  82 115 152 190 230 282 342
#     4  10  21  38  60  85 114 146 179 219 273 334
#     4   8  14  25  44  72 103 136 177 227 278 326
#
# _framework density 19.452316
#
# number of rings (size 3 to 8) (size 9 to 14) (size 15 to 20)
#    0.000    1.600    0.000    6.600    0.000    2.400 
#    0.000    0.000    0.000    0.600    0.000    0.000 
#    0.000   19.200    0.000    0.000    0.000    4.000 
#
# Total GULP energy -223075.986081 kJ/mol
# GULP energy per Si atom -5576.899652 kJ/mol
# Density = 1.940804 g / cm^3
# Si number density = 19.452316 Si / 1000 Ang^3
#
#
#
# Elastic Constant Matrix: (Units=GPa)
#
#
# Indices 1 2 3 4 5 6 
#
# 1 53.1105 32.8323 4.5573 0.0000 0.0000 0.0000
# 2 32.8323 174.5929 34.4250 0.0000 0.0000 0.0000
# 3 4.5573 34.4250 130.7926 0.0000 0.0000 0.0000
# 4 0.0000 0.0000 0.0000 30.1408 0.0000 0.0000
# 5 0.0000 0.0000 0.0000 0.0000 109.1131 0.0000
# 6 0.0000 0.0000 0.0000 0.0000 0.0000 -32.6385
#
#
#
# Elastic Compliance Matrix: (Units=1/GPa)
#
#
# Indices 1 2 3 4 5 6 
#
# 1 0.021319 -0.004074 0.000329 0.000000 0.000000 0.000000
# 2 -0.004074 0.006820 -0.001653 0.000000 0.000000 0.000000
# 3 0.000329 -0.001653 0.008069 0.000000 0.000000 0.000000
# 4 0.000000 0.000000 0.000000 0.033178 0.000000 0.000000
# 5 0.000000 0.000000 0.000000 0.000000 0.009165 0.000000
# 6 0.000000 0.000000 0.000000 0.000000 0.000000 -0.030639
#
#
# Mechanical properties :
#
#
# Convention : Reuss Voigt Hill
#
# Bulk Modulus (GPa) = 39.35028 55.79168 47.57098
# Shear Modulus (GPa) = 74.42953 40.43516 57.43234
#
# Velocity S-wave (km/s) = 6.19238 4.56420 5.43956
# Velocity P-wave (km/s) = 8.44988 7.51794 7.99750
#
# Compressibility (1/GPa) = 0.02541278
#
# Stress axis : x y z
#
# Youngs Moduli (GPa) = 46.90671 146.63499 123.92666
#
# Poissons Ratio (x) = 0.59739 -0.04083
# Poissons Ratio (y) = 0.19110 0.20485
# Poissons Ratio (z) = -0.01545 0.24239
#
# Static dielectric constant tensor:
#      x y z
#    x 1.669730 0.000000 0.000000 
#    y 0.000000 1.792650 0.000000 
#    z 0.000000 0.000000 1.642230 
# 
# From -- ./inp_files/1392.got.cif
#   From: 2010.05.17/outbox.cif.g08.bks.cpg/sg53_1_cif.got.tgz:1392.got - 2010.06.03 12:45:16.
