data_PCOD9415530
_publ_section_title
;
Structure prediction by ZEFSAII (Michael W. Deem and Ramdas Pophale) SiO2 
 PCOD9415530
Probable space group: P M N A
;
_chemical_formula_sum "Si O2"
_cell_formula_units_Z 48
_cell_length_a 9.116227
_cell_length_b 17.525963
_cell_length_c 15.751364
_cell_angle_alpha 90.000000
_cell_angle_beta 90.000000
_cell_angle_gamma 90.000000
_cell_volume 2516.605777
_symmetry_space_group_name_H-M "P M N A"
_symmetry_group_IT_number 53
_symmetry_cell_setting 'orthorhombic'
loop_
_space_group_symop_operation_xyz
x,y,z
1/2-x,-y,1/2+z
x,-y,-z
1/2-x,y,1/2-z
-x,-y,-z
1/2+x,y,1/2-z
-x,y,z
1/2+x,-y,1/2+z
loop_
_atom_site_type_symbol
_atom_site_label
_atom_site_fract_x
_atom_site_fract_y
_atom_site_fract_z
Si Si1 0.674500 0.841499 0.909583
Si Si2 0.174951 0.676436 0.662258
Si Si3 0.322678 0.840358 0.405872
Si Si4 0.669675 0.006547 0.396409
Si Si5 0.324533 0.322291 0.664575
Si Si6 0.175105 0.409897 0.007221
O O1 0.500000 0.847124 0.919991
O O2 0.708424 0.765661 0.856551
O O3 0.736147 0.920347 0.871538
O O4 0.749533 0.832234 0.001819
O O5 0.250000 0.653415 0.750000
O O6 0.239038 0.627855 0.584646
O O7 0.000000 0.667947 0.667040
O O8 0.500000 0.842064 0.417160
O O9 0.280250 0.922598 0.367382
O O10 0.284290 0.766182 0.351885
O O11 0.500000 0.018864 0.372896
O O12 0.675070 0.000000 0.500000
O O13 0.250000 0.350682 0.750000
O O14 0.500000 0.326846 0.673102
O O15 0.282444 0.369138 0.580805
O O16 0.000000 0.397452 0.019566
O O17 0.200894 0.500000 0.000000
#
# Coordination Sequence:
#
# PCOD9415530 Si02
#       6
#     8   8   8   8   8   8
#     4  10  19  31  51  81 113 147 192 242 290 335
#     4  11  24  40  61  89 120 157 198 242 292 349
#     4   9  17  32  53  77 108 152 196 235 285 343
#     4   8  15  27  47  75 107 147 193 234 283 342
#     4  10  21  37  59  86 118 153 190 235 284 343
#     4  10  22  42  67  92 118 151 191 237 294 355
#
# _framework density 19.073308999999998
#
# number of rings (size 3 to 8) (size 9 to 14) (size 15 to 20)
#    0.000    2.333    1.667    2.000    0.000    7.333 
#    0.000    2.500    0.000    4.000    0.000    0.000 
#    0.000    0.000    0.000    0.000    0.000    0.000 
#
# Total GULP energy -267938.040819 kJ/mol
# GULP energy per Si atom -5582.042517 kJ/mol
# Density = 1.902990 g / cm^3
# Si number density = 19.073309 Si / 1000 Ang^3
#
#
#
# Elastic Constant Matrix: (Units=GPa)
#
#
# Indices 1 2 3 4 5 6 
#
# 1 38.7483 51.1240 48.5424 0.0000 0.0000 0.0000
# 2 51.1240 118.1199 64.9337 0.0000 0.0000 0.0000
# 3 48.5424 64.9337 126.3027 0.0000 0.0000 0.0000
# 4 0.0000 0.0000 0.0000 -5.3795 0.0000 0.0000
# 5 0.0000 0.0000 0.0000 0.0000 21.3846 0.0000
# 6 0.0000 0.0000 0.0000 0.0000 0.0000 26.7530
#
#
#
# Elastic Compliance Matrix: (Units=1/GPa)
#
#
# Indices 1 2 3 4 5 6 
#
# 1 0.083258 -0.025711 -0.018781 0.000000 0.000000 0.000000
# 2 -0.025711 0.019741 -0.000268 0.000000 0.000000 0.000000
# 3 -0.018781 -0.000268 0.015273 0.000000 0.000000 0.000000
# 4 0.000000 0.000000 0.000000 -0.185892 0.000000 0.000000
# 5 0.000000 0.000000 0.000000 0.000000 0.046763 0.000000
# 6 0.000000 0.000000 0.000000 0.000000 0.000000 0.037379
#
#
# Mechanical properties :
#
#
# Convention : Reuss Voigt Hill
#
# Bulk Modulus (GPa) = 34.77781 68.04120 51.40950
# Shear Modulus (GPa) = 43.24314 16.45634 29.84974
#
# Velocity S-wave (km/s) = 4.76669 2.94052 3.96030
# Velocity P-wave (km/s) = 6.96910 6.87603 6.92273
#
# Compressibility (1/GPa) = 0.02875397
#
# Stress axis : x y z
#
# Youngs Moduli (GPa) = 12.01085 50.65554 65.47499
#
# Poissons Ratio (x) = 1.30241 1.22965
# Poissons Ratio (y) = 0.30881 0.01752
# Poissons Ratio (z) = 0.22557 0.01355
#
# Static dielectric constant tensor:
#      x y z
#    x 1.634460 0.000000 0.000000 
#    y 0.000000 1.684360 0.000000 
#    z 0.000000 0.000000 1.648410 
# 
# From -- ./inp_files/20162.got.cif
#   From: 2010.05.17/outbox.cif.g08.bks.cpg/sg53_11_cif.got.tgz:20162.got - 2010.06.03 12:45:16.
