data_PCOD9415564
_publ_section_title
;
Structure prediction by ZEFSAII (Michael W. Deem and Ramdas Pophale) SiO2 
 PCOD9415564
Probable space group: P M N A
;
_chemical_formula_sum "Si O2"
_cell_formula_units_Z 48
_cell_length_a 31.796043
_cell_length_b 5.329848
_cell_length_c 16.503623
_cell_angle_alpha 90.000000
_cell_angle_beta 90.000000
_cell_angle_gamma 90.000000
_cell_volume 2796.837240
_symmetry_space_group_name_H-M "P M N A"
_symmetry_group_IT_number 53
_symmetry_cell_setting 'orthorhombic'
loop_
_space_group_symop_operation_xyz
x,y,z
1/2-x,-y,1/2+z
x,-y,-z
1/2-x,y,1/2-z
-x,-y,-z
1/2+x,y,1/2-z
-x,y,z
1/2+x,-y,1/2+z
loop_
_atom_site_type_symbol
_atom_site_label
_atom_site_fract_x
_atom_site_fract_y
_atom_site_fract_z
Si Si1 0.176467 0.692552 0.699760
Si Si2 0.452393 0.010391 0.902003
Si Si3 0.817180 0.753902 0.026244
Si Si4 0.275353 0.249515 0.042642
Si Si5 0.297352 0.816424 0.285234
Si Si6 0.095809 0.513612 0.598087
O O1 0.213867 0.741888 0.635892
O O2 0.186281 0.446091 0.750498
O O3 0.136953 0.616507 0.643697
O O4 0.175765 0.944308 0.753737
O O5 0.500000 0.064815 0.875116
O O6 0.420882 0.236468 0.877837
O O7 0.438048 0.729606 0.880493
O O8 0.452452 0.000000 0.000000
O O9 0.801298 0.783308 0.118099
O O10 0.839610 0.500000 0.000000
O O11 0.774524 0.750937 0.971859
O O12 0.841867 0.000000 0.000000
O O13 0.291978 0.500000 0.000000
O O14 0.292926 0.000000 0.000000
O O15 0.250000 0.846254 0.250000
O O16 0.101894 0.500000 0.500000
#
# Coordination Sequence:
#
# PCOD9415564 Si02
#       6
#     8   8   8   8   8   8
#     4  12  23  35  49  71  99 125 163 213 263 296
#     4   9  17  31  50  72  97 127 167 205 231 276
#     4  10  19  34  50  65  83 113 159 204 245 292
#     4  10  19  32  47  62  84 117 154 201 248 285
#     4  12  23  35  50  69  92 124 165 213 262 300
#     4  10  20  32  49  72  99 133 167 202 248 292
#
# _framework density 17.162243
#
# number of rings (size 3 to 8) (size 9 to 14) (size 15 to 20)
#    0.000    1.500    0.000    8.500    0.000    4.000 
#    0.000    0.000    0.000    0.000    0.000    0.000 
#    0.000    0.000    0.000    0.000    0.000  210.000 
#
# Total GULP energy -267672.676478 kJ/mol
# GULP energy per Si atom -5576.514093 kJ/mol
# Density = 1.712318 g / cm^3
# Si number density = 17.162243 Si / 1000 Ang^3
#
#
#
# Elastic Constant Matrix: (Units=GPa)
#
#
# Indices 1 2 3 4 5 6 
#
# 1 28.3594 8.8033 5.1174 0.0000 0.0000 0.0000
# 2 8.8033 165.7942 35.6569 0.0000 0.0000 0.0000
# 3 5.1174 35.6569 60.4234 0.0000 0.0000 0.0000
# 4 0.0000 0.0000 0.0000 29.5228 0.0000 0.0000
# 5 0.0000 0.0000 0.0000 0.0000 14.4513 0.0000
# 6 0.0000 0.0000 0.0000 0.0000 0.0000 18.1521
#
#
#
# Elastic Compliance Matrix: (Units=1/GPa)
#
#
# Indices 1 2 3 4 5 6 
#
# 1 0.036108 -0.001443 -0.002207 0.000000 0.000000 0.000000
# 2 -0.001443 0.006966 -0.003989 0.000000 0.000000 0.000000
# 3 -0.002207 -0.003989 0.019090 0.000000 0.000000 0.000000
# 4 0.000000 0.000000 0.000000 0.033872 0.000000 0.000000
# 5 0.000000 0.000000 0.000000 0.000000 0.069198 0.000000
# 6 0.000000 0.000000 0.000000 0.000000 0.000000 0.055090
#
#
# Mechanical properties :
#
#
# Convention : Reuss Voigt Hill
#
# Bulk Modulus (GPa) = 21.32727 39.30357 30.31542
# Shear Modulus (GPa) = 19.90214 26.09189 22.99701
#
# Velocity S-wave (km/s) = 3.40905 3.90334 3.66454
# Velocity P-wave (km/s) = 5.28671 6.57766 5.96720
#
# Compressibility (1/GPa) = 0.04688832
#
# Stress axis : x y z
#
# Youngs Moduli (GPa) = 27.69497 143.55474 52.38210
#
# Poissons Ratio (x) = 0.20710 0.11559
# Poissons Ratio (y) = 0.03995 0.20893
# Poissons Ratio (z) = 0.06111 0.57258
#
# Static dielectric constant tensor:
#      x y z
#    x 1.585480 0.000000 0.000000 
#    y 0.000000 1.600960 0.000000 
#    z 0.000000 0.000000 1.585050 
# 
# From -- ./inp_files/25084.got.cif
#   From: 2010.05.17/outbox.cif.g08.bks.cpg/sg53_13_cif.got.tgz:25084.got - 2010.06.03 12:45:16.
