data_PCOD9415145
_publ_section_title
;
Structure prediction by ZEFSAII (Michael W. Deem and Ramdas Pophale) SiO2 
 PCOD9415145
Probable space group: P M N A
;
_chemical_formula_sum "Si O2"
_cell_formula_units_Z 48
_cell_length_a 9.233971
_cell_length_b 10.360203
_cell_length_c 30.265979
_cell_angle_alpha 90.000000
_cell_angle_beta 90.000000
_cell_angle_gamma 90.000000
_cell_volume 2895.419519
_symmetry_space_group_name_H-M "P M N A"
_symmetry_group_IT_number 53
_symmetry_cell_setting 'orthorhombic'
loop_
_space_group_symop_operation_xyz
x,y,z
1/2-x,-y,1/2+z
x,-y,-z
1/2-x,y,1/2-z
-x,-y,-z
1/2+x,y,1/2-z
-x,y,z
1/2+x,-y,1/2+z
loop_
_atom_site_type_symbol
_atom_site_label
_atom_site_fract_x
_atom_site_fract_y
_atom_site_fract_z
Si Si1 0.333485 0.022135 0.706165
Si Si2 0.171513 0.978381 0.383454
Si Si3 0.332582 0.292141 0.294381
Si Si4 0.173050 0.629931 0.972968
Si Si5 0.329712 0.122503 0.532074
Si Si6 0.327556 0.713004 0.885035
O O1 0.250000 0.065547 0.750000
O O2 0.500000 0.064172 0.706042
O O3 0.250961 0.060202 0.661692
O O4 0.333107 0.864986 0.706822
O O5 0.235831 0.901544 0.424638
O O6 0.000000 0.960887 0.379383
O O7 0.198414 0.132272 0.390507
O O8 0.250000 0.335271 0.250000
O O9 0.500000 0.334041 0.294961
O O10 0.249029 0.327625 0.339293
O O11 0.258709 0.643303 0.927271
O O12 0.000000 0.635874 0.963766
O O13 0.203170 0.500000 0.000000
O O14 0.209415 0.750879 0.004379
O O15 0.500000 0.130411 0.544150
O O16 0.311728 0.000000 0.500000
O O17 0.500000 0.693529 0.882399
#
# Coordination Sequence:
#
# PCOD9415145 Si02
#       6
#     8   8   8   8   8   8
#     4   9  16  26  41  63  95 130 162 198 244 294
#     4  10  19  29  45  70  98 128 164 204 246 291
#     4   9  16  26  42  65  95 128 162 200 244 292
#     4  10  21  36  52  71  97 130 167 207 251 297
#     4  10  19  32  51  72  95 126 165 204 244 290
#     4  10  19  30  46  69  98 130 164 202 246 293
#
# _framework density 16.577907
#
# number of rings (size 3 to 8) (size 9 to 14) (size 15 to 20)
#    0.000    2.333    1.667    2.000    0.000    6.667 
#    0.000    0.000    0.000    0.000    0.000    1.167 
#    0.000    0.000    0.000    0.000    0.000    0.000 
#
# Total GULP energy -267718.337854 kJ/mol
# GULP energy per Si atom -5577.465372 kJ/mol
# Density = 1.654018 g / cm^3
# Si number density = 16.577907 Si / 1000 Ang^3
#
#
#
# Elastic Constant Matrix: (Units=GPa)
#
#
# Indices 1 2 3 4 5 6 
#
# 1 111.3061 32.1660 105.6705 0.0000 0.0000 0.0000
# 2 32.1660 50.1540 39.2716 0.0000 0.0000 0.0000
# 3 105.6705 39.2716 177.0900 0.0000 0.0000 0.0000
# 4 0.0000 0.0000 0.0000 10.7071 0.0000 0.0000
# 5 0.0000 0.0000 0.0000 0.0000 39.7715 0.0000
# 6 0.0000 0.0000 0.0000 0.0000 0.0000 10.9466
#
#
#
# Elastic Compliance Matrix: (Units=1/GPa)
#
#
# Indices 1 2 3 4 5 6 
#
# 1 0.021546 -0.004540 -0.011850 0.000000 0.000000 0.000000
# 2 -0.004540 0.025085 -0.002854 0.000000 0.000000 0.000000
# 3 -0.011850 -0.002854 0.013351 0.000000 0.000000 0.000000
# 4 0.000000 0.000000 0.000000 0.093396 0.000000 0.000000
# 5 0.000000 0.000000 0.000000 0.000000 0.025144 0.000000
# 6 0.000000 0.000000 0.000000 0.000000 0.000000 0.091352
#
#
# Mechanical properties :
#
#
# Convention : Reuss Voigt Hill
#
# Bulk Modulus (GPa) = 46.52383 76.97402 61.74893
# Shear Modulus (GPa) = 15.84657 23.04785 19.44721
#
# Velocity S-wave (km/s) = 3.09509 3.73268 3.42874
# Velocity P-wave (km/s) = 6.39511 8.06906 7.28036
#
# Compressibility (1/GPa) = 0.02149436
#
# Stress axis : x y z
#
# Youngs Moduli (GPa) = 46.41205 39.86474 74.90268
#
# Poissons Ratio (x) = 0.18098 0.88759
# Poissons Ratio (y) = 0.21070 0.21377
# Poissons Ratio (z) = 0.54998 0.11377
#
# Static dielectric constant tensor:
#      x y z
#    x 1.554690 0.000000 0.000000 
#    y 0.000000 1.531470 0.000000 
#    z 0.000000 0.000000 1.538220 
# 
# From -- ./inp_files/36140.got.cif
#   From: 2010.05.17/outbox.cif.g08.bks.cpg/sg53_19_cif.got.tgz:36140.got - 2010.06.03 12:45:16.
