data_PCOD9415346
_publ_section_title
;
Structure prediction by ZEFSAII (Michael W. Deem and Ramdas Pophale) SiO2 
 PCOD9415346
Probable space group: P M N A
;
_chemical_formula_sum "Si O2"
_cell_formula_units_Z 64
_cell_length_a 8.482119
_cell_length_b 21.436456
_cell_length_c 21.112849
_cell_angle_alpha 90.000000
_cell_angle_beta 90.000000
_cell_angle_gamma 90.000000
_cell_volume 3838.876932
_symmetry_space_group_name_H-M "P M N A"
_symmetry_group_IT_number 53
_symmetry_cell_setting 'orthorhombic'
loop_
_space_group_symop_operation_xyz
x,y,z
1/2-x,-y,1/2+z
x,-y,-z
1/2-x,y,1/2-z
-x,-y,-z
1/2+x,y,1/2-z
-x,y,z
1/2+x,-y,1/2+z
loop_
_atom_site_type_symbol
_atom_site_label
_atom_site_fract_x
_atom_site_fract_y
_atom_site_fract_z
Si Si1 0.182633 0.283519 0.353621
Si Si2 0.816936 0.306378 0.012418
Si Si3 0.309091 0.558786 0.542117
Si Si4 0.816549 0.576591 0.683027
Si Si5 0.688892 0.022012 0.183694
Si Si6 0.188294 0.156697 0.147440
Si Si7 0.809844 0.827769 0.000792
Si Si8 0.690165 0.046381 0.943864
O O1 0.300214 0.291160 0.412920
O O2 0.198233 0.347823 0.316235
O O3 0.228803 0.217761 0.323600
O O4 0.000000 0.280355 0.375385
O O5 0.748479 0.376278 0.010355
O O6 0.000000 0.310640 0.993809
O O7 0.751026 0.242376 0.982348
O O8 0.258497 0.500000 0.500000
O O9 0.500000 0.561245 0.541483
O O10 0.259192 0.555996 0.615974
O O11 0.750000 0.552678 0.750000
O O12 0.000000 0.561068 0.679685
O O13 0.750000 0.995965 0.250000
O O14 0.500000 0.024789 0.183869
O O15 0.754648 0.091846 0.175654
O O16 0.741262 0.981778 0.123207
O O17 0.000000 0.162059 0.152984
O O18 0.233085 0.157059 0.072414
O O19 0.748250 0.884007 0.042972
O O20 0.000000 0.826285 0.003235
O O21 0.500000 0.046578 0.945388
O O22 0.745227 0.000000 0.000000
#
# Coordination Sequence:
#
# PCOD9415346 Si02
#       8
#     8   8   8   8   8   8   8   8
#     4   9  17  28  43  64  91 126 165 200 236 275
#     4   8  15  28  44  69 100 126 158 196 237 285
#     4   9  17  31  52  75 102 136 167 199 242 292
#     4  10  20  32  47  68  96 131 169 208 243 283
#     4  11  23  37  50  66  92 123 156 197 246 296
#     4  10  19  31  47  68  94 126 161 197 237 280
#     4   9  17  28  47  72  96 123 156 199 239 278
#     4  10  20  34  51  71  93 120 156 202 247 287
#
# _framework density 16.671541999999999
#
# number of rings (size 3 to 8) (size 9 to 14) (size 15 to 20)
#    0.000    2.500    1.250    2.250    0.000    5.500 
#    0.000    1.250    0.000    0.000    0.000    0.875 
#    0.000    2.000    0.000    0.000    0.000    0.000 
#
# Total GULP energy -356417.263902 kJ/mol
# GULP energy per Si atom -5569.019748 kJ/mol
# Density = 1.663360 g / cm^3
# Si number density = 16.671542 Si / 1000 Ang^3
#
#
#
# Elastic Constant Matrix: (Units=GPa)
#
#
# Indices 1 2 3 4 5 6 
#
# 1 20.9171 15.0785 22.7626 0.0000 0.0000 0.0000
# 2 15.0785 122.4817 58.8559 0.0000 0.0000 0.0000
# 3 22.7626 58.8559 92.4283 0.0000 0.0000 0.0000
# 4 0.0000 0.0000 0.0000 10.3540 0.0000 0.0000
# 5 0.0000 0.0000 0.0000 0.0000 17.1745 0.0000
# 6 0.0000 0.0000 0.0000 0.0000 0.0000 18.8997
#
#
#
# Elastic Compliance Matrix: (Units=1/GPa)
#
#
# Indices 1 2 3 4 5 6 
#
# 1 0.065329 -0.000449 -0.015803 0.000000 0.000000 0.000000
# 2 -0.000449 0.011767 -0.007383 0.000000 0.000000 0.000000
# 3 -0.015803 -0.007383 0.019412 0.000000 0.000000 0.000000
# 4 0.000000 0.000000 0.000000 0.096581 0.000000 0.000000
# 5 0.000000 0.000000 0.000000 0.000000 0.058226 0.000000
# 6 0.000000 0.000000 0.000000 0.000000 0.000000 0.052911
#
#
# Mechanical properties :
#
#
# Convention : Reuss Voigt Hill
#
# Bulk Modulus (GPa) = 20.30893 47.69122 34.00008
# Shear Modulus (GPa) = 13.59037 18.56097 16.07567
#
# Velocity S-wave (km/s) = 2.85824 3.34028 3.10862
# Velocity P-wave (km/s) = 4.80635 6.59887 5.77261
#
# Compressibility (1/GPa) = 0.04923942
#
# Stress axis : x y z
#
# Youngs Moduli (GPa) = 15.30724 84.98163 51.51434
#
# Poissons Ratio (x) = 0.03813 0.81408
# Poissons Ratio (y) = 0.00687 0.38031
# Poissons Ratio (z) = 0.24190 0.62738
#
# Static dielectric constant tensor:
#      x y z
#    x 1.577360 0.000000 0.000000 
#    y 0.000000 1.601330 0.000000 
#    z 0.000000 0.000000 1.572260 
# 
# From -- ./inp_files/31367.got.cif
#   From: 2010.05.17/outbox.cif.g08.bks.cpg/sg53_16_cif.got.tgz:31367.got - 2010.06.03 12:45:16.
