data_PCOD9415880
_publ_section_title
;
Structure prediction by ZEFSAII (Michael W. Deem and Ramdas Pophale) SiO2 
 PCOD9415880
Probable space group: P M N A
;
_chemical_formula_sum "Si O2"
_cell_formula_units_Z 64
_cell_length_a 8.514302
_cell_length_b 12.186611
_cell_length_c 28.310514
_cell_angle_alpha 90.000000
_cell_angle_beta 90.000000
_cell_angle_gamma 90.000000
_cell_volume 2937.512703
_symmetry_space_group_name_H-M "P M N A"
_symmetry_group_IT_number 53
_symmetry_cell_setting 'orthorhombic'
loop_
_space_group_symop_operation_xyz
x,y,z
1/2-x,-y,1/2+z
x,-y,-z
1/2-x,y,1/2-z
-x,-y,-z
1/2+x,y,1/2-z
-x,y,z
1/2+x,-y,1/2+z
loop_
_atom_site_type_symbol
_atom_site_label
_atom_site_fract_x
_atom_site_fract_y
_atom_site_fract_z
Si Si1 0.682564 0.210051 0.645947
Si Si2 0.317132 0.703223 0.051961
Si Si3 0.188885 0.586109 0.301902
Si Si4 0.311332 0.738623 0.901639
Si Si5 0.687537 0.882356 0.519988
Si Si6 0.321497 0.235124 0.200825
Si Si7 0.186910 0.509807 0.901490
Si Si8 0.679741 0.028801 0.800162
O O1 0.500000 0.230102 0.634308
O O2 0.792551 0.235363 0.601814
O O3 0.736144 0.294162 0.686916
O O4 0.711759 0.086150 0.661582
O O5 0.500000 0.687607 0.041060
O O6 0.235058 0.587621 0.062958
O O7 0.239767 0.783199 0.013971
O O8 0.250000 0.549315 0.250000
O O9 0.241075 0.517846 0.349066
O O10 0.000000 0.590668 0.301190
O O11 0.500000 0.742566 0.900333
O O12 0.253234 0.844903 0.929464
O O13 0.244516 0.733484 0.848367
O O14 0.254378 0.623095 0.922013
O O15 0.500000 0.886937 0.522268
O O16 0.744266 0.000000 0.500000
O O17 0.250000 0.271441 0.250000
O O18 0.500000 0.275319 0.200300
O O19 0.320917 0.102614 0.199279
O O20 0.000000 0.514658 0.896807
O O21 0.750000 0.062330 0.750000
O O22 0.500000 0.066311 0.805659
#
# Coordination Sequence:
#
# PCOD9415880 Si02
#       8
#     8   8   8   8   8   8   8   8
#     4  11  21  34  54  84 121 165 210 263 321 383
#     4  11  23  42  67  95 128 168 212 264 321 386
#     4  11  21  36  57  86 124 168 216 270 325 389
#     4  11  24  44  68  98 132 172 220 270 322 386
#     4  11  26  47  70 102 136 170 214 265 325 390
#     4   9  21  39  61  89 125 167 214 264 315 377
#     4  11  23  42  66  95 129 170 218 272 330 390
#     4  10  19  33  51  79 114 159 210 262 316 378
#
# _framework density 21.787140000000001
#
# number of rings (size 3 to 8) (size 9 to 14) (size 15 to 20)
#    0.000    1.375    0.000    7.500    1.750    3.500 
#    0.000    3.750    0.000    0.000    0.000    0.000 
#    0.000    0.000    0.000    0.000    0.000    0.000 
#
# Total GULP energy -357657.457779 kJ/mol
# GULP energy per Si atom -5588.397778 kJ/mol
# Density = 2.173755 g / cm^3
# Si number density = 21.787140 Si / 1000 Ang^3
#
#
#
# Elastic Constant Matrix: (Units=GPa)
#
#
# Indices 1 2 3 4 5 6 
#
# 1 104.1416 21.9117 9.7981 0.0000 0.0000 0.0000
# 2 21.9117 60.9745 49.3673 0.0000 0.0000 0.0000
# 3 9.7981 49.3673 70.9135 0.0000 0.0000 0.0000
# 4 0.0000 0.0000 0.0000 -5.3703 0.0000 0.0000
# 5 0.0000 0.0000 0.0000 0.0000 29.1044 0.0000
# 6 0.0000 0.0000 0.0000 0.0000 0.0000 40.3270
#
#
#
# Elastic Compliance Matrix: (Units=1/GPa)
#
#
# Indices 1 2 3 4 5 6 
#
# 1 0.010612 -0.006019 0.002724 0.000000 0.000000 0.000000
# 2 -0.006019 0.040998 -0.027710 0.000000 0.000000 0.000000
# 3 0.002724 -0.027710 0.033016 0.000000 0.000000 0.000000
# 4 0.000000 0.000000 0.000000 -0.186209 0.000000 0.000000
# 5 0.000000 0.000000 0.000000 0.000000 0.034359 0.000000
# 6 0.000000 0.000000 0.000000 0.000000 0.000000 0.024797
#
#
# Mechanical properties :
#
#
# Convention : Reuss Voigt Hill
#
# Bulk Modulus (GPa) = 44.21518 44.24267 44.22892
# Shear Modulus (GPa) = 184.35401 23.14238 103.74820
#
# Velocity S-wave (km/s) = 9.20867 3.26268 6.90814
# Velocity P-wave (km/s) = 11.55008 5.87744 9.16375
#
# Compressibility (1/GPa) = 0.02261667
#
# Stress axis : x y z
#
# Youngs Moduli (GPa) = 94.22892 24.39140 30.28862
#
# Poissons Ratio (x) = 0.14681 -0.08250
# Poissons Ratio (y) = 0.56717 0.83929
# Poissons Ratio (z) = -0.25667 0.67588
#
# Static dielectric constant tensor:
#      x y z
#    x 1.743510 0.000000 0.000000 
#    y 0.000000 1.811860 0.000000 
#    z 0.000000 0.000000 1.844680 
# 
# From -- ./inp_files/38131.got.cif
#   From: 2010.05.17/outbox.cif.g08.bks.cpg/sg53_20_cif.got.tgz:38131.got - 2010.06.03 12:45:16.
