data_PCOD9415336
_publ_section_title
;
Structure prediction by ZEFSAII (Michael W. Deem and Ramdas Pophale) SiO2 
 PCOD9415336
Probable space group: P M N A
;
_chemical_formula_sum "Si O2"
_cell_formula_units_Z 48
_cell_length_a 9.463074
_cell_length_b 16.795815
_cell_length_c 18.695731
_cell_angle_alpha 90.000000
_cell_angle_beta 90.000000
_cell_angle_gamma 90.000000
_cell_volume 2971.500237
_symmetry_space_group_name_H-M "P M N A"
_symmetry_group_IT_number 53
_symmetry_cell_setting 'orthorhombic'
loop_
_space_group_symop_operation_xyz
x,y,z
1/2-x,-y,1/2+z
x,-y,-z
1/2-x,y,1/2-z
-x,-y,-z
1/2+x,y,1/2-z
-x,y,z
1/2+x,-y,1/2+z
loop_
_atom_site_type_symbol
_atom_site_label
_atom_site_fract_x
_atom_site_fract_y
_atom_site_fract_z
Si Si1 0.167198 0.143181 0.683765
Si Si2 0.332282 0.911051 0.022690
Si Si3 0.163870 0.442211 0.606520
Si Si4 0.660385 0.760113 0.523431
Si Si5 0.660967 0.296894 0.642283
Si Si6 0.663458 0.613928 0.939674
O O1 0.250000 0.104664 0.750000
O O2 0.189976 0.100403 0.607734
O O3 0.236244 0.230376 0.674332
O O4 0.000000 0.147729 0.697166
O O5 0.500000 0.899825 0.009417
O O6 0.246294 0.842225 0.982227
O O7 0.292486 0.000000 0.000000
O O8 0.267814 0.383325 0.647875
O O9 0.204806 0.535142 0.604632
O O10 0.166933 0.413297 0.523299
O O11 0.000000 0.434684 0.629669
O O12 0.500000 0.772491 0.547605
O O13 0.654725 0.726533 0.441900
O O14 0.740037 0.691295 0.567318
O O15 0.500000 0.293908 0.669855
O O16 0.500000 0.632731 0.923788
#
# Coordination Sequence:
#
# PCOD9415336 Si02
#       6
#     8   8   8   8   8   8
#     4  10  19  31  47  65  87 114 145 181 219 264
#     4   9  18  32  48  64  84 114 149 183 224 276
#     4   8  13  21  33  50  73 104 140 172 202 237
#     4   9  16  24  36  56  81 108 138 174 216 259
#     4   9  16  25  37  55  80 109 140 172 208 250
#     4   8  13  21  33  49  73 106 140 171 203 243
#
# _framework density 16.153457
#
# number of rings (size 3 to 8) (size 9 to 14) (size 15 to 20)
#    0.000    3.167    0.000    2.500    0.000    5.667 
#    0.000    3.333    0.000    0.000    0.000    0.000 
#    0.000    1.333    0.000    9.000    0.000   15.167 
#
# Total GULP energy -267218.064009 kJ/mol
# GULP energy per Si atom -5567.043000 kJ/mol
# Density = 1.611669 g / cm^3
# Si number density = 16.153457 Si / 1000 Ang^3
#
#
#
# Elastic Constant Matrix: (Units=GPa)
#
#
# Indices 1 2 3 4 5 6 
#
# 1 103.0678 83.8138 27.3075 0.0000 0.0000 0.0000
# 2 83.8138 142.6189 27.8504 0.0000 0.0000 0.0000
# 3 27.3075 27.8504 25.0814 0.0000 0.0000 0.0000
# 4 0.0000 0.0000 0.0000 7.0899 0.0000 0.0000
# 5 0.0000 0.0000 0.0000 0.0000 12.7745 0.0000
# 6 0.0000 0.0000 0.0000 0.0000 0.0000 16.1879
#
#
#
# Elastic Compliance Matrix: (Units=1/GPa)
#
#
# Indices 1 2 3 4 5 6 
#
# 1 0.020956 -0.010036 -0.011672 0.000000 0.000000 0.000000
# 2 -0.010036 0.013759 -0.004352 0.000000 0.000000 0.000000
# 3 -0.011672 -0.004352 0.057410 0.000000 0.000000 0.000000
# 4 0.000000 0.000000 0.000000 0.141046 0.000000 0.000000
# 5 0.000000 0.000000 0.000000 0.000000 0.078281 0.000000
# 6 0.000000 0.000000 0.000000 0.000000 0.000000 0.061775
#
#
# Mechanical properties :
#
#
# Convention : Reuss Voigt Hill
#
# Bulk Modulus (GPa) = 24.99607 60.96793 42.98200
# Shear Modulus (GPa) = 11.39779 15.99689 13.69734
#
# Velocity S-wave (km/s) = 2.65918 3.15033 2.91512
# Velocity P-wave (km/s) = 4.99360 7.14546 6.16416
#
# Compressibility (1/GPa) = 0.04000628
#
# Stress axis : x y z
#
# Youngs Moduli (GPa) = 47.71888 72.67724 17.41855
#
# Poissons Ratio (x) = 0.72940 0.20331
# Poissons Ratio (y) = 0.47891 0.07580
# Poissons Ratio (z) = 0.55697 0.31626
#
# Static dielectric constant tensor:
#      x y z
#    x 1.546580 0.000000 0.000000 
#    y 0.000000 1.533830 0.000000 
#    z 0.000000 0.000000 1.566380 
# 
# From -- ./inp_files/26442.got.cif
#   From: 2010.05.17/outbox.cif.g08.bks.cpg/sg53_14_cif.got.tgz:26442.got - 2010.06.03 12:45:16.
