data_PCOD9415760
_publ_section_title
;
Structure prediction by ZEFSAII (Michael W. Deem and Ramdas Pophale) SiO2 
 PCOD9415760
Probable space group: P M N A
;
_chemical_formula_sum "Si O2"
_cell_formula_units_Z 56
_cell_length_a 27.817945
_cell_length_b 17.286860
_cell_length_c 7.072846
_cell_angle_alpha 90.000000
_cell_angle_beta 90.000000
_cell_angle_gamma 90.000000
_cell_volume 3401.224988
_symmetry_space_group_name_H-M "P M N A"
_symmetry_group_IT_number 53
_symmetry_cell_setting 'orthorhombic'
loop_
_space_group_symop_operation_xyz
x,y,z
1/2-x,-y,1/2+z
x,-y,-z
1/2-x,y,1/2-z
-x,-y,-z
1/2+x,y,1/2-z
-x,y,z
1/2+x,-y,1/2+z
loop_
_atom_site_type_symbol
_atom_site_label
_atom_site_fract_x
_atom_site_fract_y
_atom_site_fract_z
Si Si1 0.697442 0.703693 0.735264
Si Si2 0.295683 0.582717 0.393886
Si Si3 0.557478 0.911719 0.954981
Si Si4 0.445121 0.337218 0.042581
Si Si5 0.055542 0.788896 0.218945
Si Si6 0.151688 0.412369 0.533113
Si Si7 0.900342 0.210671 0.185075
O O1 0.750000 0.740386 0.750000
O O2 0.702131 0.647245 0.554996
O O3 0.654494 0.764300 0.717290
O O4 0.683160 0.648057 0.911720
O O5 0.296801 0.500000 0.500000
O O6 0.250000 0.585802 0.250000
O O7 0.340701 0.598095 0.255694
O O8 0.500000 0.907833 0.914850
O O9 0.566339 0.859690 0.140420
O O10 0.585301 0.869738 0.784826
O O11 0.570096 0.000000 0.000000
O O12 0.500000 0.364495 0.061181
O O13 0.440592 0.287023 0.850075
O O14 0.403018 0.400103 0.033944
O O15 0.432281 0.276632 0.209267
O O16 0.000000 0.795840 0.157489
O O17 0.087910 0.788724 0.035214
O O18 0.168097 0.500000 0.500000
#
# Coordination Sequence:
#
# PCOD9415760 Si02
#       7
#     8   8   8   8   8   8   8
#     4  11  22  36  51  76 100 131 172 219 264 310
#     4  12  21  33  53  73 100 129 167 221 275 319
#     4   9  18  32  52  83 114 135 162 202 247 301
#     4   9  19  33  49  70 100 137 175 210 247 303
#     4   9  16  30  51  75 105 136 166 201 244 296
#     4  11  21  34  50  71 100 133 170 216 267 308
#     4  10  19  32  53  75 103 136 171 206 256 307
#
# _framework density 16.464656999999999
#
# number of rings (size 3 to 8) (size 9 to 14) (size 15 to 20)
#    0.000    1.857    2.857    3.857    0.000    0.857 
#    0.000    2.143    0.000    0.429    3.714    0.000 
#    0.000    0.000    0.000    0.000    0.000    0.000 
#
# Total GULP energy -312271.849942 kJ/mol
# GULP energy per Si atom -5576.283035 kJ/mol
# Density = 1.642718 g / cm^3
# Si number density = 16.464657 Si / 1000 Ang^3
#
#
#
# Elastic Constant Matrix: (Units=GPa)
#
#
# Indices 1 2 3 4 5 6 
#
# 1 86.1779 8.8837 20.1737 0.0000 0.0000 0.0000
# 2 8.8837 37.1915 8.8117 0.0000 0.0000 0.0000
# 3 20.1737 8.8117 65.3499 0.0000 0.0000 0.0000
# 4 0.0000 0.0000 0.0000 11.3777 0.0000 0.0000
# 5 0.0000 0.0000 0.0000 0.0000 20.2551 0.0000
# 6 0.0000 0.0000 0.0000 0.0000 0.0000 13.3504
#
#
#
# Elastic Compliance Matrix: (Units=1/GPa)
#
#
# Indices 1 2 3 4 5 6 
#
# 1 0.012675 -0.002170 -0.003620 0.000000 0.000000 0.000000
# 2 -0.002170 0.028147 -0.003125 0.000000 0.000000 0.000000
# 3 -0.003620 -0.003125 0.016841 0.000000 0.000000 0.000000
# 4 0.000000 0.000000 0.000000 0.087891 0.000000 0.000000
# 5 0.000000 0.000000 0.000000 0.000000 0.049370 0.000000
# 6 0.000000 0.000000 0.000000 0.000000 0.000000 0.074904
#
#
# Mechanical properties :
#
#
# Convention : Reuss Voigt Hill
#
# Bulk Modulus (GPa) = 25.10551 29.38416 27.24484
# Shear Modulus (GPa) = 16.61477 19.05332 17.83404
#
# Velocity S-wave (km/s) = 3.18011 3.40549 3.29473
# Velocity P-wave (km/s) = 5.36333 5.77484 5.57288
#
# Compressibility (1/GPa) = 0.03983190
#
# Stress axis : x y z
#
# Youngs Moduli (GPa) = 78.89508 35.52824 59.37804
#
# Poissons Ratio (x) = 0.07709 0.21496
# Poissons Ratio (y) = 0.17119 0.18558
# Poissons Ratio (z) = 0.28562 0.11104
#
# Static dielectric constant tensor:
#      x y z
#    x 1.581140 0.000000 0.000000 
#    y 0.000000 1.534210 0.000000 
#    z 0.000000 0.000000 1.573830 
# 
# From -- ./inp_files/5346.got.cif
#   From: 2010.05.17/outbox.cif.g08.bks.cpg/sg53_3_cif.got.tgz:5346.got - 2010.06.03 12:45:16.
