data_PCOD9415663
_publ_section_title
;
Structure prediction by ZEFSAII (Michael W. Deem and Ramdas Pophale) SiO2 
 PCOD9415663
Probable space group: P M N A
;
_chemical_formula_sum "Si O2"
_cell_formula_units_Z 64
_cell_length_a 8.640171
_cell_length_b 20.362631
_cell_length_c 20.801384
_cell_angle_alpha 90.000000
_cell_angle_beta 90.000000
_cell_angle_gamma 90.000000
_cell_volume 3659.725064
_symmetry_space_group_name_H-M "P M N A"
_symmetry_group_IT_number 53
_symmetry_cell_setting 'orthorhombic'
loop_
_space_group_symop_operation_xyz
x,y,z
1/2-x,-y,1/2+z
x,-y,-z
1/2-x,y,1/2-z
-x,-y,-z
1/2+x,y,1/2-z
-x,y,z
1/2+x,-y,1/2+z
loop_
_atom_site_type_symbol
_atom_site_label
_atom_site_fract_x
_atom_site_fract_y
_atom_site_fract_z
Si Si1 0.686726 0.445370 0.819768
Si Si2 0.315165 0.808891 0.103198
Si Si3 0.685287 0.684091 0.564896
Si Si4 0.814612 0.597254 0.680160
Si Si5 0.186938 0.831259 0.962287
Si Si6 0.814706 0.073634 0.819979
Si Si7 0.686900 0.660631 0.075583
Si Si8 0.688345 0.973582 0.569930
O O1 0.750000 0.425217 0.750000
O O2 0.500000 0.443236 0.817470
O O3 0.733549 0.521147 0.830972
O O4 0.737647 0.397215 0.876803
O O5 0.500000 0.814084 0.106837
O O6 0.240051 0.854856 0.156542
O O7 0.272595 0.731870 0.105316
O O8 0.256822 0.833537 0.033697
O O9 0.500000 0.680781 0.566957
O O10 0.753997 0.642777 0.623217
O O11 0.731977 0.761202 0.567670
O O12 0.742833 0.658013 0.495697
O O13 0.750000 0.616890 0.750000
O O14 0.000000 0.599404 0.681808
O O15 0.233273 0.897178 0.924972
O O16 0.000000 0.831713 0.968563
O O17 0.750000 0.058646 0.750000
O O18 0.000000 0.072251 0.818737
O O19 0.758567 0.020823 0.873022
O O20 0.500000 0.658130 0.069451
O O21 0.500000 0.976069 0.570191
O O22 0.738227 0.000000 0.500000
#
# Coordination Sequence:
#
# PCOD9415663 Si02
#       8
#     8   8   8   8   8   8   8   8
#     4   9  19  35  54  75 100 136 178 219 262 313
#     4  10  19  32  51  76 105 136 170 209 255 306
#     4  10  20  33  53  81 110 138 173 216 261 312
#     4  10  20  36  57  77 102 136 176 219 266 318
#     4   9  17  33  55  78 102 133 174 212 253 305
#     4  11  22  36  53  74 105 138 173 215 259 310
#     4   9  19  35  53  76 108 141 175 215 260 307
#     4   9  16  31  57  79  96 131 176 214 255 304
#
# _framework density 17.487653999999999
#
# number of rings (size 3 to 8) (size 9 to 14) (size 15 to 20)
#    0.000    2.375    1.250    1.500    0.000    3.000 
#    0.000    6.250    0.000    1.500    0.000    0.000 
#    0.000    0.000    0.000    0.000    0.000    0.000 
#
# Total GULP energy -357007.474507 kJ/mol
# GULP energy per Si atom -5578.241789 kJ/mol
# Density = 1.744785 g / cm^3
# Si number density = 17.487654 Si / 1000 Ang^3
#
#
#
# Elastic Constant Matrix: (Units=GPa)
#
#
# Indices 1 2 3 4 5 6 
#
# 1 23.9433 30.4008 34.3828 0.0000 0.0000 0.0000
# 2 30.4008 114.8107 101.6916 0.0000 0.0000 0.0000
# 3 34.3828 101.6916 152.4571 0.0000 0.0000 0.0000
# 4 0.0000 0.0000 0.0000 29.0757 0.0000 0.0000
# 5 0.0000 0.0000 0.0000 0.0000 33.1178 0.0000
# 6 0.0000 0.0000 0.0000 0.0000 0.0000 21.1279
#
#
#
# Elastic Compliance Matrix: (Units=1/GPa)
#
#
# Indices 1 2 3 4 5 6 
#
# 1 0.066656 -0.010594 -0.007966 0.000000 0.000000 0.000000
# 2 -0.010594 0.022969 -0.012932 0.000000 0.000000 0.000000
# 3 -0.007966 -0.012932 0.016981 0.000000 0.000000 0.000000
# 4 0.000000 0.000000 0.000000 0.034393 0.000000 0.000000
# 5 0.000000 0.000000 0.000000 0.000000 0.030195 0.000000
# 6 0.000000 0.000000 0.000000 0.000000 0.000000 0.047331
#
#
# Mechanical properties :
#
#
# Convention : Reuss Voigt Hill
#
# Bulk Modulus (GPa) = 22.92365 69.35126 46.13746
# Shear Modulus (GPa) = 16.88902 24.97999 20.93450
#
# Velocity S-wave (km/s) = 3.11105 3.78357 3.46367
# Velocity P-wave (km/s) = 5.10312 7.67011 6.51430
#
# Compressibility (1/GPa) = 0.04362307
#
# Stress axis : x y z
#
# Youngs Moduli (GPa) = 15.00237 43.53666 58.88787
#
# Poissons Ratio (x) = 0.46123 0.46911
# Poissons Ratio (y) = 0.15893 0.76152
# Poissons Ratio (z) = 0.11951 0.56300
#
# Static dielectric constant tensor:
#      x y z
#    x 1.595310 0.000000 0.000000 
#    y 0.000000 1.614150 0.000000 
#    z 0.000000 0.000000 1.556980 
# 
# From -- ./inp_files/26900.got.cif
#   From: 2010.05.17/outbox.cif.g08.bks.cpg/sg53_14_cif.got.tgz:26900.got - 2010.06.03 12:45:16.
