data_PCOD9415102
_publ_section_title
;
Structure prediction by ZEFSAII (Michael W. Deem and Ramdas Pophale) SiO2 
 PCOD9415102
Probable space group: P M N A
;
_chemical_formula_sum "Si O2"
_cell_formula_units_Z 40
_cell_length_a 7.302357
_cell_length_b 13.438822
_cell_length_c 20.528523
_cell_angle_alpha 90.000000
_cell_angle_beta 90.000000
_cell_angle_gamma 90.000000
_cell_volume 2014.568163
_symmetry_space_group_name_H-M "P M N A"
_symmetry_group_IT_number 53
_symmetry_cell_setting 'orthorhombic'
loop_
_space_group_symop_operation_xyz
x,y,z
1/2-x,-y,1/2+z
x,-y,-z
1/2-x,y,1/2-z
-x,-y,-z
1/2+x,y,1/2-z
-x,y,z
1/2+x,-y,1/2+z
loop_
_atom_site_type_symbol
_atom_site_label
_atom_site_fract_x
_atom_site_fract_y
_atom_site_fract_z
Si Si1 0.723357 0.955721 0.070167
Si Si2 0.223217 0.734451 0.451002
Si Si3 0.223403 0.691107 0.600762
Si Si4 0.717984 0.883691 0.825695
Si Si5 0.283227 0.477708 0.922555
O O1 0.500000 0.954856 0.070692
O O2 0.782353 0.841148 0.075434
O O3 0.786352 0.028547 0.127431
O O4 0.776835 0.000000 0.000000
O O5 0.273638 0.724476 0.527329
O O6 0.287487 0.634440 0.414338
O O7 0.000000 0.732795 0.449847
O O8 0.285891 0.775849 0.650290
O O9 0.287863 0.577683 0.611601
O O10 0.000000 0.687693 0.601741
O O11 0.750000 0.901155 0.750000
O O12 0.500000 0.881034 0.835725
O O13 0.500000 0.473505 0.908606
O O14 0.264448 0.500000 0.000000
#
# Coordination Sequence:
#
# PCOD9415102 Si02
#       5
#     8   8   8   8   8
#     4   9  14  22  38  59  80 104 137 174 208 242
#     4   8  11  17  32  56  80  99 125 166 210 241
#     4   8  12  20  34  54  79 103 126 159 204 245
#     4  10  19  29  42  60  84 112 139 168 205 249
#     4   7  10  15  27  50  79 101 116 149 203 245
#
# _framework density 19.855371000000002
#
# number of rings (size 3 to 8) (size 9 to 14) (size 15 to 20)
#    0.000    3.600    2.000    2.400    0.000    0.000 
#    0.000    0.000    0.000    1.800    0.000    0.000 
#    0.000    7.200    0.000    0.000    0.000    0.000 
#
# Total GULP energy -222842.312682 kJ/mol
# GULP energy per Si atom -5571.057817 kJ/mol
# Density = 1.981018 g / cm^3
# Si number density = 19.855371 Si / 1000 Ang^3
#
#
#
# Elastic Constant Matrix: (Units=GPa)
#
#
# Indices 1 2 3 4 5 6 
#
# 1 77.4980 14.0445 -1.0186 0.0000 0.0000 0.0000
# 2 14.0445 251.1826 93.7121 0.0000 0.0000 0.0000
# 3 -1.0186 93.7121 96.8897 0.0000 0.0000 0.0000
# 4 0.0000 0.0000 0.0000 22.8332 0.0000 0.0000
# 5 0.0000 0.0000 0.0000 0.0000 -40.1371 0.0000
# 6 0.0000 0.0000 0.0000 0.0000 0.0000 -22.8640
#
#
#
# Elastic Compliance Matrix: (Units=1/GPa)
#
#
# Indices 1 2 3 4 5 6 
#
# 1 0.013144 -0.001231 0.001328 0.000000 0.000000 0.000000
# 2 -0.001231 0.006344 -0.006149 0.000000 0.000000 0.000000
# 3 0.001328 -0.006149 0.016282 0.000000 0.000000 0.000000
# 4 0.000000 0.000000 0.000000 0.043796 0.000000 0.000000
# 5 0.000000 0.000000 0.000000 0.000000 -0.024915 0.000000
# 6 0.000000 0.000000 0.000000 0.000000 0.000000 -0.043737
#
#
# Mechanical properties :
#
#
# Convention : Reuss Voigt Hill
#
# Bulk Modulus (GPa) = 42.25095 71.00516 56.62805
# Shear Modulus (GPa) = 161.78043 13.22191 87.50117
#
# Velocity S-wave (km/s) = 9.03639 2.58332 6.64567
# Velocity P-wave (km/s) = 11.41055 6.68857 9.35247
#
# Compressibility (1/GPa) = 0.02366811
#
# Stress axis : x y z
#
# Youngs Moduli (GPa) = 76.08027 157.62868 61.41670
#
# Poissons Ratio (x) = 0.19396 -0.08158
# Poissons Ratio (y) = 0.09362 0.37765
# Poissons Ratio (z) = -0.10106 0.96924
#
# Static dielectric constant tensor:
#      x y z
#    x 1.782110 0.000000 0.000000 
#    y 0.000000 1.753280 0.000000 
#    z 0.000000 0.000000 1.636980 
# 
# From -- ./inp_files/26000.got.cif
#   From: 2010.05.17/outbox.cif.g08.bks.cpg/sg53_13_cif.got.tgz:26000.got - 2010.06.03 12:45:16.
