data_PCOD9415834
_publ_section_title
;
Structure prediction by ZEFSAII (Michael W. Deem and Ramdas Pophale) SiO2 
 PCOD9415834
Probable space group: P M N A
;
_chemical_formula_sum "Si O2"
_cell_formula_units_Z 48
_cell_length_a 7.972290
_cell_length_b 14.949104
_cell_length_c 21.158226
_cell_angle_alpha 90.000000
_cell_angle_beta 90.000000
_cell_angle_gamma 90.000000
_cell_volume 2521.607591
_symmetry_space_group_name_H-M "P M N A"
_symmetry_group_IT_number 53
_symmetry_cell_setting 'orthorhombic'
loop_
_space_group_symop_operation_xyz
x,y,z
1/2-x,-y,1/2+z
x,-y,-z
1/2-x,y,1/2-z
-x,-y,-z
1/2+x,y,1/2-z
-x,y,z
1/2+x,-y,1/2+z
loop_
_atom_site_type_symbol
_atom_site_label
_atom_site_fract_x
_atom_site_fract_y
_atom_site_fract_z
Si Si1 0.202242 0.941066 0.178608
Si Si2 0.699611 0.559948 0.179515
Si Si3 0.294989 0.058632 0.439009
Si Si4 0.797837 0.445833 0.438351
Si Si5 0.701773 0.750614 0.373269
Si Si6 0.202324 0.252455 0.018613
O O1 0.250000 0.963370 0.250000
O O2 0.263513 0.841526 0.159664
O O3 0.000000 0.939533 0.175232
O O4 0.261377 0.010765 0.125268
O O5 0.750000 0.534285 0.250000
O O6 0.500000 0.558190 0.176065
O O7 0.766251 0.494190 0.124840
O O8 0.754143 0.660968 0.163859
O O9 0.500000 0.058731 0.438430
O O10 0.239333 0.160540 0.449097
O O11 0.245350 0.000000 0.500000
O O12 0.736011 0.500000 0.500000
O O13 0.752109 0.342530 0.445862
O O14 0.000000 0.451840 0.438357
O O15 0.500000 0.756544 0.375846
O O16 0.763108 0.744193 0.445761
O O17 0.000000 0.249184 0.016389
#
# Coordination Sequence:
#
# PCOD9415834 Si02
#       6
#     8   8   8   8   8   8
#     4  10  20  34  53  78 111 145 177 216 266 320
#     4  11  23  38  56  78 109 146 179 218 269 324
#     4   9  16  32  56  79 105 139 179 221 262 306
#     4  10  21  38  56  77 109 145 176 216 275 324
#     4  10  19  32  54  84 112 139 174 221 271 319
#     4  10  19  32  57  87 107 134 183 229 261 308
#
# _framework density 19.035475999999999
#
# number of rings (size 3 to 8) (size 9 to 14) (size 15 to 20)
#    0.000    2.000    3.333    1.000    0.000    3.667 
#    0.000    1.667    0.000    5.000    0.000    0.000 
#    0.000    0.000    0.000    0.000    0.000    0.000 
#
# Total GULP energy -268018.756788 kJ/mol
# GULP energy per Si atom -5583.724100 kJ/mol
# Density = 1.899215 g / cm^3
# Si number density = 19.035476 Si / 1000 Ang^3
#
#
#
# Elastic Constant Matrix: (Units=GPa)
#
#
# Indices 1 2 3 4 5 6 
#
# 1 14.9061 5.3879 9.8586 0.0000 0.0000 0.0000
# 2 5.3879 165.4656 99.4677 0.0000 0.0000 0.0000
# 3 9.8586 99.4677 186.1746 0.0000 0.0000 0.0000
# 4 0.0000 0.0000 0.0000 27.8436 0.0000 0.0000
# 5 0.0000 0.0000 0.0000 0.0000 19.7309 0.0000
# 6 0.0000 0.0000 0.0000 0.0000 0.0000 19.0630
#
#
#
# Elastic Compliance Matrix: (Units=1/GPa)
#
#
# Indices 1 2 3 4 5 6 
#
# 1 0.069522 -0.000075 -0.003642 0.000000 0.000000 0.000000
# 2 -0.000075 0.008903 -0.004753 0.000000 0.000000 0.000000
# 3 -0.003642 -0.004753 0.008103 0.000000 0.000000 0.000000
# 4 0.000000 0.000000 0.000000 0.035915 0.000000 0.000000
# 5 0.000000 0.000000 0.000000 0.000000 0.050682 0.000000
# 6 0.000000 0.000000 0.000000 0.000000 0.000000 0.052458
#
#
# Mechanical properties :
#
#
# Convention : Reuss Voigt Hill
#
# Bulk Modulus (GPa) = 14.36974 66.21940 40.29457
# Shear Modulus (GPa) = 18.81697 30.11630 24.46664
#
# Velocity S-wave (km/s) = 3.14749 3.98190 3.58902
# Velocity P-wave (km/s) = 4.55787 7.48355 6.19588
#
# Compressibility (1/GPa) = 0.06959067
#
# Stress axis : x y z
#
# Youngs Moduli (GPa) = 14.38391 112.32186 123.40587
#
# Poissons Ratio (x) = 0.00839 0.44939
# Poissons Ratio (y) = 0.00107 0.58651
# Poissons Ratio (z) = 0.05238 0.53383
#
# Static dielectric constant tensor:
#      x y z
#    x 1.688860 0.000000 0.000000 
#    y 0.000000 1.640470 0.000000 
#    z 0.000000 0.000000 1.650550 
# 
# From -- ./inp_files/26190.got.cif
#   From: 2010.05.17/outbox.cif.g08.bks.cpg/sg53_14_cif.got.tgz:26190.got - 2010.06.03 12:45:16.
