data_PCOD9415863
_publ_section_title
;
Structure prediction by ZEFSAII (Michael W. Deem and Ramdas Pophale) SiO2 
 PCOD9415863
Probable space group: P M N A
;
_chemical_formula_sum "Si O2"
_cell_formula_units_Z 64
_cell_length_a 8.710741
_cell_length_b 14.883465
_cell_length_c 31.424048
_cell_angle_alpha 90.000000
_cell_angle_beta 90.000000
_cell_angle_gamma 90.000000
_cell_volume 4074.002403
_symmetry_space_group_name_H-M "P M N A"
_symmetry_group_IT_number 53
_symmetry_cell_setting 'orthorhombic'
loop_
_space_group_symop_operation_xyz
x,y,z
1/2-x,-y,1/2+z
x,-y,-z
1/2-x,y,1/2-z
-x,-y,-z
1/2+x,y,1/2-z
-x,y,z
1/2+x,-y,1/2+z
loop_
_atom_site_type_symbol
_atom_site_label
_atom_site_fract_x
_atom_site_fract_y
_atom_site_fract_z
Si Si1 0.184357 0.948154 0.543014
Si Si2 0.683226 0.644482 0.296055
Si Si3 0.821624 0.260133 0.925389
Si Si4 0.181256 0.427178 0.620362
Si Si5 0.185501 0.250998 0.481051
Si Si6 0.686522 0.449494 0.043517
Si Si7 0.319881 0.934841 0.382532
Si Si8 0.185793 0.146359 0.796252
O O1 0.227246 0.843132 0.540871
O O2 0.000000 0.953451 0.542199
O O3 0.240024 0.000000 0.500000
O O4 0.240768 0.995855 0.585751
O O5 0.750000 0.620544 0.250000
O O6 0.500000 0.642970 0.294580
O O7 0.740866 0.580978 0.333777
O O8 0.730055 0.749037 0.304788
O O9 0.716250 0.332593 0.902362
O O10 0.806925 0.162980 0.904215
O O11 0.000000 0.287993 0.921556
O O12 0.768798 0.253352 0.973759
O O13 0.239497 0.500799 0.586329
O O14 0.000000 0.439534 0.626129
O O15 0.225473 0.344282 0.457957
O O16 0.000000 0.250875 0.487611
O O17 0.500000 0.456285 0.043251
O O18 0.738571 0.500000 0.000000
O O19 0.500000 0.957857 0.380159
O O20 0.261254 0.918194 0.334522
O O21 0.250000 0.122312 0.750000
O O22 0.000000 0.144313 0.795626
#
# Coordination Sequence:
#
# PCOD9415863 Si02
#       8
#     8   8   8   8   8   8   8   8
#     4  10  20  31  47  72  95 121 163 206 238 277
#     4  10  19  33  49  71 101 128 160 196 240 290
#     4  11  20  30  45  68  98 130 163 201 240 282
#     4  11  20  31  49  71  95 131 170 199 239 286
#     4  10  19  34  49  66  96 128 163 207 241 279
#     4   9  17  30  49  70  93 128 166 197 237 289
#     4  10  20  33  47  66  97 132 161 191 235 288
#     4   9  18  32  47  68  95 125 156 190 232 282
#
# _framework density 15.709365999999999
#
# number of rings (size 3 to 8) (size 9 to 14) (size 15 to 20)
#    0.000    2.000    3.750    1.125    0.000    2.250 
#    0.000    1.875    0.000    0.000    0.000    0.875 
#    0.000    2.000    0.000    0.000    0.000    0.000 
#
# Total GULP energy -356822.730861 kJ/mol
# GULP energy per Si atom -5575.355170 kJ/mol
# Density = 1.567361 g / cm^3
# Si number density = 15.709366 Si / 1000 Ang^3
#
#
#
# Elastic Constant Matrix: (Units=GPa)
#
#
# Indices 1 2 3 4 5 6 
#
# 1 13.7677 19.3986 26.1805 0.0000 0.0000 0.0000
# 2 19.3986 86.8668 61.9115 0.0000 0.0000 0.0000
# 3 26.1805 61.9115 147.2824 0.0000 0.0000 0.0000
# 4 0.0000 0.0000 0.0000 16.8167 0.0000 0.0000
# 5 0.0000 0.0000 0.0000 0.0000 25.8115 0.0000
# 6 0.0000 0.0000 0.0000 0.0000 0.0000 11.8057
#
#
#
# Elastic Compliance Matrix: (Units=1/GPa)
#
#
# Indices 1 2 3 4 5 6 
#
# 1 0.125691 -0.017340 -0.015054 0.000000 0.000000 0.000000
# 2 -0.017340 0.018828 -0.004832 0.000000 0.000000 0.000000
# 3 -0.015054 -0.004832 0.011497 0.000000 0.000000 0.000000
# 4 0.000000 0.000000 0.000000 0.059465 0.000000 0.000000
# 5 0.000000 0.000000 0.000000 0.000000 0.038742 0.000000
# 6 0.000000 0.000000 0.000000 0.000000 0.000000 0.084705
#
#
# Mechanical properties :
#
#
# Convention : Reuss Voigt Hill
#
# Bulk Modulus (GPa) = 12.26020 51.43314 31.84667
# Shear Modulus (GPa) = 11.34901 20.24854 15.79878
#
# Velocity S-wave (km/s) = 2.69073 3.59409 3.17470
# Velocity P-wave (km/s) = 4.18028 7.07353 5.80988
#
# Compressibility (1/GPa) = 0.08156471
#
# Stress axis : x y z
#
# Youngs Moduli (GPa) = 7.95604 53.11198 86.98007
#
# Poissons Ratio (x) = 0.92094 1.30936
# Poissons Ratio (y) = 0.13795 0.42032
# Poissons Ratio (z) = 0.11977 0.25666
#
# Static dielectric constant tensor:
#      x y z
#    x 1.533410 0.000000 0.000000 
#    y 0.000000 1.520280 0.000000 
#    z 0.000000 0.000000 1.529840 
# 
# From -- ./inp_files/38449.got.cif
#   From: 2010.05.17/outbox.cif.g08.bks.cpg/sg53_20_cif.got.tgz:38449.got - 2010.06.03 12:45:16.
