data_PCOD9415877
_publ_section_title
;
Structure prediction by ZEFSAII (Michael W. Deem and Ramdas Pophale) SiO2 
 PCOD9415877
Probable space group: P M N A
;
_chemical_formula_sum "Si O2"
_cell_formula_units_Z 64
_cell_length_a 8.843129
_cell_length_b 14.632336
_cell_length_c 31.159493
_cell_angle_alpha 90.000000
_cell_angle_beta 90.000000
_cell_angle_gamma 90.000000
_cell_volume 4031.902377
_symmetry_space_group_name_H-M "P M N A"
_symmetry_group_IT_number 53
_symmetry_cell_setting 'orthorhombic'
loop_
_space_group_symop_operation_xyz
x,y,z
1/2-x,-y,1/2+z
x,-y,-z
1/2-x,y,1/2-z
-x,-y,-z
1/2+x,y,1/2-z
-x,y,z
1/2+x,-y,1/2+z
loop_
_atom_site_type_symbol
_atom_site_label
_atom_site_fract_x
_atom_site_fract_y
_atom_site_fract_z
Si Si1 0.673555 0.761675 0.426818
Si Si2 0.182117 0.858571 0.295879
Si Si3 0.819691 0.749298 0.519190
Si Si4 0.180795 0.545950 0.545364
Si Si5 0.179535 0.934394 0.385315
Si Si6 0.673836 0.431557 0.621367
Si Si7 0.680784 0.354224 0.796038
Si Si8 0.319147 0.059806 0.457262
O O1 0.500000 0.796305 0.427707
O O2 0.731992 0.743091 0.474349
O O3 0.781952 0.836493 0.406079
O O4 0.677727 0.668216 0.400682
O O5 0.250000 0.884890 0.250000
O O6 0.227787 0.922461 0.335695
O O7 0.227088 0.752333 0.304369
O O8 0.000000 0.860042 0.293531
O O9 0.790181 0.654360 0.543627
O O10 0.761011 0.842070 0.540610
O O11 0.000000 0.755110 0.511740
O O12 0.231369 0.500000 0.500000
O O13 0.255595 0.499354 0.586443
O O14 0.000000 0.531225 0.547782
O O15 0.000000 0.951507 0.387029
O O16 0.265666 0.006613 0.414906
O O17 0.500000 0.455977 0.629696
O O18 0.761277 0.418443 0.665906
O O19 0.750000 0.379117 0.750000
O O20 0.500000 0.356456 0.794047
O O21 0.500000 0.070677 0.457756
O O22 0.278316 0.000000 0.500000
#
# Coordination Sequence:
#
# PCOD9415877 Si02
#       8
#     8   8   8   8   8   8   8   8
#     4  11  21  31  47  73 105 138 173 213 254 300
#     4   9  19  32  49  74 102 134 169 208 253 303
#     4  11  22  36  54  73  99 137 177 217 257 300
#     4  10  21  36  53  75 102 135 176 216 257 306
#     4  11  21  34  52  75 101 137 179 211 252 305
#     4  11  22  33  50  76 105 141 178 211 257 310
#     4  10  19  33  51  74 105 138 173 213 258 306
#     4  11  23  36  51  75 104 135 173 214 259 305
#
# _framework density 15.8734
#
# number of rings (size 3 to 8) (size 9 to 14) (size 15 to 20)
#    0.000    1.500    3.750    2.250    0.000    4.250 
#    0.000    0.000    0.000    0.000    0.000    0.875 
#    0.000    4.000    0.000    0.000    0.000    0.000 
#
# Total GULP energy -357224.655673 kJ/mol
# GULP energy per Si atom -5581.635245 kJ/mol
# Density = 1.583727 g / cm^3
# Si number density = 15.873400 Si / 1000 Ang^3
#
#
#
# Elastic Constant Matrix: (Units=GPa)
#
#
# Indices 1 2 3 4 5 6 
#
# 1 33.2419 25.8360 35.5215 0.0000 0.0000 0.0000
# 2 25.8360 68.4488 39.1703 0.0000 0.0000 0.0000
# 3 35.5215 39.1703 128.3347 0.0000 0.0000 0.0000
# 4 0.0000 0.0000 0.0000 18.9645 0.0000 0.0000
# 5 0.0000 0.0000 0.0000 0.0000 28.1800 0.0000
# 6 0.0000 0.0000 0.0000 0.0000 0.0000 20.3914
#
#
#
# Elastic Compliance Matrix: (Units=1/GPa)
#
#
# Indices 1 2 3 4 5 6 
#
# 1 0.051466 -0.013660 -0.010076 0.000000 0.000000 0.000000
# 2 -0.013660 0.021327 -0.002728 0.000000 0.000000 0.000000
# 3 -0.010076 -0.002728 0.011414 0.000000 0.000000 0.000000
# 4 0.000000 0.000000 0.000000 0.052730 0.000000 0.000000
# 5 0.000000 0.000000 0.000000 0.000000 0.035486 0.000000
# 6 0.000000 0.000000 0.000000 0.000000 0.000000 0.049040
#
#
# Mechanical properties :
#
#
# Convention : Reuss Voigt Hill
#
# Bulk Modulus (GPa) = 31.97126 47.89790 39.93458
# Shear Modulus (GPa) = 17.55509 22.14036 19.84773
#
# Velocity S-wave (km/s) = 3.32918 3.73877 3.53990
# Velocity P-wave (km/s) = 5.91296 6.99130 6.47462
#
# Compressibility (1/GPa) = 0.03127810
#
# Stress axis : x y z
#
# Youngs Moduli (GPa) = 19.43029 46.88948 87.61326
#
# Poissons Ratio (x) = 0.64050 0.88279
# Poissons Ratio (y) = 0.26542 0.23905
# Poissons Ratio (z) = 0.19578 0.12794
#
# Static dielectric constant tensor:
#      x y z
#    x 1.539140 0.000000 0.000000 
#    y 0.000000 1.527080 0.000000 
#    z 0.000000 0.000000 1.525680 
# 
# From -- ./inp_files/38465.got.cif
#   From: 2010.05.17/outbox.cif.g08.bks.cpg/sg53_20_cif.got.tgz:38465.got - 2010.06.03 12:45:16.
