data_PCOD9415154
_publ_section_title
;
Structure prediction by ZEFSAII (Michael W. Deem and Ramdas Pophale) SiO2 
 PCOD9415154
Probable space group: P M N A
;
_chemical_formula_sum "Si O2"
_cell_formula_units_Z 48
_cell_length_a 32.812805
_cell_length_b 8.519729
_cell_length_c 7.878778
_cell_angle_alpha 90.000000
_cell_angle_beta 90.000000
_cell_angle_gamma 90.000000
_cell_volume 2202.561288
_symmetry_space_group_name_H-M "P M N A"
_symmetry_group_IT_number 53
_symmetry_cell_setting 'orthorhombic'
loop_
_space_group_symop_operation_xyz
x,y,z
1/2-x,-y,1/2+z
x,-y,-z
1/2-x,y,1/2-z
-x,-y,-z
1/2+x,y,1/2-z
-x,y,z
1/2+x,-y,1/2+z
loop_
_atom_site_type_symbol
_atom_site_label
_atom_site_fract_x
_atom_site_fract_y
_atom_site_fract_z
Si Si1 0.241937 0.682342 0.991041
Si Si2 0.452682 0.504668 0.292721
Si Si3 0.313732 0.202385 0.178047
Si Si4 0.091988 0.816519 0.781489
Si Si5 0.407595 0.175559 0.694014
Si Si6 0.683113 0.892324 0.325983
O O1 0.212616 0.724380 0.831178
O O2 0.289329 0.728131 0.978418
O O3 0.240357 0.500000 0.000000
O O4 0.217270 0.769622 0.134862
O O5 0.450365 0.500000 0.500000
O O6 0.500000 0.512949 0.244955
O O7 0.433767 0.338275 0.230861
O O8 0.430409 0.668138 0.241419
O O9 0.361999 0.214233 0.212026
O O10 0.304324 0.019182 0.189649
O O11 0.080037 0.999522 0.739352
O O12 0.089736 0.820485 0.987757
O O13 0.359408 0.184030 0.725886
O O14 0.675941 0.000000 0.500000
#
# Coordination Sequence:
#
# PCOD9415154 Si02
#       6
#     8   8   8   8   8   8
#     4  10  19  29  48  72  95 117 164 216 240 278
#     4   9  18  25  37  63  91 122 159 198 235 282
#     4   9  18  32  45  66  93 127 164 198 246 293
#     4   9  15  27  44  57  88 122 155 196 233 285
#     4   9  14  25  43  60  79 121 162 192 226 278
#     4   9  15  30  48  61  86 128 161 197 239 280
#
# _framework density 21.792811
#
# number of rings (size 3 to 8) (size 9 to 14) (size 15 to 20)
#    0.000    2.833    5.000    0.000    2.333    0.667 
#    0.000   13.333    0.000    0.000    0.000    0.000 
#    0.000    0.667    0.000    6.000    0.000    0.500 
#
# Total GULP energy -267425.299479 kJ/mol
# GULP energy per Si atom -5571.360406 kJ/mol
# Density = 2.174321 g / cm^3
# Si number density = 21.792811 Si / 1000 Ang^3
#
#
#
# Elastic Constant Matrix: (Units=GPa)
#
#
# Indices 1 2 3 4 5 6 
#
# 1 139.8153 147.6128 19.1396 0.0000 0.0000 0.0000
# 2 147.6128 226.3602 23.1707 0.0000 0.0000 0.0000
# 3 19.1396 23.1707 40.5008 0.0000 0.0000 0.0000
# 4 0.0000 0.0000 0.0000 -8.9022 0.0000 0.0000
# 5 0.0000 0.0000 0.0000 0.0000 23.5364 0.0000
# 6 0.0000 0.0000 0.0000 0.0000 0.0000 55.5194
#
#
#
# Elastic Compliance Matrix: (Units=1/GPa)
#
#
# Indices 1 2 3 4 5 6 
#
# 1 0.023186 -0.014869 -0.002450 0.000000 0.000000 0.000000
# 2 -0.014869 0.014228 -0.001113 0.000000 0.000000 0.000000
# 3 -0.002450 -0.001113 0.026486 0.000000 0.000000 0.000000
# 4 0.000000 0.000000 0.000000 -0.112332 0.000000 0.000000
# 5 0.000000 0.000000 0.000000 0.000000 0.042487 0.000000
# 6 0.000000 0.000000 0.000000 0.000000 0.000000 0.018012
#
#
# Mechanical properties :
#
#
# Convention : Reuss Voigt Hill
#
# Bulk Modulus (GPa) = 36.98993 87.39139 62.19066
# Shear Modulus (GPa) = 86.28897 28.48093 57.38495
#
# Velocity S-wave (km/s) = 6.29929 3.61902 5.13704
# Velocity P-wave (km/s) = 8.36173 7.59284 7.98654
#
# Compressibility (1/GPa) = 0.02703438
#
# Stress axis : x y z
#
# Youngs Moduli (GPa) = 43.12903 70.28329 37.75617
#
# Poissons Ratio (x) = 1.04506 0.09252
# Poissons Ratio (y) = 0.64130 0.04203
# Poissons Ratio (z) = 0.10569 0.07824
#
# Static dielectric constant tensor:
#      x y z
#    x 1.760430 0.000000 0.000000 
#    y 0.000000 1.706440 0.000000 
#    z 0.000000 0.000000 1.508750 
# 
# From -- ./inp_files/18957.got.cif
#   From: 2010.05.17/outbox.cif.g08.bks.cpg/sg53_10_cif.got.tgz:18957.got - 2010.06.03 12:45:16.
