data_PCOD9415015
_publ_section_title
;
Structure prediction by ZEFSAII (Michael W. Deem and Ramdas Pophale) SiO2 
 PCOD9415015
Probable space group: P M N A
;
_chemical_formula_sum "Si O2"
_cell_formula_units_Z 40
_cell_length_a 7.854303
_cell_length_b 14.133827
_cell_length_c 19.541153
_cell_angle_alpha 90.000000
_cell_angle_beta 90.000000
_cell_angle_gamma 90.000000
_cell_volume 2169.289967
_symmetry_space_group_name_H-M "P M N A"
_symmetry_group_IT_number 53
_symmetry_cell_setting 'orthorhombic'
loop_
_space_group_symop_operation_xyz
x,y,z
1/2-x,-y,1/2+z
x,-y,-z
1/2-x,y,1/2-z
-x,-y,-z
1/2+x,y,1/2-z
-x,y,z
1/2+x,-y,1/2+z
loop_
_atom_site_type_symbol
_atom_site_label
_atom_site_fract_x
_atom_site_fract_y
_atom_site_fract_z
Si Si1 0.000000 0.974686 0.161556
Si Si2 0.000000 0.163620 0.955613
Si Si3 0.250000 0.149980 0.750000
Si Si4 0.796604 0.471322 0.670415
Si Si5 0.294911 0.316128 0.169261
Si Si6 0.000000 0.182932 0.116054
Si Si7 0.305964 0.727271 0.116831
O O1 0.849616 0.923687 0.202329
O O2 0.000000 0.935740 0.084341
O O3 0.000000 0.086970 0.160544
O O4 0.168536 0.218200 0.928741
O O5 0.000000 0.157647 0.036422
O O6 0.183168 0.221640 0.691379
O O7 0.750000 0.461099 0.750000
O O8 0.746140 0.576480 0.647258
O O9 0.739002 0.379377 0.629263
O O10 0.000000 0.469023 0.666790
O O11 0.250000 0.310659 0.250000
O O12 0.500000 0.302223 0.160332
O O13 0.170013 0.242763 0.132736
O O14 0.500000 0.726383 0.089035
#
# Coordination Sequence:
#
# PCOD9415015 Si02
#       7
#     4   4   4   8   8   4   8
#     4  10  23  38  62  88 122 142 206 252 305 346
#     4  10  25  41  58  85 117 169 200 240 285 380
#     4  10  18  34  60  96 116 142 188 258 302 354
#     4   9  18  29  54  90 122 148 187 244 306 350
#     4  10  21  38  59  90 119 151 201 252 292 353
#     4  12  25  43  62  77 124 168 201 239 303 340
#     4  10  19  35  60  89 126 150 189 241 307 349
#
# _framework density 18.439214
#
# number of rings (size 3 to 8) (size 9 to 14) (size 15 to 20)
#    0.000    2.000    3.000    0.300    4.200    0.800 
#    0.000    2.000    0.000    7.200    0.000    0.000 
#    0.000    0.000    0.000    0.000    0.000    0.000 
#
# Total GULP energy -222695.584608 kJ/mol
# GULP energy per Si atom -5567.389615 kJ/mol
# Density = 1.839725 g / cm^3
# Si number density = 18.439214 Si / 1000 Ang^3
#
#
#
# Elastic Constant Matrix: (Units=GPa)
#
#
# Indices 1 2 3 4 5 6 
#
# 1 84.7330 47.7817 21.8793 0.0000 0.0000 0.0000
# 2 47.7817 136.6999 24.2399 0.0000 0.0000 0.0000
# 3 21.8793 24.2399 59.5858 0.0000 0.0000 0.0000
# 4 0.0000 0.0000 0.0000 17.3044 0.0000 0.0000
# 5 0.0000 0.0000 0.0000 0.0000 17.5646 0.0000
# 6 0.0000 0.0000 0.0000 0.0000 0.0000 8.5323
#
#
#
# Elastic Compliance Matrix: (Units=1/GPa)
#
#
# Indices 1 2 3 4 5 6 
#
# 1 0.015437 -0.004732 -0.003743 0.000000 0.000000 0.000000
# 2 -0.004732 0.009335 -0.002060 0.000000 0.000000 0.000000
# 3 -0.003743 -0.002060 0.018995 0.000000 0.000000 0.000000
# 4 0.000000 0.000000 0.000000 0.057789 0.000000 0.000000
# 5 0.000000 0.000000 0.000000 0.000000 0.056933 0.000000
# 6 0.000000 0.000000 0.000000 0.000000 0.000000 0.117202
#
#
# Mechanical properties :
#
#
# Convention : Reuss Voigt Hill
#
# Bulk Modulus (GPa) = 44.06021 52.09117 48.07569
# Shear Modulus (GPa) = 16.42980 21.15477 18.79228
#
# Velocity S-wave (km/s) = 2.98824 3.39081 3.19587
# Velocity P-wave (km/s) = 5.98772 6.60619 6.30454
#
# Compressibility (1/GPa) = 0.02269621
#
# Stress axis : x y z
#
# Youngs Moduli (GPa) = 64.78058 107.12892 52.64561
#
# Poissons Ratio (x) = 0.50693 0.19706
# Poissons Ratio (y) = 0.30654 0.10844
# Poissons Ratio (z) = 0.24249 0.22067
#
# Static dielectric constant tensor:
#      x y z
#    x 1.672730 0.000000 0.000000 
#    y 0.000000 1.647390 0.000000 
#    z 0.000000 0.000000 1.596770 
# 
# From -- ./inp_files/25917.got.cif
#   From: 2010.05.17/outbox.cif.g08.bks.cpg/sg53_13_cif.got.tgz:25917.got - 2010.06.03 12:45:16.
