data_PCOD9415879
_publ_section_title
;
Structure prediction by ZEFSAII (Michael W. Deem and Ramdas Pophale) SiO2 
 PCOD9415879
Probable space group: P M N A
;
_chemical_formula_sum "Si O2"
_cell_formula_units_Z 64
_cell_length_a 8.707978
_cell_length_b 18.709269
_cell_length_c 23.616614
_cell_angle_alpha 90.000000
_cell_angle_beta 90.000000
_cell_angle_gamma 90.000000
_cell_volume 3847.616458
_symmetry_space_group_name_H-M "P M N A"
_symmetry_group_IT_number 53
_symmetry_cell_setting 'orthorhombic'
loop_
_space_group_symop_operation_xyz
x,y,z
1/2-x,-y,1/2+z
x,-y,-z
1/2-x,y,1/2-z
-x,-y,-z
1/2+x,y,1/2-z
-x,y,z
1/2+x,-y,1/2+z
loop_
_atom_site_type_symbol
_atom_site_label
_atom_site_fract_x
_atom_site_fract_y
_atom_site_fract_z
Si Si1 0.184597 0.081220 0.313528
Si Si2 0.682839 0.632245 0.612300
Si Si3 0.315052 0.760981 0.814000
Si Si4 0.815975 0.506308 0.688147
Si Si5 0.685181 0.583732 0.003495
Si Si6 0.184705 0.926745 0.314134
Si Si7 0.182479 0.779093 0.186370
Si Si8 0.315574 0.359240 0.871909
O O1 0.250000 0.080843 0.250000
O O2 0.228509 0.159313 0.336399
O O3 0.000000 0.080649 0.310381
O O4 0.228668 0.004346 0.339970
O O5 0.500000 0.633431 0.614906
O O6 0.749763 0.700098 0.645632
O O7 0.746360 0.562093 0.644044
O O8 0.739833 0.626423 0.547941
O O9 0.250000 0.753018 0.750000
O O10 0.500000 0.755768 0.811370
O O11 0.750000 0.521127 0.750000
O O12 0.777306 0.425958 0.668773
O O13 0.000000 0.513634 0.687928
O O14 0.500000 0.585939 0.997406
O O15 0.724662 0.616513 0.064484
O O16 0.730542 0.500000 0.000000
O O17 0.250000 0.928364 0.250000
O O18 0.253479 0.853862 0.338522
O O19 0.000000 0.921153 0.312645
O O20 0.250000 0.770452 0.250000
O O21 0.234270 0.711956 0.149305
O O22 0.000000 0.783054 0.190743
O O23 0.500000 0.348872 0.869577
#
# Coordination Sequence:
#
# PCOD9415879 Si02
#       8
#     8   8   8   8   8   8   8   8
#     4   8  15  26  44  69  97 132 169 206 246 295
#     4  12  24  36  52  76 103 134 170 209 253 300
#     4  10  19  33  51  74 106 139 172 211 256 303
#     4  11  22  37  54  75 101 133 168 206 252 305
#     4  10  20  40  62  78  95 125 167 214 261 305
#     4   9  15  26  44  68  99 133 170 205 245 295
#     4  11  21  32  48  73 107 140 172 206 249 299
#     4  10  21  37  57  76  98 128 166 209 257 303
#
# _framework density 16.633673999999999
#
# number of rings (size 3 to 8) (size 9 to 14) (size 15 to 20)
#    0.000    1.875    1.250    4.875    0.000    3.750 
#    0.000    0.000    0.000    0.000    0.000    0.875 
#    0.000    7.000    0.000    0.000    0.000    0.000 
#
# Total GULP energy -356955.561072 kJ/mol
# GULP energy per Si atom -5577.430642 kJ/mol
# Density = 1.659582 g / cm^3
# Si number density = 16.633674 Si / 1000 Ang^3
#
#
#
# Elastic Constant Matrix: (Units=GPa)
#
#
# Indices 1 2 3 4 5 6 
#
# 1 57.1278 40.1848 18.5302 0.0000 0.0000 0.0000
# 2 40.1848 131.5550 18.3877 0.0000 0.0000 0.0000
# 3 18.5302 18.3877 47.5850 0.0000 0.0000 0.0000
# 4 0.0000 0.0000 0.0000 3.0638 0.0000 0.0000
# 5 0.0000 0.0000 0.0000 0.0000 21.4255 0.0000
# 6 0.0000 0.0000 0.0000 0.0000 0.0000 8.9042
#
#
#
# Elastic Compliance Matrix: (Units=1/GPa)
#
#
# Indices 1 2 3 4 5 6 
#
# 1 0.024302 -0.006449 -0.006972 0.000000 0.000000 0.000000
# 2 -0.006449 0.009747 -0.001255 0.000000 0.000000 0.000000
# 3 -0.006972 -0.001255 0.024215 0.000000 0.000000 0.000000
# 4 0.000000 0.000000 0.000000 0.326393 0.000000 0.000000
# 5 0.000000 0.000000 0.000000 0.000000 0.046673 0.000000
# 6 0.000000 0.000000 0.000000 0.000000 0.000000 0.112307
#
#
# Mechanical properties :
#
#
# Convention : Reuss Voigt Hill
#
# Bulk Modulus (GPa) = 34.58692 43.38590 38.98641
# Shear Modulus (GPa) = 8.58183 17.28969 12.93576
#
# Velocity S-wave (km/s) = 2.27388 3.22753 2.79173
# Velocity P-wave (km/s) = 5.26616 6.32685 5.82072
#
# Compressibility (1/GPa) = 0.02891266
#
# Stress axis : x y z
#
# Youngs Moduli (GPa) = 41.14840 102.59901 41.29696
#
# Poissons Ratio (x) = 0.66165 0.28791
# Poissons Ratio (y) = 0.26536 0.05183
# Poissons Ratio (z) = 0.28687 0.12876
#
# Static dielectric constant tensor:
#      x y z
#    x 1.554180 0.000000 0.000000 
#    y 0.000000 1.603860 0.000000 
#    z 0.000000 0.000000 1.517960 
# 
# From -- ./inp_files/31148.got.cif
#   From: 2010.05.17/outbox.cif.g08.bks.cpg/sg53_16_cif.got.tgz:31148.got - 2010.06.03 12:45:16.
