data_PCOD9415524
_publ_section_title
;
Structure prediction by ZEFSAII (Michael W. Deem and Ramdas Pophale) SiO2 
 PCOD9415524
Probable space group: P M N A
;
_chemical_formula_sum "Si O2"
_cell_formula_units_Z 60
_cell_length_a 14.518673
_cell_length_b 35.249688
_cell_length_c 5.376862
_cell_angle_alpha 90.000000
_cell_angle_beta 90.000000
_cell_angle_gamma 90.000000
_cell_volume 2751.763409
_symmetry_space_group_name_H-M "P M N A"
_symmetry_group_IT_number 53
_symmetry_cell_setting 'orthorhombic'
loop_
_space_group_symop_operation_xyz
x,y,z
1/2-x,-y,1/2+z
x,-y,-z
1/2-x,y,1/2-z
-x,-y,-z
1/2+x,y,1/2-z
-x,y,z
1/2+x,-y,1/2+z
loop_
_atom_site_type_symbol
_atom_site_label
_atom_site_fract_x
_atom_site_fract_y
_atom_site_fract_z
Si Si1 0.387772 0.792993 0.500895
Si Si2 0.112611 0.542574 0.063428
Si Si3 0.609387 0.164962 0.998769
Si Si4 0.646180 0.295190 0.501780
Si Si5 0.187341 0.000000 0.500000
Si Si6 0.353726 0.327621 0.001996
Si Si7 0.188409 0.917683 0.500102
Si Si8 0.112067 0.584905 0.563358
O O1 0.500000 0.791570 0.501337
O O2 0.357258 0.815551 0.255133
O O3 0.353441 0.750002 0.494234
O O4 0.357140 0.814445 0.750961
O O5 0.140900 0.557913 0.334043
O O6 0.000000 0.542042 0.066503
O O7 0.143275 0.500000 0.000000
O O8 0.140403 0.569493 0.833943
O O9 0.500000 0.169981 0.998748
O O10 0.629821 0.120406 0.001712
O O11 0.749979 0.311392 0.500000
O O12 0.602677 0.312260 0.749700
O O13 0.602422 0.310564 0.249614
O O14 0.138490 0.041061 0.500406
O O15 0.250000 1.000000 0.750000
O O16 0.353423 0.372776 0.014814
O O17 0.250000 0.916438 0.250000
O O18 0.250000 0.916669 0.750000
O O19 0.000000 0.586107 0.562085
#
# Coordination Sequence:
#
# PCOD9415524 Si02
#       8
#     8   8   8   8   4   8   8   8
#     4  10  21  38  58  77 105 143 178 223 283 338
#     4   9  17  30  49  77 111 140 171 213 254 298
#     4  10  21  38  56  81 115 144 178 232 289 335
#     4  10  21  38  53  74  99 135 177 216 270 318
#     4   8  16  30  53  74 115 146 184 232 272 322
#     4  10  21  36  52  76 105 137 173 220 272 300
#     4  10  19  35  54  86 110 150 192 230 276 327
#     4  10  19  31  51  79 107 138 174 210 255 311
#
# _framework density 21.804202
#
# number of rings (size 3 to 8) (size 9 to 14) (size 15 to 20)
#    0.000    2.267    0.000    2.800    0.000    2.667 
#   14.400    0.333    0.000    0.000    0.000   45.733 
#    0.000    0.000    0.000    0.000    0.000    0.800 
#
# Total GULP energy -335219.343345 kJ/mol
# GULP energy per Si atom -5586.989056 kJ/mol
# Density = 2.175457 g / cm^3
# Si number density = 21.804202 Si / 1000 Ang^3
#
#
#
# Elastic Constant Matrix: (Units=GPa)
#
#
# Indices 1 2 3 4 5 6 
#
# 1 63.5357 -5.5153 2.1726 0.0000 0.0000 0.0000
# 2 -5.5153 167.8750 54.2164 0.0000 0.0000 0.0000
# 3 2.1726 54.2164 200.1053 0.0000 0.0000 0.0000
# 4 0.0000 0.0000 0.0000 44.9183 0.0000 0.0000
# 5 0.0000 0.0000 0.0000 0.0000 -13.0621 0.0000
# 6 0.0000 0.0000 0.0000 0.0000 0.0000 35.9678
#
#
#
# Elastic Compliance Matrix: (Units=1/GPa)
#
#
# Indices 1 2 3 4 5 6 
#
# 1 0.015806 0.000630 -0.000342 0.000000 0.000000 0.000000
# 2 0.000630 0.006553 -0.001782 0.000000 0.000000 0.000000
# 3 -0.000342 -0.001782 0.005484 0.000000 0.000000 0.000000
# 4 0.000000 0.000000 0.000000 0.022263 0.000000 0.000000
# 5 0.000000 0.000000 0.000000 0.000000 -0.076557 0.000000
# 6 0.000000 0.000000 0.000000 0.000000 0.000000 0.027803
#
#
# Mechanical properties :
#
#
# Convention : Reuss Voigt Hill
#
# Bulk Modulus (GPa) = 40.23641 59.25149 49.74395
# Shear Modulus (GPa) = 396.05125 38.94095 217.49610
#
# Velocity S-wave (km/s) = 13.49200 4.23062 9.99831
# Velocity P-wave (km/s) = 16.16186 7.14825 12.49607
#
# Compressibility (1/GPa) = 0.02485311
#
# Stress axis : x y z
#
# Youngs Moduli (GPa) = 63.26886 152.59905 182.34904
#
# Poissons Ratio (x) = -0.09611 0.06241
# Poissons Ratio (y) = -0.03985 0.32501
# Poissons Ratio (z) = 0.02165 0.27198
#
# Static dielectric constant tensor:
#      x y z
#    x 1.969850 0.000000 0.000000 
#    y 0.000000 1.751270 0.000000 
#    z 0.000000 0.000000 1.812110 
# 
# From -- ./inp_files/2281.got.cif
#   From: 2010.05.17/outbox.cif.g08.bks.cpg/sg53_2_cif.got.tgz:2281.got - 2010.06.03 12:45:16.
