data_PCOD9415749
_publ_section_title
;
Structure prediction by ZEFSAII (Michael W. Deem and Ramdas Pophale) SiO2 
 PCOD9415749
Probable space group: P M N A
;
_chemical_formula_sum "Si O2"
_cell_formula_units_Z 56
_cell_length_a 8.727596
_cell_length_b 20.223227
_cell_length_c 18.956763
_cell_angle_alpha 90.000000
_cell_angle_beta 90.000000
_cell_angle_gamma 90.000000
_cell_volume 3345.871609
_symmetry_space_group_name_H-M "P M N A"
_symmetry_group_IT_number 53
_symmetry_cell_setting 'orthorhombic'
loop_
_space_group_symop_operation_xyz
x,y,z
1/2-x,-y,1/2+z
x,-y,-z
1/2-x,y,1/2-z
-x,-y,-z
1/2+x,y,1/2-z
-x,y,z
1/2+x,-y,1/2+z
loop_
_atom_site_type_symbol
_atom_site_label
_atom_site_fract_x
_atom_site_fract_y
_atom_site_fract_z
Si Si1 0.684680 0.849970 0.030668
Si Si2 0.314985 0.300083 0.964715
Si Si3 0.824333 0.954577 0.929621
Si Si4 0.682733 0.365192 0.824316
Si Si5 0.315951 0.482970 0.173580
Si Si6 0.184895 0.064123 0.669495
Si Si7 0.682857 0.430769 0.463680
O O1 0.500000 0.851950 0.031541
O O2 0.735833 0.774310 0.020239
O O3 0.730712 0.882033 0.107484
O O4 0.741631 0.891052 0.962866
O O5 0.500000 0.302418 0.970865
O O6 0.270637 0.315319 0.884348
O O7 0.249774 0.363016 0.005870
O O8 0.000000 0.940936 0.909151
O O9 0.741936 0.995395 0.867081
O O10 0.826920 0.000000 0.000000
O O11 0.750000 0.346569 0.750000
O O12 0.500000 0.366175 0.819771
O O13 0.730040 0.440509 0.841684
O O14 0.250000 0.467662 0.250000
O O15 0.500000 0.478507 0.171736
O O16 0.238831 0.437487 0.115962
O O17 0.250000 0.073063 0.750000
O O18 0.000000 0.064636 0.674147
O O19 0.737571 0.500000 0.500000
O O20 0.500000 0.429291 0.469683
#
# Coordination Sequence:
#
# PCOD9415749 Si02
#       7
#     8   8   8   8   8   8   8
#     4   9  19  34  52  74 105 142 177 213 256 311
#     4  10  20  35  52  73 102 140 179 214 263 317
#     4   9  17  31  52  76 102 134 173 212 250 295
#     4   9  18  30  46  68  96 130 167 206 252 308
#     4  10  19  33  53  74  98 128 165 212 266 317
#     4  10  19  32  52  80 111 141 175 212 252 298
#     4  11  22  34  51  76 103 132 176 228 271 313
#
# _framework density 16.737044000000001
#
# number of rings (size 3 to 8) (size 9 to 14) (size 15 to 20)
#    0.000    2.286    1.429    1.714    0.000    5.143 
#    0.000    0.000    0.000    0.857    0.000    0.000 
#    0.000    0.000    0.000    0.000    0.000    0.000 
#
# Total GULP energy -311823.840315 kJ/mol
# GULP energy per Si atom -5568.282863 kJ/mol
# Density = 1.669895 g / cm^3
# Si number density = 16.737044 Si / 1000 Ang^3
#
#
#
# Elastic Constant Matrix: (Units=GPa)
#
#
# Indices 1 2 3 4 5 6 
#
# 1 26.7632 34.6647 18.3354 0.0000 0.0000 0.0000
# 2 34.6647 130.2350 56.4018 0.0000 0.0000 0.0000
# 3 18.3354 56.4018 54.1622 0.0000 0.0000 0.0000
# 4 0.0000 0.0000 0.0000 17.1078 0.0000 0.0000
# 5 0.0000 0.0000 0.0000 0.0000 28.9493 0.0000
# 6 0.0000 0.0000 0.0000 0.0000 0.0000 18.6790
#
#
#
# Elastic Compliance Matrix: (Units=1/GPa)
#
#
# Indices 1 2 3 4 5 6 
#
# 1 0.058258 -0.012687 -0.006510 0.000000 0.000000 0.000000
# 2 -0.012687 0.016749 -0.013146 0.000000 0.000000 0.000000
# 3 -0.006510 -0.013146 0.034357 0.000000 0.000000 0.000000
# 4 0.000000 0.000000 0.000000 0.058453 0.000000 0.000000
# 5 0.000000 0.000000 0.000000 0.000000 0.034543 0.000000
# 6 0.000000 0.000000 0.000000 0.000000 0.000000 0.053536
#
#
# Mechanical properties :
#
#
# Convention : Reuss Voigt Hill
#
# Bulk Modulus (GPa) = 22.38332 47.77378 35.07855
# Shear Modulus (GPa) = 14.90427 19.73113 17.31770
#
# Velocity S-wave (km/s) = 2.98735 3.43722 3.22015
# Velocity P-wave (km/s) = 5.03007 6.66021 5.90169
#
# Compressibility (1/GPa) = 0.04467612
#
# Stress axis : x y z
#
# Youngs Moduli (GPa) = 17.16515 59.70604 29.10627
#
# Poissons Ratio (x) = 0.75749 0.18949
# Poissons Ratio (y) = 0.21777 0.38264
# Poissons Ratio (z) = 0.11175 0.78492
#
# Static dielectric constant tensor:
#      x y z
#    x 1.573680 0.000000 0.000000 
#    y 0.000000 1.590540 0.000000 
#    z 0.000000 0.000000 1.566510 
# 
# From -- ./inp_files/26644.got.cif
#   From: 2010.05.17/outbox.cif.g08.bks.cpg/sg53_14_cif.got.tgz:26644.got - 2010.06.03 12:45:16.
