data_PCOD9415095
_publ_section_title
;
Structure prediction by ZEFSAII (Michael W. Deem and Ramdas Pophale) SiO2 
 PCOD9415095
Probable space group: P M N A
;
_chemical_formula_sum "Si O2"
_cell_formula_units_Z 64
_cell_length_a 7.294928
_cell_length_b 18.400517
_cell_length_c 23.221522
_cell_angle_alpha 90.000000
_cell_angle_beta 90.000000
_cell_angle_gamma 90.000000
_cell_volume 3117.035271
_symmetry_space_group_name_H-M "P M N A"
_symmetry_group_IT_number 53
_symmetry_cell_setting 'orthorhombic'
loop_
_space_group_symop_operation_xyz
x,y,z
1/2-x,-y,1/2+z
x,-y,-z
1/2-x,y,1/2-z
-x,-y,-z
1/2+x,y,1/2-z
-x,y,z
1/2+x,-y,1/2+z
loop_
_atom_site_type_symbol
_atom_site_label
_atom_site_fract_x
_atom_site_fract_y
_atom_site_fract_z
Si Si1 0.717825 0.430206 0.685092
Si Si2 0.788288 0.989704 0.069420
Si Si3 0.275522 0.851270 0.583289
Si Si4 0.224065 0.832867 0.049610
Si Si5 0.223376 0.409743 0.153194
Si Si6 0.722649 0.579493 0.520993
Si Si7 0.723671 0.677000 0.415035
Si Si8 0.781925 0.252673 0.186040
O O1 0.750000 0.405435 0.750000
O O2 0.500000 0.434713 0.675486
O O3 0.787854 0.512841 0.677660
O O4 0.786741 0.373601 0.637482
O O5 0.711028 0.908948 0.076961
O O6 0.000000 0.986807 0.088381
O O7 0.712887 0.065445 0.093350
O O8 0.787319 0.000000 0.000000
O O9 0.500000 0.852116 0.583263
O O10 0.222885 0.829208 0.518074
O O11 0.214263 0.796816 0.633317
O O12 0.281107 0.760602 0.082875
O O13 0.000000 0.835403 0.049405
O O14 0.277098 0.406150 0.086199
O O15 0.287898 0.335688 0.182782
O O16 0.000000 0.410571 0.156163
O O17 0.781349 0.500000 0.500000
O O18 0.500000 0.579033 0.521009
O O19 0.779549 0.638825 0.474625
O O20 0.500000 0.677080 0.413893
O O21 0.750000 0.222807 0.250000
O O22 0.000000 0.256751 0.177823
#
# Coordination Sequence:
#
# PCOD9415095 Si02
#       8
#     8   8   8   8   8   8   8   8
#     4  10  19  30  42  57  78 106 138 167 195 230
#     4   7  10  17  31  52  79 105 122 144 190 247
#     4   8  13  22  36  56  82 107 128 157 202 247
#     4   8  12  19  34  58  83 102 124 161 209 251
#     4   9  16  26  40  59  82 105 131 166 206 242
#     4   9  13  20  35  57  82 101 121 161 212 247
#     4   9  15  22  35  57  81 101 126 164 206 240
#     4  10  19  29  41  58  82 111 142 170 196 234
#
# _framework density 20.532330999999999
#
# number of rings (size 3 to 8) (size 9 to 14) (size 15 to 20)
#    0.000    3.250    1.250    2.625    0.000    3.000 
#    0.000    0.000    0.000    0.750    0.000    5.250 
#    0.000    4.500    0.000    0.000    0.000    0.000 
#
# Total GULP energy -356984.143807 kJ/mol
# GULP energy per Si atom -5577.877247 kJ/mol
# Density = 2.048560 g / cm^3
# Si number density = 20.532331 Si / 1000 Ang^3
#
#
#
# Elastic Constant Matrix: (Units=GPa)
#
#
# Indices 1 2 3 4 5 6 
#
# 1 85.4764 8.6654 -3.0785 0.0000 0.0000 0.0000
# 2 8.6654 168.8423 51.9649 0.0000 0.0000 0.0000
# 3 -3.0785 51.9649 92.9337 0.0000 0.0000 0.0000
# 4 0.0000 0.0000 0.0000 13.9426 0.0000 0.0000
# 5 0.0000 0.0000 0.0000 0.0000 1.2084 0.0000
# 6 0.0000 0.0000 0.0000 0.0000 0.0000 -20.6510
#
#
#
# Elastic Compliance Matrix: (Units=1/GPa)
#
#
# Indices 1 2 3 4 5 6 
#
# 1 0.011820 -0.000878 0.000883 0.000000 0.000000 0.000000
# 2 -0.000878 0.007219 -0.004066 0.000000 0.000000 0.000000
# 3 0.000883 -0.004066 0.013063 0.000000 0.000000 0.000000
# 4 0.000000 0.000000 0.000000 0.071722 0.000000 0.000000
# 5 0.000000 0.000000 0.000000 0.000000 0.827544 0.000000
# 6 0.000000 0.000000 0.000000 0.000000 0.000000 -0.048424
#
#
# Mechanical properties :
#
#
# Convention : Reuss Voigt Hill
#
# Bulk Modulus (GPa) = 41.70261 51.37288 46.53774
# Shear Modulus (GPa) = 5.56136 18.21338 11.88737
#
# Velocity S-wave (km/s) = 1.64756 2.98158 2.40877
# Velocity P-wave (km/s) = 4.89633 6.07684 5.51824
#
# Compressibility (1/GPa) = 0.02397932
#
# Stress axis : x y z
#
# Youngs Moduli (GPa) = 84.60260 138.52189 76.55217
#
# Poissons Ratio (x) = 0.12166 -0.06757
# Poissons Ratio (y) = 0.07430 0.31124
# Poissons Ratio (z) = -0.07467 0.56319
#
# Static dielectric constant tensor:
#      x y z
#    x 1.826040 0.000000 0.000000 
#    y 0.000000 1.753670 0.000000 
#    z 0.000000 0.000000 1.674400 
# 
# From -- ./inp_files/32068.got.cif
#   From: 2010.05.17/outbox.cif.g08.bks.cpg/sg53_17_cif.got.tgz:32068.got - 2010.06.03 12:45:16.
