data_PCOD9415826
_publ_section_title
;
Structure prediction by ZEFSAII (Michael W. Deem and Ramdas Pophale) SiO2 
 PCOD9415826
Probable space group: P M N A
;
_chemical_formula_sum "Si O2"
_cell_formula_units_Z 64
_cell_length_a 8.705517
_cell_length_b 21.156006
_cell_length_c 20.123097
_cell_angle_alpha 90.000000
_cell_angle_beta 90.000000
_cell_angle_gamma 90.000000
_cell_volume 3706.150661
_symmetry_space_group_name_H-M "P M N A"
_symmetry_group_IT_number 53
_symmetry_cell_setting 'orthorhombic'
loop_
_space_group_symop_operation_xyz
x,y,z
1/2-x,-y,1/2+z
x,-y,-z
1/2-x,y,1/2-z
-x,-y,-z
1/2+x,y,1/2-z
-x,y,z
1/2+x,-y,1/2+z
loop_
_atom_site_type_symbol
_atom_site_label
_atom_site_fract_x
_atom_site_fract_y
_atom_site_fract_z
Si Si1 0.815286 0.129764 0.680150
Si Si2 0.685336 0.060591 0.045672
Si Si3 0.815628 0.630370 0.180121
Si Si4 0.815722 0.488503 0.319454
Si Si5 0.316612 0.682546 0.461522
Si Si6 0.815131 0.563628 0.539197
Si Si7 0.183250 0.012251 0.180141
Si Si8 0.315081 0.816643 0.038870
O O1 0.750000 0.154489 0.750000
O O2 0.768104 0.168343 0.614904
O O3 0.000000 0.127399 0.683269
O O4 0.752879 0.058334 0.671951
O O5 0.500000 0.060277 0.053806
O O6 0.763252 0.052180 0.116868
O O7 0.730452 0.124309 0.007205
O O8 0.724630 0.000000 0.000000
O O9 0.750000 0.654938 0.250000
O O10 0.752961 0.558888 0.171858
O O11 0.767809 0.668800 0.114867
O O12 0.000000 0.628463 0.183835
O O13 0.750000 0.463481 0.250000
O O14 0.775527 0.447207 0.383707
O O15 0.000000 0.493960 0.315707
O O16 0.500000 0.683383 0.463010
O O17 0.257292 0.625004 0.506223
O O18 0.252103 0.750013 0.483014
O O19 0.767745 0.500000 0.500000
O O20 0.000000 0.568296 0.533667
O O21 0.250000 0.036835 0.250000
O O22 0.000000 0.008080 0.183798
O O23 0.500000 0.813634 0.037883
#
# Coordination Sequence:
#
# PCOD9415826 Si02
#       8
#     8   8   8   8   8   8   8   8
#     4  10  19  34  53  78 109 148 188 226 271 322
#     4  10  19  37  60  82 110 143 185 230 278 330
#     4  10  20  33  50  75 107 145 182 220 265 314
#     4  10  19  32  54  82 109 139 175 222 269 318
#     4  11  24  37  53  79 112 145 183 231 273 318
#     4  10  20  36  58  81 107 143 184 223 270 327
#     4  11  21  33  54  84 114 145 181 227 277 326
#     4  10  22  38  57  77 108 151 185 222 275 333
#
# _framework density 17.268591000000001
#
# number of rings (size 3 to 8) (size 9 to 14) (size 15 to 20)
#    0.000    1.750    2.500    4.125    0.000    5.000 
#    0.000    2.500    0.000    0.750    0.000    3.500 
#    0.000    0.000    0.000    0.000    0.000    0.000 
#
# Total GULP energy -357407.173194 kJ/mol
# GULP energy per Si atom -5584.487081 kJ/mol
# Density = 1.722929 g / cm^3
# Si number density = 17.268591 Si / 1000 Ang^3
#
#
#
# Elastic Constant Matrix: (Units=GPa)
#
#
# Indices 1 2 3 4 5 6 
#
# 1 45.4163 27.9365 36.6897 0.0000 0.0000 0.0000
# 2 27.9365 113.0110 63.9545 0.0000 0.0000 0.0000
# 3 36.6897 63.9545 123.9097 0.0000 0.0000 0.0000
# 4 0.0000 0.0000 0.0000 21.0741 0.0000 0.0000
# 5 0.0000 0.0000 0.0000 0.0000 26.0525 0.0000
# 6 0.0000 0.0000 0.0000 0.0000 0.0000 123.3169
#
#
#
# Elastic Compliance Matrix: (Units=1/GPa)
#
#
# Indices 1 2 3 4 5 6 
#
# 1 0.029815 -0.003354 -0.007097 0.000000 0.000000 0.000000
# 2 -0.003354 0.012877 -0.005653 0.000000 0.000000 0.000000
# 3 -0.007097 -0.005653 0.013090 0.000000 0.000000 0.000000
# 4 0.000000 0.000000 0.000000 0.047452 0.000000 0.000000
# 5 0.000000 0.000000 0.000000 0.000000 0.038384 0.000000
# 6 0.000000 0.000000 0.000000 0.000000 0.000000 0.008109
#
#
# Mechanical properties :
#
#
# Convention : Reuss Voigt Hill
#
# Bulk Modulus (GPa) = 42.42116 59.94425 51.18270
# Shear Modulus (GPa) = 26.34452 44.33914 35.34183
#
# Velocity S-wave (km/s) = 3.91010 5.07266 4.52884
# Velocity P-wave (km/s) = 6.70850 8.31249 7.55319
#
# Compressibility (1/GPa) = 0.02357314
#
# Stress axis : x y z
#
# Youngs Moduli (GPa) = 33.54015 77.65763 76.39605
#
# Poissons Ratio (x) = 0.26046 0.54219
# Poissons Ratio (y) = 0.11249 0.43188
# Poissons Ratio (z) = 0.23804 0.43902
#
# Static dielectric constant tensor:
#      x y z
#    x 1.578830 0.000000 0.000000 
#    y 0.000000 1.560040 0.000000 
#    z 0.000000 0.000000 1.600190 
# 
# From -- ./inp_files/31204.got.cif
#   From: 2010.05.17/outbox.cif.g08.bks.cpg/sg53_16_cif.got.tgz:31204.got - 2010.06.03 12:45:16.
