data_PCOD9415228
_publ_section_title
;
Structure prediction by ZEFSAII (Michael W. Deem and Ramdas Pophale) SiO2 
 PCOD9415228
Probable space group: P M N A
;
_chemical_formula_sum "Si O2"
_cell_formula_units_Z 48
_cell_length_a 8.821500
_cell_length_b 13.110782
_cell_length_c 25.891055
_cell_angle_alpha 90.000000
_cell_angle_beta 90.000000
_cell_angle_gamma 90.000000
_cell_volume 2994.475623
_symmetry_space_group_name_H-M "P M N A"
_symmetry_group_IT_number 53
_symmetry_cell_setting 'orthorhombic'
loop_
_space_group_symop_operation_xyz
x,y,z
1/2-x,-y,1/2+z
x,-y,-z
1/2-x,y,1/2-z
-x,-y,-z
1/2+x,y,1/2-z
-x,y,z
1/2+x,-y,1/2+z
loop_
_atom_site_type_symbol
_atom_site_label
_atom_site_fract_x
_atom_site_fract_y
_atom_site_fract_z
Si Si1 0.317442 0.719775 0.807342
Si Si2 0.683248 0.887435 0.389277
Si Si3 0.181900 0.714699 0.192520
Si Si4 0.681100 0.887561 0.889896
Si Si5 0.326022 0.123745 0.497237
Si Si6 0.818250 0.493599 0.692235
O O1 0.250000 0.731186 0.750000
O O2 0.500000 0.724241 0.802847
O O3 0.267132 0.808431 0.846030
O O4 0.280776 0.606212 0.828821
O O5 0.500000 0.896843 0.391333
O O6 0.723167 0.809216 0.344079
O O7 0.731072 0.845897 0.445915
O O8 0.750561 0.999880 0.381442
O O9 0.250000 0.727528 0.250000
O O10 0.245468 0.608517 0.169322
O O11 0.000000 0.708454 0.196320
O O12 0.500000 0.894607 0.888259
O O13 0.731587 0.849815 0.946642
O O14 0.500000 0.157542 0.490516
O O15 0.327224 0.000000 0.500000
O O16 0.750000 0.496217 0.750000
O O17 0.000000 0.482579 0.694073
#
# Coordination Sequence:
#
# PCOD9415228 Si02
#       6
#     8   8   8   8   8   8
#     4   9  19  32  46  67  94 121 149 184 223 265
#     4   9  19  33  47  65  92 123 151 182 221 266
#     4  10  19  31  47  68  93 119 149 185 224 265
#     4  10  19  30  46  70  95 117 147 187 226 264
#     4   8  15  30  48  64  85 117 154 186 219 261
#     4   9  16  29  47  65  87 116 151 186 220 260
#
# _framework density 16.029517999999999
#
# number of rings (size 3 to 8) (size 9 to 14) (size 15 to 20)
#    0.000    2.833    0.000    3.500    0.000    7.000 
#    0.000    3.333    0.000    1.000    0.000    7.000 
#    0.000    0.000    0.000    0.000    0.000    0.000 
#
# Total GULP energy -267207.353670 kJ/mol
# GULP energy per Si atom -5566.819868 kJ/mol
# Density = 1.599303 g / cm^3
# Si number density = 16.029518 Si / 1000 Ang^3
#
#
#
# Elastic Constant Matrix: (Units=GPa)
#
#
# Indices 1 2 3 4 5 6 
#
# 1 35.4377 37.1289 30.3089 0.0000 0.0000 0.0000
# 2 37.1289 116.2430 73.3857 0.0000 0.0000 0.0000
# 3 30.3089 73.3857 101.6188 0.0000 0.0000 0.0000
# 4 0.0000 0.0000 0.0000 -1.3391 0.0000 0.0000
# 5 0.0000 0.0000 0.0000 0.0000 16.5497 0.0000
# 6 0.0000 0.0000 0.0000 0.0000 0.0000 354.8838
#
#
#
# Elastic Compliance Matrix: (Units=1/GPa)
#
#
# Indices 1 2 3 4 5 6 
#
# 1 0.044004 -0.010604 -0.005467 0.000000 0.000000 0.000000
# 2 -0.010604 0.018367 -0.010101 0.000000 0.000000 0.000000
# 3 -0.005467 -0.010101 0.018766 0.000000 0.000000 0.000000
# 4 0.000000 0.000000 0.000000 -0.746743 0.000000 0.000000
# 5 0.000000 0.000000 0.000000 0.000000 0.060424 0.000000
# 6 0.000000 0.000000 0.000000 0.000000 0.000000 0.002818
#
#
# Mechanical properties :
#
#
# Convention : Reuss Voigt Hill
#
# Bulk Modulus (GPa) = 34.73066 59.43850 47.08458
# Shear Modulus (GPa) = -9.25200 81.51726 36.13263
#
# Velocity S-wave (km/s) = -2.40507 7.13897 4.75292
# Velocity P-wave (km/s) = 3.74182 10.25253 7.71737
#
# Compressibility (1/GPa) = 0.02879300
#
# Stress axis : x y z
#
# Youngs Moduli (GPa) = 22.72503 54.44692 53.28838
#
# Poissons Ratio (x) = 0.57735 0.29132
# Poissons Ratio (y) = 0.24098 0.53826
# Poissons Ratio (z) = 0.12424 0.54996
#
# Static dielectric constant tensor:
#      x y z
#    x 1.540580 0.000000 0.000000 
#    y 0.000000 1.552380 0.000000 
#    z 0.000000 0.000000 1.542210 
# 
# From -- ./inp_files/36165.got.cif
#   From: 2010.05.17/outbox.cif.g08.bks.cpg/sg53_19_cif.got.tgz:36165.got - 2010.06.03 12:45:16.
