data_PCOD9415818
_publ_section_title
;
Structure prediction by ZEFSAII (Michael W. Deem and Ramdas Pophale) SiO2 
 PCOD9415818
Probable space group: P M N A
;
_chemical_formula_sum "Si O2"
_cell_formula_units_Z 48
_cell_length_a 9.072137
_cell_length_b 9.819014
_cell_length_c 31.130224
_cell_angle_alpha 90.000000
_cell_angle_beta 90.000000
_cell_angle_gamma 90.000000
_cell_volume 2773.062928
_symmetry_space_group_name_H-M "P M N A"
_symmetry_group_IT_number 53
_symmetry_cell_setting 'orthorhombic'
loop_
_space_group_symop_operation_xyz
x,y,z
1/2-x,-y,1/2+z
x,-y,-z
1/2-x,y,1/2-z
-x,-y,-z
1/2+x,y,1/2-z
-x,y,z
1/2+x,-y,1/2+z
loop_
_atom_site_type_symbol
_atom_site_label
_atom_site_fract_x
_atom_site_fract_y
_atom_site_fract_z
Si Si1 0.676260 0.195033 0.204111
Si Si2 0.175684 0.650814 0.481752
Si Si3 0.675552 0.303371 0.609755
Si Si4 0.823280 0.401518 0.141322
Si Si5 0.825241 0.973916 0.369522
Si Si6 0.823245 0.215872 0.430355
O O1 0.750000 0.172714 0.250000
O O2 0.500000 0.209685 0.207723
O O3 0.745932 0.327104 0.181142
O O4 0.705765 0.069775 0.171463
O O5 0.209572 0.500000 0.500000
O O6 0.259318 0.679913 0.437990
O O7 0.209832 0.756591 0.520006
O O8 0.000000 0.655544 0.473470
O O9 0.500000 0.295993 0.607285
O O10 0.714188 0.439781 0.636169
O O11 0.739165 0.166263 0.629981
O O12 0.762547 0.323916 0.099100
O O13 0.000000 0.386403 0.143929
O O14 0.000000 0.946532 0.370532
O O15 0.789500 0.067298 0.411201
O O16 0.000000 0.237963 0.424279
#
# Coordination Sequence:
#
# PCOD9415818 Si02
#       6
#     8   8   8   8   8   8
#     4  10  21  39  64  89 109 136 175 219 268 329
#     4  10  19  32  54  78 105 146 192 235 277 321
#     4  11  23  35  51  79 114 148 184 227 274 320
#     4  10  20  34  54  80 110 143 178 221 269 318
#     4   9  20  37  56  78 109 146 182 221 271 327
#     4   9  18  34  54  78 104 141 191 233 271 319
#
# _framework density 17.309380000000001
#
# number of rings (size 3 to 8) (size 9 to 14) (size 15 to 20)
#    0.000    2.167    1.667    2.500    0.000    7.000 
#    0.000    4.167    0.000    2.000    0.000    0.000 
#    0.000    0.000    0.000    0.000    0.000    0.000 
#
# Total GULP energy -267900.232851 kJ/mol
# GULP energy per Si atom -5581.254851 kJ/mol
# Density = 1.726998 g / cm^3
# Si number density = 17.309380 Si / 1000 Ang^3
#
#
#
# Elastic Constant Matrix: (Units=GPa)
#
#
# Indices 1 2 3 4 5 6 
#
# 1 54.9762 64.4097 46.4544 0.0000 0.0000 0.0000
# 2 64.4097 130.4382 49.5739 0.0000 0.0000 0.0000
# 3 46.4544 49.5739 90.0893 0.0000 0.0000 0.0000
# 4 0.0000 0.0000 0.0000 11.2640 0.0000 0.0000
# 5 0.0000 0.0000 0.0000 0.0000 28.1203 0.0000
# 6 0.0000 0.0000 0.0000 0.0000 0.0000 25.9333
#
#
#
# Elastic Compliance Matrix: (Units=1/GPa)
#
#
# Indices 1 2 3 4 5 6 
#
# 1 0.061001 -0.022971 -0.018814 0.000000 0.000000 0.000000
# 2 -0.022971 0.018344 0.001751 0.000000 0.000000 0.000000
# 3 -0.018814 0.001751 0.019838 0.000000 0.000000 0.000000
# 4 0.000000 0.000000 0.000000 0.088778 0.000000 0.000000
# 5 0.000000 0.000000 0.000000 0.000000 0.035562 0.000000
# 6 0.000000 0.000000 0.000000 0.000000 0.000000 0.038561
#
#
# Mechanical properties :
#
#
# Convention : Reuss Voigt Hill
#
# Bulk Modulus (GPa) = 52.31942 66.26442 59.29192
# Shear Modulus (GPa) = 14.34618 20.73454 17.54036
#
# Velocity S-wave (km/s) = 2.88203 3.46479 3.18676
# Velocity P-wave (km/s) = 6.43168 7.37373 6.91875
#
# Compressibility (1/GPa) = 0.01911336
#
# Stress axis : x y z
#
# Youngs Moduli (GPa) = 16.39323 54.51316 50.40751
#
# Poissons Ratio (x) = 1.25224 0.94839
# Poissons Ratio (y) = 0.37657 -0.08825
# Poissons Ratio (z) = 0.30843 -0.09544
#
# Static dielectric constant tensor:
#      x y z
#    x 1.573800 0.000000 0.000000 
#    y 0.000000 1.586820 0.000000 
#    z 0.000000 0.000000 1.569280 
# 
# From -- ./inp_files/37745.got.cif
#   From: 2010.05.17/outbox.cif.g08.bks.cpg/sg53_19_cif.got.tgz:37745.got - 2010.06.03 12:45:16.
