data_PCOD9415514
_publ_section_title
;
Structure prediction by ZEFSAII (Michael W. Deem and Ramdas Pophale) SiO2 
 PCOD9415514
Probable space group: P M N A
;
_chemical_formula_sum "Si O2"
_cell_formula_units_Z 64
_cell_length_a 18.015612
_cell_length_b 21.784999
_cell_length_c 8.297734
_cell_angle_alpha 90.000000
_cell_angle_beta 90.000000
_cell_angle_gamma 90.000000
_cell_volume 3256.612405
_symmetry_space_group_name_H-M "P M N A"
_symmetry_group_IT_number 53
_symmetry_cell_setting 'orthorhombic'
loop_
_space_group_symop_operation_xyz
x,y,z
1/2-x,-y,1/2+z
x,-y,-z
1/2-x,y,1/2-z
-x,-y,-z
1/2+x,y,1/2-z
-x,y,z
1/2+x,-y,1/2+z
loop_
_atom_site_type_symbol
_atom_site_label
_atom_site_fract_x
_atom_site_fract_y
_atom_site_fract_z
Si Si1 0.411980 0.500228 0.181736
Si Si2 0.585507 0.874603 0.695562
Si Si3 0.334919 0.620904 0.310145
Si Si4 0.835176 0.754705 0.198579
Si Si5 0.165901 0.001259 0.194762
Si Si6 0.588576 0.630427 0.649304
Si Si7 0.914957 0.877637 0.198491
Si Si8 0.834200 0.750854 0.808151
O O1 0.500000 0.511856 0.185112
O O2 0.373718 0.557970 0.262645
O O3 0.401149 0.433072 0.256073
O O4 0.384708 0.500000 0.000000
O O5 0.500000 0.868905 0.744310
O O6 0.586805 0.875865 0.498444
O O7 0.632291 0.815523 0.750333
O O8 0.620276 0.939037 0.749649
O O9 0.250000 0.617595 0.250000
O O10 0.362761 0.687402 0.244630
O O11 0.355358 0.625549 0.498481
O O12 0.750000 0.761488 0.250000
O O13 0.881267 0.813195 0.255665
O O14 0.836545 0.754467 0.003457
O O15 0.250000 0.006810 0.250000
O O16 0.131199 0.936968 0.251621
O O17 0.163371 0.000000 0.000000
O O18 0.500000 0.635276 0.605827
O O19 0.614934 0.692415 0.738382
O O20 0.000000 0.884117 0.247421
O O21 0.750000 0.742619 0.750000
#
# Coordination Sequence:
#
# PCOD9415514 Si02
#       8
#     8   8   8   8   8   8   8   8
#     4  10  22  38  56  80 111 145 180 222 273 329
#     4   9  17  31  51  76 104 135 178 222 259 310
#     4  10  21  35  55  82 107 138 182 230 277 324
#     4   9  19  34  51  74 104 136 170 214 267 319
#     4  10  19  31  51  76 103 137 172 214 265 312
#     4  10  21  38  59  81 109 149 190 226 273 334
#     4   9  17  30  51  77 101 132 177 221 257 305
#     4  10  20  33  54  80 107 139 178 226 273 317
#
# _framework density 19.652324
#
# number of rings (size 3 to 8) (size 9 to 14) (size 15 to 20)
#    0.000    2.375    0.000    2.250    0.000   10.500 
#    0.000    0.000    0.000    4.500    0.000    0.000 
#    0.000    0.000    0.000    0.000    0.000    0.000 
#
# Total GULP energy -356803.049075 kJ/mol
# GULP energy per Si atom -5575.047642 kJ/mol
# Density = 1.960759 g / cm^3
# Si number density = 19.652324 Si / 1000 Ang^3
#
#
#
# Elastic Constant Matrix: (Units=GPa)
#
#
# Indices 1 2 3 4 5 6 
#
# 1 75.0522 46.3719 6.1179 0.0000 0.0000 0.0000
# 2 46.3719 160.2370 15.9495 0.0000 0.0000 0.0000
# 3 6.1179 15.9495 9.4832 0.0000 0.0000 0.0000
# 4 0.0000 0.0000 0.0000 -3.1924 0.0000 0.0000
# 5 0.0000 0.0000 0.0000 0.0000 23.4800 0.0000
# 6 0.0000 0.0000 0.0000 0.0000 0.0000 45.0811
#
#
#
# Elastic Compliance Matrix: (Units=1/GPa)
#
#
# Indices 1 2 3 4 5 6 
#
# 1 0.016301 -0.004409 -0.003101 0.000000 0.000000 0.000000
# 2 -0.004409 0.008688 -0.011768 0.000000 0.000000 0.000000
# 3 -0.003101 -0.011768 0.127241 0.000000 0.000000 0.000000
# 4 0.000000 0.000000 0.000000 -0.313239 0.000000 0.000000
# 5 0.000000 0.000000 0.000000 0.000000 0.042589 0.000000
# 6 0.000000 0.000000 0.000000 0.000000 0.000000 0.022182
#
#
# Mechanical properties :
#
#
# Convention : Reuss Voigt Hill
#
# Bulk Modulus (GPa) = 8.79703 42.40567 25.60135
# Shear Modulus (GPa) = -252.64801 24.82927 -113.90937
#
# Velocity S-wave (km/s) = -11.35068 3.55833 -7.62156
# Velocity P-wave (km/s) = 12.93437 6.20540 8.02468
#
# Compressibility (1/GPa) = 0.11367478
#
# Stress axis : x y z
#
# Youngs Moduli (GPa) = 61.34653 115.10215 7.85908
#
# Poissons Ratio (x) = 0.50745 0.02437
# Poissons Ratio (y) = 0.27046 0.09248
# Poissons Ratio (z) = 0.19025 1.35449
#
# Static dielectric constant tensor:
#      x y z
#    x 1.659060 0.000000 0.000000 
#    y 0.000000 1.745850 0.000000 
#    z 0.000000 0.000000 1.796920 
# 
# From -- ./inp_files/10253.got.cif
#   From: 2010.05.17/outbox.cif.g08.bks.cpg/sg53_6_cif.got.tgz:10253.got - 2010.06.03 12:45:16.
