data_PCOD9415771
_publ_section_title
;
Structure prediction by ZEFSAII (Michael W. Deem and Ramdas Pophale) SiO2 
 PCOD9415771
Probable space group: P M N A
;
_chemical_formula_sum "Si O2"
_cell_formula_units_Z 48
_cell_length_a 15.044170
_cell_length_b 15.858060
_cell_length_c 9.465645
_cell_angle_alpha 90.000000
_cell_angle_beta 90.000000
_cell_angle_gamma 90.000000
_cell_volume 2258.231711
_symmetry_space_group_name_H-M "P M N A"
_symmetry_group_IT_number 53
_symmetry_cell_setting 'orthorhombic'
loop_
_space_group_symop_operation_xyz
x,y,z
1/2-x,-y,1/2+z
x,-y,-z
1/2-x,y,1/2-z
-x,-y,-z
1/2+x,y,1/2-z
-x,y,z
1/2+x,-y,1/2+z
loop_
_atom_site_type_symbol
_atom_site_label
_atom_site_fract_x
_atom_site_fract_y
_atom_site_fract_z
Si Si1 0.602966 0.660498 0.150105
Si Si2 0.397275 0.806602 0.625281
Si Si3 0.108824 0.660252 0.667684
Si Si4 0.658094 0.010132 0.333063
Si Si5 0.349558 0.826610 0.307664
Si Si6 0.608761 0.507336 0.338968
O O1 0.500000 0.635853 0.130595
O O2 0.605809 0.752092 0.220694
O O3 0.640202 0.591170 0.258125
O O4 0.642782 0.661387 0.993003
O O5 0.500000 0.785316 0.594704
O O6 0.362439 0.740169 0.739091
O O7 0.392449 0.901952 0.683319
O O8 0.350036 0.804510 0.473623
O O9 0.132869 0.574514 0.747793
O O10 0.000000 0.664388 0.663225
O O11 0.750000 0.017958 0.250000
O O12 0.676634 0.000000 0.500000
O O13 0.612356 0.921534 0.291261
O O14 0.250000 0.831267 0.250000
O O15 0.640568 0.500000 0.500000
O O16 0.500000 0.509732 0.345725
#
# Coordination Sequence:
#
# PCOD9415771 Si02
#       6
#     8   8   8   8   8   8
#     4  10  19  32  53  78 106 139 176 223 271 319
#     4  10  20  35  57  83 110 143 187 235 277 327
#     4   9  18  31  49  79 110 134 170 219 272 324
#     4   9  20  36  55  77 105 143 183 225 275 332
#     4  10  21  36  53  76 106 141 180 223 273 331
#     4   9  16  28  50  78 105 136 174 217 267 323
#
# _framework density 21.255569000000001
#
# number of rings (size 3 to 8) (size 9 to 14) (size 15 to 20)
#    0.000    2.500    0.000    2.000    0.000   12.333 
#    0.000    0.000    0.000   10.500    0.000    0.000 
#    0.000    0.000    0.000    0.000    0.000    0.000 
#
# Total GULP energy -267932.265725 kJ/mol
# GULP energy per Si atom -5581.922203 kJ/mol
# Density = 2.120719 g / cm^3
# Si number density = 21.255569 Si / 1000 Ang^3
#
#
#
# Elastic Constant Matrix: (Units=GPa)
#
#
# Indices 1 2 3 4 5 6 
#
# 1 37.7238 8.1797 17.7684 0.0000 0.0000 0.0000
# 2 8.1797 130.5823 99.8337 0.0000 0.0000 0.0000
# 3 17.7684 99.8337 164.2831 0.0000 0.0000 0.0000
# 4 0.0000 0.0000 0.0000 25.1106 0.0000 0.0000
# 5 0.0000 0.0000 0.0000 0.0000 20.9149 0.0000
# 6 0.0000 0.0000 0.0000 0.0000 0.0000 19.5881
#
#
#
# Elastic Compliance Matrix: (Units=1/GPa)
#
#
# Indices 1 2 3 4 5 6 
#
# 1 0.028008 0.001049 -0.003667 0.000000 0.000000 0.000000
# 2 0.001049 0.014343 -0.008829 0.000000 0.000000 0.000000
# 3 -0.003667 -0.008829 0.011849 0.000000 0.000000 0.000000
# 4 0.000000 0.000000 0.000000 0.039824 0.000000 0.000000
# 5 0.000000 0.000000 0.000000 0.000000 0.047813 0.000000
# 6 0.000000 0.000000 0.000000 0.000000 0.000000 0.051051
#
#
# Mechanical properties :
#
#
# Convention : Reuss Voigt Hill
#
# Bulk Modulus (GPa) = 31.94328 64.90587 48.42457
# Shear Modulus (GPa) = 22.10265 26.90989 24.50627
#
# Velocity S-wave (km/s) = 3.22817 3.56197 3.39917
# Velocity P-wave (km/s) = 5.38104 6.89341 6.18364
#
# Compressibility (1/GPa) = 0.03130549
#
# Stress axis : x y z
#
# Youngs Moduli (GPa) = 35.70402 69.72253 84.39431
#
# Poissons Ratio (x) = -0.07313 0.30944
# Poissons Ratio (y) = -0.03745 0.74514
# Poissons Ratio (z) = 0.13091 0.61560
#
# Static dielectric constant tensor:
#      x y z
#    x 1.832810 0.000000 0.000000 
#    y 0.000000 1.777740 0.000000 
#    z 0.000000 0.000000 1.733290 
# 
# From -- ./inp_files/10015.got.cif
#   From: 2010.05.17/outbox.cif.g08.bks.cpg/sg53_6_cif.got.tgz:10015.got - 2010.06.03 12:45:16.
