data_PCOD9415553
_publ_section_title
;
Structure prediction by ZEFSAII (Michael W. Deem and Ramdas Pophale) SiO2 
 PCOD9415553
Probable space group: P M N A
;
_chemical_formula_sum "Si O2"
_cell_formula_units_Z 44
_cell_length_a 31.241056
_cell_length_b 9.003143
_cell_length_c 7.166975
_cell_angle_alpha 90.000000
_cell_angle_beta 90.000000
_cell_angle_gamma 90.000000
_cell_volume 2015.838536
_symmetry_space_group_name_H-M "P M N A"
_symmetry_group_IT_number 53
_symmetry_cell_setting 'orthorhombic'
loop_
_space_group_symop_operation_xyz
x,y,z
1/2-x,-y,1/2+z
x,-y,-z
1/2-x,y,1/2-z
-x,-y,-z
1/2+x,y,1/2-z
-x,y,z
1/2+x,-y,1/2+z
loop_
_atom_site_type_symbol
_atom_site_label
_atom_site_fract_x
_atom_site_fract_y
_atom_site_fract_z
Si Si1 0.318814 0.000000 0.500000
Si Si2 0.099144 0.000000 0.500000
Si Si3 0.452044 0.725366 0.147222
Si Si4 0.634033 0.229997 0.293019
Si Si5 0.716436 0.663242 0.915851
Si Si6 0.250000 0.127416 0.750000
Si Si7 0.450711 0.404429 0.274506
O O1 0.345734 0.148765 0.470620
O O2 0.287773 0.025376 0.673393
O O3 0.073626 0.877316 0.377263
O O4 0.124004 0.902840 0.649493
O O5 0.500000 0.766336 0.203276
O O6 0.440280 0.580684 0.270017
O O7 0.452729 0.656112 0.938470
O O8 0.669590 0.322813 0.179693
O O9 0.590588 0.315331 0.346149
O O10 0.750000 0.684644 0.750000
O O11 0.720634 0.500000 0.000000
O O12 0.729609 0.775042 0.082756
O O13 0.500000 0.383001 0.345134
#
# Coordination Sequence:
#
# PCOD9415553 Si02
#       7
#     4   4   8   8   8   4   8
#     4  12  24  43  67  92 133 183 229 276 353 416
#     4  10  19  31  54  94 125 161 216 284 336 396
#     4   8  14  27  51  84 124 167 214 273 334 395
#     4  11  23  38  62  95 130 175 229 275 343 413
#     4  12  25  45  70 102 137 178 227 284 348 417
#     4  12  24  46  70  94 140 178 226 290 352 420
#     4   8  16  32  55  85 126 173 219 274 335 401
#
# _framework density 21.827144000000001
#
# number of rings (size 3 to 8) (size 9 to 14) (size 15 to 20)
#    0.000    1.818    2.727    3.545    5.091    0.727 
#    0.000    0.455    0.000    0.000    0.000    3.818 
#    0.000    0.000    0.000    0.000    0.000    0.000 
#
# Total GULP energy -245578.084872 kJ/mol
# GULP energy per Si atom -5581.320111 kJ/mol
# Density = 2.177746 g / cm^3
# Si number density = 21.827144 Si / 1000 Ang^3
#
#
#
# Elastic Constant Matrix: (Units=GPa)
#
#
# Indices 1 2 3 4 5 6 
#
# 1 142.5659 65.9112 46.7114 0.0000 0.0000 0.0000
# 2 65.9112 99.5799 26.7459 0.0000 0.0000 0.0000
# 3 46.7114 26.7459 73.0474 0.0000 0.0000 0.0000
# 4 0.0000 0.0000 0.0000 30.7980 0.0000 0.0000
# 5 0.0000 0.0000 0.0000 0.0000 14.6208 0.0000
# 6 0.0000 0.0000 0.0000 0.0000 0.0000 -9.5034
#
#
#
# Elastic Compliance Matrix: (Units=1/GPa)
#
#
# Indices 1 2 3 4 5 6 
#
# 1 0.011606 -0.006309 -0.005112 0.000000 0.000000 0.000000
# 2 -0.006309 0.014567 -0.001299 0.000000 0.000000 0.000000
# 3 -0.005112 -0.001299 0.017434 0.000000 0.000000 0.000000
# 4 0.000000 0.000000 0.000000 0.032470 0.000000 0.000000
# 5 0.000000 0.000000 0.000000 0.000000 0.068396 0.000000
# 6 0.000000 0.000000 0.000000 0.000000 0.000000 -0.105225
#
#
# Mechanical properties :
#
#
# Convention : Reuss Voigt Hill
#
# Bulk Modulus (GPa) = 55.04356 65.99226 60.51791
# Shear Modulus (GPa) = 70.67890 18.90472 44.79181
#
# Velocity S-wave (km/s) = 5.69662 2.94617 4.53494
# Velocity P-wave (km/s) = 8.27897 6.47093 7.43015
#
# Compressibility (1/GPa) = 0.01816743
#
# Stress axis : x y z
#
# Youngs Moduli (GPa) = 86.16355 68.64837 57.35871
#
# Poissons Ratio (x) = 0.43310 0.29319
# Poissons Ratio (y) = 0.54360 0.07453
# Poissons Ratio (z) = 0.44043 0.08919
#
# Static dielectric constant tensor:
#      x y z
#    x 1.796330 0.000000 0.000000 
#    y 0.000000 1.800720 0.000000 
#    z 0.000000 0.000000 1.459590 
# 
# From -- ./inp_files/12937.got.cif
#   From: 2010.05.17/outbox.cif.g08.bks.cpg/sg53_7_cif.got.tgz:12937.got - 2010.06.03 12:45:16.
