data_PCOD9415874
_publ_section_title
;
Structure prediction by ZEFSAII (Michael W. Deem and Ramdas Pophale) SiO2 
 PCOD9415874
Probable space group: P M N A
;
_chemical_formula_sum "Si O2"
_cell_formula_units_Z 64
_cell_length_a 7.613866
_cell_length_b 22.798060
_cell_length_c 19.359558
_cell_angle_alpha 90.000000
_cell_angle_beta 90.000000
_cell_angle_gamma 90.000000
_cell_volume 3360.458676
_symmetry_space_group_name_H-M "P M N A"
_symmetry_group_IT_number 53
_symmetry_cell_setting 'orthorhombic'
loop_
_space_group_symop_operation_xyz
x,y,z
1/2-x,-y,1/2+z
x,-y,-z
1/2-x,y,1/2-z
-x,-y,-z
1/2+x,y,1/2-z
-x,y,z
1/2+x,-y,1/2+z
loop_
_atom_site_type_symbol
_atom_site_label
_atom_site_fract_x
_atom_site_fract_y
_atom_site_fract_z
Si Si1 0.784072 0.201571 0.467447
Si Si2 0.289131 0.139684 0.172900
Si Si3 0.203586 0.680409 0.464617
Si Si4 0.791800 0.087722 0.539830
Si Si5 0.208305 0.976359 0.609227
Si Si6 0.297826 0.560204 0.531926
Si Si7 0.211001 0.624611 0.327964
Si Si8 0.290966 0.490083 0.171972
O O1 0.727271 0.180112 0.391045
O O2 0.722842 0.265441 0.491690
O O3 0.725595 0.152788 0.523718
O O4 0.000000 0.200541 0.465567
O O5 0.250000 0.160537 0.250000
O O6 0.500000 0.136591 0.166156
O O7 0.220302 0.072821 0.161287
O O8 0.210429 0.619406 0.506070
O O9 0.280632 0.665420 0.389229
O O10 0.000000 0.695911 0.452892
O O11 0.777585 0.055737 0.465294
O O12 0.000000 0.093161 0.554227
O O13 0.718182 0.041752 0.596090
O O14 0.000000 0.983352 0.623650
O O15 0.220936 0.500000 0.500000
O O16 0.500000 0.563756 0.509228
O O17 0.287937 0.551103 0.613690
O O18 0.250000 0.643615 0.250000
O O19 0.275429 0.557327 0.336540
O O20 0.000000 0.621680 0.334831
O O21 0.250000 0.472169 0.250000
O O22 0.500000 0.490373 0.162483
#
# Coordination Sequence:
#
# PCOD9415874 Si02
#       8
#     8   8   8   8   8   8   8   8
#     4   8  15  27  45  67  91 119 161 205 239 276
#     4   9  16  27  43  66  93 125 160 198 238 277
#     4  10  19  33  51  72  95 124 161 202 246 292
#     4   7   9  17  35  61  86 107 135 184 232 265
#     4   7  10  17  34  60  87 108 137 181 230 266
#     4  11  22  34  50  73  99 127 160 201 247 294
#     4   9  18  30  48  71  93 116 145 183 235 292
#     4  10  19  33  52  74  99 125 154 192 241 298
#
# _framework density 19.045020000000001
#
# number of rings (size 3 to 8) (size 9 to 14) (size 15 to 20)
#    0.000    3.125    1.250    3.000    0.000    1.500 
#    0.000    1.250    0.000    2.250    0.000    7.875 
#    0.000    0.000    0.000    0.000    0.000    0.000 
#
# Total GULP energy -356291.753698 kJ/mol
# GULP energy per Si atom -5567.058652 kJ/mol
# Density = 1.900167 g / cm^3
# Si number density = 19.045020 Si / 1000 Ang^3
#
#
#
# Elastic Constant Matrix: (Units=GPa)
#
#
# Indices 1 2 3 4 5 6 
#
# 1 39.5916 -0.3123 -1.6095 0.0000 0.0000 0.0000
# 2 -0.3123 125.4357 67.0706 0.0000 0.0000 0.0000
# 3 -1.6095 67.0706 121.1525 0.0000 0.0000 0.0000
# 4 0.0000 0.0000 0.0000 22.1658 0.0000 0.0000
# 5 0.0000 0.0000 0.0000 0.0000 10.3138 0.0000
# 6 0.0000 0.0000 0.0000 0.0000 0.0000 3.8343
#
#
#
# Elastic Compliance Matrix: (Units=1/GPa)
#
#
# Indices 1 2 3 4 5 6 
#
# 1 0.025274 -0.000166 0.000427 0.000000 0.000000 0.000000
# 2 -0.000166 0.011325 -0.006272 0.000000 0.000000 0.000000
# 3 0.000427 -0.006272 0.011732 0.000000 0.000000 0.000000
# 4 0.000000 0.000000 0.000000 0.045115 0.000000 0.000000
# 5 0.000000 0.000000 0.000000 0.000000 0.096957 0.000000
# 6 0.000000 0.000000 0.000000 0.000000 0.000000 0.260802
#
#
# Mechanical properties :
#
#
# Convention : Reuss Voigt Hill
#
# Bulk Modulus (GPa) = 27.53990 46.27528 36.90759
# Shear Modulus (GPa) = 10.51902 21.99818 16.25860
#
# Velocity S-wave (km/s) = 2.35271 3.40231 2.92497
# Velocity P-wave (km/s) = 4.67676 6.30752 5.55234
#
# Compressibility (1/GPa) = 0.03631095
#
# Stress axis : x y z
#
# Youngs Moduli (GPa) = 39.56644 88.29653 85.23716
#
# Poissons Ratio (x) = 0.01463 -0.03644
# Poissons Ratio (y) = 0.00655 0.53461
# Poissons Ratio (z) = -0.01691 0.55380
#
# Static dielectric constant tensor:
#      x y z
#    x 1.737140 0.000000 0.000000 
#    y 0.000000 1.691370 0.000000 
#    z 0.000000 0.000000 1.672840 
# 
# From -- ./inp_files/27041.got.cif
#   From: 2010.05.17/outbox.cif.g08.bks.cpg/sg53_14_cif.got.tgz:27041.got - 2010.06.03 12:45:16.
