data_PCOD9415511
_publ_section_title
;
Structure prediction by ZEFSAII (Michael W. Deem and Ramdas Pophale) SiO2 
 PCOD9415511
Probable space group: P M N A
;
_chemical_formula_sum "Si O2"
_cell_formula_units_Z 28
_cell_length_a 33.289454
_cell_length_b 7.001419
_cell_length_c 5.212977
_cell_angle_alpha 90.000000
_cell_angle_beta 90.000000
_cell_angle_gamma 90.000000
_cell_volume 1215.006356
_symmetry_space_group_name_H-M "P M N A"
_symmetry_group_IT_number 53
_symmetry_cell_setting 'orthorhombic'
loop_
_space_group_symop_operation_xyz
x,y,z
1/2-x,-y,1/2+z
x,-y,-z
1/2-x,y,1/2-z
-x,-y,-z
1/2+x,y,1/2-z
-x,y,z
1/2+x,-y,1/2+z
loop_
_atom_site_type_symbol
_atom_site_label
_atom_site_fract_x
_atom_site_fract_y
_atom_site_fract_z
Si Si1 0.918461 0.781445 0.438529
Si Si2 0.337086 0.365069 0.750280
Si Si3 0.954639 0.772350 0.940611
Si Si4 0.750000 0.635286 0.250000
O O1 0.874903 0.769229 0.306794
O O2 0.923506 0.700904 0.725222
O O3 0.929213 0.000000 0.500000
O O4 0.947627 0.693078 0.225427
O O5 0.341545 0.500000 0.500000
O O6 0.293344 0.263063 0.738754
O O7 0.336331 0.500000 0.000000
O O8 0.000000 0.741831 0.849661
O O9 0.949737 0.000000 0.000000
O O10 0.750263 0.500000 0.500000
#
# Coordination Sequence:
#
# PCOD9415511 Si02
#       4
#     8   8   8   4
#     4  10  19  31  51  76 100 126 163 210 252 291
#     4  10  19  33  53  74  99 131 168 205 247 300
#     4   9  17  30  49  72  97 129 168 204 240 292
#     4   8  16  30  50  72  92 124 166 200 230 288
#
# _framework density 23.045148000000001
#
# number of rings (size 3 to 8) (size 9 to 14) (size 15 to 20)
#    0.000    2.571    0.000    2.571    0.000    3.429 
#    0.000    0.000    0.000   32.571    0.000    0.000 
#    0.000    0.000    0.000    0.000    0.000    0.000 
#
# Total GULP energy -155981.005705 kJ/mol
# GULP energy per Si atom -5570.750204 kJ/mol
# Density = 2.299270 g / cm^3
# Si number density = 23.045148 Si / 1000 Ang^3
#
#
#
# Elastic Constant Matrix: (Units=GPa)
#
#
# Indices 1 2 3 4 5 6 
#
# 1 112.9645 -37.1963 57.6165 0.0000 0.0000 0.0000
# 2 -37.1963 36.3856 11.5724 0.0000 0.0000 0.0000
# 3 57.6165 11.5724 194.7722 0.0000 0.0000 0.0000
# 4 0.0000 0.0000 0.0000 4.8835 0.0000 0.0000
# 5 0.0000 0.0000 0.0000 0.0000 29.6625 0.0000
# 6 0.0000 0.0000 0.0000 0.0000 0.0000 17.2534
#
#
#
# Elastic Compliance Matrix: (Units=1/GPa)
#
#
# Indices 1 2 3 4 5 6 
#
# 1 0.020120 0.022894 -0.007312 0.000000 0.000000 0.000000
# 2 0.022894 0.054063 -0.009985 0.000000 0.000000 0.000000
# 3 -0.007312 -0.009985 0.007890 0.000000 0.000000 0.000000
# 4 0.000000 0.000000 0.000000 0.204773 0.000000 0.000000
# 5 0.000000 0.000000 0.000000 0.000000 0.033713 0.000000
# 6 0.000000 0.000000 0.000000 0.000000 0.000000 0.057960
#
#
# Mechanical properties :
#
#
# Convention : Reuss Voigt Hill
#
# Bulk Modulus (GPa) = 10.72166 45.34528 28.03347
# Shear Modulus (GPa) = 12.54975 31.16851 21.85913
#
# Velocity S-wave (km/s) = 2.33614 3.68162 3.08317
# Velocity P-wave (km/s) = 3.45533 6.14751 4.98654
#
# Compressibility (1/GPa) = 0.09326912
#
# Stress axis : x y z
#
# Youngs Moduli (GPa) = 49.70094 18.49681 126.73487
#
# Poissons Ratio (x) = -0.42347 0.92671
# Poissons Ratio (y) = -1.13787 1.26540
# Poissons Ratio (z) = 0.36342 0.18468
#
# Static dielectric constant tensor:
#      x y z
#    x 1.921830 0.000000 0.000000 
#    y 0.000000 1.895490 0.000000 
#    z 0.000000 0.000000 1.904810 
# 
# From -- ./inp_files/4858.got.cif
#   From: 2010.05.17/outbox.cif.g08.bks.cpg/sg53_3_cif.got.tgz:4858.got - 2010.06.03 12:45:16.
