data_PCOD9415435
_publ_section_title
;
Structure prediction by ZEFSAII (Michael W. Deem and Ramdas Pophale) SiO2 
 PCOD9415435
Probable space group: P M N A
;
_chemical_formula_sum "Si O2"
_cell_formula_units_Z 48
_cell_length_a 8.983997
_cell_length_b 18.809067
_cell_length_c 15.511719
_cell_angle_alpha 90.000000
_cell_angle_beta 90.000000
_cell_angle_gamma 90.000000
_cell_volume 2621.179607
_symmetry_space_group_name_H-M "P M N A"
_symmetry_group_IT_number 53
_symmetry_cell_setting 'orthorhombic'
loop_
_space_group_symop_operation_xyz
x,y,z
1/2-x,-y,1/2+z
x,-y,-z
1/2-x,y,1/2-z
-x,-y,-z
1/2+x,y,1/2-z
-x,y,z
1/2+x,-y,1/2+z
loop_
_atom_site_type_symbol
_atom_site_label
_atom_site_fract_x
_atom_site_fract_y
_atom_site_fract_z
Si Si1 0.820933 0.165861 0.973890
Si Si2 0.669530 0.968926 0.097545
Si Si3 0.681390 0.326081 0.518212
Si Si4 0.321039 0.393324 0.341345
Si Si5 0.823020 0.106786 0.163226
Si Si6 0.820773 0.441428 0.841871
O O1 0.743769 0.107921 0.913046
O O2 0.000000 0.159336 0.965333
O O3 0.774265 0.246614 0.956208
O O4 0.785343 0.147511 0.074192
O O5 0.500000 0.965082 0.129284
O O6 0.763461 0.026487 0.150117
O O7 0.666343 0.000000 0.000000
O O8 0.500000 0.327030 0.517243
O O9 0.729174 0.345843 0.421548
O O10 0.729440 0.386907 0.584659
O O11 0.250000 0.374249 0.250000
O O12 0.500000 0.388468 0.334242
O O13 0.284029 0.476109 0.360988
O O14 0.750000 0.136838 0.250000
O O15 0.000000 0.106934 0.172154
O O16 0.750000 0.423410 0.750000
O O17 0.000000 0.437280 0.835936
#
# Coordination Sequence:
#
# PCOD9415435 Si02
#       6
#     8   8   8   8   8   8
#     4   9  18  32  49  69  95 127 160 195 238 290
#     4   9  17  31  50  69  90 118 153 191 230 275
#     4   9  17  31  51  72  97 134 172 201 241 300
#     4   9  17  30  49  73  99 129 167 208 248 292
#     4  10  19  31  49  72  96 123 157 196 238 286
#     4   9  17  31  51  72  95 126 167 212 251 291
#
# _framework density 18.312366000000001
#
# number of rings (size 3 to 8) (size 9 to 14) (size 15 to 20)
#    0.000    2.833    0.000    1.500    0.000    5.333 
#    0.000    3.333    0.000    6.000    0.000    0.000 
#    0.000    0.000    0.000    0.000    0.000    0.000 
#
# Total GULP energy -267623.123165 kJ/mol
# GULP energy per Si atom -5575.481733 kJ/mol
# Density = 1.827069 g / cm^3
# Si number density = 18.312366 Si / 1000 Ang^3
#
#
#
# Elastic Constant Matrix: (Units=GPa)
#
#
# Indices 1 2 3 4 5 6 
#
# 1 15.9005 0.1957 0.3989 0.0000 0.0000 0.0000
# 2 0.1957 51.5915 -0.8808 0.0000 0.0000 0.0000
# 3 0.3989 -0.8808 16.0445 0.0000 0.0000 0.0000
# 4 0.0000 0.0000 0.0000 9.4664 0.0000 0.0000
# 5 0.0000 0.0000 0.0000 0.0000 27.7460 0.0000
# 6 0.0000 0.0000 0.0000 0.0000 0.0000 -72.8198
#
#
#
# Elastic Compliance Matrix: (Units=1/GPa)
#
#
# Indices 1 2 3 4 5 6 
#
# 1 0.062934 -0.000266 -0.001579 0.000000 0.000000 0.000000
# 2 -0.000266 0.019402 0.001072 0.000000 0.000000 0.000000
# 3 -0.001579 0.001072 0.062425 0.000000 0.000000 0.000000
# 4 0.000000 0.000000 0.000000 0.105636 0.000000 0.000000
# 5 0.000000 0.000000 0.000000 0.000000 0.036041 0.000000
# 6 0.000000 0.000000 0.000000 0.000000 0.000000 -0.013733
#
#
# Mechanical properties :
#
#
# Convention : Reuss Voigt Hill
#
# Bulk Modulus (GPa) = 6.98250 9.21821 8.10035
# Shear Modulus (GPa) = 15.52843 -1.53327 6.99758
#
# Velocity S-wave (km/s) = 2.91516 -0.91603 1.95692
# Velocity P-wave (km/s) = 3.89258 1.98141 3.08854
#
# Compressibility (1/GPa) = 0.14321514
#
# Stress axis : x y z
#
# Youngs Moduli (GPa) = 15.88969 51.54016 16.01929
#
# Poissons Ratio (x) = 0.01369 0.02530
# Poissons Ratio (y) = 0.00422 -0.01717
# Poissons Ratio (z) = 0.02509 -0.05524
#
# Static dielectric constant tensor:
#      x y z
#    x 1.619970 0.000000 0.000000 
#    y 0.000000 1.629600 0.000000 
#    z 0.000000 0.000000 1.625420 
# 
# From -- ./inp_files/20146.got.cif
#   From: 2010.05.17/outbox.cif.g08.bks.cpg/sg53_11_cif.got.tgz:20146.got - 2010.06.03 12:45:16.
