data_PCOD9415793
_publ_section_title
;
Structure prediction by ZEFSAII (Michael W. Deem and Ramdas Pophale) SiO2 
 PCOD9415793
Probable space group: P M N A
;
_chemical_formula_sum "Si O2"
_cell_formula_units_Z 56
_cell_length_a 8.783721
_cell_length_b 18.489278
_cell_length_c 17.481702
_cell_angle_alpha 90.000000
_cell_angle_beta 90.000000
_cell_angle_gamma 90.000000
_cell_volume 2839.109860
_symmetry_space_group_name_H-M "P M N A"
_symmetry_group_IT_number 53
_symmetry_cell_setting 'orthorhombic'
loop_
_space_group_symop_operation_xyz
x,y,z
1/2-x,-y,1/2+z
x,-y,-z
1/2-x,y,1/2-z
-x,-y,-z
1/2+x,y,1/2-z
-x,y,z
1/2+x,-y,1/2+z
loop_
_atom_site_type_symbol
_atom_site_label
_atom_site_fract_x
_atom_site_fract_y
_atom_site_fract_z
Si Si1 0.818414 0.486212 0.327932
Si Si2 0.320699 0.346570 0.397573
Si Si3 0.817901 0.895900 0.163902
Si Si4 0.681625 0.201478 0.164115
Si Si5 0.182876 0.053827 0.163729
Si Si6 0.179821 0.387122 0.556098
Si Si7 0.679536 0.749786 0.165818
O O1 0.750000 0.517878 0.250000
O O2 0.743746 0.408574 0.342153
O O3 0.785181 0.539518 0.398447
O O4 0.000000 0.479679 0.321535
O O5 0.500000 0.337599 0.386426
O O6 0.236972 0.271105 0.381941
O O7 0.280419 0.374166 0.482107
O O8 0.750000 0.896550 0.250000
O O9 0.751613 0.822349 0.129383
O O10 0.000000 0.890729 0.168066
O O11 0.780489 0.974761 0.129021
O O12 0.750000 0.208083 0.250000
O O13 0.745211 0.126276 0.129448
O O14 0.000000 0.198684 0.331278
O O15 0.250000 0.051618 0.250000
O O16 0.000000 0.061035 0.167093
O O17 0.202261 0.320208 0.613763
O O18 0.000000 0.389244 0.534020
O O19 0.750000 0.738587 0.250000
O O20 0.500000 0.761801 0.174977
#
# Coordination Sequence:
#
# PCOD9415793 Si02
#       7
#     8   8   8   8   8   8   8
#     4  11  23  41  64  88 116 145 180 225 271 322
#     4  12  25  40  59  83 112 146 185 226 272 328
#     4   9  16  26  44  72 107 143 180 225 275 323
#     4  11  21  35  56  81 111 145 184 229 277 328
#     4   9  16  27  45  73 107 141 180 226 275 324
#     4  10  23  41  59  82 113 149 184 224 274 324
#     4  10  19  32  53  80 111 145 185 229 273 324
#
# _framework density 19.724494
#
# number of rings (size 3 to 8) (size 9 to 14) (size 15 to 20)
#    0.000    1.714    0.000    7.286    0.000    5.714 
#    0.000    0.000    0.000    0.857    0.000    6.000 
#    0.000    0.000    0.000    0.000    0.000    0.000 
#
# Total GULP energy -312766.796184 kJ/mol
# GULP energy per Si atom -5585.121360 kJ/mol
# Density = 1.967960 g / cm^3
# Si number density = 19.724494 Si / 1000 Ang^3
#
#
#
# Elastic Constant Matrix: (Units=GPa)
#
#
# Indices 1 2 3 4 5 6 
#
# 1 110.2154 45.4246 20.6658 0.0000 0.0000 0.0000
# 2 45.4246 109.6016 -4.1919 0.0000 0.0000 0.0000
# 3 20.6658 -4.1919 28.8088 0.0000 0.0000 0.0000
# 4 0.0000 0.0000 0.0000 1.5345 0.0000 0.0000
# 5 0.0000 0.0000 0.0000 0.0000 23.2317 0.0000
# 6 0.0000 0.0000 0.0000 0.0000 0.0000 30.9102
#
#
#
# Elastic Compliance Matrix: (Units=1/GPa)
#
#
# Indices 1 2 3 4 5 6 
#
# 1 0.013537 -0.006015 -0.010586 0.000000 0.000000 0.000000
# 2 -0.006015 0.011848 0.006039 0.000000 0.000000 0.000000
# 3 -0.010586 0.006039 0.043184 0.000000 0.000000 0.000000
# 4 0.000000 0.000000 0.000000 0.651696 0.000000 0.000000
# 5 0.000000 0.000000 0.000000 0.000000 0.043045 0.000000
# 6 0.000000 0.000000 0.000000 0.000000 0.000000 0.032352
#
#
# Mechanical properties :
#
#
# Convention : Reuss Voigt Hill
#
# Bulk Modulus (GPa) = 21.07725 41.38031 31.22878
# Shear Modulus (GPa) = 6.00527 23.58375 14.79451
#
# Velocity S-wave (km/s) = 1.74676 3.46158 2.74169
# Velocity P-wave (km/s) = 3.84412 6.08288 5.08816
#
# Compressibility (1/GPa) = 0.04744453
#
# Stress axis : x y z
#
# Youngs Moduli (GPa) = 73.86988 84.40213 23.15661
#
# Poissons Ratio (x) = 0.50772 0.24514
# Poissons Ratio (y) = 0.44436 -0.13985
# Poissons Ratio (z) = 0.78200 -0.50971
#
# Static dielectric constant tensor:
#      x y z
#    x 1.655360 0.000000 0.000000 
#    y 0.000000 1.740490 0.000000 
#    z 0.000000 0.000000 1.684440 
# 
# From -- ./inp_files/20654.got.cif
#   From: 2010.05.17/outbox.cif.g08.bks.cpg/sg53_11_cif.got.tgz:20654.got - 2010.06.03 12:45:16.
