data_PCOD9415767
_publ_section_title
;
Structure prediction by ZEFSAII (Michael W. Deem and Ramdas Pophale) SiO2 
 PCOD9415767
Probable space group: P M N A
;
_chemical_formula_sum "Si O2"
_cell_formula_units_Z 64
_cell_length_a 9.001869
_cell_length_b 20.809997
_cell_length_c 19.696938
_cell_angle_alpha 90.000000
_cell_angle_beta 90.000000
_cell_angle_gamma 90.000000
_cell_volume 3689.805077
_symmetry_space_group_name_H-M "P M N A"
_symmetry_group_IT_number 53
_symmetry_cell_setting 'orthorhombic'
loop_
_space_group_symop_operation_xyz
x,y,z
1/2-x,-y,1/2+z
x,-y,-z
1/2-x,y,1/2-z
-x,-y,-z
1/2+x,y,1/2-z
-x,y,z
1/2+x,-y,1/2+z
loop_
_atom_site_type_symbol
_atom_site_label
_atom_site_fract_x
_atom_site_fract_y
_atom_site_fract_z
Si Si1 0.828718 0.001935 0.417461
Si Si2 0.179342 0.492808 0.078732
Si Si3 0.177110 0.238868 0.322746
Si Si4 0.677258 0.865216 0.580757
Si Si5 0.821667 0.391632 0.822577
Si Si6 0.678023 0.130236 0.579248
Si Si7 0.178956 0.754991 0.177287
Si Si8 0.822782 0.389863 0.323159
O O1 0.755575 0.934935 0.395703
O O2 0.000000 0.006270 0.396502
O O3 0.823990 0.000000 0.500000
O O4 0.740048 0.065517 0.396288
O O5 0.219723 0.557011 0.120503
O O6 0.254193 0.433896 0.118233
O O7 0.000000 0.485139 0.081434
O O8 0.222016 0.500000 0.000000
O O9 0.250000 0.224194 0.250000
O O10 0.246889 0.192003 0.378228
O O11 0.206831 0.314337 0.336856
O O12 0.000000 0.230195 0.319409
O O13 0.500000 0.863293 0.589192
O O14 0.711350 0.859667 0.500378
O O15 0.750000 0.407575 0.750000
O O16 0.778931 0.318385 0.840782
O O17 0.000000 0.393459 0.815136
O O18 0.500000 0.122126 0.584741
O O19 0.723997 0.192119 0.622417
O O20 0.250000 0.769510 0.250000
O O21 0.000000 0.756833 0.182806
O O22 0.750000 0.405806 0.250000
O O23 0.000000 0.399121 0.318698
#
# Coordination Sequence:
#
# PCOD9415767 Si02
#       8
#     8   8   8   8   8   8   8   8
#     4   9  17  30  49  73 102 135 171 212 255 303
#     4  10  21  35  53  79 109 138 171 215 262 307
#     4  10  21  37  55  77 105 136 172 214 260 311
#     4  10  19  32  53  78 103 134 171 212 258 309
#     4   9  18  33  52  73  98 132 171 207 248 300
#     4   9  18  32  51  75 102 133 170 212 258 308
#     4   9  18  33  51  72 100 132 167 208 252 299
#     4  10  21  37  57  78 103 138 177 215 257 311
#
# _framework density 17.345089000000002
#
# number of rings (size 3 to 8) (size 9 to 14) (size 15 to 20)
#    0.000    2.500    0.000    1.875    0.000    6.750 
#    0.000    3.125    0.000    4.500    0.000    0.000 
#    0.000    0.000    0.000    0.000    0.000    0.000 
#
# Total GULP energy -357024.589562 kJ/mol
# GULP energy per Si atom -5578.509212 kJ/mol
# Density = 1.730561 g / cm^3
# Si number density = 17.345089 Si / 1000 Ang^3
#
#
#
# Elastic Constant Matrix: (Units=GPa)
#
#
# Indices 1 2 3 4 5 6 
#
# 1 52.8442 64.5438 54.6126 0.0000 0.0000 0.0000
# 2 64.5438 139.4365 102.2088 0.0000 0.0000 0.0000
# 3 54.6126 102.2088 108.8290 0.0000 0.0000 0.0000
# 4 0.0000 0.0000 0.0000 42.0108 0.0000 0.0000
# 5 0.0000 0.0000 0.0000 0.0000 27.4449 0.0000
# 6 0.0000 0.0000 0.0000 0.0000 0.0000 31.8235
#
#
#
# Elastic Compliance Matrix: (Units=1/GPa)
#
#
# Indices 1 2 3 4 5 6 
#
# 1 0.046739 -0.014258 -0.010064 0.000000 0.000000 0.000000
# 2 -0.014258 0.027367 -0.018547 0.000000 0.000000 0.000000
# 3 -0.010064 -0.018547 0.031658 0.000000 0.000000 0.000000
# 4 0.000000 0.000000 0.000000 0.023803 0.000000 0.000000
# 5 0.000000 0.000000 0.000000 0.000000 0.036437 0.000000
# 6 0.000000 0.000000 0.000000 0.000000 0.000000 0.031423
#
#
# Mechanical properties :
#
#
# Convention : Reuss Voigt Hill
#
# Bulk Modulus (GPa) = 49.93601 82.64890 66.29246
# Shear Modulus (GPa) = 17.25085 25.57216 21.41150
#
# Velocity S-wave (km/s) = 3.15710 3.84385 3.51727
# Velocity P-wave (km/s) = 6.49168 8.21300 7.40254
#
# Compressibility (1/GPa) = 0.02002563
#
# Stress axis : x y z
#
# Youngs Moduli (GPa) = 21.39545 36.54020 31.58765
#
# Poissons Ratio (x) = 0.52100 0.31789
# Poissons Ratio (y) = 0.30506 0.58587
# Poissons Ratio (z) = 0.21532 0.67772
#
# Static dielectric constant tensor:
#      x y z
#    x 1.581900 0.000000 0.000000 
#    y 0.000000 1.585640 0.000000 
#    z 0.000000 0.000000 1.559230 
# 
# From -- ./inp_files/27004.got.cif
#   From: 2010.05.17/outbox.cif.g08.bks.cpg/sg53_14_cif.got.tgz:27004.got - 2010.06.03 12:45:16.
