data_PCOD9415306
_publ_section_title
;
Structure prediction by ZEFSAII (Michael W. Deem and Ramdas Pophale) SiO2 
 PCOD9415306
Probable space group: P M N A
;
_chemical_formula_sum "Si O2"
_cell_formula_units_Z 36
_cell_length_a 29.887945
_cell_length_b 5.176536
_cell_length_c 12.682740
_cell_angle_alpha 90.000000
_cell_angle_beta 90.000000
_cell_angle_gamma 90.000000
_cell_volume 1962.223097
_symmetry_space_group_name_H-M "P M N A"
_symmetry_group_IT_number 53
_symmetry_cell_setting 'orthorhombic'
loop_
_space_group_symop_operation_xyz
x,y,z
1/2-x,-y,1/2+z
x,-y,-z
1/2-x,y,1/2-z
-x,-y,-z
1/2+x,y,1/2-z
-x,y,z
1/2+x,-y,1/2+z
loop_
_atom_site_type_symbol
_atom_site_label
_atom_site_fract_x
_atom_site_fract_y
_atom_site_fract_z
Si Si1 0.450154 0.110148 0.617926
Si Si2 0.375235 0.758145 0.696999
Si Si3 0.246062 0.747141 0.072475
Si Si4 0.824508 0.261792 0.737214
Si Si5 0.610897 0.500000 0.500000
O O1 0.500000 0.174355 0.657205
O O2 0.419155 0.356586 0.589173
O O3 0.454934 0.000000 0.500000
O O4 0.424500 0.892148 0.685680
O O5 0.359966 0.497704 0.756943
O O6 0.363216 0.703495 0.572710
O O7 0.347838 0.987157 0.749868
O O8 0.207711 0.723260 0.160836
O O9 0.292944 0.738493 0.135709
O O10 0.243324 0.500000 0.000000
O O11 0.242407 0.000000 0.000000
#
# Coordination Sequence:
#
# PCOD9415306 Si02
#       5
#     8   8   8   8   4
#     4   9  18  31  48  74 112 154 189 218 264 328
#     4  11  21  34  52  78 114 147 186 225 265 316
#     4  11  24  40  60  80 110 150 181 231 286 328
#     4  11  24  38  56  85 112 141 193 232 267 333
#     4  10  19  30  50  78 108 162 182 222 268 320
#
# _framework density 18.346539
#
# number of rings (size 3 to 8) (size 9 to 14) (size 15 to 20)
#    0.000    1.556    2.222    3.000    4.667    4.444 
#    0.000    0.000    0.000    0.000    0.000    0.000 
#    0.000   17.778    0.000    0.000    0.000    0.000 
#
# Total GULP energy -200547.304651 kJ/mol
# GULP energy per Si atom -5570.758463 kJ/mol
# Density = 1.830478 g / cm^3
# Si number density = 18.346539 Si / 1000 Ang^3
#
#
#
# Elastic Constant Matrix: (Units=GPa)
#
#
# Indices 1 2 3 4 5 6 
#
# 1 52.1054 16.4256 7.4566 0.0000 0.0000 0.0000
# 2 16.4256 130.7694 20.6450 0.0000 0.0000 0.0000
# 3 7.4566 20.6450 39.3843 0.0000 0.0000 0.0000
# 4 0.0000 0.0000 0.0000 -1.0037 0.0000 0.0000
# 5 0.0000 0.0000 0.0000 0.0000 20.6018 0.0000
# 6 0.0000 0.0000 0.0000 0.0000 0.0000 21.4592
#
#
#
# Elastic Compliance Matrix: (Units=1/GPa)
#
#
# Indices 1 2 3 4 5 6 
#
# 1 0.020248 -0.002113 -0.002726 0.000000 0.000000 0.000000
# 2 -0.002113 0.008557 -0.004086 0.000000 0.000000 0.000000
# 3 -0.002726 -0.004086 0.028049 0.000000 0.000000 0.000000
# 4 0.000000 0.000000 0.000000 -0.996269 0.000000 0.000000
# 5 0.000000 0.000000 0.000000 0.000000 0.048539 0.000000
# 6 0.000000 0.000000 0.000000 0.000000 0.000000 0.046600
#
#
# Mechanical properties :
#
#
# Convention : Reuss Voigt Hill
#
# Bulk Modulus (GPa) = 25.63779 34.59038 30.11409
# Shear Modulus (GPa) = -6.14685 20.06025 6.95670
#
# Velocity S-wave (km/s) = -1.83240 3.31026 1.94938
# Velocity P-wave (km/s) = 3.08668 5.78837 4.63858
#
# Compressibility (1/GPa) = 0.03900492
#
# Stress axis : x y z
#
# Youngs Moduli (GPa) = 49.38748 116.85686 35.65231
#
# Poissons Ratio (x) = 0.24691 0.09719
# Poissons Ratio (y) = 0.10435 0.14567
# Poissons Ratio (z) = 0.13463 0.47745
#
# Static dielectric constant tensor:
#      x y z
#    x 1.739280 0.000000 0.000000 
#    y 0.000000 1.716110 0.000000 
#    z 0.000000 0.000000 1.571800 
# 
# From -- ./inp_files/18904.got.cif
#   From: 2010.05.17/outbox.cif.g08.bks.cpg/sg53_10_cif.got.tgz:18904.got - 2010.06.03 12:45:16.
