data_PCOD9415538
_publ_section_title
;
Structure prediction by ZEFSAII (Michael W. Deem and Ramdas Pophale) SiO2 
 PCOD9415538
Probable space group: P M N A
;
_chemical_formula_sum "Si O2"
_cell_formula_units_Z 40
_cell_length_a 14.507646
_cell_length_b 10.507100
_cell_length_c 13.456723
_cell_angle_alpha 90.000000
_cell_angle_beta 90.000000
_cell_angle_gamma 90.000000
_cell_volume 2051.252523
_symmetry_space_group_name_H-M "P M N A"
_symmetry_group_IT_number 53
_symmetry_cell_setting 'orthorhombic'
loop_
_space_group_symop_operation_xyz
x,y,z
1/2-x,-y,1/2+z
x,-y,-z
1/2-x,y,1/2-z
-x,-y,-z
1/2+x,y,1/2-z
-x,y,z
1/2+x,-y,1/2+z
loop_
_atom_site_type_symbol
_atom_site_label
_atom_site_fract_x
_atom_site_fract_y
_atom_site_fract_z
Si Si1 0.393483 0.029440 0.619174
Si Si2 0.896599 0.620735 0.428515
Si Si3 0.105975 0.515691 0.205596
Si Si4 0.705016 0.277147 0.576848
Si Si5 0.110658 0.754067 0.864287
O O1 0.500000 0.058389 0.645680
O O2 0.331072 0.152560 0.634447
O O3 0.392077 0.000000 0.500000
O O4 0.362211 0.896600 0.668110
O O5 0.880315 0.500000 0.500000
O O6 0.893038 0.570293 0.315937
O O7 0.813958 0.719314 0.439428
O O8 0.000000 0.669286 0.448796
O O9 0.172628 0.598179 0.136596
O O10 0.130348 0.366421 0.204869
O O11 0.000000 0.527482 0.167459
O O12 0.655719 0.276667 0.470190
O O13 0.000000 0.761803 0.878003
#
# Coordination Sequence:
#
# PCOD9415538 Si02
#       5
#     8   8   8   8   8
#     4   8  15  28  48  78 113 137 151 184 252 325
#     4  10  22  37  50  67  97 139 183 221 250 282
#     4  10  19  31  52  81 105 126 162 210 256 302
#     4  11  18  29  53  80 106 133 162 203 255 308
#     4   9  17  30  52  84 113 131 152 196 262 322
#
# _framework density 19.500281999999999
#
# number of rings (size 3 to 8) (size 9 to 14) (size 15 to 20)
#    0.000    2.400    0.000    5.400    0.000    1.600 
#    0.000    0.000    0.000   24.600    0.000   19.600 
#    0.000    0.000    0.000    0.000    0.000    0.000 
#
# Total GULP energy -223192.610963 kJ/mol
# GULP energy per Si atom -5579.815274 kJ/mol
# Density = 1.945590 g / cm^3
# Si number density = 19.500282 Si / 1000 Ang^3
#
#
#
# Elastic Constant Matrix: (Units=GPa)
#
#
# Indices 1 2 3 4 5 6 
#
# 1 89.6474 47.5079 -3.3133 0.0000 0.0000 0.0000
# 2 47.5079 91.0106 -23.1593 0.0000 0.0000 0.0000
# 3 -3.3133 -23.1593 2.6703 0.0000 0.0000 0.0000
# 4 0.0000 0.0000 0.0000 -1.2736 0.0000 0.0000
# 5 0.0000 0.0000 0.0000 0.0000 5.5929 0.0000
# 6 0.0000 0.0000 0.0000 0.0000 0.0000 -11.7970
#
#
#
# Elastic Compliance Matrix: (Units=1/GPa)
#
#
# Indices 1 2 3 4 5 6 
#
# 1 0.011268 0.001926 0.030682 0.000000 0.000000 0.000000
# 2 0.001926 -0.008774 -0.073710 0.000000 0.000000 0.000000
# 3 0.030682 -0.073710 -0.226723 0.000000 0.000000 0.000000
# 4 0.000000 0.000000 0.000000 -0.785166 0.000000 0.000000
# 5 0.000000 0.000000 0.000000 0.000000 0.178797 0.000000
# 6 0.000000 0.000000 0.000000 0.000000 0.000000 -0.084767
#
#
# Mechanical properties :
#
#
# Convention : Reuss Voigt Hill
#
# Bulk Modulus (GPa) = -3.26336 25.04432 10.89048
# Shear Modulus (GPa) = -5.34585 9.32400 1.98907
#
# Velocity S-wave (km/s) = -1.65752 2.18903 1.01106
# Velocity P-wave (km/s) = 2.31091 4.38863 2.63816
#
# Compressibility (1/GPa) = -0.30643239
#
# Stress axis : x y z
#
# Youngs Moduli (GPa) = 88.74402 -113.96974 -4.41068
#
# Poissons Ratio (x) = 0.21946 0.13533
# Poissons Ratio (y) = -0.17088 -0.32511
# Poissons Ratio (z) = -2.72289 -8.40071
#
# Static dielectric constant tensor:
#      x y z
#    x 1.712120 0.000000 0.000000 
#    y 0.000000 1.715750 0.000000 
#    z 0.000000 0.000000 1.659970 
# 
# From -- ./inp_files/22414.got.cif
#   From: 2010.05.17/outbox.cif.g08.bks.cpg/sg53_12_cif.got.tgz:22414.got - 2010.06.03 12:45:16.
