data_PCOD9415050
_publ_section_title
;
Structure prediction by ZEFSAII (Michael W. Deem and Ramdas Pophale) SiO2 
 PCOD9415050
Probable space group: P M N A
;
_chemical_formula_sum "Si O2"
_cell_formula_units_Z 64
_cell_length_a 16.114401
_cell_length_b 15.454596
_cell_length_c 11.879748
_cell_angle_alpha 90.000000
_cell_angle_beta 90.000000
_cell_angle_gamma 90.000000
_cell_volume 2958.550942
_symmetry_space_group_name_H-M "P M N A"
_symmetry_group_IT_number 53
_symmetry_cell_setting 'orthorhombic'
loop_
_space_group_symop_operation_xyz
x,y,z
1/2-x,-y,1/2+z
x,-y,-z
1/2-x,y,1/2-z
-x,-y,-z
1/2+x,y,1/2-z
-x,y,z
1/2+x,-y,1/2+z
loop_
_atom_site_type_symbol
_atom_site_label
_atom_site_fract_x
_atom_site_fract_y
_atom_site_fract_z
Si Si1 0.835612 0.231267 0.433098
Si Si2 0.404817 0.633350 0.517946
Si Si3 0.149376 0.907159 0.741594
Si Si4 0.146454 0.181885 0.034726
Si Si5 0.100302 0.571281 0.216809
Si Si6 0.406201 0.912965 0.329870
Si Si7 0.657370 0.245305 0.802562
Si Si8 0.600682 0.616401 0.774444
O O1 0.872703 0.147636 0.368830
O O2 0.737006 0.217055 0.435938
O O3 0.854810 0.236822 0.564217
O O4 0.859973 0.315929 0.360979
O O5 0.500000 0.605017 0.530631
O O6 0.401400 0.734983 0.486309
O O7 0.369545 0.577989 0.413985
O O8 0.371222 0.632234 0.644934
O O9 0.250000 0.907081 0.750000
O O10 0.112475 0.855821 0.849018
O O11 0.121544 0.005306 0.756632
O O12 0.147983 0.106945 0.941155
O O13 0.132953 0.657570 0.272636
O O14 0.122498 0.485045 0.285395
O O15 0.000000 0.573754 0.211925
O O16 0.500000 0.926013 0.369022
O O17 0.398013 0.827439 0.255418
O O18 0.750000 0.230930 0.750000
O O19 0.500000 0.626075 0.781373
#
# Coordination Sequence:
#
# PCOD9415050 Si02
#       8
#     8   8   8   8   8   8   8   8
#     4  11  24  43  66  92 135 180 222 273 341 409
#     4  10  18  35  66  97 130 171 217 276 334 390
#     4  10  24  42  66  98 132 173 212 271 346 410
#     4  11  21  41  69  97 128 170 219 277 335 395
#     4  10  21  40  65  97 132 176 229 277 331 392
#     4  12  25  43  70 101 131 171 225 281 335 401
#     4  12  24  44  66  93 131 180 231 281 337 403
#     4  10  22  39  65  98 136 178 219 274 341 407
#
# _framework density 21.632211999999999
#
# number of rings (size 3 to 8) (size 9 to 14) (size 15 to 20)
#    0.000    1.250    3.750    1.875    0.000    5.500 
#    2.250    1.875    0.000    0.000    0.000    0.000 
#    0.000    0.000    0.000    0.000    0.000    0.000 
#
# Total GULP energy -357347.847549 kJ/mol
# GULP energy per Si atom -5583.560118 kJ/mol
# Density = 2.158298 g / cm^3
# Si number density = 21.632212 Si / 1000 Ang^3
#
#
#
# Elastic Constant Matrix: (Units=GPa)
#
#
# Indices 1 2 3 4 5 6 
#
# 1 45.8905 37.0921 23.5049 0.0000 0.0000 0.0000
# 2 37.0921 123.2424 64.8432 0.0000 0.0000 0.0000
# 3 23.5049 64.8432 161.9850 0.0000 0.0000 0.0000
# 4 0.0000 0.0000 0.0000 29.2529 0.0000 0.0000
# 5 0.0000 0.0000 0.0000 0.0000 17.7160 0.0000
# 6 0.0000 0.0000 0.0000 0.0000 0.0000 29.9922
#
#
#
# Elastic Compliance Matrix: (Units=1/GPa)
#
#
# Indices 1 2 3 4 5 6 
#
# 1 0.028900 -0.008224 -0.000902 0.000000 0.000000 0.000000
# 2 -0.008224 0.012619 -0.003858 0.000000 0.000000 0.000000
# 3 -0.000902 -0.003858 0.007849 0.000000 0.000000 0.000000
# 4 0.000000 0.000000 0.000000 0.034185 0.000000 0.000000
# 5 0.000000 0.000000 0.000000 0.000000 0.056446 0.000000
# 6 0.000000 0.000000 0.000000 0.000000 0.000000 0.033342
#
#
# Mechanical properties :
#
#
# Convention : Reuss Voigt Hill
#
# Bulk Modulus (GPa) = 42.73355 64.66649 53.70002
# Shear Modulus (GPa) = 24.14208 29.10405 26.62307
#
# Velocity S-wave (km/s) = 3.34432 3.67195 3.51196
# Velocity P-wave (km/s) = 5.89153 6.92359 6.42831
#
# Compressibility (1/GPa) = 0.02340082
#
# Stress axis : x y z
#
# Youngs Moduli (GPa) = 34.60248 79.24512 127.40992
#
# Poissons Ratio (x) = 0.65167 0.11487
# Poissons Ratio (y) = 0.28455 0.49157
# Poissons Ratio (z) = 0.03120 0.30574
#
# Static dielectric constant tensor:
#      x y z
#    x 1.817540 0.000000 0.000000 
#    y 0.000000 1.816580 0.000000 
#    z 0.000000 0.000000 1.833080 
# 
# From -- ./inp_files/17093.got.cif
#   From: 2010.05.17/outbox.cif.g08.bks.cpg/sg53_9_cif.got.tgz:17093.got - 2010.06.03 12:45:16.
