data_PCOD9415648
_publ_section_title
;
Structure prediction by ZEFSAII (Michael W. Deem and Ramdas Pophale) SiO2 
 PCOD9415648
Probable space group: P M N A
;
_chemical_formula_sum "Si O2"
_cell_formula_units_Z 40
_cell_length_a 13.539977
_cell_length_b 23.286779
_cell_length_c 4.890128
_cell_angle_alpha 90.000000
_cell_angle_beta 90.000000
_cell_angle_gamma 90.000000
_cell_volume 1541.869349
_symmetry_space_group_name_H-M "P M N A"
_symmetry_group_IT_number 53
_symmetry_cell_setting 'orthorhombic'
loop_
_space_group_symop_operation_xyz
x,y,z
1/2-x,-y,1/2+z
x,-y,-z
1/2-x,y,1/2-z
-x,-y,-z
1/2+x,y,1/2-z
-x,y,z
1/2+x,-y,1/2+z
loop_
_atom_site_type_symbol
_atom_site_label
_atom_site_fract_x
_atom_site_fract_y
_atom_site_fract_z
Si Si1 0.891742 0.325089 0.215093
Si Si2 0.119537 0.865909 0.573935
Si Si3 0.317672 0.557682 0.988868
Si Si4 0.611751 0.754310 0.240704
Si Si5 0.380095 0.936950 0.425932
O O1 0.857060 0.385604 0.337479
O O2 0.898764 0.287286 0.484291
O O3 0.000000 0.337093 0.091028
O O4 0.840862 0.284038 0.985406
O O5 0.155577 0.810537 0.407055
O O6 0.140816 0.920386 0.383597
O O7 0.000000 0.857720 0.588131
O O8 0.151935 0.884700 0.875340
O O9 0.250000 0.532309 0.750000
O O10 0.386486 0.500000 0.000000
O O11 0.250000 0.576852 0.250000
O O12 0.500000 0.770921 0.343824
O O13 0.500000 0.938420 0.452610
O O14 0.343768 0.000000 0.500000
#
# Coordination Sequence:
#
# PCOD9415648 Si02
#       5
#     8   8   8   8   8
#     4  10  19  32  51  74  98 125 164 209 247 295
#     4   9  15  23  34  49  75 110 148 194 243 285
#     4  10  21  37  55  75 101 132 163 197 246 309
#     4   9  17  28  43  65  91 120 157 203 252 296
#     4   9  15  21  30  46  70 106 154 199 234 277
#
# _framework density 25.942533000000001
#
# number of rings (size 3 to 8) (size 9 to 14) (size 15 to 20)
#    0.000    2.600    0.000    3.000    0.000    7.600 
#    0.000    0.000    0.000    7.200    0.000    0.000 
#    0.000    0.000    0.000    0.000    0.000  120.000 
#
# Total GULP energy -222915.300233 kJ/mol
# GULP energy per Si atom -5572.882506 kJ/mol
# Density = 2.588349 g / cm^3
# Si number density = 25.942533 Si / 1000 Ang^3
#
#
#
# Elastic Constant Matrix: (Units=GPa)
#
#
# Indices 1 2 3 4 5 6 
#
# 1 69.9498 10.0371 1.2238 0.0000 0.0000 0.0000
# 2 10.0371 177.9819 45.9202 0.0000 0.0000 0.0000
# 3 1.2238 45.9202 162.8344 0.0000 0.0000 0.0000
# 4 0.0000 0.0000 0.0000 33.4923 0.0000 0.0000
# 5 0.0000 0.0000 0.0000 0.0000 15.3985 0.0000
# 6 0.0000 0.0000 0.0000 0.0000 0.0000 -1.9036
#
#
#
# Elastic Compliance Matrix: (Units=1/GPa)
#
#
# Indices 1 2 3 4 5 6 
#
# 1 0.014415 -0.000847 0.000130 0.000000 0.000000 0.000000
# 2 -0.000847 0.006109 -0.001716 0.000000 0.000000 0.000000
# 3 0.000130 -0.001716 0.006624 0.000000 0.000000 0.000000
# 4 0.000000 0.000000 0.000000 0.029858 0.000000 0.000000
# 5 0.000000 0.000000 0.000000 0.000000 0.064941 0.000000
# 6 0.000000 0.000000 0.000000 0.000000 0.000000 -0.525317
#
#
# Mechanical properties :
#
#
# Convention : Reuss Voigt Hill
#
# Bulk Modulus (GPa) = 44.87658 58.34760 51.61209
# Shear Modulus (GPa) = -12.78521 32.96977 10.09228
#
# Velocity S-wave (km/s) = -2.22238 3.56880 1.97451
# Velocity P-wave (km/s) = 3.27883 6.28663 5.01360
#
# Compressibility (1/GPa) = 0.02228334
#
# Stress axis : x y z
#
# Youngs Moduli (GPa) = 69.37137 163.68910 150.95983
#
# Poissons Ratio (x) = 0.13857 -0.01968
# Poissons Ratio (y) = 0.05873 0.25912
# Poissons Ratio (z) = -0.00905 0.28096
#
# Static dielectric constant tensor:
#      x y z
#    x 2.520590 0.000000 0.000000 
#    y 0.000000 2.148890 0.000000 
#    z 0.000000 0.000000 1.983400 
# 
# From -- ./inp_files/2180.got.cif
#   From: 2010.05.17/outbox.cif.g08.bks.cpg/sg53_2_cif.got.tgz:2180.got - 2010.06.03 12:45:16.
