data_PCOD9415434
_publ_section_title
;
Structure prediction by ZEFSAII (Michael W. Deem and Ramdas Pophale) SiO2 
 PCOD9415434
Probable space group: P M N A
;
_chemical_formula_sum "Si O2"
_cell_formula_units_Z 64
_cell_length_a 9.202336
_cell_length_b 21.980005
_cell_length_c 18.923312
_cell_angle_alpha 90.000000
_cell_angle_beta 90.000000
_cell_angle_gamma 90.000000
_cell_volume 3827.568953
_symmetry_space_group_name_H-M "P M N A"
_symmetry_group_IT_number 53
_symmetry_cell_setting 'orthorhombic'
loop_
_space_group_symop_operation_xyz
x,y,z
1/2-x,-y,1/2+z
x,-y,-z
1/2-x,y,1/2-z
-x,-y,-z
1/2+x,y,1/2-z
-x,y,z
1/2+x,-y,1/2+z
loop_
_atom_site_type_symbol
_atom_site_label
_atom_site_fract_x
_atom_site_fract_y
_atom_site_fract_z
Si Si1 0.166224 0.184261 0.526604
Si Si2 0.172687 0.593452 0.174749
Si Si3 0.672746 0.509420 0.916511
Si Si4 0.674249 0.351545 0.078180
Si Si5 0.827923 0.111163 0.180895
Si Si6 0.674305 0.932113 0.524232
Si Si7 0.327357 0.302267 0.562322
Si Si8 0.165157 0.227883 0.362717
O O1 0.500000 0.220383 0.164507
O O2 0.245699 0.119594 0.521215
O O3 0.253019 0.236293 0.568153
O O4 0.163049 0.208833 0.445552
O O5 0.250000 0.596443 0.250000
O O6 0.237244 0.537568 0.129790
O O7 0.199025 0.654458 0.129103
O O8 0.000000 0.586132 0.183250
O O9 0.500000 0.498998 0.905817
O O10 0.705949 0.579770 0.899249
O O11 0.701862 0.500000 0.000000
O O12 0.500000 0.347613 0.063979
O O13 0.707051 0.298771 0.135122
O O14 0.758537 0.335312 0.006316
O O15 0.750000 0.085104 0.250000
O O16 0.788450 0.078765 0.106871
O O17 0.773897 0.180794 0.172540
O O18 0.000000 0.108690 0.189298
O O19 0.500000 0.923866 0.517738
O O20 0.711433 0.000000 0.500000
O O21 0.500000 0.295376 0.551819
O O22 0.000000 0.178766 0.550634
#
# Coordination Sequence:
#
# PCOD9415434 Si02
#       8
#     8   8   8   8   8   8   8   8
#     4   9  17  29  49  76 103 130 162 204 250 296
#     4  11  24  38  53  74 102 136 175 222 274 327
#     4  10  19  33  55  78 103 135 173 217 267 323
#     4   9  17  30  50  76 101 129 164 207 256 306
#     4  10  19  31  49  72 100 134 171 208 251 300
#     4   9  18  33  53  78 108 140 174 213 255 299
#     4  10  19  31  50  75 100 128 165 212 260 308
#     4   8  15  28  45  68  98 126 159 200 242 290
#
# _framework density 16.720794999999999
#
# number of rings (size 3 to 8) (size 9 to 14) (size 15 to 20)
#    0.000    2.500    1.250    2.250    0.000    6.000 
#    0.000    0.625    0.000    0.750    0.000    1.750 
#    0.000    0.000    0.000    0.000    0.000    0.000 
#
# Total GULP energy -356815.372955 kJ/mol
# GULP energy per Si atom -5575.240202 kJ/mol
# Density = 1.668274 g / cm^3
# Si number density = 16.720795 Si / 1000 Ang^3
#
#
#
# Elastic Constant Matrix: (Units=GPa)
#
#
# Indices 1 2 3 4 5 6 
#
# 1 77.5581 70.5110 55.3343 0.0000 0.0000 0.0000
# 2 70.5110 152.6656 54.2205 0.0000 0.0000 0.0000
# 3 55.3343 54.2205 78.5594 0.0000 0.0000 0.0000
# 4 0.0000 0.0000 0.0000 12.5721 0.0000 0.0000
# 5 0.0000 0.0000 0.0000 0.0000 22.9973 0.0000
# 6 0.0000 0.0000 0.0000 0.0000 0.0000 26.5224
#
#
#
# Elastic Compliance Matrix: (Units=1/GPa)
#
#
# Indices 1 2 3 4 5 6 
#
# 1 0.033877 -0.009501 -0.017304 0.000000 0.000000 0.000000
# 2 -0.009501 0.011342 -0.001136 0.000000 0.000000 0.000000
# 3 -0.017304 -0.001136 0.025702 0.000000 0.000000 0.000000
# 4 0.000000 0.000000 0.000000 0.079541 0.000000 0.000000
# 5 0.000000 0.000000 0.000000 0.000000 0.043483 0.000000
# 6 0.000000 0.000000 0.000000 0.000000 0.000000 0.037704
#
#
# Mechanical properties :
#
#
# Convention : Reuss Voigt Hill
#
# Bulk Modulus (GPa) = 66.49667 74.32388 70.41027
# Shear Modulus (GPa) = 17.09143 20.99951 19.04547
#
# Velocity S-wave (km/s) = 3.20060 3.54770 3.37861
# Velocity P-wave (km/s) = 7.31530 7.83122 7.57765
#
# Compressibility (1/GPa) = 0.01503835
#
# Stress axis : x y z
#
# Youngs Moduli (GPa) = 29.51850 88.16935 38.90784
#
# Poissons Ratio (x) = 0.83768 0.67328
# Poissons Ratio (y) = 0.28045 0.04420
# Poissons Ratio (z) = 0.51080 0.10015
#
# Static dielectric constant tensor:
#      x y z
#    x 1.562470 0.000000 0.000000 
#    y 0.000000 1.568430 0.000000 
#    z 0.000000 0.000000 1.555770 
# 
# From -- ./inp_files/27069.got.cif
#   From: 2010.05.17/outbox.cif.g08.bks.cpg/sg53_14_cif.got.tgz:27069.got - 2010.06.03 12:45:16.
