data_PCOD9415797
_publ_section_title
;
Structure prediction by ZEFSAII (Michael W. Deem and Ramdas Pophale) SiO2 
 PCOD9415797
Probable space group: P M N A
;
_chemical_formula_sum "Si O2"
_cell_formula_units_Z 64
_cell_length_a 9.287328
_cell_length_b 12.015505
_cell_length_c 32.572661
_cell_angle_alpha 90.000000
_cell_angle_beta 90.000000
_cell_angle_gamma 90.000000
_cell_volume 3634.846302
_symmetry_space_group_name_H-M "P M N A"
_symmetry_group_IT_number 53
_symmetry_cell_setting 'orthorhombic'
loop_
_space_group_symop_operation_xyz
x,y,z
1/2-x,-y,1/2+z
x,-y,-z
1/2-x,y,1/2-z
-x,-y,-z
1/2+x,y,1/2-z
-x,y,z
1/2+x,-y,1/2+z
loop_
_atom_site_type_symbol
_atom_site_label
_atom_site_fract_x
_atom_site_fract_y
_atom_site_fract_z
Si Si1 0.330337 0.324401 0.708772
Si Si2 0.332794 0.847876 0.079825
Si Si3 0.328312 0.940318 0.292141
Si Si4 0.670359 0.344223 0.618965
Si Si5 0.330923 0.937648 0.865233
Si Si6 0.327506 0.750345 0.925743
Si Si7 0.163307 0.866931 0.998276
Si Si8 0.828526 0.473677 0.047721
O O1 0.250000 0.361161 0.750000
O O2 0.500000 0.333341 0.716565
O O3 0.298696 0.192225 0.702034
O O4 0.299752 0.385556 0.665466
O O5 0.500000 0.829892 0.069845
O O6 0.274244 0.759928 0.112307
O O7 0.232891 0.829598 0.040683
O O8 0.317660 0.971256 0.098260
O O9 0.250000 0.972260 0.250000
O O10 0.500000 0.953152 0.289439
O O11 0.264766 0.014542 0.328685
O O12 0.500000 0.311639 0.618466
O O13 0.693308 0.427295 0.580753
O O14 0.500000 0.936464 0.853334
O O15 0.291445 0.817357 0.883894
O O16 0.500000 0.743779 0.928252
O O17 0.256487 0.631218 0.933943
O O18 0.263567 0.825618 0.962039
O O19 0.000000 0.824617 0.993476
O O20 0.159087 0.000000 0.000000
O O21 0.000000 0.450343 0.046749
O O22 0.786338 0.500000 0.000000
#
# Coordination Sequence:
#
# PCOD9415797 Si02
#       8
#     8   8   8   8   8   8   8   8
#     4   9  18  31  50  79 112 146 180 223 277 331
#     4  11  21  33  52  79 112 145 180 223 275 329
#     4  10  19  32  53  80 114 151 185 223 272 336
#     4  10  20  36  56  80 113 147 186 232 279 334
#     4  10  21  35  52  79 114 147 179 225 278 330
#     4  11  23  39  58  80 111 145 186 235 279 330
#     4  11  22  34  51  75 106 143 182 222 267 325
#     4  10  22  40  60  81 109 147 192 241 288 338
#
# _framework density 17.607348000000002
#
# number of rings (size 3 to 8) (size 9 to 14) (size 15 to 20)
#    0.000    1.750    2.500    2.250    0.000    4.750 
#    0.000    0.000    0.000    0.750    0.000    3.500 
#    0.000    0.000    0.000    0.000    0.000    0.000 
#
# Total GULP energy -356925.459416 kJ/mol
# GULP energy per Si atom -5576.960303 kJ/mol
# Density = 1.756727 g / cm^3
# Si number density = 17.607348 Si / 1000 Ang^3
#
#
#
# Elastic Constant Matrix: (Units=GPa)
#
#
# Indices 1 2 3 4 5 6 
#
# 1 42.3752 33.8825 40.4418 0.0000 0.0000 0.0000
# 2 33.8825 58.4371 20.9786 0.0000 0.0000 0.0000
# 3 40.4418 20.9786 114.6019 0.0000 0.0000 0.0000
# 4 0.0000 0.0000 0.0000 26.1983 0.0000 0.0000
# 5 0.0000 0.0000 0.0000 0.0000 31.1580 0.0000
# 6 0.0000 0.0000 0.0000 0.0000 0.0000 20.9159
#
#
#
# Elastic Compliance Matrix: (Units=1/GPa)
#
#
# Indices 1 2 3 4 5 6 
#
# 1 0.065525 -0.031780 -0.017306 0.000000 0.000000 0.000000
# 2 -0.031780 0.033729 0.005040 0.000000 0.000000 0.000000
# 3 -0.017306 0.005040 0.013910 0.000000 0.000000 0.000000
# 4 0.000000 0.000000 0.000000 0.038170 0.000000 0.000000
# 5 0.000000 0.000000 0.000000 0.000000 0.032095 0.000000
# 6 0.000000 0.000000 0.000000 0.000000 0.000000 0.047811
#
#
# Mechanical properties :
#
#
# Convention : Reuss Voigt Hill
#
# Bulk Modulus (GPa) = 39.88094 45.11332 42.49713
# Shear Modulus (GPa) = 15.25842 23.66186 19.46014
#
# Velocity S-wave (km/s) = 2.94699 3.66985 3.32810
# Velocity P-wave (km/s) = 5.85483 6.60565 6.24154
#
# Compressibility (1/GPa) = 0.02507464
#
# Stress axis : x y z
#
# Youngs Moduli (GPa) = 15.26131 29.64799 71.88972
#
# Poissons Ratio (x) = 0.94220 1.24410
# Poissons Ratio (y) = 0.48500 -0.36235
# Poissons Ratio (z) = 0.26411 -0.14944
#
# Static dielectric constant tensor:
#      x y z
#    x 1.581290 0.000000 0.000000 
#    y 0.000000 1.616010 0.000000 
#    z 0.000000 0.000000 1.619780 
# 
# From -- ./inp_files/38211.got.cif
#   From: 2010.05.17/outbox.cif.g08.bks.cpg/sg53_20_cif.got.tgz:38211.got - 2010.06.03 12:45:16.
