data_PCOD9415428
_publ_section_title
;
Structure prediction by ZEFSAII (Michael W. Deem and Ramdas Pophale) SiO2 
 PCOD9415428
Probable space group: P M N A
;
_chemical_formula_sum "Si O2"
_cell_formula_units_Z 64
_cell_length_a 7.825700
_cell_length_b 28.346438
_cell_length_c 15.398818
_cell_angle_alpha 90.000000
_cell_angle_beta 90.000000
_cell_angle_gamma 90.000000
_cell_volume 3415.930882
_symmetry_space_group_name_H-M "P M N A"
_symmetry_group_IT_number 53
_symmetry_cell_setting 'orthorhombic'
loop_
_space_group_symop_operation_xyz
x,y,z
1/2-x,-y,1/2+z
x,-y,-z
1/2-x,y,1/2-z
-x,-y,-z
1/2+x,y,1/2-z
-x,y,z
1/2+x,-y,1/2+z
loop_
_atom_site_type_symbol
_atom_site_label
_atom_site_fract_x
_atom_site_fract_y
_atom_site_fract_z
Si Si1 0.794628 0.969645 0.152471
Si Si2 0.294903 0.612475 0.027102
Si Si3 0.205936 0.196815 0.847704
Si Si4 0.702883 0.696238 0.347086
Si Si5 0.209599 0.114075 0.972272
Si Si6 0.705538 0.422342 0.153215
Si Si7 0.294503 0.922626 0.653009
Si Si8 0.205689 0.469742 0.652448
O O1 0.750000 0.953946 0.250000
O O2 0.734960 0.932265 0.081437
O O3 0.000000 0.971460 0.145351
O O4 0.730262 0.023309 0.142054
O O5 0.500000 0.608134 0.024486
O O6 0.257406 0.659833 0.079456
O O7 0.229209 0.567705 0.082593
O O8 0.232493 0.608361 0.928115
O O9 0.250000 0.180912 0.750000
O O10 0.272209 0.250415 0.858083
O O11 0.267830 0.160135 0.919926
O O12 0.000000 0.198135 0.853454
O O13 0.750000 0.679587 0.250000
O O14 0.500000 0.699244 0.350118
O O15 0.000000 0.114618 0.971299
O O16 0.264958 0.108528 0.071912
O O17 0.750000 0.406082 0.250000
O O18 0.500000 0.424140 0.149758
O O19 0.768656 0.476491 0.141964
O O20 0.250000 0.906520 0.750000
O O21 0.500000 0.924594 0.648320
O O22 0.250000 0.454240 0.750000
O O23 0.000000 0.471282 0.644822
#
# Coordination Sequence:
#
# PCOD9415428 Si02
#       8
#     8   8   8   8   8   8   8   8
#     4   9  16  26  42  65  91 118 147 179 217 262
#     4  10  19  31  49  70  93 123 156 188 225 269
#     4   9  18  32  49  69  92 118 146 180 223 268
#     4  10  20  33  49  70  95 120 148 184 227 273
#     4   9  16  28  47  66  86 117 153 182 216 266
#     4   9  18  32  48  67  93 124 156 190 226 264
#     4   9  17  29  44  63  89 119 150 184 219 258
#     4   9  17  29  45  67  95 124 152 183 221 266
#
# _framework density 18.735742999999999
#
# number of rings (size 3 to 8) (size 9 to 14) (size 15 to 20)
#    0.000    2.750    0.000    1.875    0.000    5.500 
#    0.000    1.250    0.000    7.500    0.000    3.500 
#    0.000    0.000    0.000    0.000    0.000    0.000 
#
# Total GULP energy -356949.434131 kJ/mol
# GULP energy per Si atom -5577.334908 kJ/mol
# Density = 1.869310 g / cm^3
# Si number density = 18.735743 Si / 1000 Ang^3
#
#
#
# Elastic Constant Matrix: (Units=GPa)
#
#
# Indices 1 2 3 4 5 6 
#
# 1 20.8177 5.7541 7.6522 0.0000 0.0000 0.0000
# 2 5.7541 79.6825 97.5488 0.0000 0.0000 0.0000
# 3 7.6522 97.5488 197.7425 0.0000 0.0000 0.0000
# 4 0.0000 0.0000 0.0000 29.8653 0.0000 0.0000
# 5 0.0000 0.0000 0.0000 0.0000 22.8228 0.0000
# 6 0.0000 0.0000 0.0000 0.0000 0.0000 11.1168
#
#
#
# Elastic Compliance Matrix: (Units=1/GPa)
#
#
# Indices 1 2 3 4 5 6 
#
# 1 0.049026 -0.003075 -0.000380 0.000000 0.000000 0.000000
# 2 -0.003075 0.031878 -0.015607 0.000000 0.000000 0.000000
# 3 -0.000380 -0.015607 0.012771 0.000000 0.000000 0.000000
# 4 0.000000 0.000000 0.000000 0.033484 0.000000 0.000000
# 5 0.000000 0.000000 0.000000 0.000000 0.043816 0.000000
# 6 0.000000 0.000000 0.000000 0.000000 0.000000 0.089954
#
#
# Mechanical properties :
#
#
# Convention : Reuss Voigt Hill
#
# Bulk Modulus (GPa) = 18.00149 57.79477 37.89813
# Shear Modulus (GPa) = 15.74463 25.24682 20.49573
#
# Velocity S-wave (km/s) = 2.90203 3.67484 3.31106
# Velocity P-wave (km/s) = 4.56705 6.99430 5.90670
#
# Compressibility (1/GPa) = 0.05555094
#
# Stress axis : x y z
#
# Youngs Moduli (GPa) = 20.39744 31.36960 78.30341
#
# Poissons Ratio (x) = 0.09645 0.02979
# Poissons Ratio (y) = 0.06271 1.22207
# Poissons Ratio (z) = 0.00776 0.48958
#
# Static dielectric constant tensor:
#      x y z
#    x 1.689720 0.000000 0.000000 
#    y 0.000000 1.654270 0.000000 
#    z 0.000000 0.000000 1.638390 
# 
# From -- ./inp_files/20942.got.cif
#   From: 2010.05.17/outbox.cif.g08.bks.cpg/sg53_11_cif.got.tgz:20942.got - 2010.06.03 12:45:16.
