data_PCOD9415873
_publ_section_title
;
Structure prediction by ZEFSAII (Michael W. Deem and Ramdas Pophale) SiO2 
 PCOD9415873
Probable space group: P M N A
;
_chemical_formula_sum "Si O2"
_cell_formula_units_Z 64
_cell_length_a 9.204422
_cell_length_b 21.629509
_cell_length_c 14.681636
_cell_angle_alpha 90.000000
_cell_angle_beta 90.000000
_cell_angle_gamma 90.000000
_cell_volume 2922.924753
_symmetry_space_group_name_H-M "P M N A"
_symmetry_group_IT_number 53
_symmetry_cell_setting 'orthorhombic'
loop_
_space_group_symop_operation_xyz
x,y,z
1/2-x,-y,1/2+z
x,-y,-z
1/2-x,y,1/2-z
-x,-y,-z
1/2+x,y,1/2-z
-x,y,z
1/2+x,-y,1/2+z
loop_
_atom_site_type_symbol
_atom_site_label
_atom_site_fract_x
_atom_site_fract_y
_atom_site_fract_z
Si Si1 0.674671 0.568954 0.150791
Si Si2 0.162175 0.308315 0.893900
Si Si3 0.168906 0.932845 0.111976
Si Si4 0.660121 0.309369 0.392373
Si Si5 0.667619 0.069208 0.389958
Si Si6 0.324211 0.448685 0.349015
Si Si7 0.835806 0.808564 0.610138
Si Si8 0.334358 0.810413 0.113468
O O1 0.750000 0.570080 0.250000
O O2 0.500000 0.564204 0.153819
O O3 0.730084 0.633672 0.111743
O O4 0.747654 0.508189 0.105724
O O5 0.235174 0.246707 0.855412
O O6 0.000000 0.321814 0.856033
O O7 0.144864 0.296149 0.000808
O O8 0.266379 0.875689 0.141898
O O9 0.000000 0.925538 0.139377
O O10 0.222358 0.001317 0.138711
O O11 0.169479 0.931168 0.000964
O O12 0.500000 0.305893 0.348902
O O13 0.707746 0.380694 0.387470
O O14 0.763119 0.255265 0.358203
O O15 0.500000 0.074123 0.362137
O O16 0.753130 0.129653 0.360484
O O17 0.250000 0.445823 0.250000
O O18 0.500000 0.457319 0.346328
O O19 0.836130 0.809236 0.498303
O O20 0.000000 0.811050 0.641489
O O21 0.500000 0.803295 0.144027
#
# Coordination Sequence:
#
# PCOD9415873 Si02
#       8
#     8   8   8   8   8   8   8   8
#     4  11  22  37  55  75  98 125 156 193 236 283
#     4  10  19  33  51  71  96 128 162 197 235 281
#     4   8  13  21  33  50  74 112 155 191 227 275
#     4   9  19  33  50  70  96 129 162 194 235 286
#     4   8  13  21  33  49  75 112 154 191 228 276
#     4  10  20  36  55  75  97 125 159 195 236 283
#     4   9  16  24  37  58  86 117 152 193 237 278
#     4   9  16  25  37  58  87 118 151 192 237 280
#
# _framework density 21.895876999999999
#
# number of rings (size 3 to 8) (size 9 to 14) (size 15 to 20)
#    0.000    2.750    0.000    4.125    0.000    5.500 
#    0.000    5.000    0.000    0.000    0.000    0.000 
#    0.000    1.000    0.000    5.250    0.000    7.750 
#
# Total GULP energy -357039.746430 kJ/mol
# GULP energy per Si atom -5578.746038 kJ/mol
# Density = 2.184604 g / cm^3
# Si number density = 21.895877 Si / 1000 Ang^3
#
#
#
# Elastic Constant Matrix: (Units=GPa)
#
#
# Indices 1 2 3 4 5 6 
#
# 1 153.4935 119.2689 9.0078 0.0000 0.0000 0.0000
# 2 119.2689 217.9312 -1.9551 0.0000 0.0000 0.0000
# 3 9.0078 -1.9551 43.0208 0.0000 0.0000 0.0000
# 4 0.0000 0.0000 0.0000 58.9002 0.0000 0.0000
# 5 0.0000 0.0000 0.0000 0.0000 -1.0754 0.0000
# 6 0.0000 0.0000 0.0000 0.0000 0.0000 516.2302
#
#
#
# Elastic Compliance Matrix: (Units=1/GPa)
#
#
# Indices 1 2 3 4 5 6 
#
# 1 0.011647 -0.006399 -0.002729 0.000000 0.000000 0.000000
# 2 -0.006399 0.008106 0.001708 0.000000 0.000000 0.000000
# 3 -0.002729 0.001708 0.023894 0.000000 0.000000 0.000000
# 4 0.000000 0.000000 0.000000 0.016978 0.000000 0.000000
# 5 0.000000 0.000000 0.000000 0.000000 -0.929872 0.000000
# 6 0.000000 0.000000 0.000000 0.000000 0.000000 0.001937
#
#
# Mechanical properties :
#
#
# Convention : Reuss Voigt Hill
#
# Bulk Modulus (GPa) = 34.71435 74.12096 54.41765
# Shear Modulus (GPa) = -5.93213 134.01925 64.04356
#
# Velocity S-wave (km/s) = -1.64776 7.83201 5.41411
# Velocity P-wave (km/s) = 3.50265 10.75696 7.99940
#
# Compressibility (1/GPa) = 0.02880653
#
# Stress axis : x y z
#
# Youngs Moduli (GPa) = 85.85859 123.36884 41.85204
#
# Poissons Ratio (x) = 0.78940 0.11423
# Poissons Ratio (y) = 0.54938 -0.07149
# Poissons Ratio (z) = 0.23435 -0.21073
#
# Static dielectric constant tensor:
#      x y z
#    x 1.762880 0.000000 0.000000 
#    y 0.000000 1.838000 0.000000 
#    z 0.000000 0.000000 1.897640 
# 
# From -- ./inp_files/27015.got.cif
#   From: 2010.05.17/outbox.cif.g08.bks.cpg/sg53_14_cif.got.tgz:27015.got - 2010.06.03 12:45:16.
