data_PCOD9415373
_publ_section_title
;
Structure prediction by ZEFSAII (Michael W. Deem and Ramdas Pophale) SiO2 
 PCOD9415373
Probable space group: P M N A
;
_chemical_formula_sum "Si O2"
_cell_formula_units_Z 48
_cell_length_a 8.624674
_cell_length_b 16.219503
_cell_length_c 19.879951
_cell_angle_alpha 90.000000
_cell_angle_beta 90.000000
_cell_angle_gamma 90.000000
_cell_volume 2780.965111
_symmetry_space_group_name_H-M "P M N A"
_symmetry_group_IT_number 53
_symmetry_cell_setting 'orthorhombic'
loop_
_space_group_symop_operation_xyz
x,y,z
1/2-x,-y,1/2+z
x,-y,-z
1/2-x,y,1/2-z
-x,-y,-z
1/2+x,y,1/2-z
-x,y,z
1/2+x,-y,1/2+z
loop_
_atom_site_type_symbol
_atom_site_label
_atom_site_fract_x
_atom_site_fract_y
_atom_site_fract_z
Si Si1 0.313952 0.405507 0.324654
Si Si2 0.316239 0.913891 0.917954
Si Si3 0.683715 0.092123 0.919280
Si Si4 0.686921 0.593687 0.324305
Si Si5 0.314629 0.265475 0.572688
Si Si6 0.313374 0.265717 0.078248
O O1 0.250000 0.388870 0.250000
O O2 0.500000 0.401474 0.323833
O O3 0.267475 0.499760 0.342293
O O4 0.249012 0.339390 0.376621
O O5 0.500000 0.916347 0.903151
O O6 0.256192 0.824578 0.895473
O O7 0.254327 0.003000 0.894578
O O8 0.302402 0.911197 0.999245
O O9 0.500000 0.098652 0.904460
O O10 0.767442 0.175824 0.898495
O O11 0.750000 0.611504 0.250000
O O12 0.500000 0.595911 0.321804
O O13 0.738300 0.661354 0.378236
O O14 0.500000 0.269056 0.565878
O O15 0.241234 0.274695 0.498777
O O16 0.500000 0.264616 0.079237
#
# Coordination Sequence:
#
# PCOD9415373 Si02
#       6
#     8   8   8   8   8   8
#     4  10  20  36  54  72  94 125 161 199 241 289
#     4   7  12  24  43  65  93 125 158 191 230 278
#     4   8  13  25  44  66  92 126 160 192 231 281
#     4   9  20  36  53  70  94 127 162 197 240 290
#     4  10  19  31  47  73 103 128 156 199 246 285
#     4  10  19  32  50  74 100 129 162 198 237 283
#
# _framework density 17.260193999999998
#
# number of rings (size 3 to 8) (size 9 to 14) (size 15 to 20)
#    0.000    3.000    0.000    3.500    0.000    2.667 
#    0.000   10.833    0.000    1.000    0.000    2.333 
#    0.000    0.000    0.000    0.000    0.000    0.000 
#
# Total GULP energy -267208.999225 kJ/mol
# GULP energy per Si atom -5566.854151 kJ/mol
# Density = 1.722091 g / cm^3
# Si number density = 17.260194 Si / 1000 Ang^3
#
#
#
# Elastic Constant Matrix: (Units=GPa)
#
#
# Indices 1 2 3 4 5 6 
#
# 1 35.6064 40.0703 20.5344 0.0000 0.0000 0.0000
# 2 40.0703 194.0590 88.0060 0.0000 0.0000 0.0000
# 3 20.5344 88.0060 56.0437 0.0000 0.0000 0.0000
# 4 0.0000 0.0000 0.0000 -8.9089 0.0000 0.0000
# 5 0.0000 0.0000 0.0000 0.0000 16.3969 0.0000
# 6 0.0000 0.0000 0.0000 0.0000 0.0000 27.9171
#
#
#
# Elastic Compliance Matrix: (Units=1/GPa)
#
#
# Indices 1 2 3 4 5 6 
#
# 1 0.037055 -0.005191 -0.005426 0.000000 0.000000 0.000000
# 2 -0.005191 0.018628 -0.027350 0.000000 0.000000 0.000000
# 3 -0.005426 -0.027350 0.062780 0.000000 0.000000 0.000000
# 4 0.000000 0.000000 0.000000 -0.112247 0.000000 0.000000
# 5 0.000000 0.000000 0.000000 0.000000 0.060987 0.000000
# 6 0.000000 0.000000 0.000000 0.000000 0.000000 0.035820
#
#
# Mechanical properties :
#
#
# Convention : Reuss Voigt Hill
#
# Bulk Modulus (GPa) = 23.51321 64.77005 44.14163
# Shear Modulus (GPa) = 25.88866 16.22090 21.05478
#
# Velocity S-wave (km/s) = 3.87706 3.06892 3.49642
# Velocity P-wave (km/s) = 5.80470 7.08271 6.47531
#
# Compressibility (1/GPa) = 0.04252929
#
# Stress axis : x y z
#
# Youngs Moduli (GPa) = 26.98656 53.68192 15.92870
#
# Poissons Ratio (x) = 0.27864 0.08643
# Poissons Ratio (y) = 0.14008 0.43565
# Poissons Ratio (z) = 0.14643 1.46821
#
# Static dielectric constant tensor:
#      x y z
#    x 1.585240 0.000000 0.000000 
#    y 0.000000 1.645530 0.000000 
#    z 0.000000 0.000000 1.543860 
# 
# From -- ./inp_files/30522.got.cif
#   From: 2010.05.17/outbox.cif.g08.bks.cpg/sg53_16_cif.got.tgz:30522.got - 2010.06.03 12:45:16.
