data_PCOD9415437
_publ_section_title
;
Structure prediction by ZEFSAII (Michael W. Deem and Ramdas Pophale) SiO2 
 PCOD9415437
Probable space group: P M N A
;
_chemical_formula_sum "Si O2"
_cell_formula_units_Z 48
_cell_length_a 7.733201
_cell_length_b 16.990867
_cell_length_c 19.023339
_cell_angle_alpha 90.000000
_cell_angle_beta 90.000000
_cell_angle_gamma 90.000000
_cell_volume 2499.548603
_symmetry_space_group_name_H-M "P M N A"
_symmetry_group_IT_number 53
_symmetry_cell_setting 'orthorhombic'
loop_
_space_group_symop_operation_xyz
x,y,z
1/2-x,-y,1/2+z
x,-y,-z
1/2-x,y,1/2-z
-x,-y,-z
1/2+x,y,1/2-z
-x,y,z
1/2+x,-y,1/2+z
loop_
_atom_site_type_symbol
_atom_site_label
_atom_site_fract_x
_atom_site_fract_y
_atom_site_fract_z
Si Si1 0.293820 0.169883 0.170409
Si Si2 0.291505 0.515912 0.668457
Si Si3 0.710372 0.237845 0.540646
Si Si4 0.205193 0.328309 0.096566
Si Si5 0.204424 0.920285 0.533514
Si Si6 0.207841 0.339481 0.830892
O O1 0.250000 0.147239 0.250000
O O2 0.500000 0.172010 0.163946
O O3 0.230572 0.258090 0.152555
O O4 0.225426 0.112299 0.108416
O O5 0.250000 0.530867 0.750000
O O6 0.500000 0.514516 0.661580
O O7 0.223124 0.588509 0.622726
O O8 0.227549 0.427840 0.651533
O O9 0.500000 0.235687 0.539490
O O10 0.771337 0.294639 0.477266
O O11 0.772879 0.151171 0.521041
O O12 0.769496 0.274595 0.614027
O O13 0.000000 0.339035 0.087663
O O14 0.000000 0.933825 0.544912
O O15 0.278497 0.000000 0.500000
O O16 0.250000 0.322723 0.750000
O O17 0.000000 0.341909 0.836816
#
# Coordination Sequence:
#
# PCOD9415437 Si02
#       6
#     8   8   8   8   8   8
#     4  10  19  31  49  72  98 126 155 189 231 280
#     4   9  17  28  43  64  92 127 162 195 230 269
#     4   9  18  32  50  72  95 120 154 195 238 282
#     4   9  17  29  46  69  96 125 157 194 235 277
#     4   9  19  36  55  73  95 124 155 189 234 286
#     4   9  18  32  48  67  93 126 163 199 234 273
#
# _framework density 19.203468000000001
#
# number of rings (size 3 to 8) (size 9 to 14) (size 15 to 20)
#    0.000    2.833    0.000    1.000    0.000    4.333 
#    0.000    4.167    0.000    4.000    0.000    9.333 
#    0.000    0.000    0.000    0.000    0.000    0.000 
#
# Total GULP energy -267586.691001 kJ/mol
# GULP energy per Si atom -5574.722729 kJ/mol
# Density = 1.915976 g / cm^3
# Si number density = 19.203468 Si / 1000 Ang^3
#
#
#
# Elastic Constant Matrix: (Units=GPa)
#
#
# Indices 1 2 3 4 5 6 
#
# 1 20.8477 -12.1105 -9.2908 0.0000 0.0000 0.0000
# 2 -12.1105 125.5601 96.4604 0.0000 0.0000 0.0000
# 3 -9.2908 96.4604 115.4431 0.0000 0.0000 0.0000
# 4 0.0000 0.0000 0.0000 77.4415 0.0000 0.0000
# 5 0.0000 0.0000 0.0000 0.0000 9.9182 0.0000
# 6 0.0000 0.0000 0.0000 0.0000 0.0000 12.9520
#
#
#
# Elastic Compliance Matrix: (Units=1/GPa)
#
#
# Indices 1 2 3 4 5 6 
#
# 1 0.050814 0.004913 -0.000016 0.000000 0.000000 0.000000
# 2 0.004913 0.022717 -0.018586 0.000000 0.000000 0.000000
# 3 -0.000016 -0.018586 0.024191 0.000000 0.000000 0.000000
# 4 0.000000 0.000000 0.000000 0.012913 0.000000 0.000000
# 5 0.000000 0.000000 0.000000 0.000000 0.100825 0.000000
# 6 0.000000 0.000000 0.000000 0.000000 0.000000 0.077208
#
#
# Mechanical properties :
#
#
# Convention : Reuss Voigt Hill
#
# Bulk Modulus (GPa) = 14.21575 45.77433 29.99504
# Shear Modulus (GPa) = 14.72787 32.51512 23.62149
#
# Velocity S-wave (km/s) = 2.77237 4.11930 3.51103
# Velocity P-wave (km/s) = 4.20319 6.82005 5.66480
#
# Compressibility (1/GPa) = 0.07034450
#
# Stress axis : x y z
#
# Youngs Moduli (GPa) = 19.67961 44.02069 41.33829
#
# Poissons Ratio (x) = -0.21629 0.00066
# Poissons Ratio (y) = -0.09669 0.76830
# Poissons Ratio (z) = 0.00032 0.81816
#
# Static dielectric constant tensor:
#      x y z
#    x 1.720200 0.000000 0.000000 
#    y 0.000000 1.667000 0.000000 
#    z 0.000000 0.000000 1.594300 
# 
# From -- ./inp_files/20175.got.cif
#   From: 2010.05.17/outbox.cif.g08.bks.cpg/sg53_11_cif.got.tgz:20175.got - 2010.06.03 12:45:16.
