data_PCOD9415568
_publ_section_title
;
Structure prediction by ZEFSAII (Michael W. Deem and Ramdas Pophale) SiO2 
 PCOD9415568
Probable space group: P M N A
;
_chemical_formula_sum "Si O2"
_cell_formula_units_Z 48
_cell_length_a 8.909052
_cell_length_b 15.665722
_cell_length_c 22.176156
_cell_angle_alpha 90.000000
_cell_angle_beta 90.000000
_cell_angle_gamma 90.000000
_cell_volume 3095.053619
_symmetry_space_group_name_H-M "P M N A"
_symmetry_group_IT_number 53
_symmetry_cell_setting 'orthorhombic'
loop_
_space_group_symop_operation_xyz
x,y,z
1/2-x,-y,1/2+z
x,-y,-z
1/2-x,y,1/2-z
-x,-y,-z
1/2+x,y,1/2-z
-x,y,z
1/2+x,-y,1/2+z
loop_
_atom_site_type_symbol
_atom_site_label
_atom_site_fract_x
_atom_site_fract_y
_atom_site_fract_z
Si Si1 0.818855 0.305945 0.684032
Si Si2 0.826687 0.971212 0.570467
Si Si3 0.182028 0.443076 0.587468
Si Si4 0.321990 0.802390 0.537509
Si Si5 0.318582 0.843832 0.092666
Si Si6 0.818718 0.374881 0.454775
O O1 0.750000 0.305749 0.750000
O O2 0.767400 0.386782 0.643731
O O3 0.779807 0.221279 0.645704
O O4 0.000000 0.308928 0.688200
O O5 0.730724 0.885760 0.574453
O O6 0.000000 0.952285 0.585314
O O7 0.822831 0.000000 0.500000
O O8 0.776963 0.057323 0.604427
O O9 0.227494 0.542062 0.583813
O O10 0.223110 0.398182 0.524107
O O11 0.000000 0.442940 0.588031
O O12 0.500000 0.799003 0.534465
O O13 0.254913 0.814249 0.470016
O O14 0.255538 0.714095 0.562298
O O15 0.500000 0.841696 0.084041
O O16 0.000000 0.366951 0.452693
#
# Coordination Sequence:
#
# PCOD9415568 Si02
#       6
#     8   8   8   8   8   8
#     4  10  19  32  48  68  91 118 152 188 224 267
#     4   8  15  27  43  61  82 116 153 180 209 253
#     4   8  15  28  48  66  83 114 157 192 219 257
#     4  11  19  25  39  67  97 120 140 177 231 276
#     4   9  17  31  47  60  84 121 158 187 210 256
#     4   9  15  28  48  65  84 118 155 187 221 266
#
# _framework density 15.508615000000001
#
# number of rings (size 3 to 8) (size 9 to 14) (size 15 to 20)
#    0.000    2.833    1.667    3.500    0.000    3.667 
#    0.000    2.500    0.000    0.000    0.000    1.167 
#    0.000    0.000    0.000    0.000    0.000    0.000 
#
# Total GULP energy -267295.762790 kJ/mol
# GULP energy per Si atom -5568.661725 kJ/mol
# Density = 1.547332 g / cm^3
# Si number density = 15.508615 Si / 1000 Ang^3
#
#
#
# Elastic Constant Matrix: (Units=GPa)
#
#
# Indices 1 2 3 4 5 6 
#
# 1 30.9419 48.3905 18.5732 0.0000 0.0000 0.0000
# 2 48.3905 174.5999 56.9566 0.0000 0.0000 0.0000
# 3 18.5732 56.9566 67.8195 0.0000 0.0000 0.0000
# 4 0.0000 0.0000 0.0000 14.8091 0.0000 0.0000
# 5 0.0000 0.0000 0.0000 0.0000 17.5771 0.0000
# 6 0.0000 0.0000 0.0000 0.0000 0.0000 -1.7721
#
#
#
# Elastic Compliance Matrix: (Units=1/GPa)
#
#
# Indices 1 2 3 4 5 6 
#
# 1 0.057562 -0.014890 -0.003259 0.000000 0.000000 0.000000
# 2 -0.014890 0.011740 -0.005782 0.000000 0.000000 0.000000
# 3 -0.003259 -0.005782 0.020493 0.000000 0.000000 0.000000
# 4 0.000000 0.000000 0.000000 0.067526 0.000000 0.000000
# 5 0.000000 0.000000 0.000000 0.000000 0.056892 0.000000
# 6 0.000000 0.000000 0.000000 0.000000 0.000000 -0.564294
#
#
# Mechanical properties :
#
#
# Convention : Reuss Voigt Hill
#
# Bulk Modulus (GPa) = 23.84728 57.91130 40.87929
# Shear Modulus (GPa) = -17.34664 16.08555 -0.63054
#
# Velocity S-wave (km/s) = -3.34805 3.22405 -0.63832
# Velocity P-wave (km/s) = 0.68136 7.16113 5.08655
#
# Compressibility (1/GPa) = 0.04193350
#
# Stress axis : x y z
#
# Youngs Moduli (GPa) = 17.37264 85.17614 48.79634
#
# Poissons Ratio (x) = 1.26829 0.15902
# Poissons Ratio (y) = 0.25868 0.28214
# Poissons Ratio (z) = 0.05661 0.49249
#
# Static dielectric constant tensor:
#      x y z
#    x 1.515140 0.000000 0.000000 
#    y 0.000000 1.560090 0.000000 
#    z 0.000000 0.000000 1.481750 
# 
# From -- ./inp_files/30509.got.cif
#   From: 2010.05.17/outbox.cif.g08.bks.cpg/sg53_16_cif.got.tgz:30509.got - 2010.06.03 12:45:16.
