data_PCOD9415914
_publ_section_title
;
Structure prediction by ZEFSAII (Michael W. Deem and Ramdas Pophale) SiO2 
 PCOD9415914
Probable space group: P M N A
;
_chemical_formula_sum "Si O2"
_cell_formula_units_Z 64
_cell_length_a 9.035609
_cell_length_b 23.717670
_cell_length_c 14.822858
_cell_angle_alpha 90.000000
_cell_angle_beta 90.000000
_cell_angle_gamma 90.000000
_cell_volume 3176.591721
_symmetry_space_group_name_H-M "P M N A"
_symmetry_group_IT_number 53
_symmetry_cell_setting 'orthorhombic'
loop_
_space_group_symop_operation_xyz
x,y,z
1/2-x,-y,1/2+z
x,-y,-z
1/2-x,y,1/2-z
-x,-y,-z
1/2+x,y,1/2-z
-x,y,z
1/2+x,-y,1/2+z
loop_
_atom_site_type_symbol
_atom_site_label
_atom_site_fract_x
_atom_site_fract_y
_atom_site_fract_z
Si Si1 0.174204 0.916268 0.158613
Si Si2 0.323254 0.369716 0.043671
Si Si3 0.823861 0.407587 0.660308
Si Si4 0.334010 0.972961 0.901301
Si Si5 0.178313 0.858288 0.849584
Si Si6 0.322614 0.205065 0.651650
Si Si7 0.831635 0.480069 0.104368
Si Si8 0.822003 0.745973 0.964869
O O1 0.250000 0.897863 0.250000
O O2 0.204065 0.857796 0.106559
O O3 0.000000 0.923276 0.163008
O O4 0.243124 0.976842 0.143033
O O5 0.500000 0.372831 0.052810
O O6 0.287460 0.379741 0.936772
O O7 0.247062 0.419686 0.100211
O O8 0.259917 0.309182 0.070588
O O9 0.750000 0.381656 0.750000
O O10 0.762836 0.471385 0.651797
O O11 0.000000 0.407162 0.670665
O O12 0.500000 0.966248 0.863222
O O13 0.247987 0.914338 0.895246
O O14 0.347900 0.000000 0.000000
O O15 0.250000 0.854701 0.750000
O O16 0.211421 0.801860 0.906507
O O17 0.000000 0.864520 0.844203
O O18 0.250000 0.215663 0.750000
O O19 0.500000 0.207898 0.665315
O O20 0.277946 0.245589 0.570061
O O21 0.000000 0.477333 0.139215
O O22 0.839125 0.500000 0.000000
O O23 0.000000 0.738317 0.962700
#
# Coordination Sequence:
#
# PCOD9415914 Si02
#       8
#     8   8   8   8   8   8   8   8
#     4  10  19  33  53  76 105 139 176 220 274 337
#     4  10  21  36  56  82 112 148 191 238 285 337
#     4  10  20  34  54  84 120 153 186 228 280 339
#     4  11  23  37  56  84 114 143 180 230 288 351
#     4  11  24  43  65  87 115 154 200 250 302 354
#     4   9  19  35  55  81 113 150 191 237 292 354
#     4   9  17  32  55  80 108 144 183 225 276 332
#     4  10  22  40  60  82 112 153 200 246 294 350
#
# _framework density 20.147379000000001
#
# number of rings (size 3 to 8) (size 9 to 14) (size 15 to 20)
#    0.000    2.000    0.000    3.375    0.000    7.500 
#    0.000    3.125    0.000    1.500    0.000    0.000 
#    0.000    0.000    0.000    0.000    0.000    0.000 
#
# Total GULP energy -356739.027191 kJ/mol
# GULP energy per Si atom -5574.047300 kJ/mol
# Density = 2.010152 g / cm^3
# Si number density = 20.147379 Si / 1000 Ang^3
#
#
#
# Elastic Constant Matrix: (Units=GPa)
#
#
# Indices 1 2 3 4 5 6 
#
# 1 67.7352 42.5302 13.0077 0.0000 0.0000 0.0000
# 2 42.5302 123.7943 9.3930 0.0000 0.0000 0.0000
# 3 13.0077 9.3930 47.3119 0.0000 0.0000 0.0000
# 4 0.0000 0.0000 0.0000 16.5245 0.0000 0.0000
# 5 0.0000 0.0000 0.0000 0.0000 18.9517 0.0000
# 6 0.0000 0.0000 0.0000 0.0000 0.0000 26.6292
#
#
#
# Elastic Compliance Matrix: (Units=1/GPa)
#
#
# Indices 1 2 3 4 5 6 
#
# 1 0.019581 -0.006415 -0.004110 0.000000 0.000000 0.000000
# 2 -0.006415 0.010303 -0.000282 0.000000 0.000000 0.000000
# 3 -0.004110 -0.000282 0.022322 0.000000 0.000000 0.000000
# 4 0.000000 0.000000 0.000000 0.060516 0.000000 0.000000
# 5 0.000000 0.000000 0.000000 0.000000 0.052766 0.000000
# 6 0.000000 0.000000 0.000000 0.000000 0.000000 0.037553
#
#
# Mechanical properties :
#
#
# Convention : Reuss Voigt Hill
#
# Bulk Modulus (GPa) = 32.68767 40.96704 36.82736
# Shear Modulus (GPa) = 21.29001 24.01510 22.65255
#
# Velocity S-wave (km/s) = 3.25424 3.45624 3.35676
# Velocity P-wave (km/s) = 5.51177 6.02539 5.77429
#
# Compressibility (1/GPa) = 0.03059257
#
# Stress axis : x y z
#
# Youngs Moduli (GPa) = 51.07079 97.05648 44.79848
#
# Poissons Ratio (x) = 0.62264 0.18411
# Poissons Ratio (y) = 0.32763 0.01262
# Poissons Ratio (z) = 0.20989 0.02735
#
# Static dielectric constant tensor:
#      x y z
#    x 1.694270 0.000000 0.000000 
#    y 0.000000 1.742660 0.000000 
#    z 0.000000 0.000000 1.730530 
# 
# From -- ./inp_files/20801.got.cif
#   From: 2010.05.17/outbox.cif.g08.bks.cpg/sg53_11_cif.got.tgz:20801.got - 2010.06.03 12:45:16.
