data_PCOD9415790
_publ_section_title
;
Structure prediction by ZEFSAII (Michael W. Deem and Ramdas Pophale) SiO2 
 PCOD9415790
Probable space group: P M N A
;
_chemical_formula_sum "Si O2"
_cell_formula_units_Z 48
_cell_length_a 8.722811
_cell_length_b 10.313718
_cell_length_c 24.170895
_cell_angle_alpha 90.000000
_cell_angle_beta 90.000000
_cell_angle_gamma 90.000000
_cell_volume 2174.525210
_symmetry_space_group_name_H-M "P M N A"
_symmetry_group_IT_number 53
_symmetry_cell_setting 'orthorhombic'
loop_
_space_group_symop_operation_xyz
x,y,z
1/2-x,-y,1/2+z
x,-y,-z
1/2-x,y,1/2-z
-x,-y,-z
1/2+x,y,1/2-z
-x,y,z
1/2+x,-y,1/2+z
loop_
_atom_site_type_symbol
_atom_site_label
_atom_site_fract_x
_atom_site_fract_y
_atom_site_fract_z
Si Si1 0.182753 0.174879 0.692216
Si Si2 0.680304 0.181062 0.462215
Si Si3 0.816096 0.740168 0.428891
Si Si4 0.321250 0.551896 0.924953
Si Si5 0.822492 0.360545 0.304005
Si Si6 0.683823 0.091636 0.343826
O O1 0.250000 0.225985 0.750000
O O2 0.239688 0.232599 0.633421
O O3 0.000000 0.188706 0.694189
O O4 0.230841 0.024574 0.686283
O O5 0.500000 0.161794 0.467936
O O6 0.755034 0.167870 0.522397
O O7 0.718668 0.328604 0.443802
O O8 0.732575 0.098933 0.408741
O O9 0.777150 0.591057 0.444019
O O10 0.000000 0.748962 0.428091
O O11 0.500000 0.578620 0.940324
O O12 0.315310 0.551613 0.858293
O O13 0.750000 0.422904 0.250000
O O14 0.731529 0.228508 0.317392
O O15 0.000000 0.327996 0.294399
O O16 0.500000 0.075334 0.341022
#
# Coordination Sequence:
#
# PCOD9415790 Si02
#       6
#     8   8   8   8   8   8
#     4  11  24  41  60  82 110 147 189 228 271 324
#     4  10  21  36  58  88 115 141 179 229 279 323
#     4  10  22  39  58  81 112 150 186 221 268 329
#     4   9  19  36  56  79 111 150 186 222 271 330
#     4  10  19  32  53  80 109 142 183 230 278 327
#     4  10  21  38  58  81 111 144 181 227 279 330
#
# _framework density 22.073784
#
# number of rings (size 3 to 8) (size 9 to 14) (size 15 to 20)
#    0.000    2.000    0.000    3.000    0.000    8.000 
#    0.000    3.333    0.000    0.000    0.000    0.000 
#    0.000    0.000    0.000    0.000    0.000    0.000 
#
# Total GULP energy -268241.257765 kJ/mol
# GULP energy per Si atom -5588.359537 kJ/mol
# Density = 2.202354 g / cm^3
# Si number density = 22.073784 Si / 1000 Ang^3
#
#
#
# Elastic Constant Matrix: (Units=GPa)
#
#
# Indices 1 2 3 4 5 6 
#
# 1 28.9703 -6.3149 29.5213 0.0000 0.0000 0.0000
# 2 -6.3149 21.5067 4.3816 0.0000 0.0000 0.0000
# 3 29.5213 4.3816 160.9355 0.0000 0.0000 0.0000
# 4 0.0000 0.0000 0.0000 23.0057 0.0000 0.0000
# 5 0.0000 0.0000 0.0000 0.0000 -235.8996 0.0000
# 6 0.0000 0.0000 0.0000 0.0000 0.0000 -9.0191
#
#
#
# Elastic Compliance Matrix: (Units=1/GPa)
#
#
# Indices 1 2 3 4 5 6 
#
# 1 0.047202 0.015711 -0.009086 0.000000 0.000000 0.000000
# 2 0.015711 0.051986 -0.004297 0.000000 0.000000 0.000000
# 3 -0.009086 -0.004297 0.007997 0.000000 0.000000 0.000000
# 4 0.000000 0.000000 0.000000 0.043468 0.000000 0.000000
# 5 0.000000 0.000000 0.000000 0.000000 -0.004239 0.000000
# 6 0.000000 0.000000 0.000000 0.000000 0.000000 -0.110875
#
#
# Mechanical properties :
#
#
# Convention : Reuss Voigt Hill
#
# Bulk Modulus (GPa) = 8.94138 29.62094 19.28116
# Shear Modulus (GPa) = 73.35320 -32.12765 20.61277
#
# Velocity S-wave (km/s) = 5.77088 -3.81920 3.05915
# Velocity P-wave (km/s) = 6.96158 2.44952 4.60779
#
# Compressibility (1/GPa) = 0.11183950
#
# Stress axis : x y z
#
# Youngs Moduli (GPa) = 21.18563 19.23604 125.04050
#
# Poissons Ratio (x) = -0.30221 1.13615
# Poissons Ratio (y) = -0.33284 0.53733
# Poissons Ratio (z) = 0.19250 0.08266
#
# Static dielectric constant tensor:
#      x y z
#    x 1.745790 0.000000 0.000000 
#    y 0.000000 1.788420 0.000000 
#    z 0.000000 0.000000 1.881170 
# 
# From -- ./inp_files/33930.got.cif
#   From: 2010.05.17/outbox.cif.g08.bks.cpg/sg53_17_cif.got.tgz:33930.got - 2010.06.03 12:45:16.
