data_PCOD9415964
_publ_section_title
;
Structure prediction by ZEFSAII (Michael W. Deem and Ramdas Pophale) SiO2 
 PCOD9415964
Probable space group: P M N A
;
_chemical_formula_sum "Si O2"
_cell_formula_units_Z 64
_cell_length_a 7.691545
_cell_length_b 14.818018
_cell_length_c 25.942364
_cell_angle_alpha 90.000000
_cell_angle_beta 90.000000
_cell_angle_gamma 90.000000
_cell_volume 2956.740785
_symmetry_space_group_name_H-M "P M N A"
_symmetry_group_IT_number 53
_symmetry_cell_setting 'orthorhombic'
loop_
_space_group_symop_operation_xyz
x,y,z
1/2-x,-y,1/2+z
x,-y,-z
1/2-x,y,1/2-z
-x,-y,-z
1/2+x,y,1/2-z
-x,y,z
1/2+x,-y,1/2+z
loop_
_atom_site_type_symbol
_atom_site_label
_atom_site_fract_x
_atom_site_fract_y
_atom_site_fract_z
Si Si1 0.713690 0.980506 0.666611
Si Si2 0.206746 0.212588 0.479646
Si Si3 0.302644 0.974053 0.553392
Si Si4 0.790326 0.269679 0.909376
Si Si5 0.206515 0.777846 0.808298
Si Si6 0.295365 0.358375 0.099337
Si Si7 0.791421 0.174621 0.805240
Si Si8 0.702432 0.463065 0.554259
O O1 0.500000 0.977523 0.667090
O O2 0.772985 0.997948 0.607994
O O3 0.774382 0.881153 0.683964
O O4 0.772869 0.070634 0.695208
O O5 0.303510 0.133664 0.449624
O O6 0.246668 0.211049 0.540065
O O7 0.263641 0.304533 0.451953
O O8 0.000000 0.202528 0.471755
O O9 0.500000 0.011140 0.552365
O O10 0.212969 0.000000 0.500000
O O11 0.725972 0.227415 0.855772
O O12 0.722643 0.369848 0.923498
O O13 0.000000 0.273152 0.905403
O O14 0.250000 0.749363 0.750000
O O15 0.266533 0.706815 0.851681
O O16 0.000000 0.782506 0.813427
O O17 0.500000 0.373232 0.095085
O O18 0.212393 0.456769 0.096037
O O19 0.750000 0.217206 0.750000
O O20 0.000000 0.170310 0.809988
O O21 0.779310 0.500000 0.500000
O O22 0.500000 0.443643 0.543615
#
# Coordination Sequence:
#
# PCOD9415964 Si02
#       8
#     8   8   8   8   8   8   8   8
#     4   9  18  33  55  83 112 149 193 234 278 334
#     4  11  22  34  53  84 121 152 185 234 293 347
#     4  10  19  33  54  79 112 156 199 235 282 345
#     4  10  21  38  61  86 115 152 196 241 290 351
#     4  11  22  38  60  84 115 153 197 243 288 343
#     4  11  23  38  57  85 120 155 189 235 294 352
#     4  10  21  39  60  84 114 149 192 238 284 337
#     4  10  20  36  61  89 115 151 196 242 293 348
#
# _framework density 21.645454000000001
#
# number of rings (size 3 to 8) (size 9 to 14) (size 15 to 20)
#    0.000    1.750    2.500    2.250    0.000    4.500 
#    0.000    1.875    0.000    1.500    0.000    0.000 
#    0.000    0.000    0.000    0.000    0.000    0.000 
#
# Total GULP energy -357313.572576 kJ/mol
# GULP energy per Si atom -5583.024572 kJ/mol
# Density = 2.159619 g / cm^3
# Si number density = 21.645454 Si / 1000 Ang^3
#
#
#
# Elastic Constant Matrix: (Units=GPa)
#
#
# Indices 1 2 3 4 5 6 
#
# 1 44.0217 4.0433 -4.1745 0.0000 0.0000 0.0000
# 2 4.0433 84.1004 42.2562 0.0000 0.0000 0.0000
# 3 -4.1745 42.2562 165.2072 0.0000 0.0000 0.0000
# 4 0.0000 0.0000 0.0000 14.2028 0.0000 0.0000
# 5 0.0000 0.0000 0.0000 0.0000 10.2728 0.0000
# 6 0.0000 0.0000 0.0000 0.0000 0.0000 8.8736
#
#
#
# Elastic Compliance Matrix: (Units=1/GPa)
#
#
# Indices 1 2 3 4 5 6 
#
# 1 0.022957 -0.001601 0.000990 0.000000 0.000000 0.000000
# 2 -0.001601 0.013756 -0.003559 0.000000 0.000000 0.000000
# 3 0.000990 -0.003559 0.006988 0.000000 0.000000 0.000000
# 4 0.000000 0.000000 0.000000 0.070409 0.000000 0.000000
# 5 0.000000 0.000000 0.000000 0.000000 0.097345 0.000000
# 6 0.000000 0.000000 0.000000 0.000000 0.000000 0.112693
#
#
# Mechanical properties :
#
#
# Convention : Reuss Voigt Hill
#
# Bulk Modulus (GPa) = 28.28011 41.95324 35.11668
# Shear Modulus (GPa) = 14.52327 23.41678 18.97003
#
# Velocity S-wave (km/s) = 2.59310 3.29269 2.96361
# Velocity P-wave (km/s) = 4.69671 5.82064 5.28862
#
# Compressibility (1/GPa) = 0.03536054
#
# Stress axis : x y z
#
# Youngs Moduli (GPa) = 43.55980 72.69736 143.09677
#
# Poissons Ratio (x) = 0.11638 -0.14160
# Poissons Ratio (y) = 0.06973 0.50926
# Poissons Ratio (z) = -0.04310 0.25872
#
# Static dielectric constant tensor:
#      x y z
#    x 1.809040 0.000000 0.000000 
#    y 0.000000 1.832310 0.000000 
#    z 0.000000 0.000000 1.806140 
# 
# From -- ./inp_files/34153.got.cif
#   From: 2010.05.17/outbox.cif.g08.bks.cpg/sg53_18_cif.got.tgz:34153.got - 2010.06.03 12:45:16.
