data_PCOD9415199
_publ_section_title
;
Structure prediction by ZEFSAII (Michael W. Deem and Ramdas Pophale) SiO2 
 PCOD9415199
Probable space group: P M N A
;
_chemical_formula_sum "Si O2"
_cell_formula_units_Z 48
_cell_length_a 8.074012
_cell_length_b 15.586221
_cell_length_c 21.346858
_cell_angle_alpha 90.000000
_cell_angle_beta 90.000000
_cell_angle_gamma 90.000000
_cell_volume 2686.359811
_symmetry_space_group_name_H-M "P M N A"
_symmetry_group_IT_number 53
_symmetry_cell_setting 'orthorhombic'
loop_
_space_group_symop_operation_xyz
x,y,z
1/2-x,-y,1/2+z
x,-y,-z
1/2-x,y,1/2-z
-x,-y,-z
1/2+x,y,1/2-z
-x,y,z
1/2+x,-y,1/2+z
loop_
_atom_site_type_symbol
_atom_site_label
_atom_site_fract_x
_atom_site_fract_y
_atom_site_fract_z
Si Si1 0.299943 0.422478 0.044013
Si Si2 0.696343 0.198026 0.355948
Si Si3 0.802214 0.984655 0.684088
Si Si4 0.193549 0.765133 0.509153
Si Si5 0.803058 0.614163 0.817794
Si Si6 0.702911 0.932688 0.053987
O O1 0.500000 0.420214 0.041109
O O2 0.235379 0.330574 0.017937
O O3 0.255974 0.429470 0.117586
O O4 0.241875 0.500000 0.000000
O O5 0.500000 0.205775 0.367666
O O6 0.730098 0.111268 0.319442
O O7 0.789336 0.193029 0.422152
O O8 0.754613 0.286149 0.323487
O O9 0.750000 0.024790 0.750000
O O10 0.000000 0.978423 0.681666
O O11 0.745193 0.034668 0.622111
O O12 0.262953 0.836789 0.462445
O O13 0.000000 0.754367 0.493685
O O14 0.750000 0.579391 0.750000
O O15 0.000000 0.613620 0.818939
O O16 0.500000 0.931202 0.052577
O O17 0.754601 0.000000 0.000000
#
# Coordination Sequence:
#
# PCOD9415199 Si02
#       6
#     8   8   8   8   8   8
#     4   9  18  32  52  77 101 126 161 203 246 293
#     4  10  19  30  45  70 100 128 159 193 239 289
#     4  11  21  32  46  65  94 127 164 202 240 286
#     4   9  16  30  51  71  94 127 163 199 237 281
#     4  10  20  32  48  71 100 132 162 196 241 296
#     4   9  16  29  49  70  90 123 167 198 230 280
#
# _framework density 17.868046
#
# number of rings (size 3 to 8) (size 9 to 14) (size 15 to 20)
#    0.000    2.333    1.667    2.000    0.000    3.667 
#    0.000    2.500    0.000    1.000    0.000    2.333 
#    0.000    0.000    0.000    0.000    0.000    0.000 
#
# Total GULP energy -267555.385722 kJ/mol
# GULP energy per Si atom -5574.070536 kJ/mol
# Density = 1.782738 g / cm^3
# Si number density = 17.868046 Si / 1000 Ang^3
#
#
#
# Elastic Constant Matrix: (Units=GPa)
#
#
# Indices 1 2 3 4 5 6 
#
# 1 21.7063 7.0091 6.0789 0.0000 0.0000 0.0000
# 2 7.0091 87.3354 73.6715 0.0000 0.0000 0.0000
# 3 6.0789 73.6715 153.3279 0.0000 0.0000 0.0000
# 4 0.0000 0.0000 0.0000 17.6867 0.0000 0.0000
# 5 0.0000 0.0000 0.0000 0.0000 21.6828 0.0000
# 6 0.0000 0.0000 0.0000 0.0000 0.0000 11.6465
#
#
#
# Elastic Compliance Matrix: (Units=1/GPa)
#
#
# Indices 1 2 3 4 5 6 
#
# 1 0.047296 -0.003723 -0.000086 0.000000 0.000000 0.000000
# 2 -0.003723 0.019547 -0.009244 0.000000 0.000000 0.000000
# 3 -0.000086 -0.009244 0.010967 0.000000 0.000000 0.000000
# 4 0.000000 0.000000 0.000000 0.056540 0.000000 0.000000
# 5 0.000000 0.000000 0.000000 0.000000 0.046119 0.000000
# 6 0.000000 0.000000 0.000000 0.000000 0.000000 0.085863
#
#
# Mechanical properties :
#
#
# Convention : Reuss Voigt Hill
#
# Bulk Modulus (GPa) = 19.34132 48.43204 33.88668
# Shear Modulus (GPa) = 16.14605 21.91055 19.02830
#
# Velocity S-wave (km/s) = 3.00930 3.50557 3.26687
# Velocity P-wave (km/s) = 4.78775 6.59921 5.76507
#
# Compressibility (1/GPa) = 0.05170278
#
# Stress axis : x y z
#
# Youngs Moduli (GPa) = 21.14350 51.15884 91.18128
#
# Poissons Ratio (x) = 0.19046 0.00787
# Poissons Ratio (y) = 0.07872 0.84291
# Poissons Ratio (z) = 0.00182 0.47293
#
# Static dielectric constant tensor:
#      x y z
#    x 1.633200 0.000000 0.000000 
#    y 0.000000 1.627820 0.000000 
#    z 0.000000 0.000000 1.630490 
# 
# From -- ./inp_files/26423.got.cif
#   From: 2010.05.17/outbox.cif.g08.bks.cpg/sg53_14_cif.got.tgz:26423.got - 2010.06.03 12:45:16.
