data_PCOD9415061
_publ_section_title
;
Structure prediction by ZEFSAII (Michael W. Deem and Ramdas Pophale) SiO2 
 PCOD9415061
Probable space group: P M N A
;
_chemical_formula_sum "Si O2"
_cell_formula_units_Z 24
_cell_length_a 13.849327
_cell_length_b 8.984223
_cell_length_c 7.903332
_cell_angle_alpha 90.000000
_cell_angle_beta 90.000000
_cell_angle_gamma 90.000000
_cell_volume 983.375579
_symmetry_space_group_name_H-M "P M N A"
_symmetry_group_IT_number 53
_symmetry_cell_setting 'orthorhombic'
loop_
_space_group_symop_operation_xyz
x,y,z
1/2-x,-y,1/2+z
x,-y,-z
1/2-x,y,1/2-z
-x,-y,-z
1/2+x,y,1/2-z
-x,y,z
1/2+x,-y,1/2+z
loop_
_atom_site_type_symbol
_atom_site_label
_atom_site_fract_x
_atom_site_fract_y
_atom_site_fract_z
Si Si1 0.310065 0.175344 0.486561
Si Si2 0.394752 0.286963 0.133166
Si Si3 0.857415 0.570877 0.185819
O O1 0.367416 0.211830 0.314023
O O2 0.202059 0.248733 0.473043
O O3 0.366270 0.254823 0.642063
O O4 0.299625 0.000000 0.500000
O O5 0.500000 0.235368 0.069568
O O6 0.405374 0.461468 0.180672
O O7 0.750000 0.549245 0.250000
O O8 0.873473 0.500000 0.000000
#
# Coordination Sequence:
#
# PCOD9415061 Si02
#       3
#     8   8   8
#     4  10  22  38  62  87 126 163 199 254 315 364
#     4  10  21  40  62  89 120 158 210 259 300 364
#     4  10  18  37  62  85 116 161 208 243 300 365
#
# _framework density 24.405729999999998
#
# number of rings (size 3 to 8) (size 9 to 14) (size 15 to 20)
#    0.000    2.000    6.667    0.000    4.667    7.333 
#    0.000    3.333    0.000    0.000    0.000    0.000 
#    0.000    0.000    0.000    0.000    0.000    0.000 
#
# Total GULP energy -133701.495340 kJ/mol
# GULP energy per Si atom -5570.895639 kJ/mol
# Density = 2.435018 g / cm^3
# Si number density = 24.405730 Si / 1000 Ang^3
#
#
#
# Elastic Constant Matrix: (Units=GPa)
#
#
# Indices 1 2 3 4 5 6 
#
# 1 104.2544 47.0939 6.0270 0.0000 0.0000 0.0000
# 2 47.0939 192.3491 35.8334 0.0000 0.0000 0.0000
# 3 6.0270 35.8334 106.1304 0.0000 0.0000 0.0000
# 4 0.0000 0.0000 0.0000 -14.9650 0.0000 0.0000
# 5 0.0000 0.0000 0.0000 0.0000 -31.2361 0.0000
# 6 0.0000 0.0000 0.0000 0.0000 0.0000 -2.5298
#
#
#
# Elastic Compliance Matrix: (Units=1/GPa)
#
#
# Indices 1 2 3 4 5 6 
#
# 1 0.010794 -0.002698 0.000298 0.000000 0.000000 0.000000
# 2 -0.002698 0.006222 -0.001948 0.000000 0.000000 0.000000
# 3 0.000298 -0.001948 0.010063 0.000000 0.000000 0.000000
# 4 0.000000 0.000000 0.000000 -0.066823 0.000000 0.000000
# 5 0.000000 0.000000 0.000000 0.000000 -0.032014 0.000000
# 6 0.000000 0.000000 0.000000 0.000000 0.000000 -0.395288
#
#
# Mechanical properties :
#
#
# Convention : Reuss Voigt Hill
#
# Bulk Modulus (GPa) = 54.39707 64.51582 59.45644
# Shear Modulus (GPa) = -11.05650 11.17245 0.05798
#
# Velocity S-wave (km/s) = -2.13076 2.14190 0.15429
# Velocity P-wave (km/s) = 4.03529 5.71044 4.94432
#
# Compressibility (1/GPa) = 0.01838334
#
# Stress axis : x y z
#
# Youngs Moduli (GPa) = 92.64830 160.71170 99.37352
#
# Poissons Ratio (x) = 0.43363 -0.02962
# Poissons Ratio (y) = 0.24998 0.19354
# Poissons Ratio (z) = -0.02761 0.31301
#
# Static dielectric constant tensor:
#      x y z
#    x 1.760260 0.000000 0.000000 
#    y 0.000000 1.971110 0.000000 
#    z 0.000000 0.000000 1.996060 
# 
# From -- ./inp_files/7777.got.cif
#   From: 2010.05.17/outbox.cif.g08.bks.cpg/sg53_4_cif.got.tgz:7777.got - 2010.06.03 12:45:16.
