data_PCOD9415155
_publ_section_title
;
Structure prediction by ZEFSAII (Michael W. Deem and Ramdas Pophale) SiO2 
 PCOD9415155
Probable space group: P M N A
;
_chemical_formula_sum "Si O2"
_cell_formula_units_Z 64
_cell_length_a 7.466301
_cell_length_b 24.267978
_cell_length_c 14.009116
_cell_angle_alpha 90.000000
_cell_angle_beta 90.000000
_cell_angle_gamma 90.000000
_cell_volume 2538.340144
_symmetry_space_group_name_H-M "P M N A"
_symmetry_group_IT_number 53
_symmetry_cell_setting 'orthorhombic'
loop_
_space_group_symop_operation_xyz
x,y,z
1/2-x,-y,1/2+z
x,-y,-z
1/2-x,y,1/2-z
-x,-y,-z
1/2+x,y,1/2-z
-x,y,z
1/2+x,-y,1/2+z
loop_
_atom_site_type_symbol
_atom_site_label
_atom_site_fract_x
_atom_site_fract_y
_atom_site_fract_z
Si Si1 0.284036 0.991038 0.390181
Si Si2 0.296123 0.482861 0.888257
Si Si3 0.703450 0.893240 0.631340
Si Si4 0.293351 0.247072 0.927001
Si Si5 0.214370 0.599931 0.647901
Si Si6 0.220574 0.365374 0.561657
Si Si7 0.788746 0.126503 0.583135
Si Si8 0.786015 0.226840 0.146351
O O1 0.500000 0.993388 0.386920
O O2 0.231621 0.929895 0.357366
O O3 0.225889 0.000000 0.500000
O O4 0.212819 0.047751 0.345154
O O5 0.500000 0.478584 0.851292
O O6 0.207940 0.537715 0.847179
O O7 0.307019 0.500000 0.000000
O O8 0.219257 0.421358 0.885574
O O9 0.500000 0.892710 0.667577
O O10 0.695790 0.888500 0.516453
O O11 0.790851 0.835340 0.656123
O O12 0.500000 0.248157 0.896976
O O13 0.215994 0.306568 0.899145
O O14 0.220623 0.187883 0.890477
O O15 0.286588 0.247027 0.043929
O O16 0.250000 0.626602 0.750000
O O17 0.276445 0.628217 0.550054
O O18 0.000000 0.595543 0.637472
O O19 0.000000 0.365884 0.562826
O O20 0.000000 0.132814 0.565014
O O21 0.750000 0.253278 0.250000
O O22 0.000000 0.225274 0.133422
#
# Coordination Sequence:
#
# PCOD9415155 Si02
#       8
#     8   8   8   8   8   8   8   8
#     4   8  13  22  35  49  66  89 115 141 174 218
#     4   7  11  22  41  61  77  99 134 169 198 233
#     4   8  15  26  37  48  64  90 121 150 182 223
#     4   9  17  28  40  55  76 102 132 164 195 227
#     4   9  16  26  42  63  84 105 132 167 205 241
#     4   8  14  26  43  59  77 106 142 172 195 230
#     4   9  15  21  32  52  74  92 112 144 185 221
#     4  10  19  30  41  52  71 100 133 166 198 233
#
# _framework density 25.213328000000001
#
# number of rings (size 3 to 8) (size 9 to 14) (size 15 to 20)
#    0.000    3.500    0.000    3.000    0.000    3.750 
#    0.000    1.875    0.000    4.125    0.000    0.000 
#    0.000    1.000    0.000    9.750    0.000    3.500 
#
# Total GULP energy -356433.690857 kJ/mol
# GULP energy per Si atom -5569.276420 kJ/mol
# Density = 2.515594 g / cm^3
# Si number density = 25.213328 Si / 1000 Ang^3
#
#
#
# Elastic Constant Matrix: (Units=GPa)
#
#
# Indices 1 2 3 4 5 6 
#
# 1 93.3711 7.0826 -3.9945 0.0000 0.0000 0.0000
# 2 7.0826 269.2733 -5.9555 0.0000 0.0000 0.0000
# 3 -3.9945 -5.9555 34.5313 0.0000 0.0000 0.0000
# 4 0.0000 0.0000 0.0000 -29.8514 0.0000 0.0000
# 5 0.0000 0.0000 0.0000 0.0000 -10.1309 0.0000
# 6 0.0000 0.0000 0.0000 0.0000 0.0000 -2.1908
#
#
#
# Elastic Compliance Matrix: (Units=1/GPa)
#
#
# Indices 1 2 3 4 5 6 
#
# 1 0.010781 -0.000257 0.001203 0.000000 0.000000 0.000000
# 2 -0.000257 0.003734 0.000614 0.000000 0.000000 0.000000
# 3 0.001203 0.000614 0.029204 0.000000 0.000000 0.000000
# 4 0.000000 0.000000 0.000000 -0.033499 0.000000 0.000000
# 5 0.000000 0.000000 0.000000 0.000000 -0.098708 0.000000
# 6 0.000000 0.000000 0.000000 0.000000 0.000000 -0.456462
#
#
# Mechanical properties :
#
#
# Convention : Reuss Voigt Hill
#
# Bulk Modulus (GPa) = 21.34949 43.49341 32.42145
# Shear Modulus (GPa) = -9.39044 18.23492 4.42224
#
# Velocity S-wave (km/s) = -1.93196 2.69220 1.32580
# Velocity P-wave (km/s) = 1.87331 5.19149 3.90262
#
# Compressibility (1/GPa) = 0.04683952
#
# Stress axis : x y z
#
# Youngs Moduli (GPa) = 92.75661 267.80614 34.24148
#
# Poissons Ratio (x) = 0.06882 -0.04119
# Poissons Ratio (y) = 0.02384 -0.02103
# Poissons Ratio (z) = -0.11157 -0.16451
#
# Static dielectric constant tensor:
#      x y z
#    x 1.724600 0.000000 0.000000 
#    y 0.000000 2.087920 0.000000 
#    z 0.000000 0.000000 2.015660 
# 
# From -- ./inp_files/31423.got.cif
#   From: 2010.05.17/outbox.cif.g08.bks.cpg/sg53_16_cif.got.tgz:31423.got - 2010.06.03 12:45:16.
