data_PCOD9415424
_publ_section_title
;
Structure prediction by ZEFSAII (Michael W. Deem and Ramdas Pophale) SiO2 
 PCOD9415424
Probable space group: P M N A
;
_chemical_formula_sum "Si O2"
_cell_formula_units_Z 48
_cell_length_a 8.593420
_cell_length_b 15.344066
_cell_length_c 21.141716
_cell_angle_alpha 90.000000
_cell_angle_beta 90.000000
_cell_angle_gamma 90.000000
_cell_volume 2787.704465
_symmetry_space_group_name_H-M "P M N A"
_symmetry_group_IT_number 53
_symmetry_cell_setting 'orthorhombic'
loop_
_space_group_symop_operation_xyz
x,y,z
1/2-x,-y,1/2+z
x,-y,-z
1/2-x,y,1/2-z
-x,-y,-z
1/2+x,y,1/2-z
-x,y,z
1/2+x,-y,1/2+z
loop_
_atom_site_type_symbol
_atom_site_label
_atom_site_fract_x
_atom_site_fract_y
_atom_site_fract_z
Si Si1 0.813732 0.082474 0.455558
Si Si2 0.685200 0.506820 0.814511
Si Si3 0.315143 0.731380 0.521946
Si Si4 0.315759 0.111788 0.317147
Si Si5 0.316022 0.700226 0.843588
Si Si6 0.313985 0.565586 0.443750
O O1 0.733070 0.168314 0.484829
O O2 0.756752 0.074528 0.382528
O O3 0.000000 0.095564 0.454084
O O4 0.779205 0.000000 0.500000
O O5 0.750000 0.467127 0.750000
O O6 0.500000 0.509156 0.812266
O O7 0.741084 0.607477 0.818618
O O8 0.738105 0.459084 0.877764
O O9 0.500000 0.726200 0.536627
O O10 0.216459 0.698339 0.581628
O O11 0.283989 0.664683 0.465274
O O12 0.250000 0.078016 0.250000
O O13 0.500000 0.100271 0.318915
O O14 0.274315 0.214928 0.319699
O O15 0.500000 0.711389 0.830955
O O16 0.262544 0.500000 0.500000
O O17 0.500000 0.554136 0.437648
#
# Coordination Sequence:
#
# PCOD9415424 Si02
#       6
#     8   8   8   8   8   8
#     4  10  21  37  57  81 110 141 175 219 269 319
#     4  11  23  34  49  72 103 143 183 226 269 314
#     4  10  19  32  54  80 105 139 176 218 264 310
#     4  11  21  33  52  77 108 142 175 214 263 321
#     4  10  19  31  48  74 106 140 176 214 259 314
#     4  10  20  35  54  76 106 141 179 219 260 311
#
# _framework density 17.218468000000001
#
# number of rings (size 3 to 8) (size 9 to 14) (size 15 to 20)
#    0.000    1.667    1.667    6.000    0.000    6.333 
#    0.000    0.000    0.000    1.000    0.000    7.000 
#    0.000    0.000    0.000    0.000    0.000    0.000 
#
# Total GULP energy -267882.108617 kJ/mol
# GULP energy per Si atom -5580.877263 kJ/mol
# Density = 1.717928 g / cm^3
# Si number density = 17.218468 Si / 1000 Ang^3
#
#
#
# Elastic Constant Matrix: (Units=GPa)
#
#
# Indices 1 2 3 4 5 6 
#
# 1 45.5138 21.0386 30.6724 0.0000 0.0000 0.0000
# 2 21.0386 66.9850 53.3710 0.0000 0.0000 0.0000
# 3 30.6724 53.3710 135.1462 0.0000 0.0000 0.0000
# 4 0.0000 0.0000 0.0000 14.4093 0.0000 0.0000
# 5 0.0000 0.0000 0.0000 0.0000 9.9126 0.0000
# 6 0.0000 0.0000 0.0000 0.0000 0.0000 60.2092
#
#
#
# Elastic Compliance Matrix: (Units=1/GPa)
#
#
# Indices 1 2 3 4 5 6 
#
# 1 0.027161 -0.005281 -0.004079 0.000000 0.000000 0.000000
# 2 -0.005281 0.022809 -0.007809 0.000000 0.000000 0.000000
# 3 -0.004079 -0.007809 0.011409 0.000000 0.000000 0.000000
# 4 0.000000 0.000000 0.000000 0.069399 0.000000 0.000000
# 5 0.000000 0.000000 0.000000 0.000000 0.100882 0.000000
# 6 0.000000 0.000000 0.000000 0.000000 0.000000 0.016609
#
#
# Mechanical properties :
#
#
# Convention : Reuss Voigt Hill
#
# Bulk Modulus (GPa) = 36.97986 50.86767 43.92377
# Shear Modulus (GPa) = 17.14552 26.41044 21.77798
#
# Velocity S-wave (km/s) = 3.15900 3.92068 3.56027
# Velocity P-wave (km/s) = 5.90162 7.07830 6.51657
#
# Compressibility (1/GPa) = 0.02704175
#
# Stress axis : x y z
#
# Youngs Moduli (GPa) = 36.81715 43.84165 87.64929
#
# Poissons Ratio (x) = 0.23152 0.35752
# Poissons Ratio (y) = 0.19442 0.68447
# Poissons Ratio (z) = 0.15018 0.34237
#
# Static dielectric constant tensor:
#      x y z
#    x 1.580630 0.000000 0.000000 
#    y 0.000000 1.581150 0.000000 
#    z 0.000000 0.000000 1.582950 
# 
# From -- ./inp_files/30472.got.cif
#   From: 2010.05.17/outbox.cif.g08.bks.cpg/sg53_16_cif.got.tgz:30472.got - 2010.06.03 12:45:16.
