data_PCOD9415900
_publ_section_title
;
Structure prediction by ZEFSAII (Michael W. Deem and Ramdas Pophale) SiO2 
 PCOD9415900
Probable space group: P M N A
;
_chemical_formula_sum "Si O2"
_cell_formula_units_Z 60
_cell_length_a 25.117528
_cell_length_b 13.842147
_cell_length_c 8.735347
_cell_angle_alpha 90.000000
_cell_angle_beta 90.000000
_cell_angle_gamma 90.000000
_cell_volume 3037.109942
_symmetry_space_group_name_H-M "P M N A"
_symmetry_group_IT_number 53
_symmetry_cell_setting 'orthorhombic'
loop_
_space_group_symop_operation_xyz
x,y,z
1/2-x,-y,1/2+z
x,-y,-z
1/2-x,y,1/2-z
-x,-y,-z
1/2+x,y,1/2-z
-x,y,z
1/2+x,-y,1/2+z
loop_
_atom_site_type_symbol
_atom_site_label
_atom_site_fract_x
_atom_site_fract_y
_atom_site_fract_z
Si Si1 0.368590 0.552783 0.728827
Si Si2 0.940245 0.058589 0.662096
Si Si3 0.623651 0.216398 0.991346
Si Si4 0.561120 0.684995 0.509999
Si Si5 0.437218 0.138730 0.287096
Si Si6 0.216117 0.681873 0.603457
Si Si7 0.284163 0.500000 0.500000
Si Si8 0.061686 0.384455 0.662477
O O1 0.400959 0.613182 0.602858
O O2 0.334412 0.626146 0.827105
O O3 0.323134 0.489704 0.644836
O O4 0.408296 0.485628 0.821177
O O5 0.895608 0.138309 0.634367
O O6 0.000000 0.100552 0.685834
O O7 0.942386 0.000000 0.500000
O O8 0.929683 0.976763 0.789251
O O9 0.591207 0.312464 0.949953
O O10 0.600881 0.178995 0.153859
O O11 0.686666 0.238004 0.001316
O O12 0.500000 0.662381 0.553688
O O13 0.571457 0.795010 0.564030
O O14 0.565744 0.664240 0.331206
O O15 0.500000 0.151453 0.243086
O O16 0.250000 0.718304 0.750000
O O17 0.250192 0.597582 0.521774
O O18 0.000000 0.396172 0.623482
#
# Coordination Sequence:
#
# PCOD9415900 Si02
#       8
#     8   8   8   8   8   8   4   8
#     4  11  19  36  54  70 108 150 186 228 277 335
#     4   8  15  29  52  82 113 142 172 210 270 340
#     4  11  19  34  53  78 112 140 176 234 283 327
#     4  10  19  33  52  78 112 153 188 214 263 344
#     4   9  17  32  56  83 111 144 181 217 263 343
#     4  10  22  35  53  78 100 137 196 242 280 326
#     4  10  20  36  53  70 101 138 186 240 276 314
#     4  11  22  32  49  81 117 150 180 219 277 342
#
# _framework density 19.755623
#
# number of rings (size 3 to 8) (size 9 to 14) (size 15 to 20)
#    0.000    2.000    2.667    3.200    0.000    1.067 
#    0.000    1.333    0.000    3.200    0.000   16.800 
#    0.000    0.000    0.000    0.000    0.000    0.000 
#
# Total GULP energy -334860.146873 kJ/mol
# GULP energy per Si atom -5581.002448 kJ/mol
# Density = 1.971066 g / cm^3
# Si number density = 19.755623 Si / 1000 Ang^3
#
#
#
# Elastic Constant Matrix: (Units=GPa)
#
#
# Indices 1 2 3 4 5 6 
#
# 1 113.8473 54.3409 32.0477 0.0000 0.0000 0.0000
# 2 54.3409 75.4034 15.9618 0.0000 0.0000 0.0000
# 3 32.0477 15.9618 35.2433 0.0000 0.0000 0.0000
# 4 0.0000 0.0000 0.0000 20.7790 0.0000 0.0000
# 5 0.0000 0.0000 0.0000 0.0000 51.3239 0.0000
# 6 0.0000 0.0000 0.0000 0.0000 0.0000 85.5014
#
#
#
# Elastic Compliance Matrix: (Units=1/GPa)
#
#
# Indices 1 2 3 4 5 6 
#
# 1 0.016276 -0.009508 -0.010494 0.000000 0.000000 0.000000
# 2 -0.009508 0.020223 -0.000513 0.000000 0.000000 0.000000
# 3 -0.010494 -0.000513 0.038149 0.000000 0.000000 0.000000
# 4 0.000000 0.000000 0.000000 0.048126 0.000000 0.000000
# 5 0.000000 0.000000 0.000000 0.000000 0.019484 0.000000
# 6 0.000000 0.000000 0.000000 0.000000 0.000000 0.011696
#
#
# Mechanical properties :
#
#
# Convention : Reuss Voigt Hill
#
# Bulk Modulus (GPa) = 29.74624 47.68831 38.71728
# Shear Modulus (GPa) = 24.24949 39.66375 31.95662
#
# Velocity S-wave (km/s) = 3.50733 4.48562 4.02630
# Velocity P-wave (km/s) = 5.61174 7.14277 6.42304
#
# Compressibility (1/GPa) = 0.03361769
#
# Stress axis : x y z
#
# Youngs Moduli (GPa) = 61.43930 49.44880 26.21303
#
# Poissons Ratio (x) = 0.47018 0.27508
# Poissons Ratio (y) = 0.58419 0.01344
# Poissons Ratio (z) = 0.64475 0.02536
#
# Static dielectric constant tensor:
#      x y z
#    x 1.682950 0.000000 0.000000 
#    y 0.000000 1.828670 0.000000 
#    z 0.000000 0.000000 1.758900 
# 
# From -- ./inp_files/11899.got.cif
#   From: 2010.05.17/outbox.cif.g08.bks.cpg/sg53_6_cif.got.tgz:11899.got - 2010.06.03 12:45:16.
