data_PCOD9415984
_publ_section_title
;
Structure prediction by ZEFSAII (Michael W. Deem and Ramdas Pophale) SiO2 
 PCOD9415984
Probable space group: P M N A
;
_chemical_formula_sum "Si O2"
_cell_formula_units_Z 56
_cell_length_a 8.279412
_cell_length_b 20.674913
_cell_length_c 16.056594
_cell_angle_alpha 90.000000
_cell_angle_beta 90.000000
_cell_angle_gamma 90.000000
_cell_volume 2748.505506
_symmetry_space_group_name_H-M "P M N A"
_symmetry_group_IT_number 53
_symmetry_cell_setting 'orthorhombic'
loop_
_space_group_symop_operation_xyz
x,y,z
1/2-x,-y,1/2+z
x,-y,-z
1/2-x,y,1/2-z
-x,-y,-z
1/2+x,y,1/2-z
-x,y,z
1/2+x,-y,1/2+z
loop_
_atom_site_type_symbol
_atom_site_label
_atom_site_fract_x
_atom_site_fract_y
_atom_site_fract_z
Si Si1 0.694578 0.170833 0.656012
Si Si2 0.184015 0.606741 0.835785
Si Si3 0.314611 0.571075 0.006902
Si Si4 0.818502 0.753715 0.874415
Si Si5 0.194652 0.709879 0.446295
Si Si6 0.691487 0.072319 0.511041
Si Si7 0.818082 0.119061 0.337521
O O1 0.750000 0.155617 0.750000
O O2 0.500000 0.172338 0.653516
O O3 0.758512 0.241471 0.627482
O O4 0.752735 0.118015 0.586521
O O5 0.250000 0.579105 0.750000
O O6 0.179710 0.684243 0.831907
O O7 0.000000 0.585339 0.853549
O O8 0.303190 0.592774 0.911305
O O9 0.500000 0.562089 0.034953
O O10 0.250601 0.634118 0.057012
O O11 0.235515 0.500000 0.000000
O O12 0.692368 0.803151 0.836020
O O13 0.000000 0.781176 0.868243
O O14 0.774618 0.740087 0.970790
O O15 0.000000 0.709223 0.456087
O O16 0.500000 0.066416 0.526357
O O17 0.720401 0.102914 0.420657
O O18 0.760398 0.000000 0.500000
O O19 0.750000 0.094004 0.250000
O O20 0.000000 0.096677 0.348054
#
# Coordination Sequence:
#
# PCOD9415984 Si02
#       7
#     8   8   8   8   8   8   8
#     4  11  23  40  65  92 124 162 209 263 312 369
#     4  10  20  32  50  77 109 144 184 230 280 341
#     4   9  19  36  57  81 113 153 193 238 296 360
#     4  10  19  33  54  82 116 150 186 230 286 347
#     4  10  19  34  59  88 118 153 197 246 300 359
#     4  10  23  44  66  89 122 162 201 252 313 371
#     4  12  24  37  58  87 121 158 196 241 293 356
#
# _framework density 20.374707999999998
#
# number of rings (size 3 to 8) (size 9 to 14) (size 15 to 20)
#    0.000    1.714    1.429    3.429    0.000    5.143 
#    0.000    2.143    0.000    0.000    0.000    0.000 
#    0.000    0.000    0.000    0.000    0.000    0.000 
#
# Total GULP energy -312140.862465 kJ/mol
# GULP energy per Si atom -5573.943973 kJ/mol
# Density = 2.032833 g / cm^3
# Si number density = 20.374708 Si / 1000 Ang^3
#
#
#
# Elastic Constant Matrix: (Units=GPa)
#
#
# Indices 1 2 3 4 5 6 
#
# 1 43.3243 7.0885 1.1394 0.0000 0.0000 0.0000
# 2 7.0885 119.3343 42.3175 0.0000 0.0000 0.0000
# 3 1.1394 42.3175 104.9827 0.0000 0.0000 0.0000
# 4 0.0000 0.0000 0.0000 3.8507 0.0000 0.0000
# 5 0.0000 0.0000 0.0000 0.0000 13.5514 0.0000
# 6 0.0000 0.0000 0.0000 0.0000 0.0000 9.3750
#
#
#
# Elastic Compliance Matrix: (Units=1/GPa)
#
#
# Indices 1 2 3 4 5 6 
#
# 1 0.023320 -0.001512 0.000356 0.000000 0.000000 0.000000
# 2 -0.001512 0.009875 -0.003964 0.000000 0.000000 0.000000
# 3 0.000356 -0.003964 0.011119 0.000000 0.000000 0.000000
# 4 0.000000 0.000000 0.000000 0.259692 0.000000 0.000000
# 5 0.000000 0.000000 0.000000 0.000000 0.073793 0.000000
# 6 0.000000 0.000000 0.000000 0.000000 0.000000 0.106666
#
#
# Mechanical properties :
#
#
# Convention : Reuss Voigt Hill
#
# Bulk Modulus (GPa) = 29.34671 40.97024 35.15848
# Shear Modulus (GPa) = 9.88017 19.82848 14.85433
#
# Velocity S-wave (km/s) = 2.20449 3.12299 2.70304
# Velocity P-wave (km/s) = 4.57323 5.75813 5.19954
#
# Compressibility (1/GPa) = 0.03407537
#
# Stress axis : x y z
#
# Youngs Moduli (GPa) = 42.88221 101.26185 89.93232
#
# Poissons Ratio (x) = 0.15306 -0.03203
# Poissons Ratio (y) = 0.06482 0.35652
# Poissons Ratio (z) = -0.01527 0.40143
#
# Static dielectric constant tensor:
#      x y z
#    x 1.743970 0.000000 0.000000 
#    y 0.000000 1.806500 0.000000 
#    z 0.000000 0.000000 1.743700 
# 
# From -- ./inp_files/20447.got.cif
#   From: 2010.05.17/outbox.cif.g08.bks.cpg/sg53_11_cif.got.tgz:20447.got - 2010.06.03 12:45:16.
