data_PCOD9415379
_publ_section_title
;
Structure prediction by ZEFSAII (Michael W. Deem and Ramdas Pophale) SiO2 
 PCOD9415379
Probable space group: P M N A
;
_chemical_formula_sum "Si O2"
_cell_formula_units_Z 40
_cell_length_a 14.153869
_cell_length_b 22.378156
_cell_length_c 5.210904
_cell_angle_alpha 90.000000
_cell_angle_beta 90.000000
_cell_angle_gamma 90.000000
_cell_volume 1650.488646
_symmetry_space_group_name_H-M "P M N A"
_symmetry_group_IT_number 53
_symmetry_cell_setting 'orthorhombic'
loop_
_space_group_symop_operation_xyz
x,y,z
1/2-x,-y,1/2+z
x,-y,-z
1/2-x,y,1/2-z
-x,-y,-z
1/2+x,y,1/2-z
-x,y,z
1/2+x,-y,1/2+z
loop_
_atom_site_type_symbol
_atom_site_label
_atom_site_fract_x
_atom_site_fract_y
_atom_site_fract_z
Si Si1 0.609698 0.825819 0.795661
Si Si2 0.115597 0.765001 0.212025
Si Si3 0.889203 0.362815 0.598287
Si Si4 0.863233 0.034773 0.247804
Si Si5 0.888088 0.561530 0.884959
O O1 0.500000 0.808669 0.808947
O O2 0.649939 0.783924 0.569929
O O3 0.614207 0.895386 0.732469
O O4 0.644329 0.815301 0.083687
O O5 0.147848 0.703430 0.345843
O O6 0.000000 0.761034 0.190823
O O7 0.850110 0.405490 0.371470
O O8 0.000000 0.355242 0.528744
O O9 0.883742 0.394441 0.873574
O O10 0.750000 0.031807 0.250000
O O11 0.896298 0.000000 0.500000
O O12 0.897269 0.000000 0.000000
O O13 0.000000 0.548323 0.826629
O O14 0.846436 0.500000 0.000000
#
# Coordination Sequence:
#
# PCOD9415379 Si02
#       5
#     8   8   8   8   8
#     4  10  19  31  48  69  91 115 149 189 223 264
#     4   9  17  28  42  62  86 113 147 187 229 268
#     4   9  15  23  34  48  72 105 140 181 223 258
#     4  10  21  36  52  70  93 120 148 179 220 272
#     4   9  15  21  30  46  69 102 146 187 217 252
#
# _framework density 24.235247999999999
#
# number of rings (size 3 to 8) (size 9 to 14) (size 15 to 20)
#    0.000    2.600    0.000    3.000    0.000    8.000 
#    0.000    0.000    0.000    0.000    0.000    0.000 
#    0.000    0.000    0.000    0.000    0.000   56.000 
#
# Total GULP energy -223398.981100 kJ/mol
# GULP energy per Si atom -5584.974527 kJ/mol
# Density = 2.418009 g / cm^3
# Si number density = 24.235248 Si / 1000 Ang^3
#
#
#
# Elastic Constant Matrix: (Units=GPa)
#
#
# Indices 1 2 3 4 5 6 
#
# 1 78.4888 -30.3154 6.1874 0.0000 0.0000 0.0000
# 2 -30.3154 99.1569 24.4274 0.0000 0.0000 0.0000
# 3 6.1874 24.4274 133.6868 0.0000 0.0000 0.0000
# 4 0.0000 0.0000 0.0000 36.4811 0.0000 0.0000
# 5 0.0000 0.0000 0.0000 0.0000 1125.1478 0.0000
# 6 0.0000 0.0000 0.0000 0.0000 0.0000 27.0964
#
#
#
# Elastic Compliance Matrix: (Units=1/GPa)
#
#
# Indices 1 2 3 4 5 6 
#
# 1 0.014758 0.004901 -0.001579 0.000000 0.000000 0.000000
# 2 0.004901 0.012188 -0.002454 0.000000 0.000000 0.000000
# 3 -0.001579 -0.002454 0.008002 0.000000 0.000000 0.000000
# 4 0.000000 0.000000 0.000000 0.027411 0.000000 0.000000
# 5 0.000000 0.000000 0.000000 0.000000 0.000889 0.000000
# 6 0.000000 0.000000 0.000000 0.000000 0.000000 0.036905
#
#
# Mechanical properties :
#
#
# Convention : Reuss Voigt Hill
#
# Bulk Modulus (GPa) = 27.25944 34.65902 30.95923
# Shear Modulus (GPa) = 45.18992 258.48059 151.83525
#
# Velocity S-wave (km/s) = 4.32283 10.33859 7.92380
# Velocity P-wave (km/s) = 6.01565 12.52387 9.82434
#
# Compressibility (1/GPa) = 0.03668454
#
# Stress axis : x y z
#
# Youngs Moduli (GPa) = 67.75981 82.04875 124.97517
#
# Poissons Ratio (x) = -0.40211 0.19728
# Poissons Ratio (y) = -0.33208 0.30666
# Poissons Ratio (z) = 0.10696 0.20133
#
# Static dielectric constant tensor:
#      x y z
#    x 2.053440 0.000000 0.000000 
#    y 0.000000 1.927770 0.000000 
#    z 0.000000 0.000000 1.882820 
# 
# From -- ./inp_files/2090.got.cif
#   From: 2010.05.17/outbox.cif.g08.bks.cpg/sg53_2_cif.got.tgz:2090.got - 2010.06.03 12:45:16.
