data_PCOD9415407
_publ_section_title
;
Structure prediction by ZEFSAII (Michael W. Deem and Ramdas Pophale) SiO2 
 PCOD9415407
Probable space group: P M N A
;
_chemical_formula_sum "Si O2"
_cell_formula_units_Z 40
_cell_length_a 29.894355
_cell_length_b 5.174900
_cell_length_c 14.109762
_cell_angle_alpha 90.000000
_cell_angle_beta 90.000000
_cell_angle_gamma 90.000000
_cell_volume 2182.784382
_symmetry_space_group_name_H-M "P M N A"
_symmetry_group_IT_number 53
_symmetry_cell_setting 'orthorhombic'
loop_
_space_group_symop_operation_xyz
x,y,z
1/2-x,-y,1/2+z
x,-y,-z
1/2-x,y,1/2-z
-x,-y,-z
1/2+x,y,1/2-z
-x,y,z
1/2+x,-y,1/2+z
loop_
_atom_site_type_symbol
_atom_site_label
_atom_site_fract_x
_atom_site_fract_y
_atom_site_fract_z
Si Si1 0.786930 0.894446 0.622888
Si Si2 0.687713 0.923398 0.656142
Si Si3 0.949079 0.245192 0.935307
Si Si4 0.867912 0.418980 0.813504
Si Si5 0.157137 0.598751 0.405817
O O1 0.734454 0.909617 0.601045
O O2 0.796181 0.910358 0.735082
O O3 0.803825 0.612579 0.597371
O O4 0.818652 0.125205 0.586028
O O5 0.651449 0.692174 0.647866
O O6 0.665239 0.200699 0.645787
O O7 0.915759 0.325213 0.851449
O O8 0.000000 0.187921 0.903160
O O9 0.950231 0.500000 0.000000
O O10 0.934474 0.000000 0.000000
O O11 0.866148 0.416542 0.697972
O O12 0.130590 0.500000 0.500000
#
# Coordination Sequence:
#
# PCOD9415407 Si02
#       5
#     8   8   8   8   8
#     4   9  17  30  46  66  97 137 174 206 240 276
#     4   9  17  30  49  70  96 132 170 208 246 284
#     4  10  21  38  58  78 100 125 158 204 260 319
#     4  10  19  33  53  74  99 130 165 209 254 299
#     4  10  19  31  48  71 101 137 174 204 238 292
#
# _framework density 18.325218
#
# number of rings (size 3 to 8) (size 9 to 14) (size 15 to 20)
#    0.000    2.400    0.000    3.000    0.000    4.800 
#    0.000   10.000    0.000    0.600    0.000    0.000 
#    0.000   14.400    0.000    0.000    0.000    2.400 
#
# Total GULP energy -222695.870841 kJ/mol
# GULP energy per Si atom -5567.396771 kJ/mol
# Density = 1.828351 g / cm^3
# Si number density = 18.325218 Si / 1000 Ang^3
#
#
#
# Elastic Constant Matrix: (Units=GPa)
#
#
# Indices 1 2 3 4 5 6 
#
# 1 76.0221 8.6855 52.6779 0.0000 0.0000 0.0000
# 2 8.6855 101.2106 32.1079 0.0000 0.0000 0.0000
# 3 52.6779 32.1079 91.2819 0.0000 0.0000 0.0000
# 4 0.0000 0.0000 0.0000 18.9736 0.0000 0.0000
# 5 0.0000 0.0000 0.0000 0.0000 15.8085 0.0000
# 6 0.0000 0.0000 0.0000 0.0000 0.0000 13.6059
#
#
#
# Elastic Compliance Matrix: (Units=1/GPa)
#
#
# Indices 1 2 3 4 5 6 
#
# 1 0.022449 0.002458 -0.013820 0.000000 0.000000 0.000000
# 2 0.002458 0.011390 -0.005425 0.000000 0.000000 0.000000
# 3 -0.013820 -0.005425 0.020839 0.000000 0.000000 0.000000
# 4 0.000000 0.000000 0.000000 0.052705 0.000000 0.000000
# 5 0.000000 0.000000 0.000000 0.000000 0.063257 0.000000
# 6 0.000000 0.000000 0.000000 0.000000 0.000000 0.073497
#
#
# Mechanical properties :
#
#
# Convention : Reuss Voigt Hill
#
# Bulk Modulus (GPa) = 47.38342 50.60636 48.99489
# Shear Modulus (GPa) = 17.55947 21.34715 19.45331
#
# Velocity S-wave (km/s) = 3.09886 3.41677 3.26169
# Velocity P-wave (km/s) = 6.22230 6.57582 6.40150
#
# Compressibility (1/GPa) = 0.02110443
#
# Stress axis : x y z
#
# Youngs Moduli (GPa) = 44.54453 87.79287 47.98803
#
# Poissons Ratio (x) = -0.21577 0.66319
# Poissons Ratio (y) = -0.10948 0.26033
# Poissons Ratio (z) = 0.61560 0.47626
#
# Static dielectric constant tensor:
#      x y z
#    x 1.633290 0.000000 0.000000 
#    y 0.000000 1.621520 0.000000 
#    z 0.000000 0.000000 1.687680 
# 
# From -- ./inp_files/24536.got.cif
#   From: 2010.05.17/outbox.cif.g08.bks.cpg/sg53_13_cif.got.tgz:24536.got - 2010.06.03 12:45:16.
