data_PCOD9415810
_publ_section_title
;
Structure prediction by ZEFSAII (Michael W. Deem and Ramdas Pophale) SiO2 
 PCOD9415810
Probable space group: P M N A
;
_chemical_formula_sum "Si O2"
_cell_formula_units_Z 58
_cell_length_a 7.708330
_cell_length_b 19.587131
_cell_length_c 18.538924
_cell_angle_alpha 90.000000
_cell_angle_beta 90.000000
_cell_angle_gamma 90.000000
_cell_volume 2799.082190
_symmetry_space_group_name_H-M "P M N A"
_symmetry_group_IT_number 53
_symmetry_cell_setting 'orthorhombic'
loop_
_space_group_symop_operation_xyz
x,y,z
1/2-x,-y,1/2+z
x,-y,-z
1/2-x,y,1/2-z
-x,-y,-z
1/2+x,y,1/2-z
-x,y,z
1/2+x,-y,1/2+z
loop_
_atom_site_type_symbol
_atom_site_label
_atom_site_fract_x
_atom_site_fract_y
_atom_site_fract_z
Si Si1 0.707125 0.641176 0.167477
Si Si2 0.202981 0.784704 0.393936
Si Si3 0.790159 0.936639 0.582867
Si Si4 0.298949 0.715418 0.533566
Si Si5 0.204379 0.796896 0.666195
Si Si6 0.204084 0.427191 0.976713
Si Si7 0.500000 0.000000 0.500000
Si Si8 0.792491 0.073713 0.665967
O O1 0.750000 0.625930 0.250000
O O2 0.500000 0.641745 0.158920
O O3 0.774876 0.716981 0.145597
O O4 0.777564 0.588619 0.108139
O O5 0.214365 0.769878 0.479092
O O6 0.278935 0.856541 0.368606
O O7 0.000000 0.787267 0.374318
O O8 0.753798 0.870165 0.630815
O O9 0.000000 0.938335 0.565951
O O10 0.656609 0.943089 0.517319
O O11 0.734761 0.003481 0.629210
O O12 0.500000 0.714348 0.512327
O O13 0.285416 0.739262 0.615377
O O14 0.223685 0.640467 0.516427
O O15 0.250000 0.794588 0.750000
O O16 0.000000 0.788254 0.659568
O O17 0.000000 0.429305 0.995320
O O18 0.279657 0.500000 0.000000
O O19 0.750000 0.073188 0.750000
O O20 0.000000 0.073177 0.656865
#
# Coordination Sequence:
#
# PCOD9415810 Si02
#       8
#     8   8   8   8   8   8   2   8
#     4  10  19  32  53  82 115 150 191 230 277 343
#     4   9  19  34  53  79 113 151 186 232 284 336
#     4  10  25  42  60  90 120 154 203 257 313 367
#     4  10  21  36  60  89 114 146 192 238 290 360
#     4  11  24  42  64  86 119 159 204 260 309 367
#     4   9  19  38  61  86 118 153 189 238 296 354
#     4  12  26  40  68  86 116 160 198 264 306 386
#     4  10  21  36  54  77 112 149 189 236 287 346
#
# _framework density 20.721077000000001
#
# number of rings (size 3 to 8) (size 9 to 14) (size 15 to 20)
#    0.000    2.069    0.000    2.276    4.828    1.931 
#    0.000    0.690    0.000    0.000    0.000    0.000 
#    0.000    0.000    0.000    0.000    0.000    0.000 
#
# Total GULP energy -323308.112078 kJ/mol
# GULP energy per Si atom -5574.277794 kJ/mol
# Density = 2.067392 g / cm^3
# Si number density = 20.721077 Si / 1000 Ang^3
#
#
#
# Elastic Constant Matrix: (Units=GPa)
#
#
# Indices 1 2 3 4 5 6 
#
# 1 44.8511 13.8154 -4.5249 0.0000 0.0000 0.0000
# 2 13.8154 122.9972 64.7066 0.0000 0.0000 0.0000
# 3 -4.5249 64.7066 116.0444 0.0000 0.0000 0.0000
# 4 0.0000 0.0000 0.0000 11.1505 0.0000 0.0000
# 5 0.0000 0.0000 0.0000 0.0000 26.2303 0.0000
# 6 0.0000 0.0000 0.0000 0.0000 0.0000 8.5687
#
#
#
# Elastic Compliance Matrix: (Units=1/GPa)
#
#
# Indices 1 2 3 4 5 6 
#
# 1 0.024037 -0.004518 0.003457 0.000000 0.000000 0.000000
# 2 -0.004518 0.012355 -0.007065 0.000000 0.000000 0.000000
# 3 0.003457 -0.007065 0.012692 0.000000 0.000000 0.000000
# 4 0.000000 0.000000 0.000000 0.089682 0.000000 0.000000
# 5 0.000000 0.000000 0.000000 0.000000 0.038124 0.000000
# 6 0.000000 0.000000 0.000000 0.000000 0.000000 0.116703
#
#
# Mechanical properties :
#
#
# Convention : Reuss Voigt Hill
#
# Bulk Modulus (GPa) = 30.46063 47.98742 39.22402
# Shear Modulus (GPa) = 15.58657 23.18294 19.38475
#
# Velocity S-wave (km/s) = 2.74562 3.34849 3.06193
# Velocity P-wave (km/s) = 4.97830 6.17729 5.60992
#
# Compressibility (1/GPa) = 0.03282927
#
# Stress axis : x y z
#
# Youngs Moduli (GPa) = 41.60334 80.94139 78.79154
#
# Poissons Ratio (x) = 0.36572 -0.27236
# Poissons Ratio (y) = 0.18798 0.55667
# Poissons Ratio (z) = -0.14381 0.57186
#
# Static dielectric constant tensor:
#      x y z
#    x 1.800060 0.000000 0.000000 
#    y 0.000000 1.784410 0.000000 
#    z 0.000000 0.000000 -2.506530 
# 
# From -- ./inp_files/26558.got.cif
#   From: 2010.05.17/outbox.cif.g08.bks.cpg/sg53_14_cif.got.tgz:26558.got - 2010.06.03 12:45:16.
