data_PCOD9415449
_publ_section_title
;
Structure prediction by ZEFSAII (Michael W. Deem and Ramdas Pophale) SiO2 
 PCOD9415449
Probable space group: P M N A
;
_chemical_formula_sum "Si O2"
_cell_formula_units_Z 40
_cell_length_a 8.915605
_cell_length_b 14.180723
_cell_length_c 18.554947
_cell_angle_alpha 90.000000
_cell_angle_beta 90.000000
_cell_angle_gamma 90.000000
_cell_volume 2345.896844
_symmetry_space_group_name_H-M "P M N A"
_symmetry_group_IT_number 53
_symmetry_cell_setting 'orthorhombic'
loop_
_space_group_symop_operation_xyz
x,y,z
1/2-x,-y,1/2+z
x,-y,-z
1/2-x,y,1/2-z
-x,-y,-z
1/2+x,y,1/2-z
-x,y,z
1/2+x,-y,1/2+z
loop_
_atom_site_type_symbol
_atom_site_label
_atom_site_fract_x
_atom_site_fract_y
_atom_site_fract_z
Si Si1 0.319732 0.375021 0.884896
Si Si2 0.678900 0.811923 0.323819
Si Si3 0.680288 0.709819 0.961261
Si Si4 0.319330 0.104062 0.522922
Si Si5 0.681265 0.417782 0.171632
O O1 0.500000 0.365714 0.877180
O O2 0.240701 0.292829 0.839817
O O3 0.276471 0.478376 0.857836
O O4 0.283274 0.354942 0.968832
O O5 0.750000 0.847614 0.250000
O O6 0.500000 0.809179 0.317745
O O7 0.720327 0.872938 0.394121
O O8 0.500000 0.718814 0.959775
O O9 0.751059 0.811732 0.975595
O O10 0.728649 0.658798 0.888023
O O11 0.500000 0.108377 0.517073
O O12 0.269674 0.000000 0.500000
O O13 0.750000 0.401962 0.250000
O O14 0.500000 0.415482 0.176182
#
# Coordination Sequence:
#
# PCOD9415449 Si02
#       5
#     8   8   8   8   8
#     4   9  17  31  51  72  97 129 163 199 238 282
#     4  10  19  31  49  74 101 126 156 197 244 290
#     4   9  18  33  52  73  96 125 163 203 241 284
#     4   9  19  36  55  73  95 125 160 200 247 293
#     4  10  20  32  47  70 101 135 166 196 234 281
#
# _framework density 17.051048000000002
#
# number of rings (size 3 to 8) (size 9 to 14) (size 15 to 20)
#    0.000    2.600    0.000    1.800    0.000    6.800 
#    0.000    1.000    0.000   10.800    0.000    0.000 
#    0.000    0.000    0.000    0.000    0.000    0.000 
#
# Total GULP energy -223123.004276 kJ/mol
# GULP energy per Si atom -5578.075107 kJ/mol
# Density = 1.701224 g / cm^3
# Si number density = 17.051048 Si / 1000 Ang^3
#
#
#
# Elastic Constant Matrix: (Units=GPa)
#
#
# Indices 1 2 3 4 5 6 
#
# 1 14.9378 34.4522 39.8047 0.0000 0.0000 0.0000
# 2 34.4522 126.8202 98.1254 0.0000 0.0000 0.0000
# 3 39.8047 98.1254 147.6738 0.0000 0.0000 0.0000
# 4 0.0000 0.0000 0.0000 13.0211 0.0000 0.0000
# 5 0.0000 0.0000 0.0000 0.0000 27.1236 0.0000
# 6 0.0000 0.0000 0.0000 0.0000 0.0000 19.4992
#
#
#
# Elastic Compliance Matrix: (Units=1/GPa)
#
#
# Indices 1 2 3 4 5 6 
#
# 1 0.315530 -0.040981 -0.057819 0.000000 0.000000 0.000000
# 2 -0.040981 0.021552 -0.003274 0.000000 0.000000 0.000000
# 3 -0.057819 -0.003274 0.024532 0.000000 0.000000 0.000000
# 4 0.000000 0.000000 0.000000 0.076798 0.000000 0.000000
# 5 0.000000 0.000000 0.000000 0.000000 0.036868 0.000000
# 6 0.000000 0.000000 0.000000 0.000000 0.000000 0.051284
#
#
# Mechanical properties :
#
#
# Convention : Reuss Voigt Hill
#
# Bulk Modulus (GPa) = 6.35058 70.46627 38.40843
# Shear Modulus (GPa) = 6.38406 19.73209 13.05807
#
# Velocity S-wave (km/s) = 1.93706 3.40551 2.77035
# Velocity P-wave (km/s) = 2.95559 7.54186 5.72779
#
# Compressibility (1/GPa) = 0.15746593
#
# Stress axis : x y z
#
# Youngs Moduli (GPa) = 3.16927 46.40043 40.76308
#
# Poissons Ratio (x) = 1.90154 2.35686
# Poissons Ratio (y) = 0.12988 0.13347
# Poissons Ratio (z) = 0.18324 0.15193
#
# Static dielectric constant tensor:
#      x y z
#    x 1.572790 0.000000 0.000000 
#    y 0.000000 1.549560 0.000000 
#    z 0.000000 0.000000 1.580840 
# 
# From -- ./inp_files/19832.got.cif
#   From: 2010.05.17/outbox.cif.g08.bks.cpg/sg53_10_cif.got.tgz:19832.got - 2010.06.03 12:45:16.
