data_PCOD9415182
_publ_section_title
;
Structure prediction by ZEFSAII (Michael W. Deem and Ramdas Pophale) SiO2 
 PCOD9415182
Probable space group: P M N A
;
_chemical_formula_sum "Si O2"
_cell_formula_units_Z 56
_cell_length_a 8.880266
_cell_length_b 21.364461
_cell_length_c 18.747882
_cell_angle_alpha 90.000000
_cell_angle_beta 90.000000
_cell_angle_gamma 90.000000
_cell_volume 3556.887480
_symmetry_space_group_name_H-M "P M N A"
_symmetry_group_IT_number 53
_symmetry_cell_setting 'orthorhombic'
loop_
_space_group_symop_operation_xyz
x,y,z
1/2-x,-y,1/2+z
x,-y,-z
1/2-x,y,1/2-z
-x,-y,-z
1/2+x,y,1/2-z
-x,y,z
1/2+x,-y,1/2+z
loop_
_atom_site_type_symbol
_atom_site_label
_atom_site_fract_x
_atom_site_fract_y
_atom_site_fract_z
Si Si1 0.673412 0.562887 0.548727
Si Si2 0.327063 0.070982 0.030980
Si Si3 0.181324 0.751929 0.172061
Si Si4 0.320325 0.114794 0.606689
Si Si5 0.317600 0.373581 0.590652
Si Si6 0.318665 0.010450 0.173411
Si Si7 0.679053 0.492276 0.827668
O O1 0.674263 0.500000 0.500000
O O2 0.500000 0.574186 0.570139
O O3 0.724506 0.615269 0.492186
O O4 0.771593 0.546810 0.617363
O O5 0.500000 0.093303 0.029331
O O6 0.276044 0.060809 0.112235
O O7 0.227217 0.109790 0.976124
O O8 0.327872 0.000000 0.000000
O O9 0.250000 0.743320 0.250000
O O10 0.226618 0.818940 0.139833
O O11 0.223529 0.693879 0.121561
O O12 0.000000 0.751876 0.177656
O O13 0.500000 0.108016 0.613267
O O14 0.242150 0.057231 0.647849
O O15 0.500000 0.381135 0.594322
O O16 0.244016 0.427916 0.638526
O O17 0.250000 0.025045 0.250000
O O18 0.500000 0.007901 0.175792
O O19 0.750000 0.501487 0.750000
O O20 0.500000 0.488350 0.822877
#
# Coordination Sequence:
#
# PCOD9415182 Si02
#       7
#     8   8   8   8   8   8   8
#     4   8  15  29  47  64  85 115 146 179 222 265
#     4   8  16  30  45  62  86 115 146 182 223 264
#     4  10  21  33  45  65  91 121 154 184 213 250
#     4  10  19  30  45  65  90 120 153 184 216 258
#     4   9  18  33  48  63  89 121 151 182 218 260
#     4  10  19  30  45  66  91 117 146 182 225 267
#     4  11  20  29  44  67  93 117 146 183 222 264
#
# _framework density 15.744102
#
# number of rings (size 3 to 8) (size 9 to 14) (size 15 to 20)
#    0.000    2.571    0.000    4.714    0.000    9.714 
#    0.000    0.000    0.000    0.000    0.000    1.000 
#    0.000    2.286    0.000    0.000    0.000    0.000 
#
# Total GULP energy -312085.503493 kJ/mol
# GULP energy per Si atom -5572.955420 kJ/mol
# Density = 1.570827 g / cm^3
# Si number density = 15.744102 Si / 1000 Ang^3
#
#
#
# Elastic Constant Matrix: (Units=GPa)
#
#
# Indices 1 2 3 4 5 6 
#
# 1 38.9958 1.8980 21.7854 0.0000 0.0000 0.0000
# 2 1.8980 19.8213 -2.5279 0.0000 0.0000 0.0000
# 3 21.7854 -2.5279 79.0287 0.0000 0.0000 0.0000
# 4 0.0000 0.0000 0.0000 25.0988 0.0000 0.0000
# 5 0.0000 0.0000 0.0000 0.0000 29.2785 0.0000
# 6 0.0000 0.0000 0.0000 0.0000 0.0000 24.6168
#
#
#
# Elastic Compliance Matrix: (Units=1/GPa)
#
#
# Indices 1 2 3 4 5 6 
#
# 1 0.030629 -0.004026 -0.008572 0.000000 0.000000 0.000000
# 2 -0.004026 0.051187 0.002747 0.000000 0.000000 0.000000
# 3 -0.008572 0.002747 0.015105 0.000000 0.000000 0.000000
# 4 0.000000 0.000000 0.000000 0.039843 0.000000 0.000000
# 5 0.000000 0.000000 0.000000 0.000000 0.034155 0.000000
# 6 0.000000 0.000000 0.000000 0.000000 0.000000 0.040623
#
#
# Mechanical properties :
#
#
# Convention : Reuss Voigt Hill
#
# Bulk Modulus (GPa) = 12.95038 20.01744 16.48391
# Shear Modulus (GPa) = 19.45670 23.57817 21.51743
#
# Velocity S-wave (km/s) = 3.51922 3.87407 3.70090
# Velocity P-wave (km/s) = 4.97560 5.72303 5.36235
#
# Compressibility (1/GPa) = 0.07721782
#
# Stress axis : x y z
#
# Youngs Moduli (GPa) = 32.64924 19.53634 66.20538
#
# Poissons Ratio (x) = 0.07866 0.56751
# Poissons Ratio (y) = 0.13145 -0.18188
# Poissons Ratio (z) = 0.27987 -0.05367
#
# Static dielectric constant tensor:
#      x y z
#    x 1.527600 0.000000 0.000000 
#    y 0.000000 1.514460 0.000000 
#    z 0.000000 0.000000 1.542980 
# 
# From -- ./inp_files/26728.got.cif
#   From: 2010.05.17/outbox.cif.g08.bks.cpg/sg53_14_cif.got.tgz:26728.got - 2010.06.03 12:45:16.
