data_PCOD9415315
_publ_section_title
;
Structure prediction by ZEFSAII (Michael W. Deem and Ramdas Pophale) SiO2 
 PCOD9415315
Probable space group: P M N A
;
_chemical_formula_sum "Si O2"
_cell_formula_units_Z 64
_cell_length_a 7.787360
_cell_length_b 24.296643
_cell_length_c 16.692618
_cell_angle_alpha 90.000000
_cell_angle_beta 90.000000
_cell_angle_gamma 90.000000
_cell_volume 3158.355263
_symmetry_space_group_name_H-M "P M N A"
_symmetry_group_IT_number 53
_symmetry_cell_setting 'orthorhombic'
loop_
_space_group_symop_operation_xyz
x,y,z
1/2-x,-y,1/2+z
x,-y,-z
1/2-x,y,1/2-z
-x,-y,-z
1/2+x,y,1/2-z
-x,y,z
1/2+x,-y,1/2+z
loop_
_atom_site_type_symbol
_atom_site_label
_atom_site_fract_x
_atom_site_fract_y
_atom_site_fract_z
Si Si1 0.293301 0.422312 0.161170
Si Si2 0.306777 0.921965 0.568515
Si Si3 0.301835 0.469444 0.913306
Si Si4 0.194560 0.865644 0.413009
Si Si5 0.789016 0.635870 0.497955
Si Si6 0.704911 0.027711 0.839046
Si Si7 0.704522 0.180253 0.161234
Si Si8 0.789686 0.760262 0.499151
O O1 0.250000 0.402953 0.250000
O O2 0.500000 0.425100 0.154898
O O3 0.224801 0.484561 0.145307
O O4 0.236241 0.384296 0.087010
O O5 0.500000 0.917922 0.538041
O O6 0.189931 0.898698 0.497616
O O7 0.283390 0.879489 0.641934
O O8 0.271128 0.983048 0.598150
O O9 0.500000 0.460714 0.888406
O O10 0.305178 0.500000 0.000000
O O11 0.227443 0.409643 0.933772
O O12 0.275798 0.910787 0.354669
O O13 0.272329 0.806839 0.436868
O O14 0.000000 0.854972 0.385176
O O15 0.734682 0.698186 0.482937
O O16 0.000000 0.634459 0.496750
O O17 0.750000 0.009480 0.750000
O O18 0.500000 0.029710 0.847698
O O19 0.750000 0.199462 0.250000
O O20 0.500000 0.174739 0.156244
O O21 0.760571 0.219979 0.088542
O O22 0.000000 0.761437 0.497403
#
# Coordination Sequence:
#
# PCOD9415315 Si02
#       8
#     8   8   8   8   8   8   8   8
#     4   9  16  25  40  65  94 120 144 178 223 265
#     4  11  21  33  51  73  95 120 152 187 226 276
#     4   7  11  21  38  60  84 111 146 182 211 243
#     4   9  19  35  52  70  94 122 151 187 231 276
#     4   8  13  24  44  66  85 111 153 194 218 250
#     4  11  22  35  51  71  95 120 148 187 234 280
#     4  10  19  31  45  64  93 124 153 185 225 273
#     4   8  15  28  46  66  86 113 151 191 226 260
#
# _framework density 20.263711000000001
#
# number of rings (size 3 to 8) (size 9 to 14) (size 15 to 20)
#    0.000    2.875    0.000    4.875    0.000    3.000 
#    0.000    0.000    0.000    7.125    0.000    0.000 
#    0.000    0.000    0.000    0.000    0.000    0.000 
#
# Total GULP energy -356675.244675 kJ/mol
# GULP energy per Si atom -5573.050698 kJ/mol
# Density = 2.021759 g / cm^3
# Si number density = 20.263711 Si / 1000 Ang^3
#
#
#
# Elastic Constant Matrix: (Units=GPa)
#
#
# Indices 1 2 3 4 5 6 
#
# 1 45.6444 5.2597 -4.6570 0.0000 0.0000 0.0000
# 2 5.2597 141.6822 0.8065 0.0000 0.0000 0.0000
# 3 -4.6570 0.8065 14.7889 0.0000 0.0000 0.0000
# 4 0.0000 0.0000 0.0000 17.8020 0.0000 0.0000
# 5 0.0000 0.0000 0.0000 0.0000 12.8746 0.0000
# 6 0.0000 0.0000 0.0000 0.0000 0.0000 0.0060
#
#
#
# Elastic Compliance Matrix: (Units=1/GPa)
#
#
# Indices 1 2 3 4 5 6 
#
# 1 0.022746 -0.000885 0.007211 0.000000 0.000000 0.000000
# 2 -0.000885 0.007095 -0.000666 0.000000 0.000000 0.000000
# 3 0.007211 -0.000666 0.069925 0.000000 0.000000 0.000000
# 4 0.000000 0.000000 0.000000 0.056173 0.000000 0.000000
# 5 0.000000 0.000000 0.000000 0.000000 0.077672 0.000000
# 6 0.000000 0.000000 0.000000 0.000000 0.000000167.283950
#
#
# Mechanical properties :
#
#
# Convention : Reuss Voigt Hill
#
# Bulk Modulus (GPa) = 9.00205 22.77044 15.88625
# Shear Modulus (GPa) = 0.02984 19.51694 9.77339
#
# Velocity S-wave (km/s) = 0.12149 3.10683 2.19854
# Velocity P-wave (km/s) = 2.11466 4.91236 3.78174
#
# Compressibility (1/GPa) = 0.11108582
#
# Stress axis : x y z
#
# Youngs Moduli (GPa) = 43.96330 140.95012 14.30101
#
# Poissons Ratio (x) = 0.12481 -0.10313
# Poissons Ratio (y) = 0.03893 0.00952
# Poissons Ratio (z) = -0.31702 0.09383
#
# Static dielectric constant tensor:
#      x y z
#    x 1.746570 0.000000 0.000000 
#    y 0.000000 1.758590 0.000000 
#    z 0.000000 0.000000 1.709590 
# 
# From -- ./inp_files/27042.got.cif
#   From: 2010.05.17/outbox.cif.g08.bks.cpg/sg53_14_cif.got.tgz:27042.got - 2010.06.03 12:45:16.
