data_PCOD9415078
_publ_section_title
;
Structure prediction by ZEFSAII (Michael W. Deem and Ramdas Pophale) SiO2 
 PCOD9415078
Probable space group: P M N A
;
_chemical_formula_sum "Si O2"
_cell_formula_units_Z 36
_cell_length_a 17.004466
_cell_length_b 8.508985
_cell_length_c 10.062351
_cell_angle_alpha 90.000000
_cell_angle_beta 90.000000
_cell_angle_gamma 90.000000
_cell_volume 1455.929074
_symmetry_space_group_name_H-M "P M N A"
_symmetry_group_IT_number 53
_symmetry_cell_setting 'orthorhombic'
loop_
_space_group_symop_operation_xyz
x,y,z
1/2-x,-y,1/2+z
x,-y,-z
1/2-x,y,1/2-z
-x,-y,-z
1/2+x,y,1/2-z
-x,y,z
1/2+x,-y,1/2+z
loop_
_atom_site_type_symbol
_atom_site_label
_atom_site_fract_x
_atom_site_fract_y
_atom_site_fract_z
Si Si1 0.166627 0.332610 0.005030
Si Si2 0.092869 0.660239 0.705474
Si Si3 0.157038 0.667689 0.282689
Si Si4 0.172220 0.000000 0.000000
Si Si5 0.093670 0.006684 0.711278
O O1 0.114599 0.334175 0.137122
O O2 0.213828 0.169051 0.007313
O O3 0.210154 0.500000 0.000000
O O4 0.119061 0.331193 0.866780
O O5 0.132502 0.498888 0.656405
O O6 0.117941 0.834438 0.656917
O O7 0.000000 0.646868 0.685830
O O8 0.250000 0.670743 0.250000
O O9 0.129976 0.832028 0.344741
O O10 0.121119 0.995969 0.134273
O O11 0.000000 0.016003 0.700946
#
# Coordination Sequence:
#
# PCOD9415078 Si02
#       5
#     8   8   8   4   8
#     4   8  15  25  38  56  79 108 141 170 198 238
#     4   9  17  29  46  65  83 110 147 180 208 243
#     4  10  19  27  37  58  90 121 140 164 210 261
#     4   8  13  22  38  60  80  98 127 166 201 232
#     4   9  16  26  41  59  79 106 139 171 202 241
#
# _framework density 24.726479000000001
#
# number of rings (size 3 to 8) (size 9 to 14) (size 15 to 20)
#    0.000    3.111    0.000    1.000    0.000   10.222 
#    0.000    0.000    0.000    0.000    0.000    0.000 
#    0.000   32.000    0.000  185.778    0.000    0.000 
#
# Total GULP energy -200424.528419 kJ/mol
# GULP energy per Si atom -5567.348012 kJ/mol
# Density = 2.467020 g / cm^3
# Si number density = 24.726479 Si / 1000 Ang^3
#
#
#
# Elastic Constant Matrix: (Units=GPa)
#
#
# Indices 1 2 3 4 5 6 
#
# 1 95.9222 84.1633 4.5959 0.0000 0.0000 0.0000
# 2 84.1633 394.5488 8.5162 0.0000 0.0000 0.0000
# 3 4.5959 8.5162 73.7175 0.0000 0.0000 0.0000
# 4 0.0000 0.0000 0.0000 -46.6750 0.0000 0.0000
# 5 0.0000 0.0000 0.0000 0.0000 17.2240 0.0000
# 6 0.0000 0.0000 0.0000 0.0000 0.0000 161.9004
#
#
#
# Elastic Compliance Matrix: (Units=1/GPa)
#
#
# Indices 1 2 3 4 5 6 
#
# 1 0.012843 -0.002729 -0.000485 0.000000 0.000000 0.000000
# 2 -0.002729 0.003121 -0.000190 0.000000 0.000000 0.000000
# 3 -0.000485 -0.000190 0.013618 0.000000 0.000000 0.000000
# 4 0.000000 0.000000 0.000000 -0.021425 0.000000 0.000000
# 5 0.000000 0.000000 0.000000 0.000000 0.058058 0.000000
# 6 0.000000 0.000000 0.000000 0.000000 0.000000 0.006177
#
#
# Mechanical properties :
#
#
# Convention : Reuss Voigt Hill
#
# Bulk Modulus (GPa) = 43.91457 84.30436 64.10947
# Shear Modulus (GPa) = 57.60907 57.61744 57.61325
#
# Velocity S-wave (km/s) = 4.83209 4.83244 4.83227
# Velocity P-wave (km/s) = 6.99506 8.08118 7.55766
#
# Compressibility (1/GPa) = 0.02277149
#
# Stress axis : x y z
#
# Youngs Moduli (GPa) = 77.86382 320.42937 73.43462
#
# Poissons Ratio (x) = 0.87449 0.03565
# Poissons Ratio (y) = 0.21250 0.01398
# Poissons Ratio (z) = 0.03780 0.06100
#
# Static dielectric constant tensor:
#      x y z
#    x 1.838300 0.000000 0.000000 
#    y 0.000000 2.079260 0.000000 
#    z 0.000000 0.000000 2.014060 
# 
# From -- ./inp_files/22259.got.cif
#   From: 2010.05.17/outbox.cif.g08.bks.cpg/sg53_12_cif.got.tgz:22259.got - 2010.06.03 12:45:16.
