data_PCOD9415216
_publ_section_title
;
Structure prediction by ZEFSAII (Michael W. Deem and Ramdas Pophale) SiO2 
 PCOD9415216
Probable space group: P M N A
;
_chemical_formula_sum "Si O2"
_cell_formula_units_Z 56
_cell_length_a 8.874231
_cell_length_b 20.636527
_cell_length_c 18.579331
_cell_angle_alpha 90.000000
_cell_angle_beta 90.000000
_cell_angle_gamma 90.000000
_cell_volume 3402.494340
_symmetry_space_group_name_H-M "P M N A"
_symmetry_group_IT_number 53
_symmetry_cell_setting 'orthorhombic'
loop_
_space_group_symop_operation_xyz
x,y,z
1/2-x,-y,1/2+z
x,-y,-z
1/2-x,y,1/2-z
-x,-y,-z
1/2+x,y,1/2-z
-x,y,z
1/2+x,-y,1/2+z
loop_
_atom_site_type_symbol
_atom_site_label
_atom_site_fract_x
_atom_site_fract_y
_atom_site_fract_z
Si Si1 0.679085 0.516063 0.171494
Si Si2 0.180967 0.025903 0.173959
Si Si3 0.173197 0.437085 0.052551
Si Si4 0.672873 0.075632 0.475908
Si Si5 0.319625 0.250535 0.826898
Si Si6 0.181558 0.636805 0.084303
Si Si7 0.678384 0.107507 0.880689
O O1 0.750000 0.508382 0.250000
O O2 0.500000 0.522861 0.175783
O O3 0.724701 0.456372 0.119601
O O4 0.749462 0.580077 0.134182
O O5 0.250000 0.045522 0.250000
O O6 0.237326 0.953288 0.155202
O O7 0.000000 0.025122 0.176703
O O8 0.225440 0.071806 0.106669
O O9 0.000000 0.427351 0.076068
O O10 0.173334 0.500000 0.000000
O O11 0.220581 0.379825 0.998674
O O12 0.500000 0.099128 0.479361
O O13 0.772807 0.110381 0.535614
O O14 0.670538 0.000000 0.500000
O O15 0.250000 0.268913 0.750000
O O16 0.500000 0.258674 0.825782
O O17 0.246935 0.296201 0.887083
O O18 0.285116 0.175381 0.843119
O O19 0.000000 0.634701 0.090030
O O20 0.500000 0.095995 0.875364
#
# Coordination Sequence:
#
# PCOD9415216 Si02
#       7
#     8   8   8   8   8   8   8
#     4  11  20  30  47  70  97 125 153 189 231 273
#     4  10  19  30  46  69  95 122 152 189 232 276
#     4   8  16  31  48  67  91 118 151 189 230 276
#     4   8  16  30  46  65  90 119 151 188 230 275
#     4  11  23  35  47  67  94 124 160 194 225 266
#     4  10  20  34  50  67  92 125 157 191 230 272
#     4  10  20  32  47  67  92 124 158 192 228 270
#
# _framework density 16.458514000000001
#
# number of rings (size 3 to 8) (size 9 to 14) (size 15 to 20)
#    0.000    2.286    0.000    5.571    0.000    9.714 
#    0.000    0.000    0.000    0.000    0.000    1.000 
#    0.000    4.571    0.000    0.000    0.000    0.000 
#
# Total GULP energy -312286.161130 kJ/mol
# GULP energy per Si atom -5576.538592 kJ/mol
# Density = 1.642105 g / cm^3
# Si number density = 16.458514 Si / 1000 Ang^3
#
#
#
# Elastic Constant Matrix: (Units=GPa)
#
#
# Indices 1 2 3 4 5 6 
#
# 1 56.2660 10.6763 24.2285 0.0000 0.0000 0.0000
# 2 10.6763 18.3305 -2.5543 0.0000 0.0000 0.0000
# 3 24.2285 -2.5543 77.7997 0.0000 0.0000 0.0000
# 4 0.0000 0.0000 0.0000 24.7570 0.0000 0.0000
# 5 0.0000 0.0000 0.0000 0.0000 27.8597 0.0000
# 6 0.0000 0.0000 0.0000 0.0000 0.0000 26.3849
#
#
#
# Elastic Compliance Matrix: (Units=1/GPa)
#
#
# Indices 1 2 3 4 5 6 
#
# 1 0.024091 -0.015146 -0.008000 0.000000 0.000000 0.000000
# 2 -0.015146 0.064327 0.006829 0.000000 0.000000 0.000000
# 3 -0.008000 0.006829 0.015569 0.000000 0.000000 0.000000
# 4 0.000000 0.000000 0.000000 0.040393 0.000000 0.000000
# 5 0.000000 0.000000 0.000000 0.000000 0.035894 0.000000
# 6 0.000000 0.000000 0.000000 0.000000 0.000000 0.037900
#
#
# Mechanical properties :
#
#
# Convention : Reuss Voigt Hill
#
# Bulk Modulus (GPa) = 14.01481 24.12189 19.06835
# Shear Modulus (GPa) = 18.20869 23.80338 21.00603
#
# Velocity S-wave (km/s) = 3.32977 3.80711 3.57641
# Velocity P-wave (km/s) = 4.82876 5.83210 5.35399
#
# Compressibility (1/GPa) = 0.07135307
#
# Stress axis : x y z
#
# Youngs Moduli (GPa) = 41.50844 15.54549 64.22998
#
# Poissons Ratio (x) = 0.23546 0.51383
# Poissons Ratio (y) = 0.62871 -0.43862
# Poissons Ratio (z) = 0.33206 -0.10616
#
# Static dielectric constant tensor:
#      x y z
#    x 1.548700 0.000000 0.000000 
#    y 0.000000 1.545620 0.000000 
#    z 0.000000 0.000000 1.578340 
# 
# From -- ./inp_files/26662.got.cif
#   From: 2010.05.17/outbox.cif.g08.bks.cpg/sg53_14_cif.got.tgz:26662.got - 2010.06.03 12:45:16.
