data_PCOD9415497
_publ_section_title
;
Structure prediction by ZEFSAII (Michael W. Deem and Ramdas Pophale) SiO2 
 PCOD9415497
Probable space group: P M N A
;
_chemical_formula_sum "Si O2"
_cell_formula_units_Z 56
_cell_length_a 9.405872
_cell_length_b 14.946154
_cell_length_c 21.010744
_cell_angle_alpha 90.000000
_cell_angle_beta 90.000000
_cell_angle_gamma 90.000000
_cell_volume 2953.724249
_symmetry_space_group_name_H-M "P M N A"
_symmetry_group_IT_number 53
_symmetry_cell_setting 'orthorhombic'
loop_
_space_group_symop_operation_xyz
x,y,z
1/2-x,-y,1/2+z
x,-y,-z
1/2-x,y,1/2-z
-x,-y,-z
1/2+x,y,1/2-z
-x,y,z
1/2+x,-y,1/2+z
loop_
_atom_site_type_symbol
_atom_site_label
_atom_site_fract_x
_atom_site_fract_y
_atom_site_fract_z
Si Si1 0.329564 0.943810 0.565772
Si Si2 0.338287 0.559974 0.687859
Si Si3 0.664469 0.774321 0.977879
Si Si4 0.830578 0.035427 0.684179
Si Si5 0.658447 0.345093 0.690267
Si Si6 0.843642 0.776250 0.377953
Si Si7 0.327997 0.409020 0.459547
O O1 0.500000 0.940645 0.575977
O O2 0.262261 0.845035 0.558707
O O3 0.248564 0.988578 0.625078
O O4 0.306168 0.000000 0.500000
O O5 0.250000 0.589226 0.750000
O O6 0.500000 0.591634 0.695812
O O7 0.339350 0.451785 0.688078
O O8 0.292833 0.582394 0.615967
O O9 0.500000 0.769464 0.954994
O O10 0.737529 0.676976 0.980410
O O11 0.658605 0.810000 0.050210
O O12 0.750000 0.014962 0.750000
O O13 0.000000 0.014033 0.686484
O O14 0.819309 0.141250 0.668801
O O15 0.750000 0.315983 0.750000
O O16 0.500000 0.312807 0.697650
O O17 0.728227 0.300243 0.629802
O O18 0.000000 0.737058 0.365457
O O19 0.296484 0.500000 0.500000
O O20 0.500000 0.395184 0.465319
#
# Coordination Sequence:
#
# PCOD9415497 Si02
#       7
#     8   8   8   8   8   8   8
#     4  11  23  41  66  93 120 158 207 252 302 367
#     4   9  19  35  55  79 110 152 198 247 303 359
#     4  11  23  39  61  90 121 157 202 252 310 368
#     4  11  23  40  61  88 125 163 202 252 309 365
#     4  10  19  31  50  76 109 150 194 241 296 359
#     4  10  21  35  53  81 117 155 193 240 299 365
#     4  10  21  39  61  88 123 160 204 258 311 365
#
# _framework density 18.959116000000002
#
# number of rings (size 3 to 8) (size 9 to 14) (size 15 to 20)
#    0.000    1.714    1.429    3.000    0.000    6.571 
#    0.000    0.714    0.000    1.714    0.000    0.000 
#    0.000    0.000    0.000    0.000    0.000    0.000 
#
# Total GULP energy -312282.723585 kJ/mol
# GULP energy per Si atom -5576.477207 kJ/mol
# Density = 1.891596 g / cm^3
# Si number density = 18.959116 Si / 1000 Ang^3
#
#
#
# Elastic Constant Matrix: (Units=GPa)
#
#
# Indices 1 2 3 4 5 6 
#
# 1 126.3512 53.4171 65.5628 0.0000 0.0000 0.0000
# 2 53.4171 70.4035 27.6851 0.0000 0.0000 0.0000
# 3 65.5628 27.6851 127.2218 0.0000 0.0000 0.0000
# 4 0.0000 0.0000 0.0000 33.6412 0.0000 0.0000
# 5 0.0000 0.0000 0.0000 0.0000 31.9744 0.0000
# 6 0.0000 0.0000 0.0000 0.0000 0.0000 20.5742
#
#
#
# Elastic Compliance Matrix: (Units=1/GPa)
#
#
# Indices 1 2 3 4 5 6 
#
# 1 0.014544 -0.008845 -0.005571 0.000000 0.000000 0.000000
# 2 -0.008845 0.020912 0.000007 0.000000 0.000000 0.000000
# 3 -0.005571 0.000007 0.010729 0.000000 0.000000 0.000000
# 4 0.000000 0.000000 0.000000 0.029725 0.000000 0.000000
# 5 0.000000 0.000000 0.000000 0.000000 0.031275 0.000000
# 6 0.000000 0.000000 0.000000 0.000000 0.000000 0.048605
#
#
# Mechanical properties :
#
#
# Convention : Reuss Voigt Hill
#
# Bulk Modulus (GPa) = 57.57158 68.58958 63.08058
# Shear Modulus (GPa) = 26.26113 29.05873 27.65993
#
# Velocity S-wave (km/s) = 3.72579 3.91922 3.82373
# Velocity P-wave (km/s) = 6.99577 7.53237 7.26902
#
# Compressibility (1/GPa) = 0.01736968
#
# Stress axis : x y z
#
# Youngs Moduli (GPa) = 68.75629 47.82051 93.20167
#
# Poissons Ratio (x) = 0.42295 0.51918
# Poissons Ratio (y) = 0.60812 -0.00068
# Poissons Ratio (z) = 0.38301 -0.00035
#
# Static dielectric constant tensor:
#      x y z
#    x 1.664070 0.000000 0.000000 
#    y 0.000000 1.641060 0.000000 
#    z 0.000000 0.000000 1.707030 
# 
# From -- ./inp_files/30841.got.cif
#   From: 2010.05.17/outbox.cif.g08.bks.cpg/sg53_16_cif.got.tgz:30841.got - 2010.06.03 12:45:16.
