data_PCOD9415123
_publ_section_title
;
Structure prediction by ZEFSAII (Michael W. Deem and Ramdas Pophale) SiO2 
 PCOD9415123
Probable space group: P M N A
;
_chemical_formula_sum "Si O2"
_cell_formula_units_Z 56
_cell_length_a 7.547259
_cell_length_b 15.489443
_cell_length_c 23.917497
_cell_angle_alpha 90.000000
_cell_angle_beta 90.000000
_cell_angle_gamma 90.000000
_cell_volume 2796.023279
_symmetry_space_group_name_H-M "P M N A"
_symmetry_group_IT_number 53
_symmetry_cell_setting 'orthorhombic'
loop_
_space_group_symop_operation_xyz
x,y,z
1/2-x,-y,1/2+z
x,-y,-z
1/2-x,y,1/2-z
-x,-y,-z
1/2+x,y,1/2-z
-x,y,z
1/2+x,-y,1/2+z
loop_
_atom_site_type_symbol
_atom_site_label
_atom_site_fract_x
_atom_site_fract_y
_atom_site_fract_z
Si Si1 0.702847 0.905426 0.504598
Si Si2 0.295320 0.494440 0.616518
Si Si3 0.711027 0.326220 0.814909
Si Si4 0.212286 0.658001 0.815490
Si Si5 0.713238 0.618377 0.481525
Si Si6 0.791244 0.211117 0.591980
Si Si7 0.283638 0.256646 0.423929
O O1 0.500000 0.917743 0.524078
O O2 0.701839 0.863999 0.442918
O O3 0.779979 0.830108 0.544776
O O4 0.786531 0.000000 0.500000
O O5 0.500000 0.518295 0.605036
O O6 0.293336 0.409377 0.655257
O O7 0.218072 0.569912 0.655379
O O8 0.220585 0.462477 0.556175
O O9 0.750000 0.325190 0.750000
O O10 0.500000 0.333567 0.823818
O O11 0.770188 0.239127 0.846629
O O12 0.250000 0.666772 0.750000
O O13 0.268677 0.732095 0.859430
O O14 0.000000 0.654486 0.818219
O O15 0.500000 0.608336 0.483940
O O16 0.757267 0.701550 0.443274
O O17 0.771194 0.656409 0.541686
O O18 0.000000 0.192459 0.592655
O O19 0.500000 0.255135 0.427584
#
# Coordination Sequence:
#
# PCOD9415123 Si02
#       7
#     8   8   8   8   8   8   8
#     4   9  17  31  53  76  92 110 140 180 230 287
#     4   9  17  28  44  66  90 119 156 194 229 263
#     4  10  19  29  43  63  90 125 160 191 223 261
#     4  10  20  32  45  63  90 125 162 195 223 257
#     4   8  14  27  46  66  89 117 149 187 230 273
#     4   9  17  28  43  67  96 120 143 178 225 271
#     4   8  15  29  48  69  92 116 146 186 230 276
#
# _framework density 20.028445000000001
#
# number of rings (size 3 to 8) (size 9 to 14) (size 15 to 20)
#    0.000    3.000    0.000    2.143    0.000    4.286 
#    0.000    5.714    0.000    0.857    0.000   18.000 
#    0.000    0.000    0.000    0.000    0.000    0.000 
#
# Total GULP energy -311883.846714 kJ/mol
# GULP energy per Si atom -5569.354406 kJ/mol
# Density = 1.998286 g / cm^3
# Si number density = 20.028445 Si / 1000 Ang^3
#
#
#
# Elastic Constant Matrix: (Units=GPa)
#
#
# Indices 1 2 3 4 5 6 
#
# 1 51.4279 4.4910 -1.8926 0.0000 0.0000 0.0000
# 2 4.4910 124.9975 59.4226 0.0000 0.0000 0.0000
# 3 -1.8926 59.4226 173.2034 0.0000 0.0000 0.0000
# 4 0.0000 0.0000 0.0000 18.8757 0.0000 0.0000
# 5 0.0000 0.0000 0.0000 0.0000 28.0978 0.0000
# 6 0.0000 0.0000 0.0000 0.0000 0.0000 -4.4070
#
#
#
# Elastic Compliance Matrix: (Units=1/GPa)
#
#
# Indices 1 2 3 4 5 6 
#
# 1 0.019549 -0.000961 0.000543 0.000000 0.000000 0.000000
# 2 -0.000961 0.009606 -0.003306 0.000000 0.000000 0.000000
# 3 0.000543 -0.003306 0.006914 0.000000 0.000000 0.000000
# 4 0.000000 0.000000 0.000000 0.052978 0.000000 0.000000
# 5 0.000000 0.000000 0.000000 0.000000 0.035590 0.000000
# 6 0.000000 0.000000 0.000000 0.000000 0.000000 -0.226909
#
#
# Mechanical properties :
#
#
# Convention : Reuss Voigt Hill
#
# Bulk Modulus (GPa) = 34.93881 52.63009 43.78445
# Shear Modulus (GPa) = -58.62747 27.68713 -15.47017
#
# Velocity S-wave (km/s) = -5.41624 3.72208 -2.78224
# Velocity P-wave (km/s) = 4.65099 6.69377 3.40403
#
# Compressibility (1/GPa) = 0.02862147
#
# Stress axis : x y z
#
# Youngs Moduli (GPa) = 51.15459 104.09674 144.63799
#
# Poissons Ratio (x) = 0.09999 -0.07856
# Poissons Ratio (y) = 0.04914 0.47821
# Poissons Ratio (z) = -0.02779 0.34417
#
# Static dielectric constant tensor:
#      x y z
#    x 0.053620 0.000000 0.000000 
#    y 0.000000 1.784330 0.000000 
#    z 0.000000 0.000000 1.815540 
# 
# From -- ./inp_files/30820.got.cif
#   From: 2010.05.17/outbox.cif.g08.bks.cpg/sg53_16_cif.got.tgz:30820.got - 2010.06.03 12:45:16.
