data_PCOD9415883
_publ_section_title
;
Structure prediction by ZEFSAII (Michael W. Deem and Ramdas Pophale) SiO2 
 PCOD9415883
Probable space group: P M N A
;
_chemical_formula_sum "Si O2"
_cell_formula_units_Z 64
_cell_length_a 17.750390
_cell_length_b 12.925197
_cell_length_c 15.200603
_cell_angle_alpha 90.000000
_cell_angle_beta 90.000000
_cell_angle_gamma 90.000000
_cell_volume 3487.433116
_symmetry_space_group_name_H-M "P M N A"
_symmetry_group_IT_number 53
_symmetry_cell_setting 'orthorhombic'
loop_
_space_group_symop_operation_xyz
x,y,z
1/2-x,-y,1/2+z
x,-y,-z
1/2-x,y,1/2-z
-x,-y,-z
1/2+x,y,1/2-z
-x,y,z
1/2+x,-y,1/2+z
loop_
_atom_site_type_symbol
_atom_site_label
_atom_site_fract_x
_atom_site_fract_y
_atom_site_fract_z
Si Si1 0.415175 0.835918 0.685924
Si Si2 0.909416 0.500026 0.211149
Si Si3 0.786743 0.957770 0.905090
Si Si4 0.089543 0.323858 0.343771
Si Si5 0.737226 0.177887 0.650697
Si Si6 0.872825 0.346994 0.058707
Si Si7 0.086378 0.708218 0.132451
Si Si8 0.212581 0.748641 0.528132
O O1 0.500000 0.877698 0.691126
O O2 0.352652 0.918213 0.658558
O O3 0.398902 0.770307 0.774172
O O4 0.410338 0.749644 0.609332
O O5 0.884700 0.428719 0.293138
O O6 0.883138 0.443447 0.122335
O O7 0.890657 0.620839 0.203886
O O8 0.000000 0.494092 0.210967
O O9 0.733446 0.860448 0.928592
O O10 0.747507 0.056157 0.861338
O O11 0.815823 0.000000 0.000000
O O12 0.138686 0.298524 0.428649
O O13 0.000000 0.330796 0.361015
O O14 0.750000 0.210108 0.750000
O O15 0.649390 0.203018 0.629623
O O16 0.786162 0.235451 0.576674
O O17 0.784544 0.322407 0.049729
O O18 0.908405 0.348324 0.962355
O O19 0.000000 0.741535 0.146992
#
# Coordination Sequence:
#
# PCOD9415883 Si02
#       8
#     8   8   8   8   8   8   8   8
#     4   9  17  27  45  78 111 137 173 218 265 320
#     4   9  17  29  49  79 110 139 173 213 262 315
#     4   9  19  32  51  75 101 139 175 216 269 322
#     4   9  18  33  53  79 108 136 175 226 271 314
#     4  10  22  38  53  73 104 140 179 222 263 318
#     4   9  16  27  48  79 109 139 170 209 271 323
#     4  10  19  33  52  73 106 146 179 214 261 321
#     4   9  19  35  54  78 104 134 177 219 273 325
#
# _framework density 18.351607000000001
#
# number of rings (size 3 to 8) (size 9 to 14) (size 15 to 20)
#    0.000    2.750    0.000    3.000    1.750    5.750 
#    2.250    0.625    0.000    3.375    0.000    2.625 
#    0.000    0.000    0.000    0.000    0.000    0.000 
#
# Total GULP energy -356620.764236 kJ/mol
# GULP energy per Si atom -5572.199441 kJ/mol
# Density = 1.830984 g / cm^3
# Si number density = 18.351607 Si / 1000 Ang^3
#
#
#
# Elastic Constant Matrix: (Units=GPa)
#
#
# Indices 1 2 3 4 5 6 
#
# 1 40.3293 3.1920 31.2422 0.0000 0.0000 0.0000
# 2 3.1920 35.3791 9.2751 0.0000 0.0000 0.0000
# 3 31.2422 9.2751 93.7116 0.0000 0.0000 0.0000
# 4 0.0000 0.0000 0.0000 11.4146 0.0000 0.0000
# 5 0.0000 0.0000 0.0000 0.0000 22.1132 0.0000
# 6 0.0000 0.0000 0.0000 0.0000 0.0000 10.8411
#
#
#
# Elastic Compliance Matrix: (Units=1/GPa)
#
#
# Indices 1 2 3 4 5 6 
#
# 1 0.033430 -0.000097 -0.011136 0.000000 0.000000 0.000000
# 2 -0.000097 0.029019 -0.002840 0.000000 0.000000 0.000000
# 3 -0.011136 -0.002840 0.014665 0.000000 0.000000 0.000000
# 4 0.000000 0.000000 0.000000 0.087607 0.000000 0.000000
# 5 0.000000 0.000000 0.000000 0.000000 0.045222 0.000000
# 6 0.000000 0.000000 0.000000 0.000000 0.000000 0.092241
#
#
# Mechanical properties :
#
#
# Convention : Reuss Voigt Hill
#
# Bulk Modulus (GPa) = 20.42120 28.53763 24.47942
# Shear Modulus (GPa) = 14.42373 17.25449 15.83911
#
# Velocity S-wave (km/s) = 2.80655 3.06962 2.94103
# Velocity P-wave (km/s) = 4.65341 5.30544 4.99008
#
# Compressibility (1/GPa) = 0.04896871
#
# Stress axis : x y z
#
# Youngs Moduli (GPa) = 29.91328 34.46076 68.19166
#
# Poissons Ratio (x) = 0.00333 0.75935
# Poissons Ratio (y) = 0.00289 0.19365
# Poissons Ratio (z) = 0.33310 0.09786
#
# Static dielectric constant tensor:
#      x y z
#    x 1.614880 0.000000 0.000000 
#    y 0.000000 1.656820 0.000000 
#    z 0.000000 0.000000 1.644270 
# 
# From -- ./inp_files/23937.got.cif
#   From: 2010.05.17/outbox.cif.g08.bks.cpg/sg53_12_cif.got.tgz:23937.got - 2010.06.03 12:45:16.
