data_PCOD9415150
_publ_section_title
;
Structure prediction by ZEFSAII (Michael W. Deem and Ramdas Pophale) SiO2 
 PCOD9415150
Probable space group: P M N A
;
_chemical_formula_sum "Si O2"
_cell_formula_units_Z 56
_cell_length_a 22.025555
_cell_length_b 13.210446
_cell_length_c 11.346299
_cell_angle_alpha 90.000000
_cell_angle_beta 90.000000
_cell_angle_gamma 90.000000
_cell_volume 3301.403176
_symmetry_space_group_name_H-M "P M N A"
_symmetry_group_IT_number 53
_symmetry_cell_setting 'orthorhombic'
loop_
_space_group_symop_operation_xyz
x,y,z
1/2-x,-y,1/2+z
x,-y,-z
1/2-x,y,1/2-z
-x,-y,-z
1/2+x,y,1/2-z
-x,y,z
1/2+x,-y,1/2+z
loop_
_atom_site_type_symbol
_atom_site_label
_atom_site_fract_x
_atom_site_fract_y
_atom_site_fract_z
Si Si1 0.572038 0.608527 0.541509
Si Si2 0.072283 0.175134 0.940571
Si Si3 0.328353 0.113432 0.368745
Si Si4 0.738855 0.179089 0.935422
Si Si5 0.729099 0.610249 0.944826
Si Si6 0.159674 0.894695 0.240256
Si Si7 0.160189 0.331857 0.225238
O O1 0.596662 0.500000 0.500000
O O2 0.500000 0.602039 0.543797
O O3 0.587107 0.705417 0.459865
O O4 0.597046 0.635351 0.669816
O O5 0.094783 0.138086 0.812559
O O6 0.000000 0.159978 0.958035
O O7 0.114473 0.120225 0.039723
O O8 0.267477 0.125806 0.448230
O O9 0.332706 0.211054 0.285030
O O10 0.329581 0.010927 0.295745
O O11 0.793385 0.167774 0.841843
O O12 0.680342 0.129156 0.873100
O O13 0.728314 0.296350 0.964863
O O14 0.789595 0.624888 0.865945
O O15 0.674526 0.627554 0.853269
O O16 0.727794 0.500000 0.000000
#
# Coordination Sequence:
#
# PCOD9415150 Si02
#       7
#     8   8   8   8   8   8   8
#     4   9  17  30  49  71  94 121 153 194 237 270
#     4   9  17  29  46  71  98 121 153 192 231 279
#     4   9  18  32  46  67  95 124 154 186 230 276
#     4   9  19  31  43  66  95 119 153 188 222 275
#     4  10  20  32  48  69  94 124 152 186 231 275
#     4  10  19  29  47  69  95 124 150 192 236 266
#     4   9  19  32  48  68  93 124 157 185 223 285
#
# _framework density 16.962482999999999
#
# number of rings (size 3 to 8) (size 9 to 14) (size 15 to 20)
#    0.000    2.714    0.000    3.000    0.000   10.286 
#    0.000    0.000    0.000    1.286    0.000    0.000 
#    0.000   26.286    0.000    0.000    0.000    0.000 
#
# Total GULP energy -311994.525405 kJ/mol
# GULP energy per Si atom -5571.330811 kJ/mol
# Density = 1.692388 g / cm^3
# Si number density = 16.962483 Si / 1000 Ang^3
#
#
#
# Elastic Constant Matrix: (Units=GPa)
#
#
# Indices 1 2 3 4 5 6 
#
# 1 40.3918 36.7050 17.9341 0.0000 0.0000 0.0000
# 2 36.7050 163.2818 64.0381 0.0000 0.0000 0.0000
# 3 17.9341 64.0381 40.7350 0.0000 0.0000 0.0000
# 4 0.0000 0.0000 0.0000 10.4205 0.0000 0.0000
# 5 0.0000 0.0000 0.0000 0.0000 18.3831 0.0000
# 6 0.0000 0.0000 0.0000 0.0000 0.0000 14.0282
#
#
#
# Elastic Compliance Matrix: (Units=1/GPa)
#
#
# Indices 1 2 3 4 5 6 
#
# 1 0.031909 -0.004338 -0.007229 0.000000 0.000000 0.000000
# 2 -0.004338 0.016562 -0.024126 0.000000 0.000000 0.000000
# 3 -0.007229 -0.024126 0.065660 0.000000 0.000000 0.000000
# 4 0.000000 0.000000 0.000000 0.095965 0.000000 0.000000
# 5 0.000000 0.000000 0.000000 0.000000 0.054398 0.000000
# 6 0.000000 0.000000 0.000000 0.000000 0.000000 0.071285
#
#
# Mechanical properties :
#
#
# Convention : Reuss Voigt Hill
#
# Bulk Modulus (GPa) = 23.39497 53.52923 38.46210
# Shear Modulus (GPa) = 11.86485 16.94843 14.40664
#
# Velocity S-wave (km/s) = 2.64763 3.16440 2.91748
# Velocity P-wave (km/s) = 4.81339 6.70650 5.83720
#
# Compressibility (1/GPa) = 0.04274422
#
# Stress axis : x y z
#
# Youngs Moduli (GPa) = 31.33896 60.38032 15.23002
#
# Poissons Ratio (x) = 0.26192 0.11010
# Poissons Ratio (y) = 0.13594 0.36744
# Poissons Ratio (z) = 0.22655 1.45675
#
# Static dielectric constant tensor:
#      x y z
#    x 1.609000 0.000000 0.000000 
#    y 0.000000 1.598120 0.000000 
#    z 0.000000 0.000000 1.596690 
# 
# From -- ./inp_files/17866.got.cif
#   From: 2010.05.17/outbox.cif.g08.bks.cpg/sg53_9_cif.got.tgz:17866.got - 2010.06.03 12:45:16.
