data_PCOD9415952
_publ_section_title
;
Structure prediction by ZEFSAII (Michael W. Deem and Ramdas Pophale) SiO2 
 PCOD9415952
Probable space group: P M N A
;
_chemical_formula_sum "Si O2"
_cell_formula_units_Z 56
_cell_length_a 9.058356
_cell_length_b 17.674970
_cell_length_c 19.881674
_cell_angle_alpha 90.000000
_cell_angle_beta 90.000000
_cell_angle_gamma 90.000000
_cell_volume 3183.178688
_symmetry_space_group_name_H-M "P M N A"
_symmetry_group_IT_number 53
_symmetry_cell_setting 'orthorhombic'
loop_
_space_group_symop_operation_xyz
x,y,z
1/2-x,-y,1/2+z
x,-y,-z
1/2-x,y,1/2-z
-x,-y,-z
1/2+x,y,1/2-z
-x,y,z
1/2+x,-y,1/2+z
loop_
_atom_site_type_symbol
_atom_site_label
_atom_site_fract_x
_atom_site_fract_y
_atom_site_fract_z
Si Si1 0.676063 0.341471 0.176369
Si Si2 0.825580 0.709555 0.033698
Si Si3 0.676112 0.083684 0.682466
Si Si4 0.822208 0.037366 0.070879
Si Si5 0.676843 0.198876 0.080466
Si Si6 0.328117 0.421653 0.041185
Si Si7 0.676876 0.740932 0.318434
O O1 0.750000 0.348553 0.250000
O O2 0.500000 0.338679 0.186997
O O3 0.718587 0.263391 0.136254
O O4 0.703829 0.409177 0.121279
O O5 0.780785 0.702732 0.111501
O O6 0.000000 0.726842 0.031601
O O7 0.738389 0.772358 0.991365
O O8 0.784911 0.633025 0.996082
O O9 0.750000 0.055759 0.750000
O O10 0.500000 0.083959 0.689163
O O11 0.720740 0.170895 0.672365
O O12 0.715694 0.027547 0.623671
O O13 0.745563 0.116106 0.089893
O O14 0.000000 0.049518 0.070065
O O15 0.779809 0.000000 0.000000
O O16 0.500000 0.195266 0.079627
O O17 0.500000 0.394994 0.034103
O O18 0.320345 0.500000 0.000000
O O19 0.750000 0.712279 0.250000
O O20 0.500000 0.736912 0.311068
#
# Coordination Sequence:
#
# PCOD9415952 Si02
#       7
#     8   8   8   8   8   8   8
#     4   9  19  35  55  79 105 137 176 216 260 311
#     4  10  19  33  54  78 103 131 168 210 250 298
#     4   9  18  32  48  66  92 127 164 204 253 304
#     4  10  20  34  51  71  98 132 171 218 269 313
#     4  10  21  35  51  74 102 134 175 217 261 314
#     4   9  19  37  58  80 109 142 172 205 252 307
#     4   9  18  32  50  72  98 130 168 209 252 300
#
# _framework density 17.592478
#
# number of rings (size 3 to 8) (size 9 to 14) (size 15 to 20)
#    0.000    2.571    0.000    2.571    0.000    8.000 
#    0.000    6.429    0.000    3.429    0.000    0.000 
#    0.000    0.000    0.000    0.000    0.000    0.000 
#
# Total GULP energy -311817.979967 kJ/mol
# GULP energy per Si atom -5568.178214 kJ/mol
# Density = 1.755244 g / cm^3
# Si number density = 17.592478 Si / 1000 Ang^3
#
#
#
# Elastic Constant Matrix: (Units=GPa)
#
#
# Indices 1 2 3 4 5 6 
#
# 1 22.4269 12.8853 40.4814 0.0000 0.0000 0.0000
# 2 12.8853 31.9390 29.7238 0.0000 0.0000 0.0000
# 3 40.4814 29.7238 165.0762 0.0000 0.0000 0.0000
# 4 0.0000 0.0000 0.0000 24.7094 0.0000 0.0000
# 5 0.0000 0.0000 0.0000 0.0000 31.4711 0.0000
# 6 0.0000 0.0000 0.0000 0.0000 0.0000 -9.1701
#
#
#
# Elastic Compliance Matrix: (Units=1/GPa)
#
#
# Indices 1 2 3 4 5 6 
#
# 1 0.088325 -0.018591 -0.018312 0.000000 0.000000 0.000000
# 2 -0.018591 0.041526 -0.002918 0.000000 0.000000 0.000000
# 3 -0.018312 -0.002918 0.011074 0.000000 0.000000 0.000000
# 4 0.000000 0.000000 0.000000 0.040470 0.000000 0.000000
# 5 0.000000 0.000000 0.000000 0.000000 0.031775 0.000000
# 6 0.000000 0.000000 0.000000 0.000000 0.000000 -0.109050
#
#
# Mechanical properties :
#
#
# Convention : Reuss Voigt Hill
#
# Bulk Modulus (GPa) = 16.31811 42.84702 29.58256
# Shear Modulus (GPa) = 24.48686 18.49218 21.48952
#
# Velocity S-wave (km/s) = 3.73486 3.24565 3.49881
# Velocity P-wave (km/s) = 5.28154 6.20111 5.75971
#
# Compressibility (1/GPa) = 0.06128162
#
# Stress axis : x y z
#
# Youngs Moduli (GPa) = 11.32178 24.08145 90.30212
#
# Poissons Ratio (x) = 0.44771 1.65364
# Poissons Ratio (y) = 0.21049 0.26351
# Poissons Ratio (z) = 0.20733 0.07027
#
# Static dielectric constant tensor:
#      x y z
#    x 1.591330 0.000000 0.000000 
#    y 0.000000 1.622330 0.000000 
#    z 0.000000 0.000000 1.596150 
# 
# From -- ./inp_files/31019.got.cif
#   From: 2010.05.17/outbox.cif.g08.bks.cpg/sg53_16_cif.got.tgz:31019.got - 2010.06.03 12:45:16.
