data_PCOD9415302
_publ_section_title
;
Structure prediction by ZEFSAII (Michael W. Deem and Ramdas Pophale) SiO2 
 PCOD9415302
Probable space group: P M N A
;
_chemical_formula_sum "Si O2"
_cell_formula_units_Z 64
_cell_length_a 9.117071
_cell_length_b 20.919258
_cell_length_c 20.771675
_cell_angle_alpha 90.000000
_cell_angle_beta 90.000000
_cell_angle_gamma 90.000000
_cell_volume 3961.622887
_symmetry_space_group_name_H-M "P M N A"
_symmetry_group_IT_number 53
_symmetry_cell_setting 'orthorhombic'
loop_
_space_group_symop_operation_xyz
x,y,z
1/2-x,-y,1/2+z
x,-y,-z
1/2-x,y,1/2-z
-x,-y,-z
1/2+x,y,1/2-z
-x,y,z
1/2+x,-y,1/2+z
loop_
_atom_site_type_symbol
_atom_site_label
_atom_site_fract_x
_atom_site_fract_y
_atom_site_fract_z
Si Si1 0.175087 0.947637 0.553408
Si Si2 0.829180 0.178124 0.005351
Si Si3 0.671780 0.155070 0.648966
Si Si4 0.166481 0.716856 0.335269
Si Si5 0.175055 0.022116 0.684977
Si Si6 0.174983 0.584342 0.186703
Si Si7 0.334358 0.306123 0.988520
Si Si8 0.176217 0.436860 0.960150
O O1 0.253784 0.880780 0.541283
O O2 0.000000 0.938752 0.545294
O O3 0.222420 0.000000 0.500000
O O4 0.202426 0.977042 0.623587
O O5 0.751359 0.245986 0.018019
O O6 0.000000 0.182598 0.021500
O O7 0.819024 0.162507 0.928720
O O8 0.500000 0.153698 0.666735
O O9 0.753858 0.216536 0.677572
O O10 0.752932 0.090780 0.669835
O O11 0.265862 0.657001 0.316064
O O12 0.156200 0.710691 0.412616
O O13 0.000000 0.713411 0.309408
O O14 0.250000 0.997430 0.750000
O O15 0.000000 0.028976 0.692851
O O16 0.250000 0.554356 0.250000
O O17 0.214587 0.556934 0.115947
O O18 0.000000 0.582813 0.193502
O O19 0.500000 0.311337 0.013666
O O20 0.251598 0.373840 0.989529
O O21 0.000000 0.428196 0.962907
O O22 0.215444 0.500000 0.000000
#
# Coordination Sequence:
#
# PCOD9415302 Si02
#       8
#     8   8   8   8   8   8   8   8
#     4  10  20  35  54  74  97 127 165 208 255 301
#     4  10  19  30  50  76 101 128 163 209 251 293
#     4  10  19  31  47  69  96 127 164 203 244 289
#     4   9  17  29  45  65  92 127 165 201 237 279
#     4  11  23  37  51  68  95 128 162 205 254 306
#     4  10  19  31  47  68  96 129 166 203 239 283
#     4   9  17  29  47  72 102 131 162 201 245 294
#     4   9  18  33  52  74 102 135 168 204 246 292
#
# _framework density 16.154996000000001
#
# number of rings (size 3 to 8) (size 9 to 14) (size 15 to 20)
#    0.000    2.250    1.250    2.250    0.000    6.500 
#    0.000    2.500    0.000    0.000    0.000    0.875 
#    0.000    4.000    0.000    0.000    0.000    0.000 
#
# Total GULP energy -357025.553089 kJ/mol
# GULP energy per Si atom -5578.524267 kJ/mol
# Density = 1.611823 g / cm^3
# Si number density = 16.154996 Si / 1000 Ang^3
#
#
#
# Elastic Constant Matrix: (Units=GPa)
#
#
# Indices 1 2 3 4 5 6 
#
# 1 89.1449 64.8826 51.5104 0.0000 0.0000 0.0000
# 2 64.8826 123.4401 57.0094 0.0000 0.0000 0.0000
# 3 51.5104 57.0094 76.8547 0.0000 0.0000 0.0000
# 4 0.0000 0.0000 0.0000 10.7917 0.0000 0.0000
# 5 0.0000 0.0000 0.0000 0.0000 29.0830 0.0000
# 6 0.0000 0.0000 0.0000 0.0000 0.0000 24.8317
#
#
#
# Elastic Compliance Matrix: (Units=1/GPa)
#
#
# Indices 1 2 3 4 5 6 
#
# 1 0.021808 -0.007168 -0.009300 0.000000 0.000000 0.000000
# 2 -0.007168 0.014679 -0.006084 0.000000 0.000000 0.000000
# 3 -0.009300 -0.006084 0.023757 0.000000 0.000000 0.000000
# 4 0.000000 0.000000 0.000000 0.092663 0.000000 0.000000
# 5 0.000000 0.000000 0.000000 0.000000 0.034384 0.000000
# 6 0.000000 0.000000 0.000000 0.000000 0.000000 0.040271
#
#
# Mechanical properties :
#
#
# Convention : Reuss Voigt Hill
#
# Bulk Modulus (GPa) = 66.04521 70.69384 68.36953
# Shear Modulus (GPa) = 18.00416 20.67712 19.34064
#
# Velocity S-wave (km/s) = 3.34198 3.58148 3.46380
# Velocity P-wave (km/s) = 7.47414 7.80752 7.64265
#
# Compressibility (1/GPa) = 0.01514114
#
# Stress axis : x y z
#
# Youngs Moduli (GPa) = 45.85398 68.12632 42.09200
#
# Poissons Ratio (x) = 0.48833 0.39144
# Poissons Ratio (y) = 0.32868 0.25609
# Poissons Ratio (z) = 0.42642 0.41449
#
# Static dielectric constant tensor:
#      x y z
#    x 1.551050 0.000000 0.000000 
#    y 0.000000 1.509630 0.000000 
#    z 0.000000 0.000000 1.566910 
# 
# From -- ./inp_files/31394.got.cif
#   From: 2010.05.17/outbox.cif.g08.bks.cpg/sg53_16_cif.got.tgz:31394.got - 2010.06.03 12:45:16.
