data_PCOD9415868
_publ_section_title
;
Structure prediction by ZEFSAII (Michael W. Deem and Ramdas Pophale) SiO2 
 PCOD9415868
Probable space group: P M N A
;
_chemical_formula_sum "Si O2"
_cell_formula_units_Z 64
_cell_length_a 8.793503
_cell_length_b 14.634919
_cell_length_c 28.406033
_cell_angle_alpha 90.000000
_cell_angle_beta 90.000000
_cell_angle_gamma 90.000000
_cell_volume 3655.634997
_symmetry_space_group_name_H-M "P M N A"
_symmetry_group_IT_number 53
_symmetry_cell_setting 'orthorhombic'
loop_
_space_group_symop_operation_xyz
x,y,z
1/2-x,-y,1/2+z
x,-y,-z
1/2-x,y,1/2-z
-x,-y,-z
1/2+x,y,1/2-z
-x,y,z
1/2+x,-y,1/2+z
loop_
_atom_site_type_symbol
_atom_site_label
_atom_site_fract_x
_atom_site_fract_y
_atom_site_fract_z
Si Si1 0.680613 0.535977 0.198444
Si Si2 0.668796 0.455459 0.550902
Si Si3 0.184592 0.027149 0.052969
Si Si4 0.315630 0.238136 0.437206
Si Si5 0.818476 0.856213 0.112605
Si Si6 0.683137 0.741513 0.197204
Si Si7 0.174331 0.607599 0.869016
Si Si8 0.176752 0.721739 0.462294
O O1 0.750000 0.529507 0.250000
O O2 0.500000 0.536863 0.200669
O O3 0.727889 0.637946 0.180580
O O4 0.733699 0.448149 0.169534
O O5 0.684811 0.500000 0.500000
O O6 0.500000 0.411714 0.553683
O O7 0.673666 0.536849 0.587623
O O8 0.795071 0.379308 0.557768
O O9 0.224723 0.131305 0.064732
O O10 0.000000 0.022491 0.051352
O O11 0.232690 0.955472 0.093153
O O12 0.237698 0.000000 0.000000
O O13 0.500000 0.246812 0.441500
O O14 0.269975 0.297486 0.391648
O O15 0.239700 0.276502 0.484579
O O16 0.743319 0.815090 0.159615
O O17 0.773260 0.790153 0.069563
O O18 0.000000 0.857153 0.119077
O O19 0.750000 0.754029 0.250000
O O20 0.500000 0.745954 0.199386
O O21 0.000000 0.620104 0.852803
O O22 0.000000 0.746247 0.460901
#
# Coordination Sequence:
#
# PCOD9415868 Si02
#       8
#     8   8   8   8   8   8   8   8
#     4  10  21  37  58  81 110 141 178 220 266 321
#     4  10  19  33  50  71 100 141 182 214 256 316
#     4   9  17  32  57  81 103 139 190 234 271 317
#     4  10  19  36  55  74 103 143 186 228 268 322
#     4  11  21  35  57  81 107 144 184 229 277 330
#     4  10  21  38  59  86 114 143 176 221 275 331
#     4  10  20  33  54  78 105 140 180 221 268 318
#     4  12  23  32  46  74 109 145 181 223 270 321
#
# _framework density 17.507218000000002
#
# number of rings (size 3 to 8) (size 9 to 14) (size 15 to 20)
#    0.000    1.750    2.500    3.000    0.000    4.750 
#    0.000    1.875    0.000    0.750    0.000    0.000 
#    0.000    0.000    0.000    0.000    0.000    0.000 
#
# Total GULP energy -357025.222528 kJ/mol
# GULP energy per Si atom -5578.519102 kJ/mol
# Density = 1.746737 g / cm^3
# Si number density = 17.507218 Si / 1000 Ang^3
#
#
#
# Elastic Constant Matrix: (Units=GPa)
#
#
# Indices 1 2 3 4 5 6 
#
# 1 38.9846 27.2840 26.7166 0.0000 0.0000 0.0000
# 2 27.2840 124.4807 51.2909 0.0000 0.0000 0.0000
# 3 26.7166 51.2909 84.4233 0.0000 0.0000 0.0000
# 4 0.0000 0.0000 0.0000 37.0108 0.0000 0.0000
# 5 0.0000 0.0000 0.0000 0.0000 24.8832 0.0000
# 6 0.0000 0.0000 0.0000 0.0000 0.0000 14.8499
#
#
#
# Elastic Compliance Matrix: (Units=1/GPa)
#
#
# Indices 1 2 3 4 5 6 
#
# 1 0.034222 -0.004053 -0.008367 0.000000 0.000000 0.000000
# 2 -0.004053 0.011196 -0.005519 0.000000 0.000000 0.000000
# 3 -0.008367 -0.005519 0.017846 0.000000 0.000000 0.000000
# 4 0.000000 0.000000 0.000000 0.027019 0.000000 0.000000
# 5 0.000000 0.000000 0.000000 0.000000 0.040188 0.000000
# 6 0.000000 0.000000 0.000000 0.000000 0.000000 0.067341
#
#
# Mechanical properties :
#
#
# Convention : Reuss Voigt Hill
#
# Bulk Modulus (GPa) = 36.51716 50.94129 43.72922
# Shear Modulus (GPa) = 20.59137 24.85524 22.72330
#
# Velocity S-wave (km/s) = 3.43325 3.77200 3.60660
# Velocity P-wave (km/s) = 6.05143 6.93766 6.50964
#
# Compressibility (1/GPa) = 0.02738439
#
# Stress axis : x y z
#
# Youngs Moduli (GPa) = 29.22083 89.31807 56.03405
#
# Poissons Ratio (x) = 0.36202 0.46886
# Poissons Ratio (y) = 0.11844 0.30927
# Poissons Ratio (z) = 0.24450 0.49298
#
# Static dielectric constant tensor:
#      x y z
#    x 1.608160 0.000000 0.000000 
#    y 0.000000 1.623930 0.000000 
#    z 0.000000 0.000000 1.591330 
# 
# From -- ./inp_files/34246.got.cif
#   From: 2010.05.17/outbox.cif.g08.bks.cpg/sg53_18_cif.got.tgz:34246.got - 2010.06.03 12:45:16.
