data_PCOD9415241
_publ_section_title
;
Structure prediction by ZEFSAII (Michael W. Deem and Ramdas Pophale) SiO2 
 PCOD9415241
Probable space group: P M N A
;
_chemical_formula_sum "Si O2"
_cell_formula_units_Z 48
_cell_length_a 14.708872
_cell_length_b 27.727963
_cell_length_c 5.271658
_cell_angle_alpha 90.000000
_cell_angle_beta 90.000000
_cell_angle_gamma 90.000000
_cell_volume 2150.030209
_symmetry_space_group_name_H-M "P M N A"
_symmetry_group_IT_number 53
_symmetry_cell_setting 'orthorhombic'
loop_
_space_group_symop_operation_xyz
x,y,z
1/2-x,-y,1/2+z
x,-y,-z
1/2-x,y,1/2-z
-x,-y,-z
1/2+x,y,1/2-z
-x,y,z
1/2+x,-y,1/2+z
loop_
_atom_site_type_symbol
_atom_site_label
_atom_site_fract_x
_atom_site_fract_y
_atom_site_fract_z
Si Si1 0.108669 0.861646 0.134899
Si Si2 0.686068 0.447341 0.503484
Si Si3 0.360186 0.650267 0.284130
Si Si4 0.357279 0.698238 0.775863
Si Si5 0.141101 0.973380 0.247553
Si Si6 0.109765 0.810082 0.630105
O O1 0.123707 0.916885 0.212909
O O2 0.145421 0.829336 0.363374
O O3 0.000000 0.855038 0.123354
O O4 0.143445 0.843075 0.863648
O O5 0.639577 0.500000 0.500000
O O6 0.750000 0.439166 0.250000
O O7 0.625043 0.401595 0.581087
O O8 0.750000 0.451895 0.750000
O O9 0.250000 0.653209 0.250000
O O10 0.393694 0.687604 0.495368
O O11 0.393845 0.664583 0.004290
O O12 0.250000 0.687763 0.750000
O O13 0.368361 0.754117 0.837943
O O14 0.250000 0.979094 0.250000
O O15 0.106771 0.000000 0.500000
O O16 0.104920 0.000000 0.000000
O O17 0.000000 0.814166 0.624655
#
# Coordination Sequence:
#
# PCOD9415241 Si02
#       6
#     8   8   8   8   8   8
#     4  10  21  36  54  74  97 127 160 196 236 277
#     4   9  15  23  37  58  88 126 158 187 234 290
#     4   9  16  27  41  63  93 121 154 195 234 280
#     4  10  19  30  47  68  92 123 157 193 237 283
#     4  10  21  36  54  78 105 130 157 192 233 277
#     4  10  21  36  51  71  98 125 159 201 239 278
#
# _framework density 22.325268999999999
#
# number of rings (size 3 to 8) (size 9 to 14) (size 15 to 20)
#    0.000    2.333    0.000    4.500    0.000    2.000 
#    0.000    0.000    0.000    0.000    0.000    0.000 
#    0.000    4.000    0.000    0.000    0.000   28.333 
#
# Total GULP energy -267756.212751 kJ/mol
# GULP energy per Si atom -5578.254432 kJ/mol
# Density = 2.227446 g / cm^3
# Si number density = 22.325269 Si / 1000 Ang^3
#
#
#
# Elastic Constant Matrix: (Units=GPa)
#
#
# Indices 1 2 3 4 5 6 
#
# 1 59.9914 -8.2298 22.4332 0.0000 0.0000 0.0000
# 2 -8.2298 131.7011 45.9551 0.0000 0.0000 0.0000
# 3 22.4332 45.9551 163.3010 0.0000 0.0000 0.0000
# 4 0.0000 0.0000 0.0000 46.2169 0.0000 0.0000
# 5 0.0000 0.0000 0.0000 0.0000 -7.1220 0.0000
# 6 0.0000 0.0000 0.0000 0.0000 0.0000 38.8441
#
#
#
# Elastic Compliance Matrix: (Units=1/GPa)
#
#
# Indices 1 2 3 4 5 6 
#
# 1 0.018139 0.002221 -0.003117 0.000000 0.000000 0.000000
# 2 0.002221 0.008692 -0.002751 0.000000 0.000000 0.000000
# 3 -0.003117 -0.002751 0.007326 0.000000 0.000000 0.000000
# 4 0.000000 0.000000 0.000000 0.021637 0.000000 0.000000
# 5 0.000000 0.000000 0.000000 0.000000 -0.140410 0.000000
# 6 0.000000 0.000000 0.000000 0.000000 0.000000 0.025744
#
#
# Mechanical properties :
#
#
# Convention : Reuss Voigt Hill
#
# Bulk Modulus (GPa) = 37.22559 52.81228 45.01894
# Shear Modulus (GPa) = -117.30511 35.24347 -41.03082
#
# Velocity S-wave (km/s) = -7.25656 3.97752 -4.29168
# Velocity P-wave (km/s) = 7.31436 6.69338 2.08549
#
# Compressibility (1/GPa) = 0.02686324
#
# Stress axis : x y z
#
# Youngs Moduli (GPa) = 55.12896 115.05238 136.49956
#
# Poissons Ratio (x) = -0.25554 0.42546
# Poissons Ratio (y) = -0.12245 0.37552
# Poissons Ratio (z) = 0.17183 0.31652
#
# Static dielectric constant tensor:
#      x y z
#    x 1.866490 0.000000 0.000000 
#    y 0.000000 1.851090 0.000000 
#    z 0.000000 0.000000 1.824700 
# 
# From -- ./inp_files/2232.got.cif
#   From: 2010.05.17/outbox.cif.g08.bks.cpg/sg53_2_cif.got.tgz:2232.got - 2010.06.03 12:45:16.
