data_PCOD9415513
_publ_section_title
;
Structure prediction by ZEFSAII (Michael W. Deem and Ramdas Pophale) SiO2 
 PCOD9415513
Probable space group: P M N A
;
_chemical_formula_sum "Si O2"
_cell_formula_units_Z 56
_cell_length_a 8.462698
_cell_length_b 23.518216
_cell_length_c 14.682606
_cell_angle_alpha 90.000000
_cell_angle_beta 90.000000
_cell_angle_gamma 90.000000
_cell_volume 2922.243239
_symmetry_space_group_name_H-M "P M N A"
_symmetry_group_IT_number 53
_symmetry_cell_setting 'orthorhombic'
loop_
_space_group_symop_operation_xyz
x,y,z
1/2-x,-y,1/2+z
x,-y,-z
1/2-x,y,1/2-z
-x,-y,-z
1/2+x,y,1/2-z
-x,y,z
1/2+x,-y,1/2+z
loop_
_atom_site_type_symbol
_atom_site_label
_atom_site_fract_x
_atom_site_fract_y
_atom_site_fract_z
Si Si1 0.687063 0.695155 0.853551
Si Si2 0.809507 0.199434 0.030214
Si Si3 0.309245 0.531766 0.353506
Si Si4 0.189577 0.901071 0.841164
Si Si5 0.809245 0.584057 0.957000
Si Si6 0.811779 0.980325 0.104295
Si Si7 0.191308 0.146630 0.849419
O O1 0.750000 0.696243 0.750000
O O2 0.500000 0.692173 0.848409
O O3 0.737160 0.750802 0.910203
O O4 0.749419 0.640923 0.909712
O O5 0.769063 0.138523 0.074775
O O6 0.000000 0.205784 0.033757
O O7 0.758830 0.191932 0.925852
O O8 0.250000 0.541282 0.250000
O O9 0.500000 0.533340 0.349763
O O10 0.259353 0.573588 0.437267
O O11 0.261887 0.469766 0.393712
O O12 0.250000 0.872140 0.750000
O O13 0.000000 0.904946 0.839862
O O14 0.258687 0.964613 0.846007
O O15 0.000000 0.584719 0.957929
O O16 0.749964 0.917770 0.127250
O O17 0.000000 0.977498 0.123834
O O18 0.797976 0.000000 0.000000
O O19 0.250000 0.161640 0.750000
O O20 0.000000 0.144933 0.852009
#
# Coordination Sequence:
#
# PCOD9415513 Si02
#       7
#     8   8   8   8   8   8   8
#     4  12  25  40  60  85 112 146 186 231 279 328
#     4  10  21  38  57  77 104 142 184 226 273 326
#     4   9  18  33  57  88 123 159 193 232 279 327
#     4  10  19  31  51  76 102 133 170 211 263 324
#     4   9  19  37  58  85 121 158 194 233 277 328
#     4   9  15  29  52  76 102 135 172 211 263 331
#     4  10  20  35  57  80 105 140 180 224 278 335
#
# _framework density 19.163360999999998
#
# number of rings (size 3 to 8) (size 9 to 14) (size 15 to 20)
#    0.000    2.143    1.429    3.429    0.000    4.571 
#    0.000    2.143    0.000    0.857    0.000    0.000 
#    0.000    0.000    0.000    0.000    0.000    0.000 
#
# Total GULP energy -312184.479713 kJ/mol
# GULP energy per Si atom -5574.722852 kJ/mol
# Density = 1.911974 g / cm^3
# Si number density = 19.163361 Si / 1000 Ang^3
#
#
#
# Elastic Constant Matrix: (Units=GPa)
#
#
# Indices 1 2 3 4 5 6 
#
# 1 20.6022 29.2406 32.2649 0.0000 0.0000 0.0000
# 2 29.2406 97.1212 84.8411 0.0000 0.0000 0.0000
# 3 32.2649 84.8411 168.9214 0.0000 0.0000 0.0000
# 4 0.0000 0.0000 0.0000 17.7224 0.0000 0.0000
# 5 0.0000 0.0000 0.0000 0.0000 31.1413 0.0000
# 6 0.0000 0.0000 0.0000 0.0000 0.0000 6.7516
#
#
#
# Elastic Compliance Matrix: (Units=1/GPa)
#
#
# Indices 1 2 3 4 5 6 
#
# 1 0.088322 -0.021122 -0.006262 0.000000 0.000000 0.000000
# 2 -0.021122 0.023396 -0.007717 0.000000 0.000000 0.000000
# 3 -0.006262 -0.007717 0.010992 0.000000 0.000000 0.000000
# 4 0.000000 0.000000 0.000000 0.056426 0.000000 0.000000
# 5 0.000000 0.000000 0.000000 0.000000 0.032112 0.000000
# 6 0.000000 0.000000 0.000000 0.000000 0.000000 0.148113
#
#
# Mechanical properties :
#
#
# Convention : Reuss Voigt Hill
#
# Bulk Modulus (GPa) = 19.04371 64.37088 41.70729
# Shear Modulus (GPa) = 11.18407 20.47628 15.83018
#
# Velocity S-wave (km/s) = 2.41844 3.27236 2.87725
# Velocity P-wave (km/s) = 4.21398 6.92396 5.73144
#
# Compressibility (1/GPa) = 0.05251077
#
# Stress axis : x y z
#
# Youngs Moduli (GPa) = 11.32216 42.74157 90.97862
#
# Poissons Ratio (x) = 0.90277 0.56968
# Poissons Ratio (y) = 0.23914 0.70204
# Poissons Ratio (z) = 0.07090 0.32982
#
# Static dielectric constant tensor:
#      x y z
#    x 1.659120 0.000000 0.000000 
#    y 0.000000 1.672660 0.000000 
#    z 0.000000 0.000000 1.665920 
# 
# From -- ./inp_files/20608.got.cif
#   From: 2010.05.17/outbox.cif.g08.bks.cpg/sg53_11_cif.got.tgz:20608.got - 2010.06.03 12:45:16.
