data_PCOD9415494
_publ_section_title
;
Structure prediction by ZEFSAII (Michael W. Deem and Ramdas Pophale) SiO2 
 PCOD9415494
Probable space group: P M N A
;
_chemical_formula_sum "Si O2"
_cell_formula_units_Z 48
_cell_length_a 9.167611
_cell_length_b 9.235010
_cell_length_c 32.177258
_cell_angle_alpha 90.000000
_cell_angle_beta 90.000000
_cell_angle_gamma 90.000000
_cell_volume 2724.222527
_symmetry_space_group_name_H-M "P M N A"
_symmetry_group_IT_number 53
_symmetry_cell_setting 'orthorhombic'
loop_
_space_group_symop_operation_xyz
x,y,z
1/2-x,-y,1/2+z
x,-y,-z
1/2-x,y,1/2-z
-x,-y,-z
1/2+x,y,1/2-z
-x,y,z
1/2+x,-y,1/2+z
loop_
_atom_site_type_symbol
_atom_site_label
_atom_site_fract_x
_atom_site_fract_y
_atom_site_fract_z
Si Si1 0.174954 0.906038 0.959901
Si Si2 0.330759 0.926538 0.207957
Si Si3 0.323440 0.599123 0.119003
Si Si4 0.675094 0.910710 0.377428
Si Si5 0.166528 0.426654 0.709401
Si Si6 0.825173 0.403788 0.460460
O O1 0.248994 0.750465 0.960945
O O2 0.000000 0.889513 0.962077
O O3 0.208701 0.988927 0.916965
O O4 0.220901 0.000000 0.000000
O O5 0.250000 0.975798 0.250000
O O6 0.500000 0.971479 0.206980
O O7 0.246857 0.965768 0.165589
O O8 0.329718 0.749776 0.209218
O O9 0.500000 0.623519 0.120789
O O10 0.243414 0.752373 0.114065
O O11 0.277771 0.533323 0.163640
O O12 0.291426 0.493122 0.081201
O O13 0.500000 0.899914 0.372667
O O14 0.250000 0.477758 0.750000
O O15 0.000000 0.473206 0.712876
O O16 0.780993 0.500000 0.500000
O O17 0.000000 0.383941 0.462356
#
# Coordination Sequence:
#
# PCOD9415494 Si02
#       6
#     8   8   8   8   8   8
#     4  10  22  38  54  75 104 136 171 212 258 310
#     4   9  16  27  45  71 103 136 170 211 256 299
#     4   9  18  32  49  73 104 133 165 209 258 304
#     4  10  19  31  50  76 104 136 175 214 254 304
#     4   8  14  24  40  64  95 127 158 196 239 284
#     4  10  21  36  55  78 101 128 167 213 259 310
#
# _framework density 17.619706000000001
#
# number of rings (size 3 to 8) (size 9 to 14) (size 15 to 20)
#    0.000    2.667    0.000    3.000    0.000    6.667 
#    0.000    0.000    0.000    1.000    0.000    4.667 
#    0.000    0.000    0.000    0.000    0.000    0.000 
#
# Total GULP energy -267621.027446 kJ/mol
# GULP energy per Si atom -5575.438072 kJ/mol
# Density = 1.757960 g / cm^3
# Si number density = 17.619706 Si / 1000 Ang^3
#
#
#
# Elastic Constant Matrix: (Units=GPa)
#
#
# Indices 1 2 3 4 5 6 
#
# 1 61.0355 47.2065 79.9707 0.0000 0.0000 0.0000
# 2 47.2065 84.5193 86.8982 0.0000 0.0000 0.0000
# 3 79.9707 86.8982 216.0040 0.0000 0.0000 0.0000
# 4 0.0000 0.0000 0.0000 19.7654 0.0000 0.0000
# 5 0.0000 0.0000 0.0000 0.0000 29.1555 0.0000
# 6 0.0000 0.0000 0.0000 0.0000 0.0000 22.9944
#
#
#
# Elastic Compliance Matrix: (Units=1/GPa)
#
#
# Indices 1 2 3 4 5 6 
#
# 1 0.037220 -0.011291 -0.009238 0.000000 0.000000 0.000000
# 2 -0.011291 0.023603 -0.005315 0.000000 0.000000 0.000000
# 3 -0.009238 -0.005315 0.010188 0.000000 0.000000 0.000000
# 4 0.000000 0.000000 0.000000 0.050594 0.000000 0.000000
# 5 0.000000 0.000000 0.000000 0.000000 0.034299 0.000000
# 6 0.000000 0.000000 0.000000 0.000000 0.000000 0.043489
#
#
# Mechanical properties :
#
#
# Convention : Reuss Voigt Hill
#
# Bulk Modulus (GPa) = 51.75106 87.74553 69.74829
# Shear Modulus (GPa) = 19.41600 24.21529 21.81564
#
# Velocity S-wave (km/s) = 3.32316 3.71122 3.52254
# Velocity P-wave (km/s) = 6.64526 8.26268 7.49771
#
# Compressibility (1/GPa) = 0.01932327
#
# Stress axis : x y z
#
# Youngs Moduli (GPa) = 26.86734 42.36815 98.15653
#
# Poissons Ratio (x) = 0.47837 0.90672
# Poissons Ratio (y) = 0.30336 0.52171
# Poissons Ratio (z) = 0.24819 0.22519
#
# Static dielectric constant tensor:
#      x y z
#    x 1.595540 0.000000 0.000000 
#    y 0.000000 1.565190 0.000000 
#    z 0.000000 0.000000 1.618200 
# 
# From -- ./inp_files/37751.got.cif
#   From: 2010.05.17/outbox.cif.g08.bks.cpg/sg53_19_cif.got.tgz:37751.got - 2010.06.03 12:45:16.
