data_PCOD9415693
_publ_section_title
;
Structure prediction by ZEFSAII (Michael W. Deem and Ramdas Pophale) SiO2 
 PCOD9415693
Probable space group: P M N A
;
_chemical_formula_sum "Si O2"
_cell_formula_units_Z 64
_cell_length_a 7.609030
_cell_length_b 16.953173
_cell_length_c 24.241331
_cell_angle_alpha 90.000000
_cell_angle_beta 90.000000
_cell_angle_gamma 90.000000
_cell_volume 3127.063871
_symmetry_space_group_name_H-M "P M N A"
_symmetry_group_IT_number 53
_symmetry_cell_setting 'orthorhombic'
loop_
_space_group_symop_operation_xyz
x,y,z
1/2-x,-y,1/2+z
x,-y,-z
1/2-x,y,1/2-z
-x,-y,-z
1/2+x,y,1/2-z
-x,y,z
1/2+x,-y,1/2+z
loop_
_atom_site_type_symbol
_atom_site_label
_atom_site_fract_x
_atom_site_fract_y
_atom_site_fract_z
Si Si1 0.285161 0.040556 0.418271
Si Si2 0.788800 0.379892 0.685311
Si Si3 0.711054 0.131135 0.314603
Si Si4 0.298259 0.590321 0.981256
Si Si5 0.208828 0.705086 0.423692
Si Si6 0.798637 0.456607 0.366562
Si Si7 0.208253 0.699537 0.813288
Si Si8 0.211837 0.123183 0.971133
O O1 0.500000 0.039807 0.418535
O O2 0.225401 0.066329 0.357833
O O3 0.231909 0.102692 0.466124
O O4 0.229212 0.953068 0.436080
O O5 0.750000 0.366036 0.750000
O O6 0.726564 0.318127 0.637946
O O7 0.724587 0.465985 0.663314
O O8 0.000000 0.381454 0.683923
O O9 0.750000 0.117603 0.250000
O O10 0.500000 0.133950 0.317371
O O11 0.770235 0.216968 0.337810
O O12 0.500000 0.619578 0.972877
O O13 0.211853 0.580154 0.921463
O O14 0.305038 0.500000 0.000000
O O15 0.220124 0.645276 0.029052
O O16 0.234967 0.793986 0.444560
O O17 0.000000 0.690562 0.421452
O O18 0.800199 0.381505 0.327648
O O19 0.000000 0.478694 0.382089
O O20 0.250000 0.713730 0.750000
O O21 0.000000 0.689906 0.822504
O O22 0.000000 0.123314 0.971622
#
# Coordination Sequence:
#
# PCOD9415693 Si02
#       8
#     8   8   8   8   8   8   8   8
#     4   8  16  34  56  77 102 135 170 203 250 312
#     4  10  21  36  54  73  99 137 178 217 256 297
#     4   9  18  33  51  72 102 136 170 207 250 304
#     4   9  16  31  53  74 100 136 170 200 247 309
#     4  10  20  35  54  79 107 133 167 214 259 299
#     4  10  19  32  52  75  99 133 174 211 249 300
#     4  10  20  32  47  70 102 135 167 207 249 294
#     4   9  18  34  58  80 101 134 171 207 253 313
#
# _framework density 20.466484000000001
#
# number of rings (size 3 to 8) (size 9 to 14) (size 15 to 20)
#    0.000    2.625    1.250    1.500    1.750    2.500 
#    0.000    3.125    0.000    3.750    0.000    0.000 
#    0.000    0.000    0.000    0.000    0.000    0.000 
#
# Total GULP energy -356339.445815 kJ/mol
# GULP energy per Si atom -5567.803841 kJ/mol
# Density = 2.041990 g / cm^3
# Si number density = 20.466484 Si / 1000 Ang^3
#
#
#
# Elastic Constant Matrix: (Units=GPa)
#
#
# Indices 1 2 3 4 5 6 
#
# 1 45.3203 2.9333 3.7432 0.0000 0.0000 0.0000
# 2 2.9333 130.8232 88.7768 0.0000 0.0000 0.0000
# 3 3.7432 88.7768 139.4336 0.0000 0.0000 0.0000
# 4 0.0000 0.0000 0.0000 31.3903 0.0000 0.0000
# 5 0.0000 0.0000 0.0000 0.0000 10.7658 0.0000
# 6 0.0000 0.0000 0.0000 0.0000 0.0000 -24.8925
#
#
#
# Elastic Compliance Matrix: (Units=1/GPa)
#
#
# Indices 1 2 3 4 5 6 
#
# 1 0.022116 -0.000164 -0.000489 0.000000 0.000000 0.000000
# 2 -0.000164 0.013460 -0.008566 0.000000 0.000000 0.000000
# 3 -0.000489 -0.008566 0.012639 0.000000 0.000000 0.000000
# 4 0.000000 0.000000 0.000000 0.031857 0.000000 0.000000
# 5 0.000000 0.000000 0.000000 0.000000 0.092887 0.000000
# 6 0.000000 0.000000 0.000000 0.000000 0.000000 -0.040173
#
#
# Mechanical properties :
#
#
# Convention : Reuss Voigt Hill
#
# Bulk Modulus (GPa) = 33.58250 56.27597 44.92923
# Shear Modulus (GPa) = 31.02707 18.12765 24.57736
#
# Velocity S-wave (km/s) = 3.89780 2.97934 3.46910
# Velocity P-wave (km/s) = 6.05816 6.27627 6.16818
#
# Compressibility (1/GPa) = 0.02977741
#
# Stress axis : x y z
#
# Youngs Moduli (GPa) = 45.21572 74.29263 79.12159
#
# Poissons Ratio (x) = 0.01216 0.03873
# Poissons Ratio (y) = 0.00740 0.67773
# Poissons Ratio (z) = 0.02213 0.63637
#
# Static dielectric constant tensor:
#      x y z
#    x 1.814000 0.000000 0.000000 
#    y 0.000000 1.802800 0.000000 
#    z 0.000000 0.000000 1.957260 
# 
# From -- ./inp_files/34312.got.cif
#   From: 2010.05.17/outbox.cif.g08.bks.cpg/sg53_18_cif.got.tgz:34312.got - 2010.06.03 12:45:16.
