data_PCOD9415979
_publ_section_title
;
Structure prediction by ZEFSAII (Michael W. Deem and Ramdas Pophale) SiO2 
 PCOD9415979
Probable space group: P M N A
;
_chemical_formula_sum "Si O2"
_cell_formula_units_Z 40
_cell_length_a 16.201050
_cell_length_b 22.837333
_cell_length_c 5.042794
_cell_angle_alpha 90.000000
_cell_angle_beta 90.000000
_cell_angle_gamma 90.000000
_cell_volume 1865.777169
_symmetry_space_group_name_H-M "P M N A"
_symmetry_group_IT_number 53
_symmetry_cell_setting 'orthorhombic'
loop_
_space_group_symop_operation_xyz
x,y,z
1/2-x,-y,1/2+z
x,-y,-z
1/2-x,y,1/2-z
-x,-y,-z
1/2+x,y,1/2-z
-x,y,z
1/2+x,-y,1/2+z
loop_
_atom_site_type_symbol
_atom_site_label
_atom_site_fract_x
_atom_site_fract_y
_atom_site_fract_z
Si Si1 0.094300 0.180094 0.375382
Si Si2 0.310112 0.065538 0.999775
Si Si3 0.099902 0.365942 0.096559
Si Si4 0.659278 0.243045 0.628329
Si Si5 0.899484 0.436643 0.594729
O O1 0.124981 0.117570 0.480375
O O2 0.102971 0.224718 0.622007
O O3 0.000000 0.178434 0.286595
O O4 0.147361 0.199904 0.121269
O O5 0.250000 0.068667 0.250000
O O6 0.250000 0.072896 0.750000
O O7 0.347236 0.000000 0.000000
O O8 0.137998 0.306392 0.989296
O O9 0.121876 0.417546 0.890496
O O10 0.000000 0.359158 0.096571
O O11 0.126565 0.386460 0.387501
O O12 0.750000 0.240413 0.750000
O O13 0.869671 0.500000 0.500000
O O14 0.000000 0.438529 0.584008
#
# Coordination Sequence:
#
# PCOD9415979 Si02
#       5
#     8   8   8   8   8
#     4  12  24  40  63  91 123 158 204 257 305 354
#     4  10  21  39  63  90 123 163 203 243 296 362
#     4  10  19  33  54  81 114 149 192 242 288 342
#     4  12  25  41  61  87 122 163 205 249 306 371
#     4   9  17  30  52  82 113 146 187 237 290 345
#
# _framework density 21.438789
#
# number of rings (size 3 to 8) (size 9 to 14) (size 15 to 20)
#    0.000    1.400    0.000    7.200    0.000    4.400 
#    0.000    0.000    0.000    8.400    0.000    0.000 
#    0.000    0.000    0.000    0.000    0.000    0.200 
#
# Total GULP energy -223780.130087 kJ/mol
# GULP energy per Si atom -5594.503252 kJ/mol
# Density = 2.138999 g / cm^3
# Si number density = 21.438789 Si / 1000 Ang^3
#
#
#
# Elastic Constant Matrix: (Units=GPa)
#
#
# Indices 1 2 3 4 5 6 
#
# 1 44.8584 20.7417 7.2166 0.0000 0.0000 0.0000
# 2 20.7417 85.9240 -2.0503 0.0000 0.0000 0.0000
# 3 7.2166 -2.0503 103.6961 0.0000 0.0000 0.0000
# 4 0.0000 0.0000 0.0000 25.7286 0.0000 0.0000
# 5 0.0000 0.0000 0.0000 0.0000 52.7665 0.0000
# 6 0.0000 0.0000 0.0000 0.0000 0.0000 12.3696
#
#
#
# Elastic Compliance Matrix: (Units=1/GPa)
#
#
# Indices 1 2 3 4 5 6 
#
# 1 0.025460 -0.006191 -0.001894 0.000000 0.000000 0.000000
# 2 -0.006191 0.013149 0.000691 0.000000 0.000000 0.000000
# 3 -0.001894 0.000691 0.009789 0.000000 0.000000 0.000000
# 4 0.000000 0.000000 0.000000 0.038867 0.000000 0.000000
# 5 0.000000 0.000000 0.000000 0.000000 0.018951 0.000000
# 6 0.000000 0.000000 0.000000 0.000000 0.000000 0.080843
#
#
# Mechanical properties :
#
#
# Convention : Reuss Voigt Hill
#
# Bulk Modulus (GPa) = 29.75393 31.81051 30.78222
# Shear Modulus (GPa) = 23.46847 32.07766 27.77306
#
# Velocity S-wave (km/s) = 3.31217 3.87233 3.60315
# Velocity P-wave (km/s) = 5.34191 5.90451 5.63024
#
# Compressibility (1/GPa) = 0.03360901
#
# Stress axis : x y z
#
# Youngs Moduli (GPa) = 39.27770 76.05041 102.15497
#
# Poissons Ratio (x) = 0.47083 0.19351
# Poissons Ratio (y) = 0.24317 -0.07057
# Poissons Ratio (z) = 0.07440 -0.05254
#
# Static dielectric constant tensor:
#      x y z
#    x 1.760570 0.000000 0.000000 
#    y 0.000000 1.791670 0.000000 
#    z 0.000000 0.000000 1.738300 
# 
# From -- ./inp_files/2183.got.cif
#   From: 2010.05.17/outbox.cif.g08.bks.cpg/sg53_2_cif.got.tgz:2183.got - 2010.06.03 12:45:16.
