data_PCOD9415298
_publ_section_title
;
Structure prediction by ZEFSAII (Michael W. Deem and Ramdas Pophale) SiO2 
 PCOD9415298
Probable space group: P M N A
;
_chemical_formula_sum "Si O2"
_cell_formula_units_Z 64
_cell_length_a 8.401122
_cell_length_b 15.592854
_cell_length_c 21.970634
_cell_angle_alpha 90.000000
_cell_angle_beta 90.000000
_cell_angle_gamma 90.000000
_cell_volume 2878.097442
_symmetry_space_group_name_H-M "P M N A"
_symmetry_group_IT_number 53
_symmetry_cell_setting 'orthorhombic'
loop_
_space_group_symop_operation_xyz
x,y,z
1/2-x,-y,1/2+z
x,-y,-z
1/2-x,y,1/2-z
-x,-y,-z
1/2+x,y,1/2-z
-x,y,z
1/2+x,-y,1/2+z
loop_
_atom_site_type_symbol
_atom_site_label
_atom_site_fract_x
_atom_site_fract_y
_atom_site_fract_z
Si Si1 0.814955 0.208188 0.347445
Si Si2 0.682042 0.173937 0.476598
Si Si3 0.188448 0.090155 0.589371
Si Si4 0.816411 0.034456 0.185915
Si Si5 0.307155 0.603801 0.872810
Si Si6 0.807622 0.237642 0.683635
Si Si7 0.311260 0.419170 0.862824
Si Si8 0.184398 0.368817 0.990939
O O1 0.795922 0.185094 0.419005
O O2 0.711122 0.136370 0.315162
O O3 0.758186 0.306675 0.341643
O O4 0.000000 0.200940 0.329613
O O5 0.500000 0.163118 0.454914
O O6 0.727917 0.101629 0.524682
O O7 0.692713 0.265478 0.510900
O O8 0.241765 0.168632 0.633174
O O9 0.000000 0.096674 0.579507
O O10 0.227340 0.006224 0.628312
O O11 0.750000 0.001083 0.250000
O O12 0.000000 0.012878 0.180801
O O13 0.500000 0.604824 0.873851
O O14 0.250362 0.513587 0.844844
O O15 0.247848 0.606433 0.942581
O O16 0.750000 0.212014 0.750000
O O17 0.745393 0.333543 0.668703
O O18 0.000000 0.239147 0.682625
O O19 0.500000 0.419428 0.851842
O O20 0.280903 0.407021 0.934836
O O21 0.000000 0.394229 0.985195
#
# Coordination Sequence:
#
# PCOD9415298 Si02
#       8
#     8   8   8   8   8   8   8   8
#     4  10  21  40  63  89 120 157 199 249 299 353
#     4  10  20  35  57  89 126 162 195 239 295 357
#     4  11  22  39  63  91 119 154 195 242 295 356
#     4  12  26  45  67  91 117 151 195 246 297 354
#     4   9  19  34  56  81 113 153 194 237 287 344
#     4  10  22  37  56  80 113 153 195 240 289 347
#     4  10  19  34  53  78 111 153 197 236 283 344
#     4  10  19  30  49  81 119 154 191 236 284 337
#
# _framework density 22.236910999999999
#
# number of rings (size 3 to 8) (size 9 to 14) (size 15 to 20)
#    0.000    1.750    1.250    3.375    0.000    6.500 
#    0.000    3.125    0.000    1.500    0.000    0.000 
#    0.000    0.000    0.000    0.000    0.000    0.000 
#
# Total GULP energy -357728.732858 kJ/mol
# GULP energy per Si atom -5589.511451 kJ/mol
# Density = 2.218630 g / cm^3
# Si number density = 22.236911 Si / 1000 Ang^3
#
#
#
# Elastic Constant Matrix: (Units=GPa)
#
#
# Indices 1 2 3 4 5 6 
#
# 1 19.4950 3.7383 -4.8031 0.0000 0.0000 0.0000
# 2 3.7383 107.9082 11.7212 0.0000 0.0000 0.0000
# 3 -4.8031 11.7212 16.8404 0.0000 0.0000 0.0000
# 4 0.0000 0.0000 0.0000 4.3497 0.0000 0.0000
# 5 0.0000 0.0000 0.0000 0.0000 18.2103 0.0000
# 6 0.0000 0.0000 0.0000 0.0000 0.0000 18.3262
#
#
#
# Elastic Compliance Matrix: (Units=1/GPa)
#
#
# Indices 1 2 3 4 5 6 
#
# 1 0.056746 -0.004028 0.018989 0.000000 0.000000 0.000000
# 2 -0.004028 0.010311 -0.008326 0.000000 0.000000 0.000000
# 3 0.018989 -0.008326 0.070592 0.000000 0.000000 0.000000
# 4 0.000000 0.000000 0.000000 0.229902 0.000000 0.000000
# 5 0.000000 0.000000 0.000000 0.000000 0.054914 0.000000
# 6 0.000000 0.000000 0.000000 0.000000 0.000000 0.054567
#
#
# Mechanical properties :
#
#
# Convention : Reuss Voigt Hill
#
# Bulk Modulus (GPa) = 6.62612 18.39516 12.51064
# Shear Modulus (GPa) = 9.72633 17.08305 13.40469
#
# Velocity S-wave (km/s) = 2.09367 2.77470 2.45789
# Velocity P-wave (km/s) = 2.97168 4.30762 3.70044
#
# Compressibility (1/GPa) = 0.15091788
#
# Stress axis : x y z
#
# Youngs Moduli (GPa) = 17.62238 96.98342 14.16598
#
# Poissons Ratio (x) = 0.39070 -0.26899
# Poissons Ratio (y) = 0.07099 0.11794
# Poissons Ratio (z) = -0.33463 0.80745
#
# Static dielectric constant tensor:
#      x y z
#    x 1.752100 0.000000 0.000000 
#    y 0.000000 1.894260 0.000000 
#    z 0.000000 0.000000 1.802310 
# 
# From -- ./inp_files/34324.got.cif
#   From: 2010.05.17/outbox.cif.g08.bks.cpg/sg53_18_cif.got.tgz:34324.got - 2010.06.03 12:45:16.
