data_PCOD9415498
_publ_section_title
;
Structure prediction by ZEFSAII (Michael W. Deem and Ramdas Pophale) SiO2 
 PCOD9415498
Probable space group: P M N A
;
_chemical_formula_sum "Si O2"
_cell_formula_units_Z 64
_cell_length_a 14.999536
_cell_length_b 11.154023
_cell_length_c 17.731466
_cell_angle_alpha 90.000000
_cell_angle_beta 90.000000
_cell_angle_gamma 90.000000
_cell_volume 2966.565925
_symmetry_space_group_name_H-M "P M N A"
_symmetry_group_IT_number 53
_symmetry_cell_setting 'orthorhombic'
loop_
_space_group_symop_operation_xyz
x,y,z
1/2-x,-y,1/2+z
x,-y,-z
1/2-x,y,1/2-z
-x,-y,-z
1/2+x,y,1/2-z
-x,y,z
1/2+x,-y,1/2+z
loop_
_atom_site_type_symbol
_atom_site_label
_atom_site_fract_x
_atom_site_fract_y
_atom_site_fract_z
Si Si1 0.796277 0.985196 0.085686
Si Si2 0.595804 0.021567 0.887468
Si Si3 0.393283 0.618533 0.286260
Si Si4 0.350769 0.354736 0.263406
Si Si5 0.205032 0.738965 0.911211
Si Si6 0.394781 0.371396 0.540286
Si Si7 0.405067 0.738531 0.888854
Si Si8 0.648446 0.113691 0.733487
O O1 0.693658 0.933568 0.084824
O O2 0.790340 0.122884 0.114016
O O3 0.859980 0.916747 0.144856
O O4 0.827630 0.000000 0.000000
O O5 0.500000 0.071516 0.916282
O O6 0.595832 0.880285 0.904411
O O7 0.595952 0.042493 0.797258
O O8 0.500000 0.611585 0.284639
O O9 0.358998 0.496517 0.249445
O O10 0.364430 0.619991 0.373548
O O11 0.365339 0.745339 0.252269
O O12 0.250000 0.314779 0.250000
O O13 0.360877 0.327117 0.351769
O O14 0.405684 0.284801 0.201190
O O15 0.307352 0.690862 0.913323
O O16 0.162329 0.722426 0.992858
O O17 0.383555 0.500000 0.500000
O O18 0.500000 0.341625 0.539133
O O19 0.500000 0.689676 0.919134
O O20 0.750000 0.080989 0.750000
#
# Coordination Sequence:
#
# PCOD9415498 Si02
#       8
#     8   8   8   8   8   8   8   8
#     4  10  20  34  54  79 106 139 177 219 266 318
#     4   9  18  34  55  78 105 139 176 218 266 316
#     4  11  21  33  51  74 102 134 172 215 260 314
#     4  10  19  31  50  77 100 131 170 210 259 308
#     4  10  19  34  54  76 104 136 171 214 261 312
#     4  10  20  34  51  74 102 135 174 215 263 315
#     4   9  18  32  53  80 106 131 168 217 264 308
#     4  10  20  35  53  75 107 143 177 213 264 326
#
# _framework density 21.573765000000002
#
# number of rings (size 3 to 8) (size 9 to 14) (size 15 to 20)
#    0.000    2.125    1.250    2.625    0.000    3.750 
#    0.000    1.250    0.000    3.750    0.000    0.000 
#    0.000    0.000    0.000    0.000    0.000    0.000 
#
# Total GULP energy -356702.502543 kJ/mol
# GULP energy per Si atom -5573.476602 kJ/mol
# Density = 2.152466 g / cm^3
# Si number density = 21.573765 Si / 1000 Ang^3
#
#
#
# Elastic Constant Matrix: (Units=GPa)
#
#
# Indices 1 2 3 4 5 6 
#
# 1 49.8496 -0.5199 -9.5633 0.0000 0.0000 0.0000
# 2 -0.5199 42.2989 -12.3841 0.0000 0.0000 0.0000
# 3 -9.5633 -12.3841 53.9542 0.0000 0.0000 0.0000
# 4 0.0000 0.0000 0.0000 -2.0239 0.0000 0.0000
# 5 0.0000 0.0000 0.0000 0.0000 -18.2736 0.0000
# 6 0.0000 0.0000 0.0000 0.0000 0.0000 5.2064
#
#
#
# Elastic Compliance Matrix: (Units=1/GPa)
#
#
# Indices 1 2 3 4 5 6 
#
# 1 0.020847 0.001435 0.004024 0.000000 0.000000 0.000000
# 2 0.001435 0.025443 0.006094 0.000000 0.000000 0.000000
# 3 0.004024 0.006094 0.020646 0.000000 0.000000 0.000000
# 4 0.000000 0.000000 0.000000 -0.494106 0.000000 0.000000
# 5 0.000000 0.000000 0.000000 0.000000 -0.054724 0.000000
# 6 0.000000 0.000000 0.000000 0.000000 0.000000 0.192072
#
#
# Mechanical properties :
#
#
# Convention : Reuss Voigt Hill
#
# Bulk Modulus (GPa) = 11.10577 11.24088 11.17332
# Shear Modulus (GPa) = -17.67332 8.21980 -4.72676
#
# Velocity S-wave (km/s) = -2.86528 1.95406 -1.48180
# Velocity P-wave (km/s) = 2.40571 3.21137 1.50424
#
# Compressibility (1/GPa) = 0.09004330
#
# Stress axis : x y z
#
# Youngs Moduli (GPa) = 47.96769 39.30331 48.43462
#
# Poissons Ratio (x) = -0.05638 -0.19492
# Poissons Ratio (y) = -0.06881 -0.29517
# Poissons Ratio (z) = -0.19304 -0.23952
#
# Static dielectric constant tensor:
#      x y z
#    x 1.819030 0.000000 0.000000 
#    y 0.000000 1.791750 0.000000 
#    z 0.000000 0.000000 1.834870 
# 
# From -- ./inp_files/28558.got.cif
#   From: 2010.05.17/outbox.cif.g08.bks.cpg/sg53_15_cif.got.tgz:28558.got - 2010.06.03 12:45:16.
