data_PCOD9415103
_publ_section_title
;
Structure prediction by ZEFSAII (Michael W. Deem and Ramdas Pophale) SiO2 
 PCOD9415103
Probable space group: P M N A
;
_chemical_formula_sum "Si O2"
_cell_formula_units_Z 64
_cell_length_a 8.877288
_cell_length_b 27.114372
_cell_length_c 18.810917
_cell_angle_alpha 90.000000
_cell_angle_beta 90.000000
_cell_angle_gamma 90.000000
_cell_volume 4527.827021
_symmetry_space_group_name_H-M "P M N A"
_symmetry_group_IT_number 53
_symmetry_cell_setting 'orthorhombic'
loop_
_space_group_symop_operation_xyz
x,y,z
1/2-x,-y,1/2+z
x,-y,-z
1/2-x,y,1/2-z
-x,-y,-z
1/2+x,y,1/2-z
-x,y,z
1/2+x,-y,1/2+z
loop_
_atom_site_type_symbol
_atom_site_label
_atom_site_fract_x
_atom_site_fract_y
_atom_site_fract_z
Si Si1 0.818613 0.004962 0.827459
Si Si2 0.679099 0.493582 0.827576
Si Si3 0.818252 0.400737 0.910039
Si Si4 0.819308 0.197399 0.672048
Si Si5 0.678912 0.097774 0.908973
Si Si6 0.173583 0.549394 0.951142
Si Si7 0.180668 0.301400 0.827937
Si Si8 0.326520 0.053272 0.460458
O O1 0.750000 0.998712 0.750000
O O2 0.774217 0.960811 0.881451
O O3 0.000000 0.006491 0.825388
O O4 0.759928 0.056125 0.861344
O O5 0.750000 0.500359 0.750000
O O6 0.500000 0.491119 0.822664
O O7 0.741851 0.442709 0.861762
O O8 0.729513 0.536471 0.882356
O O9 0.783875 0.347045 0.879274
O O10 0.000000 0.408260 0.906426
O O11 0.774791 0.409331 0.992506
O O12 0.750000 0.187427 0.750000
O O13 0.783589 0.151705 0.620892
O O14 0.749888 0.249391 0.647770
O O15 0.000000 0.201757 0.678182
O O16 0.500000 0.090523 0.902815
O O17 0.730040 0.088800 0.989971
O O18 0.000000 0.558357 0.930120
O O19 0.174959 0.500000 0.000000
O O20 0.250000 0.311405 0.750000
O O21 0.000000 0.297110 0.821786
O O22 0.500000 0.070081 0.458752
O O23 0.325309 0.000000 0.500000
#
# Coordination Sequence:
#
# PCOD9415103 Si02
#       8
#     8   8   8   8   8   8   8   8
#     4  10  19  29  42  61  84 110 139 170 204 242
#     4  11  20  28  41  61  84 111 142 171 202 241
#     4   9  18  31  45  61  82 109 139 170 207 246
#     4  10  20  31  42  59  82 108 139 174 208 239
#     4  10  19  29  43  61  81 109 142 172 205 244
#     4   8  15  29  44  58  81 108 133 167 206 242
#     4  10  19  30  44  61  81 108 140 172 206 241
#     4   8  16  29  42  58  81 107 135 168 204 242
#
# _framework density 14.134816000000001
#
# number of rings (size 3 to 8) (size 9 to 14) (size 15 to 20)
#    0.000    2.500    0.000    5.625    0.000   10.000 
#    0.000    0.000    0.000    0.000    0.000    0.000 
#    0.000    1.000    0.000    9.000    0.000    5.750 
#
# Total GULP energy -356639.783925 kJ/mol
# GULP energy per Si atom -5572.496624 kJ/mol
# Density = 1.410264 g / cm^3
# Si number density = 14.134816 Si / 1000 Ang^3
#
#
#
# Elastic Constant Matrix: (Units=GPa)
#
#
# Indices 1 2 3 4 5 6 
#
# 1 63.1141 43.8797 51.5656 0.0000 0.0000 0.0000
# 2 43.8797 91.2274 62.7202 0.0000 0.0000 0.0000
# 3 51.5656 62.7202 117.9090 0.0000 0.0000 0.0000
# 4 0.0000 0.0000 0.0000 25.8903 0.0000 0.0000
# 5 0.0000 0.0000 0.0000 0.0000 23.6399 0.0000
# 6 0.0000 0.0000 0.0000 0.0000 0.0000 -450.1981
#
#
#
# Elastic Compliance Matrix: (Units=1/GPa)
#
#
# Indices 1 2 3 4 5 6 
#
# 1 0.027866 -0.007922 -0.007973 0.000000 0.000000 0.000000
# 2 -0.007922 0.019534 -0.006926 0.000000 0.000000 0.000000
# 3 -0.007973 -0.006926 0.015652 0.000000 0.000000 0.000000
# 4 0.000000 0.000000 0.000000 0.038625 0.000000 0.000000
# 5 0.000000 0.000000 0.000000 0.000000 0.042301 0.000000
# 6 0.000000 0.000000 0.000000 0.000000 0.000000 -0.002221
#
#
# Mechanical properties :
#
#
# Convention : Reuss Voigt Hill
#
# Bulk Modulus (GPa) = 57.43778 65.39793 61.41786
# Shear Modulus (GPa) = 25.87966 -72.52791 -23.32413
#
# Velocity S-wave (km/s) = 4.28356 -7.17098 -4.06657
# Velocity P-wave (km/s) = 8.07398 4.71128 4.63643
#
# Compressibility (1/GPa) = 0.01741014
#
# Stress axis : x y z
#
# Youngs Moduli (GPa) = 35.88618 51.19293 63.88862
#
# Poissons Ratio (x) = 0.40554 0.50937
# Poissons Ratio (y) = 0.28429 0.44251
# Poissons Ratio (z) = 0.28611 0.35458
#
# Static dielectric constant tensor:
#      x y z
#    x 1.475060 0.000000 0.000000 
#    y 0.000000 1.455270 0.000000 
#    z 0.000000 0.000000 1.473160 
# 
# From -- ./inp_files/27082.got.cif
#   From: 2010.05.17/outbox.cif.g08.bks.cpg/sg53_14_cif.got.tgz:27082.got - 2010.06.03 12:45:16.
