data_PCOD9415312
_publ_section_title
;
Structure prediction by ZEFSAII (Michael W. Deem and Ramdas Pophale) SiO2 
 PCOD9415312
Probable space group: P M N A
;
_chemical_formula_sum "Si O2"
_cell_formula_units_Z 48
_cell_length_a 14.136218
_cell_length_b 12.412786
_cell_length_c 13.359929
_cell_angle_alpha 90.000000
_cell_angle_beta 90.000000
_cell_angle_gamma 90.000000
_cell_volume 2344.264723
_symmetry_space_group_name_H-M "P M N A"
_symmetry_group_IT_number 53
_symmetry_cell_setting 'orthorhombic'
loop_
_space_group_symop_operation_xyz
x,y,z
1/2-x,-y,1/2+z
x,-y,-z
1/2-x,y,1/2-z
-x,-y,-z
1/2+x,y,1/2-z
-x,y,z
1/2+x,-y,1/2+z
loop_
_atom_site_type_symbol
_atom_site_label
_atom_site_fract_x
_atom_site_fract_y
_atom_site_fract_z
Si Si1 0.668482 0.318367 0.832324
Si Si2 0.892626 0.108152 0.762615
Si Si3 0.725421 0.730500 0.939447
Si Si4 0.614005 0.058596 0.103145
Si Si5 0.104384 0.542615 0.614472
Si Si6 0.612109 0.128588 0.515264
O O1 0.750000 0.318636 0.750000
O O2 0.607523 0.213234 0.806645
O O3 0.704094 0.302951 0.945657
O O4 0.617227 0.433102 0.823813
O O5 0.852037 0.140581 0.869958
O O6 0.000000 0.075077 0.786590
O O7 0.851010 0.011277 0.697487
O O8 0.826639 0.791844 0.945120
O O9 0.654972 0.823080 0.902026
O O10 0.692796 0.624618 0.877831
O O11 0.500000 0.059888 0.105715
O O12 0.642622 0.000000 0.000000
O O13 0.102289 0.500000 0.500000
O O14 0.000000 0.591834 0.634289
O O15 0.500000 0.153630 0.506189
O O16 0.623680 0.000000 0.500000
#
# Coordination Sequence:
#
# PCOD9415312 Si02
#       6
#     8   8   8   8   8   8
#     4  11  20  33  56  86 117 152 201 242 292 358
#     4  10  20  35  56  85 118 153 198 250 300 358
#     4  11  20  35  58  83 118 154 195 242 300 362
#     4  10  19  30  52  88 123 151 185 240 311 372
#     4   9  20  36  56  82 115 153 191 245 306 354
#     4  10  22  39  58  84 120 164 209 247 294 359
#
# _framework density 20.475503
#
# number of rings (size 3 to 8) (size 9 to 14) (size 15 to 20)
#    0.000    1.833    3.333    1.500    0.000    1.333 
#    0.000    1.667    0.000    8.500    0.000    0.000 
#    0.000    0.000    0.000    0.000    0.000    0.000 
#
# Total GULP energy -267533.124476 kJ/mol
# GULP energy per Si atom -5573.606760 kJ/mol
# Density = 2.042890 g / cm^3
# Si number density = 20.475503 Si / 1000 Ang^3
#
#
#
# Elastic Constant Matrix: (Units=GPa)
#
#
# Indices 1 2 3 4 5 6 
#
# 1 92.5473 35.3910 16.1577 0.0000 0.0000 0.0000
# 2 35.3910 113.4527 18.3394 0.0000 0.0000 0.0000
# 3 16.1577 18.3394 29.2157 0.0000 0.0000 0.0000
# 4 0.0000 0.0000 0.0000 25.0390 0.0000 0.0000
# 5 0.0000 0.0000 0.0000 0.0000 14.4494 0.0000
# 6 0.0000 0.0000 0.0000 0.0000 0.0000 26.0242
#
#
#
# Elastic Compliance Matrix: (Units=1/GPa)
#
#
# Indices 1 2 3 4 5 6 
#
# 1 0.012927 -0.003202 -0.005139 0.000000 0.000000 0.000000
# 2 -0.003202 0.010603 -0.004885 0.000000 0.000000 0.000000
# 3 -0.005139 -0.004885 0.040137 0.000000 0.000000 0.000000
# 4 0.000000 0.000000 0.000000 0.039938 0.000000 0.000000
# 5 0.000000 0.000000 0.000000 0.000000 0.069207 0.000000
# 6 0.000000 0.000000 0.000000 0.000000 0.000000 0.038426
#
#
# Mechanical properties :
#
#
# Convention : Reuss Voigt Hill
#
# Bulk Modulus (GPa) = 26.87129 41.66575 34.26852
# Shear Modulus (GPa) = 19.99250 24.12434 22.05842
#
# Velocity S-wave (km/s) = 3.12815 3.43622 3.28580
# Velocity P-wave (km/s) = 5.11851 6.01139 5.58283
#
# Compressibility (1/GPa) = 0.03721444
#
# Stress axis : x y z
#
# Youngs Moduli (GPa) = 77.35782 94.31625 24.91482
#
# Poissons Ratio (x) = 0.30197 0.12805
# Poissons Ratio (y) = 0.24768 0.12170
# Poissons Ratio (z) = 0.39757 0.46072
#
# Static dielectric constant tensor:
#      x y z
#    x 1.776530 0.000000 0.000000 
#    y 0.000000 1.742610 0.000000 
#    z 0.000000 0.000000 1.755740 
# 
# From -- ./inp_files/22691.got.cif
#   From: 2010.05.17/outbox.cif.g08.bks.cpg/sg53_12_cif.got.tgz:22691.got - 2010.06.03 12:45:16.
