data_PCOD9415221
_publ_section_title
;
Structure prediction by ZEFSAII (Michael W. Deem and Ramdas Pophale) SiO2 
 PCOD9415221
Probable space group: P M N A
;
_chemical_formula_sum "Si O2"
_cell_formula_units_Z 64
_cell_length_a 8.650401
_cell_length_b 14.914259
_cell_length_c 31.212343
_cell_angle_alpha 90.000000
_cell_angle_beta 90.000000
_cell_angle_gamma 90.000000
_cell_volume 4026.839238
_symmetry_space_group_name_H-M "P M N A"
_symmetry_group_IT_number 53
_symmetry_cell_setting 'orthorhombic'
loop_
_space_group_symop_operation_xyz
x,y,z
1/2-x,-y,1/2+z
x,-y,-z
1/2-x,y,1/2-z
-x,-y,-z
1/2+x,y,1/2-z
-x,y,z
1/2+x,-y,1/2+z
loop_
_atom_site_type_symbol
_atom_site_label
_atom_site_fract_x
_atom_site_fract_y
_atom_site_fract_z
Si Si1 0.815506 0.442110 0.541574
Si Si2 0.313844 0.357555 0.296595
Si Si3 0.179211 0.247283 0.973583
Si Si4 0.186938 0.945878 0.457087
Si Si5 0.321469 0.757741 0.576122
Si Si6 0.313224 0.157062 0.203327
Si Si7 0.315002 0.436432 0.384845
Si Si8 0.682507 0.928268 0.882102
O O1 0.758604 0.500000 0.500000
O O2 0.752402 0.341281 0.540260
O O3 0.764959 0.490860 0.585221
O O4 0.000000 0.560441 0.461031
O O5 0.250000 0.383604 0.250000
O O6 0.500000 0.351435 0.295267
O O7 0.248746 0.257672 0.305983
O O8 0.270050 0.424615 0.335087
O O9 0.260475 0.156669 0.957996
O O10 0.000000 0.245512 0.960886
O O11 0.187803 0.244855 0.025140
O O12 0.000000 0.949055 0.457396
O O13 0.239027 0.000000 0.500000
O O14 0.245586 0.996538 0.414374
O O15 0.500000 0.777830 0.588548
O O16 0.282083 0.660567 0.594342
O O17 0.212097 0.834224 0.594184
O O18 0.250000 0.132366 0.250000
O O19 0.500000 0.160501 0.204002
O O20 0.259232 0.089409 0.166017
O O21 0.500000 0.450571 0.386813
O O22 0.500000 0.944829 0.878311
#
# Coordination Sequence:
#
# PCOD9415221 Si02
#       8
#     8   8   8   8   8   8   8   8
#     4  11  23  35  51  74  99 131 170 208 248 296
#     4  10  19  31  48  71 100 132 165 202 247 294
#     4  11  22  35  51  71  99 134 170 208 247 290
#     4  10  20  34  51  71  99 132 166 205 247 291
#     4  10  19  30  47  70 100 134 167 204 242 286
#     4  10  19  30  46  69  98 130 165 202 244 292
#     4  10  20  34  50  71 100 136 170 204 247 292
#     4  10  20  32  48  71  98 133 169 203 243 290
#
# _framework density 15.893357999999999
#
# number of rings (size 3 to 8) (size 9 to 14) (size 15 to 20)
#    0.000    1.750    3.750    2.250    0.000    3.750 
#    0.000    0.000    0.000    0.000    0.000    0.875 
#    0.000    4.000    0.000    0.000    0.000    0.000 
#
# Total GULP energy -356960.350982 kJ/mol
# GULP energy per Si atom -5577.505484 kJ/mol
# Density = 1.585718 g / cm^3
# Si number density = 15.893358 Si / 1000 Ang^3
#
#
#
# Elastic Constant Matrix: (Units=GPa)
#
#
# Indices 1 2 3 4 5 6 
#
# 1 24.6632 18.3701 30.6266 0.0000 0.0000 0.0000
# 2 18.3701 90.4460 62.0047 0.0000 0.0000 0.0000
# 3 30.6266 62.0047 120.3032 0.0000 0.0000 0.0000
# 4 0.0000 0.0000 0.0000 21.6532 0.0000 0.0000
# 5 0.0000 0.0000 0.0000 0.0000-2152.4520 0.0000
# 6 0.0000 0.0000 0.0000 0.0000 0.0000 22.2714
#
#
#
# Elastic Compliance Matrix: (Units=1/GPa)
#
#
# Indices 1 2 3 4 5 6 
#
# 1 0.059694 -0.002638 -0.013837 0.000000 0.000000 0.000000
# 2 -0.002638 0.017214 -0.008200 0.000000 0.000000 0.000000
# 3 -0.013837 -0.008200 0.016061 0.000000 0.000000 0.000000
# 4 0.000000 0.000000 0.000000 0.046183 0.000000 0.000000
# 5 0.000000 0.000000 0.000000 0.000000 -0.000465 0.000000
# 6 0.000000 0.000000 0.000000 0.000000 0.000000 0.044901
#
#
# Mechanical properties :
#
#
# Convention : Reuss Voigt Hill
#
# Bulk Modulus (GPa) = 22.92641 50.82392 36.87517
# Shear Modulus (GPa) = 20.20374 -413.41142 -196.60384
#
# Velocity S-wave (km/s) = 3.56927 -16.14560 -11.13420
# Velocity P-wave (km/s) = 5.60738 17.76307 11.91813
#
# Compressibility (1/GPa) = 0.04361781
#
# Stress axis : x y z
#
# Youngs Moduli (GPa) = 16.75212 58.09234 62.26073
#
# Poissons Ratio (x) = 0.15327 0.86150
# Poissons Ratio (y) = 0.04420 0.51057
# Poissons Ratio (z) = 0.23180 0.47639
#
# Static dielectric constant tensor:
#      x y z
#    x 1.546160 0.000000 0.000000 
#    y 0.000000 1.500150 0.000000 
#    z 0.000000 0.000000 1.557410 
# 
# From -- ./inp_files/38419.got.cif
#   From: 2010.05.17/outbox.cif.g08.bks.cpg/sg53_20_cif.got.tgz:38419.got - 2010.06.03 12:45:16.
