data_PCOD9415019
_publ_section_title
;
Structure prediction by ZEFSAII (Michael W. Deem and Ramdas Pophale) SiO2 
 PCOD9415019
Probable space group: P M N A
;
_chemical_formula_sum "Si O2"
_cell_formula_units_Z 24
_cell_length_a 10.737533
_cell_length_b 8.740396
_cell_length_c 13.820339
_cell_angle_alpha 90.000000
_cell_angle_beta 90.000000
_cell_angle_gamma 90.000000
_cell_volume 1297.042830
_symmetry_space_group_name_H-M "P M N A"
_symmetry_group_IT_number 53
_symmetry_cell_setting 'orthorhombic'
loop_
_space_group_symop_operation_xyz
x,y,z
1/2-x,-y,1/2+z
x,-y,-z
1/2-x,y,1/2-z
-x,-y,-z
1/2+x,y,1/2-z
-x,y,z
1/2+x,-y,1/2+z
loop_
_atom_site_type_symbol
_atom_site_label
_atom_site_fract_x
_atom_site_fract_y
_atom_site_fract_z
Si Si1 0.750000 0.051673 0.750000
Si Si2 0.000000 0.822623 0.955790
Si Si3 0.000000 0.323144 0.472153
Si Si4 0.251151 0.170739 0.543705
Si Si5 0.000000 0.144979 0.272746
O O1 0.779699 0.151790 0.843473
O O2 0.628480 0.952430 0.780039
O O3 0.128630 0.754697 0.993979
O O4 0.000000 0.810515 0.840343
O O5 0.000000 0.000000 0.000000
O O6 0.000000 0.500000 0.500000
O O7 0.876620 0.252793 0.519967
O O8 0.000000 0.271154 0.358429
O O9 0.238811 0.000000 0.500000
#
# Coordination Sequence:
#
# PCOD9415019 Si02
#       5
#     4   4   4   8   4
#     4  12  20  32  66  96 118 150 214 272 320 346
#     4  10  18  34  61  97 119 140 212 278 314 352
#     4  12  26  41  57  89 137 177 202 239 316 400
#     4  11  20  38  62  95 119 155 213 272 310 363
#     4  12  19  34  60  93 118 161 203 260 322 364
#
# _framework density 18.503630000000001
#
# number of rings (size 3 to 8) (size 9 to 14) (size 15 to 20)
#    0.000    0.667   10.000    1.500    0.000    0.000 
#    0.000    5.833    0.000    0.000    0.000    0.000 
#    0.000    0.000    0.000    0.000    0.000    0.000 
#
# Total GULP energy -133836.364999 kJ/mol
# GULP energy per Si atom -5576.515208 kJ/mol
# Density = 1.846151 g / cm^3
# Si number density = 18.503630 Si / 1000 Ang^3
#
#
#
# Elastic Constant Matrix: (Units=GPa)
#
#
# Indices 1 2 3 4 5 6 
#
# 1 163.2571 43.4741 12.7589 0.0000 0.0000 0.0000
# 2 43.4741 52.3830 28.1159 0.0000 0.0000 0.0000
# 3 12.7589 28.1159 152.5851 0.0000 0.0000 0.0000
# 4 0.0000 0.0000 0.0000 11.0606 0.0000 0.0000
# 5 0.0000 0.0000 0.0000 0.0000 37.5519 0.0000
# 6 0.0000 0.0000 0.0000 0.0000 0.0000 -25.9578
#
#
#
# Elastic Compliance Matrix: (Units=1/GPa)
#
#
# Indices 1 2 3 4 5 6 
#
# 1 0.007914 -0.006894 0.000609 0.000000 0.000000 0.000000
# 2 -0.006894 0.027192 -0.004434 0.000000 0.000000 0.000000
# 3 0.000609 -0.004434 0.007320 0.000000 0.000000 0.000000
# 4 0.000000 0.000000 0.000000 0.090411 0.000000 0.000000
# 5 0.000000 0.000000 0.000000 0.000000 0.026630 0.000000
# 6 0.000000 0.000000 0.000000 0.000000 0.000000 -0.038524
#
#
# Mechanical properties :
#
#
# Convention : Reuss Voigt Hill
#
# Bulk Modulus (GPa) = 47.65104 59.65813 53.65459
# Shear Modulus (GPa) = 33.47234 23.45602 28.46418
#
# Velocity S-wave (km/s) = 4.25780 3.56426 3.92637
# Velocity P-wave (km/s) = 7.06965 7.01783 7.04379
#
# Compressibility (1/GPa) = 0.02098590
#
# Stress axis : x y z
#
# Youngs Moduli (GPa) = 126.36338 36.77556 136.61485
#
# Poissons Ratio (x) = 0.25355 -0.08315
# Poissons Ratio (y) = 0.87121 0.60575
# Poissons Ratio (z) = -0.07691 0.16306
#
# Static dielectric constant tensor:
#      x y z
#    x 1.227910 0.000000 0.000000 
#    y 0.000000 1.615770 0.000000 
#    z 0.000000 0.000000 1.694970 
# 
# From -- ./inp_files/19397.got.cif
#   From: 2010.05.17/outbox.cif.g08.bks.cpg/sg53_10_cif.got.tgz:19397.got - 2010.06.03 12:45:16.
