data_PCOD9415433
_publ_section_title
;
Structure prediction by ZEFSAII (Michael W. Deem and Ramdas Pophale) SiO2 
 PCOD9415433
Probable space group: P M N A
;
_chemical_formula_sum "Si O2"
_cell_formula_units_Z 64
_cell_length_a 8.732553
_cell_length_b 17.808574
_cell_length_c 22.458634
_cell_angle_alpha 90.000000
_cell_angle_beta 90.000000
_cell_angle_gamma 90.000000
_cell_volume 3492.639112
_symmetry_space_group_name_H-M "P M N A"
_symmetry_group_IT_number 53
_symmetry_cell_setting 'orthorhombic'
loop_
_space_group_symop_operation_xyz
x,y,z
1/2-x,-y,1/2+z
x,-y,-z
1/2-x,y,1/2-z
-x,-y,-z
1/2+x,y,1/2-z
-x,y,z
1/2+x,-y,1/2+z
loop_
_atom_site_type_symbol
_atom_site_label
_atom_site_fract_x
_atom_site_fract_y
_atom_site_fract_z
Si Si1 0.174152 0.767995 0.600298
Si Si2 0.321819 0.625295 0.814291
Si Si3 0.181627 0.388465 0.534032
Si Si4 0.680675 0.537236 0.582413
Si Si5 0.687065 0.061044 0.551407
Si Si6 0.827054 0.136308 0.189745
Si Si7 0.827230 0.957137 0.187963
Si Si8 0.321735 0.767384 0.477807
O O1 0.186341 0.702458 0.648643
O O2 0.220003 0.842858 0.634913
O O3 0.293684 0.757283 0.547964
O O4 0.000000 0.768976 0.576920
O O5 0.250000 0.634745 0.750000
O O6 0.500000 0.603809 0.810427
O O7 0.228595 0.565672 0.853144
O O8 0.230777 0.411997 0.466681
O O9 0.266344 0.451866 0.572447
O O10 0.232377 0.303799 0.548989
O O11 0.000000 0.396182 0.539049
O O12 0.500000 0.544603 0.571899
O O13 0.500000 0.054978 0.552360
O O14 0.739248 0.051943 0.620674
O O15 0.728263 0.146997 0.534988
O O16 0.736152 0.000000 0.500000
O O17 0.750000 0.165634 0.250000
O O18 0.000000 0.166167 0.182003
O O19 0.837015 0.047045 0.194555
O O20 0.750000 0.929952 0.250000
O O21 0.000000 0.925802 0.186456
O O22 0.500000 0.761184 0.462405
#
# Coordination Sequence:
#
# PCOD9415433 Si02
#       8
#     8   8   8   8   8   8   8   8
#     4  11  22  34  49  72 108 146 183 225 275 332
#     4  11  23  37  53  77 112 153 189 227 273 330
#     4  11  21  36  57  82 113 144 178 228 284 335
#     4  11  21  36  59  84 109 141 186 230 273 329
#     4   9  18  34  56  83 114 150 192 242 295 347
#     4  10  19  31  49  71  99 137 183 229 273 329
#     4   9  18  34  55  78 105 141 186 235 289 348
#     4  11  21  34  56  82 109 143 189 236 284 339
#
# _framework density 18.324252000000001
#
# number of rings (size 3 to 8) (size 9 to 14) (size 15 to 20)
#    0.000    1.625    1.250    5.625    0.000    5.000 
#    0.000    1.250    0.000    3.375    0.000    3.500 
#    0.000    0.000    0.000    0.000    0.000    0.000 
#
# Total GULP energy -356845.525529 kJ/mol
# GULP energy per Si atom -5575.711336 kJ/mol
# Density = 1.828255 g / cm^3
# Si number density = 18.324252 Si / 1000 Ang^3
#
#
#
# Elastic Constant Matrix: (Units=GPa)
#
#
# Indices 1 2 3 4 5 6 
#
# 1 47.2660 12.3969 14.8198 0.0000 0.0000 0.0000
# 2 12.3969 75.2707 22.6741 0.0000 0.0000 0.0000
# 3 14.8198 22.6741 85.5632 0.0000 0.0000 0.0000
# 4 0.0000 0.0000 0.0000 16.9825 0.0000 0.0000
# 5 0.0000 0.0000 0.0000 0.0000 22.7486 0.0000
# 6 0.0000 0.0000 0.0000 0.0000 0.0000 15.7583
#
#
#
# Elastic Compliance Matrix: (Units=1/GPa)
#
#
# Indices 1 2 3 4 5 6 
#
# 1 0.022902 -0.002801 -0.003225 0.000000 0.000000 0.000000
# 2 -0.002801 0.014780 -0.003432 0.000000 0.000000 0.000000
# 3 -0.003225 -0.003432 0.013155 0.000000 0.000000 0.000000
# 4 0.000000 0.000000 0.000000 0.058884 0.000000 0.000000
# 5 0.000000 0.000000 0.000000 0.000000 0.043959 0.000000
# 6 0.000000 0.000000 0.000000 0.000000 0.000000 0.063459
#
#
# Mechanical properties :
#
#
# Convention : Reuss Voigt Hill
#
# Bulk Modulus (GPa) = 31.32423 34.20904 32.76663
# Shear Modulus (GPa) = 20.26797 21.64515 20.95656
#
# Velocity S-wave (km/s) = 3.32938 3.44063 3.38546
# Velocity P-wave (km/s) = 5.64900 5.87309 5.76213
#
# Compressibility (1/GPa) = 0.03192417
#
# Stress axis : x y z
#
# Youngs Moduli (GPa) = 43.66341 67.65722 76.01564
#
# Poissons Ratio (x) = 0.18948 0.24512
# Poissons Ratio (y) = 0.12228 0.26086
# Poissons Ratio (z) = 0.14080 0.23218
#
# Static dielectric constant tensor:
#      x y z
#    x 1.644870 0.000000 0.000000 
#    y 0.000000 1.650190 0.000000 
#    z 0.000000 0.000000 1.662890 
# 
# From -- ./inp_files/31163.got.cif
#   From: 2010.05.17/outbox.cif.g08.bks.cpg/sg53_16_cif.got.tgz:31163.got - 2010.06.03 12:45:16.
