data_PCOD9415006
_publ_section_title
;
Structure prediction by ZEFSAII (Michael W. Deem and Ramdas Pophale) SiO2 
 PCOD9415006
Probable space group: P M N A
;
_chemical_formula_sum "Si O2"
_cell_formula_units_Z 64
_cell_length_a 18.567888
_cell_length_b 11.514495
_cell_length_c 17.104766
_cell_angle_alpha 90.000000
_cell_angle_beta 90.000000
_cell_angle_gamma 90.000000
_cell_volume 3656.996466
_symmetry_space_group_name_H-M "P M N A"
_symmetry_group_IT_number 53
_symmetry_cell_setting 'orthorhombic'
loop_
_space_group_symop_operation_xyz
x,y,z
1/2-x,-y,1/2+z
x,-y,-z
1/2-x,y,1/2-z
-x,-y,-z
1/2+x,y,1/2-z
-x,y,z
1/2+x,-y,1/2+z
loop_
_atom_site_type_symbol
_atom_site_label
_atom_site_fract_x
_atom_site_fract_y
_atom_site_fract_z
Si Si1 0.213899 0.793622 0.329705
Si Si2 0.822486 0.465405 0.717169
Si Si3 0.084266 0.527371 0.129333
Si Si4 0.082246 0.931651 0.383291
Si Si5 0.584278 0.429778 0.079213
Si Si6 0.215231 0.861605 0.006214
Si Si7 0.414729 0.308671 0.478435
Si Si8 0.373392 0.166281 0.052607
O O1 0.250000 0.832557 0.250000
O O2 0.201596 0.655764 0.322565
O O3 0.137483 0.856845 0.334131
O O4 0.260849 0.826458 0.405584
O O5 0.750000 0.524775 0.750000
O O6 0.870287 0.444721 0.794196
O O7 0.867218 0.532604 0.652037
O O8 0.094498 0.620000 0.059592
O O9 0.000000 0.527360 0.149620
O O10 0.100570 0.401601 0.090685
O O11 0.094423 0.880625 0.470630
O O12 0.000000 0.918501 0.360277
O O13 0.104130 0.066911 0.386368
O O14 0.500000 0.454632 0.094332
O O15 0.595774 0.293061 0.066788
O O16 0.604445 0.500000 0.000000
O O17 0.143899 0.793281 0.980058
O O18 0.286908 0.830496 0.956301
O O19 0.205609 0.000000 0.000000
O O20 0.500000 0.275495 0.473206
#
# Coordination Sequence:
#
# PCOD9415006 Si02
#       8
#     8   8   8   8   8   8   8   8
#     4  10  21  38  55  82 117 147 188 241 288 340
#     4  11  23  37  55  87 117 152 191 233 294 355
#     4   9  19  38  59  84 118 152 187 237 291 341
#     4  10  18  34  59  82 104 144 191 229 276 336
#     4  11  23  37  56  84 119 154 189 240 297 350
#     4  11  20  37  60  82 113 155 192 240 291 335
#     4   9  19  35  61  89 113 152 198 237 283 344
#     4  10  19  35  55  83 110 143 187 233 280 340
#
# _framework density 17.500699999999998
#
# number of rings (size 3 to 8) (size 9 to 14) (size 15 to 20)
#    0.000    1.875    2.500    5.625    1.750    2.250 
#    0.000    2.500    0.000    1.500    0.000    0.000 
#    0.000    0.000    0.000    0.000    0.000    0.000 
#
# Total GULP energy -356998.960868 kJ/mol
# GULP energy per Si atom -5578.108764 kJ/mol
# Density = 1.746087 g / cm^3
# Si number density = 17.500700 Si / 1000 Ang^3
#
#
#
# Elastic Constant Matrix: (Units=GPa)
#
#
# Indices 1 2 3 4 5 6 
#
# 1 107.5538 41.2879 31.7537 0.0000 0.0000 0.0000
# 2 41.2879 80.6764 30.2819 0.0000 0.0000 0.0000
# 3 31.7537 30.2819 58.0328 0.0000 0.0000 0.0000
# 4 0.0000 0.0000 0.0000 16.9361 0.0000 0.0000
# 5 0.0000 0.0000 0.0000 0.0000 13.9859 0.0000
# 6 0.0000 0.0000 0.0000 0.0000 0.0000 43.2632
#
#
#
# Elastic Compliance Matrix: (Units=1/GPa)
#
#
# Indices 1 2 3 4 5 6 
#
# 1 0.012382 -0.004718 -0.004313 0.000000 0.000000 0.000000
# 2 -0.004718 0.017212 -0.006400 0.000000 0.000000 0.000000
# 3 -0.004313 -0.006400 0.022931 0.000000 0.000000 0.000000
# 4 0.000000 0.000000 0.000000 0.059045 0.000000 0.000000
# 5 0.000000 0.000000 0.000000 0.000000 0.071501 0.000000
# 6 0.000000 0.000000 0.000000 0.000000 0.000000 0.023114
#
#
# Mechanical properties :
#
#
# Convention : Reuss Voigt Hill
#
# Bulk Modulus (GPa) = 46.16108 50.32335 48.24221
# Shear Modulus (GPa) = 20.46925 24.36633 22.41779
#
# Velocity S-wave (km/s) = 3.42369 3.73541 3.58294
# Velocity P-wave (km/s) = 6.48559 6.88635 6.68897
#
# Compressibility (1/GPa) = 0.02166327
#
# Stress axis : x y z
#
# Youngs Moduli (GPa) = 80.76095 58.09958 43.60867
#
# Poissons Ratio (x) = 0.27411 0.18810
# Poissons Ratio (y) = 0.38102 0.27909
# Poissons Ratio (z) = 0.34835 0.37183
#
# Static dielectric constant tensor:
#      x y z
#    x 1.609380 0.000000 0.000000 
#    y 0.000000 1.588350 0.000000 
#    z 0.000000 0.000000 1.587460 
# 
# From -- ./inp_files/29122.got.cif
#   From: 2010.05.17/outbox.cif.g08.bks.cpg/sg53_15_cif.got.tgz:29122.got - 2010.06.03 12:45:16.
