data_PCOD9415889
_publ_section_title
;
Structure prediction by ZEFSAII (Michael W. Deem and Ramdas Pophale) SiO2 
 PCOD9415889
Probable space group: P M N A
;
_chemical_formula_sum "Si O2"
_cell_formula_units_Z 56
_cell_length_a 8.403424
_cell_length_b 20.179311
_cell_length_c 16.424498
_cell_angle_alpha 90.000000
_cell_angle_beta 90.000000
_cell_angle_gamma 90.000000
_cell_volume 2785.189280
_symmetry_space_group_name_H-M "P M N A"
_symmetry_group_IT_number 53
_symmetry_cell_setting 'orthorhombic'
loop_
_space_group_symop_operation_xyz
x,y,z
1/2-x,-y,1/2+z
x,-y,-z
1/2-x,y,1/2-z
-x,-y,-z
1/2+x,y,1/2-z
-x,y,z
1/2+x,-y,1/2+z
loop_
_atom_site_type_symbol
_atom_site_label
_atom_site_fract_x
_atom_site_fract_y
_atom_site_fract_z
Si Si1 0.194265 0.076555 0.499778
Si Si2 0.192242 0.846183 0.337262
Si Si3 0.308388 0.708493 0.907231
Si Si4 0.809497 0.568968 0.342898
Si Si5 0.693239 0.290160 0.907063
Si Si6 0.307780 0.154589 0.162546
Si Si7 0.688190 0.569868 0.657313
O O1 0.244858 0.112832 0.583098
O O2 0.245350 0.113144 0.416692
O O3 0.000000 0.078802 0.499615
O O4 0.242933 0.000000 0.500000
O O5 0.250000 0.871410 0.250000
O O6 0.247861 0.770069 0.350492
O O7 0.000000 0.846646 0.337138
O O8 0.500000 0.704550 0.901691
O O9 0.254116 0.769119 0.850783
O O10 0.241733 0.636803 0.886040
O O11 0.266635 0.725991 0.999972
O O12 0.750000 0.570734 0.250000
O O13 0.749948 0.636388 0.384565
O O14 0.753476 0.498939 0.379215
O O15 0.000000 0.569062 0.343622
O O16 0.500000 0.291663 0.902127
O O17 0.250000 0.129743 0.250000
O O18 0.500000 0.154111 0.162340
O O19 0.750000 0.574059 0.750000
O O20 0.500000 0.565742 0.658983
#
# Coordination Sequence:
#
# PCOD9415889 Si02
#       7
#     8   8   8   8   8   8   8
#     4   9  18  35  59  85 115 152 190 225 270 336
#     4  10  19  35  58  85 115 149 191 232 277 330
#     4  10  19  35  56  77 104 141 186 231 275 326
#     4  10  19  33  52  74 101 137 181 227 276 329
#     4   9  18  33  55  78 104 142 186 228 272 332
#     4  10  20  35  58  84 112 148 189 233 277 327
#     4  11  22  36  52  74 104 139 179 226 280 333
#
# _framework density 20.106352000000001
#
# number of rings (size 3 to 8) (size 9 to 14) (size 15 to 20)
#    0.000    2.143    1.429    3.429    0.000    2.857 
#    0.000    6.429    0.000    0.857    0.000    0.000 
#    0.000    0.000    0.000    0.000    0.000    0.000 
#
# Total GULP energy -312559.523789 kJ/mol
# GULP energy per Si atom -5581.420068 kJ/mol
# Density = 2.006059 g / cm^3
# Si number density = 20.106352 Si / 1000 Ang^3
#
#
#
# Elastic Constant Matrix: (Units=GPa)
#
#
# Indices 1 2 3 4 5 6 
#
# 1 30.2900 19.5682 16.6695 0.0000 0.0000 0.0000
# 2 19.5682 140.0681 69.0009 0.0000 0.0000 0.0000
# 3 16.6695 69.0009 132.0894 0.0000 0.0000 0.0000
# 4 0.0000 0.0000 0.0000 19.6513 0.0000 0.0000
# 5 0.0000 0.0000 0.0000 0.0000 24.2756 0.0000
# 6 0.0000 0.0000 0.0000 0.0000 0.0000 4.7935
#
#
#
# Elastic Compliance Matrix: (Units=1/GPa)
#
#
# Indices 1 2 3 4 5 6 
#
# 1 0.036965 -0.003859 -0.002649 0.000000 0.000000 0.000000
# 2 -0.003859 0.010016 -0.004745 0.000000 0.000000 0.000000
# 3 -0.002649 -0.004745 0.010384 0.000000 0.000000 0.000000
# 4 0.000000 0.000000 0.000000 0.050887 0.000000 0.000000
# 5 0.000000 0.000000 0.000000 0.000000 0.041194 0.000000
# 6 0.000000 0.000000 0.000000 0.000000 0.000000 0.208615
#
#
# Mechanical properties :
#
#
# Convention : Reuss Voigt Hill
#
# Bulk Modulus (GPa) = 28.68768 56.99164 42.83966
# Shear Modulus (GPa) = 12.74900 22.89134 17.82017
#
# Velocity S-wave (km/s) = 2.52082 3.37785 2.98030
# Velocity P-wave (km/s) = 4.77197 6.60453 5.76157
#
# Compressibility (1/GPa) = 0.03485817
#
# Stress axis : x y z
#
# Youngs Moduli (GPa) = 27.05250 99.83885 96.30451
#
# Poissons Ratio (x) = 0.38530 0.25511
# Poissons Ratio (y) = 0.10440 0.45698
# Poissons Ratio (z) = 0.07166 0.47376
#
# Static dielectric constant tensor:
#      x y z
#    x 1.692910 0.000000 0.000000 
#    y 0.000000 1.731220 0.000000 
#    z 0.000000 0.000000 1.706150 
# 
# From -- ./inp_files/20446.got.cif
#   From: 2010.05.17/outbox.cif.g08.bks.cpg/sg53_11_cif.got.tgz:20446.got - 2010.06.03 12:45:16.
