data_PCOD9415211
_publ_section_title
;
Structure prediction by ZEFSAII (Michael W. Deem and Ramdas Pophale) SiO2 
 PCOD9415211
Probable space group: P M N A
;
_chemical_formula_sum "Si O2"
_cell_formula_units_Z 64
_cell_length_a 8.602990
_cell_length_b 15.066683
_cell_length_c 30.956479
_cell_angle_alpha 90.000000
_cell_angle_beta 90.000000
_cell_angle_gamma 90.000000
_cell_volume 4012.533091
_symmetry_space_group_name_H-M "P M N A"
_symmetry_group_IT_number 53
_symmetry_cell_setting 'orthorhombic'
loop_
_space_group_symop_operation_xyz
x,y,z
1/2-x,-y,1/2+z
x,-y,-z
1/2-x,y,1/2-z
-x,-y,-z
1/2+x,y,1/2-z
-x,y,z
1/2+x,-y,1/2+z
loop_
_atom_site_type_symbol
_atom_site_label
_atom_site_fract_x
_atom_site_fract_y
_atom_site_fract_z
Si Si1 0.184004 0.933621 0.615630
Si Si2 0.182822 0.747486 0.026898
Si Si3 0.179840 0.749813 0.564993
Si Si4 0.812710 0.848396 0.702845
Si Si5 0.311580 0.448808 0.544183
Si Si6 0.316980 0.429130 0.119296
Si Si7 0.184889 0.649719 0.796896
Si Si8 0.187323 0.055766 0.957661
O O1 0.203957 0.839741 0.591268
O O2 0.237359 0.914608 0.664565
O O3 0.000000 0.953466 0.616615
O O4 0.266663 0.006097 0.586120
O O5 0.245477 0.653214 0.043549
O O6 0.247551 0.842863 0.041632
O O7 0.000000 0.747888 0.037196
O O8 0.207342 0.745518 0.975505
O O9 0.202376 0.665374 0.595287
O O10 0.000000 0.748644 0.549615
O O11 0.750000 0.873479 0.750000
O O12 0.753405 0.748265 0.693883
O O13 0.000000 0.845294 0.703170
O O14 0.261831 0.500000 0.500000
O O15 0.500000 0.449122 0.543870
O O16 0.253024 0.499377 0.586471
O O17 0.500000 0.444883 0.125278
O O18 0.236194 0.416920 0.165455
O O19 0.250000 0.623498 0.750000
O O20 0.000000 0.656853 0.794992
O O21 0.000000 0.058635 0.960879
O O22 0.242949 0.000000 0.000000
#
# Coordination Sequence:
#
# PCOD9415211 Si02
#       8
#     8   8   8   8   8   8   8   8
#     4  10  20  33  48  69  99 133 166 202 243 293
#     4  10  20  34  48  68 100 131 166 213 250 288
#     4  10  19  30  46  68  98 132 166 204 244 288
#     4  10  19  33  49  72 102 131 165 203 247 294
#     4  10  20  33  50  72  98 132 171 207 250 301
#     4  11  21  34  50  72 102 134 170 208 248 296
#     4  11  21  33  51  74 102 134 167 203 248 298
#     4  10  20  32  48  71  97 128 168 208 246 291
#
# _framework density 15.950024000000001
#
# number of rings (size 3 to 8) (size 9 to 14) (size 15 to 20)
#    0.000    1.750    3.750    2.625    0.000    3.000 
#    0.000    0.000    0.000    0.000    0.000    0.875 
#    0.000    2.000    0.000    0.000    0.000    0.000 
#
# Total GULP energy -356975.665452 kJ/mol
# GULP energy per Si atom -5577.744773 kJ/mol
# Density = 1.591372 g / cm^3
# Si number density = 15.950024 Si / 1000 Ang^3
#
#
#
# Elastic Constant Matrix: (Units=GPa)
#
#
# Indices 1 2 3 4 5 6 
#
# 1 28.3640 29.2766 28.2558 0.0000 0.0000 0.0000
# 2 29.2766 111.0839 55.8632 0.0000 0.0000 0.0000
# 3 28.2558 55.8632 118.3190 0.0000 0.0000 0.0000
# 4 0.0000 0.0000 0.0000 14.8924 0.0000 0.0000
# 5 0.0000 0.0000 0.0000 0.0000 235.0470 0.0000
# 6 0.0000 0.0000 0.0000 0.0000 0.0000 15.8796
#
#
#
# Elastic Compliance Matrix: (Units=1/GPa)
#
#
# Indices 1 2 3 4 5 6 
#
# 1 0.053711 -0.010104 -0.008056 0.000000 0.000000 0.000000
# 2 -0.010104 0.013706 -0.004058 0.000000 0.000000 0.000000
# 3 -0.008056 -0.004058 0.012292 0.000000 0.000000 0.000000
# 4 0.000000 0.000000 0.000000 0.067148 0.000000 0.000000
# 5 0.000000 0.000000 0.000000 0.000000 0.004254 0.000000
# 6 0.000000 0.000000 0.000000 0.000000 0.000000 0.062974
#
#
# Mechanical properties :
#
#
# Convention : Reuss Voigt Hill
#
# Bulk Modulus (GPa) = 28.35168 53.83979 41.09574
# Shear Modulus (GPa) = 18.49942 62.78857 40.64399
#
# Velocity S-wave (km/s) = 3.40933 6.28102 5.05346
# Velocity P-wave (km/s) = 5.77165 9.29679 7.73764
#
# Compressibility (1/GPa) = 0.03527127
#
# Stress axis : x y z
#
# Youngs Moduli (GPa) = 18.61832 72.96035 81.35645
#
# Poissons Ratio (x) = 0.73722 0.65540
# Poissons Ratio (y) = 0.18813 0.33016
# Poissons Ratio (z) = 0.14999 0.29609
#
# Static dielectric constant tensor:
#      x y z
#    x 1.544730 0.000000 0.000000 
#    y 0.000000 1.541040 0.000000 
#    z 0.000000 0.000000 1.524510 
# 
# From -- ./inp_files/38496.got.cif
#   From: 2010.05.17/outbox.cif.g08.bks.cpg/sg53_20_cif.got.tgz:38496.got - 2010.06.03 12:45:16.
