data_PCOD9415506
_publ_section_title
;
Structure prediction by ZEFSAII (Michael W. Deem and Ramdas Pophale) SiO2 
 PCOD9415506
Probable space group: P M N A
;
_chemical_formula_sum "Si O2"
_cell_formula_units_Z 48
_cell_length_a 25.103402
_cell_length_b 5.064087
_cell_length_c 20.693965
_cell_angle_alpha 90.000000
_cell_angle_beta 90.000000
_cell_angle_gamma 90.000000
_cell_volume 2630.737098
_symmetry_space_group_name_H-M "P M N A"
_symmetry_group_IT_number 53
_symmetry_cell_setting 'orthorhombic'
loop_
_space_group_symop_operation_xyz
x,y,z
1/2-x,-y,1/2+z
x,-y,-z
1/2-x,y,1/2-z
-x,-y,-z
1/2+x,y,1/2-z
-x,y,z
1/2+x,-y,1/2+z
loop_
_atom_site_type_symbol
_atom_site_label
_atom_site_fract_x
_atom_site_fract_y
_atom_site_fract_z
Si Si1 0.834379 0.546171 0.886710
Si Si2 0.937886 0.480415 0.171871
Si Si3 0.188805 0.374802 0.257520
Si Si4 0.561160 0.981465 0.233726
Si Si5 0.335008 0.129084 0.829558
Si Si6 0.735971 0.050060 0.574330
O O1 0.898630 0.542046 0.890526
O O2 0.833283 0.523857 0.809436
O O3 0.802579 0.812362 0.903021
O O4 0.800345 0.311411 0.917749
O O5 0.931782 0.749734 0.213244
O O6 0.000000 0.462794 0.152044
O O7 0.929400 0.247111 0.224970
O O8 0.250000 0.437140 0.250000
O O9 0.183530 0.064570 0.270994
O O10 0.167769 0.559965 0.314615
O O11 0.500000 0.977723 0.211618
O O12 0.602369 0.945750 0.174255
O O13 0.209109 0.069057 0.615544
O O14 0.749625 0.000000 0.500000
#
# Coordination Sequence:
#
# PCOD9415506 Si02
#       6
#     8   8   8   8   8   8
#     4  12  21  37  58  78 111 138 175 222 269 325
#     4  10  20  33  53  83 112 135 164 210 273 330
#     4  12  20  30  54  87 104 134 166 215 284 323
#     4  10  19  31  50  81 115 138 163 206 267 330
#     4  12  20  34  53  78 114 137 171 215 266 325
#     4  12  26  38  53  76 107 150 186 221 258 304
#
# _framework density 18.245837999999999
#
# number of rings (size 3 to 8) (size 9 to 14) (size 15 to 20)
#    0.000    0.667    6.667    3.000    0.000    0.000 
#    0.000    0.000    0.000    3.500    0.000    0.000 
#    0.000    9.333    0.000    0.000    0.000    1.333 
#
# Total GULP energy -267266.120443 kJ/mol
# GULP energy per Si atom -5568.044176 kJ/mol
# Density = 1.820431 g / cm^3
# Si number density = 18.245838 Si / 1000 Ang^3
#
#
#
# Elastic Constant Matrix: (Units=GPa)
#
#
# Indices 1 2 3 4 5 6 
#
# 1 108.8739 1.5161 12.4537 0.0000 0.0000 0.0000
# 2 1.5161 93.1292 -10.6026 0.0000 0.0000 0.0000
# 3 12.4537 -10.6026 26.8088 0.0000 0.0000 0.0000
# 4 0.0000 0.0000 0.0000 4.0650 0.0000 0.0000
# 5 0.0000 0.0000 0.0000 0.0000 5.9286 0.0000
# 6 0.0000 0.0000 0.0000 0.0000 0.0000 39.0985
#
#
#
# Elastic Compliance Matrix: (Units=1/GPa)
#
#
# Indices 1 2 3 4 5 6 
#
# 1 0.009744 -0.000706 -0.004806 0.000000 0.000000 0.000000
# 2 -0.000706 0.011295 0.004795 0.000000 0.000000 0.000000
# 3 -0.004806 0.004795 0.041430 0.000000 0.000000 0.000000
# 4 0.000000 0.000000 0.000000 0.246000 0.000000 0.000000
# 5 0.000000 0.000000 0.000000 0.000000 0.168675 0.000000
# 6 0.000000 0.000000 0.000000 0.000000 0.000000 0.025576
#
#
# Mechanical properties :
#
#
# Convention : Reuss Voigt Hill
#
# Bulk Modulus (GPa) = 16.38367 26.17182 21.27774
# Shear Modulus (GPa) = 9.53289 24.84806 17.19048
#
# Velocity S-wave (km/s) = 2.28824 3.69433 3.07279
# Velocity P-wave (km/s) = 3.99753 5.70723 4.92711
#
# Compressibility (1/GPa) = 0.06103640
#
# Stress axis : x y z
#
# Youngs Moduli (GPa) = 102.62214 88.53348 24.13712
#
# Poissons Ratio (x) = 0.06248 0.11600
# Poissons Ratio (y) = 0.07243 -0.11574
# Poissons Ratio (z) = 0.49318 -0.42452
#
# Static dielectric constant tensor:
#      x y z
#    x 1.471720 0.000000 0.000000 
#    y 0.000000 1.648620 0.000000 
#    z 0.000000 0.000000 1.606210 
# 
# From -- ./inp_files/33246.got.cif
#   From: 2010.05.17/outbox.cif.g08.bks.cpg/sg53_17_cif.got.tgz:33246.got - 2010.06.03 12:45:16.
