data_PCOD9415845
_publ_section_title
;
Structure prediction by ZEFSAII (Michael W. Deem and Ramdas Pophale) SiO2 
 PCOD9415845
Probable space group: P M N A
;
_chemical_formula_sum "Si O2"
_cell_formula_units_Z 64
_cell_length_a 9.075342
_cell_length_b 19.972993
_cell_length_c 20.968161
_cell_angle_alpha 90.000000
_cell_angle_beta 90.000000
_cell_angle_gamma 90.000000
_cell_volume 3800.725394
_symmetry_space_group_name_H-M "P M N A"
_symmetry_group_IT_number 53
_symmetry_cell_setting 'orthorhombic'
loop_
_space_group_symop_operation_xyz
x,y,z
1/2-x,-y,1/2+z
x,-y,-z
1/2-x,y,1/2-z
-x,-y,-z
1/2+x,y,1/2-z
-x,y,z
1/2+x,-y,1/2+z
loop_
_atom_site_type_symbol
_atom_site_label
_atom_site_fract_x
_atom_site_fract_y
_atom_site_fract_z
Si Si1 0.673928 0.173708 0.864678
Si Si2 0.823810 0.461492 0.065670
Si Si3 0.174167 0.820117 0.517869
Si Si4 0.176595 0.676967 0.373733
Si Si5 0.324096 0.681639 0.511517
Si Si6 0.323045 0.045966 0.439153
Si Si7 0.324392 0.465073 0.816106
Si Si8 0.675827 0.958423 0.315533
O O1 0.500000 0.163286 0.851812
O O2 0.714778 0.249844 0.846166
O O3 0.766658 0.115954 0.831755
O O4 0.696092 0.170110 0.941388
O O5 0.791735 0.383272 0.054221
O O6 0.738826 0.493076 0.124752
O O7 0.000000 0.469622 0.075126
O O8 0.785683 0.500000 0.000000
O O9 0.251657 0.750333 0.535171
O O10 0.244011 0.883217 0.553282
O O11 0.000000 0.815878 0.528895
O O12 0.259062 0.668835 0.440955
O O13 0.209478 0.613222 0.330407
O O14 0.000000 0.678487 0.386300
O O15 0.500000 0.689018 0.507028
O O16 0.500000 0.055478 0.440686
O O17 0.283215 0.000000 0.500000
O O18 0.284455 0.006240 0.374881
O O19 0.250000 0.485239 0.750000
O O20 0.500000 0.472299 0.812565
O O21 0.750000 0.980909 0.250000
O O22 0.500000 0.957682 0.309458
#
# Coordination Sequence:
#
# PCOD9415845 Si02
#       8
#     8   8   8   8   8   8   8   8
#     4   9  18  33  51  75 109 144 181 219 260 314
#     4  10  20  36  57  83 111 142 185 230 276 327
#     4  10  20  33  54  83 113 141 176 224 271 322
#     4   9  19  34  51  77 110 145 184 224 267 319
#     4  10  19  32  55  82 111 144 177 223 273 323
#     4  10  20  36  57  81 108 139 182 227 270 319
#     4  11  23  37  55  78 111 150 188 231 278 329
#     4  11  23  37  54  77 108 144 180 223 267 320
#
# _framework density 16.838889999999999
#
# number of rings (size 3 to 8) (size 9 to 14) (size 15 to 20)
#    0.000    2.000    2.500    2.250    0.000    5.500 
#    0.000    1.250    0.000    0.750    0.000    3.500 
#    0.000    0.000    0.000    0.000    0.000    0.000 
#
# Total GULP energy -357288.199095 kJ/mol
# GULP energy per Si atom -5582.628111 kJ/mol
# Density = 1.680056 g / cm^3
# Si number density = 16.838890 Si / 1000 Ang^3
#
#
#
# Elastic Constant Matrix: (Units=GPa)
#
#
# Indices 1 2 3 4 5 6 
#
# 1 47.5511 55.1291 52.7553 0.0000 0.0000 0.0000
# 2 55.1291 119.5110 65.1226 0.0000 0.0000 0.0000
# 3 52.7553 65.1226 110.5555 0.0000 0.0000 0.0000
# 4 0.0000 0.0000 0.0000 15.9048 0.0000 0.0000
# 5 0.0000 0.0000 0.0000 0.0000 26.8221 0.0000
# 6 0.0000 0.0000 0.0000 0.0000 0.0000 28.8060
#
#
#
# Elastic Compliance Matrix: (Units=1/GPa)
#
#
# Indices 1 2 3 4 5 6 
#
# 1 0.065585 -0.019440 -0.019845 0.000000 0.000000 0.000000
# 2 -0.019440 0.018085 -0.001376 0.000000 0.000000 0.000000
# 3 -0.019845 -0.001376 0.019326 0.000000 0.000000 0.000000
# 4 0.000000 0.000000 0.000000 0.062874 0.000000 0.000000
# 5 0.000000 0.000000 0.000000 0.000000 0.037283 0.000000
# 6 0.000000 0.000000 0.000000 0.000000 0.000000 0.034715
#
#
# Mechanical properties :
#
#
# Convention : Reuss Voigt Hill
#
# Bulk Modulus (GPa) = 46.14084 69.29241 57.71662
# Shear Modulus (GPa) = 15.31795 21.28061 18.29928
#
# Velocity S-wave (km/s) = 3.01936 3.55882 3.30013
# Velocity P-wave (km/s) = 6.29414 7.62407 6.99080
#
# Compressibility (1/GPa) = 0.02167278
#
# Stress axis : x y z
#
# Youngs Moduli (GPa) = 15.24743 55.29484 51.74434
#
# Poissons Ratio (x) = 1.07492 1.02687
# Poissons Ratio (y) = 0.29641 0.07123
# Poissons Ratio (z) = 0.30259 0.07611
#
# Static dielectric constant tensor:
#      x y z
#    x 1.556530 0.000000 0.000000 
#    y 0.000000 1.567620 0.000000 
#    z 0.000000 0.000000 1.547470 
# 
# From -- ./inp_files/31200.got.cif
#   From: 2010.05.17/outbox.cif.g08.bks.cpg/sg53_16_cif.got.tgz:31200.got - 2010.06.03 12:45:16.
