data_PCOD9415374
_publ_section_title
;
Structure prediction by ZEFSAII (Michael W. Deem and Ramdas Pophale) SiO2 
 PCOD9415374
Probable space group: P M N A
;
_chemical_formula_sum "Si O2"
_cell_formula_units_Z 64
_cell_length_a 7.665132
_cell_length_b 20.364603
_cell_length_c 21.224245
_cell_angle_alpha 90.000000
_cell_angle_beta 90.000000
_cell_angle_gamma 90.000000
_cell_volume 3313.048827
_symmetry_space_group_name_H-M "P M N A"
_symmetry_group_IT_number 53
_symmetry_cell_setting 'orthorhombic'
loop_
_space_group_symop_operation_xyz
x,y,z
1/2-x,-y,1/2+z
x,-y,-z
1/2-x,y,1/2-z
-x,-y,-z
1/2+x,y,1/2-z
-x,y,z
1/2+x,-y,1/2+z
loop_
_atom_site_type_symbol
_atom_site_label
_atom_site_fract_x
_atom_site_fract_y
_atom_site_fract_z
Si Si1 0.790934 0.538582 0.819189
Si Si2 0.786740 0.321427 0.137918
Si Si3 0.789767 0.956719 0.059245
Si Si4 0.213437 0.542825 0.060841
Si Si5 0.300490 0.823282 0.997386
Si Si6 0.789806 0.320737 0.991038
Si Si7 0.209891 0.036231 0.179960
Si Si8 0.800162 0.177901 0.145142
O O1 0.750000 0.513173 0.750000
O O2 0.725542 0.613616 0.826465
O O3 0.725954 0.492837 0.875804
O O4 0.000000 0.541904 0.826112
O O5 0.722281 0.249709 0.159730
O O6 0.000000 0.319153 0.140129
O O7 0.738755 0.330063 0.064336
O O8 0.742010 0.882031 0.044442
O O9 0.000000 0.960111 0.059614
O O10 0.726019 0.989014 0.124093
O O11 0.727315 0.000000 0.000000
O O12 0.271505 0.617558 0.049698
O O13 0.000000 0.543395 0.061913
O O14 0.263530 0.500000 0.000000
O O15 0.500000 0.828885 0.977710
O O16 0.270222 0.751837 0.027043
O O17 0.197096 0.827726 0.931339
O O18 0.000000 0.320769 0.989805
O O19 0.250000 0.012735 0.250000
O O20 0.279987 0.110659 0.170919
O O21 0.000000 0.039999 0.172966
O O22 0.000000 0.179815 0.167791
#
# Coordination Sequence:
#
# PCOD9415374 Si02
#       8
#     8   8   8   8   8   8   8   8
#     4  10  19  31  47  73 104 134 169 209 255 303
#     4   8  14  26  48  71  95 129 171 208 237 284
#     4  10  19  36  58  77 100 137 180 212 248 307
#     4   9  15  28  54  80  95 123 177 224 248 285
#     4  11  21  31  49  80 110 133 164 216 268 304
#     4   9  16  30  53  76  98 128 169 217 259 301
#     4  10  21  35  53  76 105 138 173 214 255 304
#     4   9  17  33  52  72 100 142 182 207 243 300
#
# _framework density 19.317554999999999
#
# number of rings (size 3 to 8) (size 9 to 14) (size 15 to 20)
#    0.000    2.500    2.500    1.875    0.000    1.750 
#    0.000    3.125    0.000    1.500    0.000    1.750 
#    0.000    0.000    0.000    0.000    0.000    0.000 
#
# Total GULP energy -357083.767384 kJ/mol
# GULP energy per Si atom -5579.433865 kJ/mol
# Density = 1.927359 g / cm^3
# Si number density = 19.317555 Si / 1000 Ang^3
#
#
#
# Elastic Constant Matrix: (Units=GPa)
#
#
# Indices 1 2 3 4 5 6 
#
# 1 37.5927 0.3144 -1.3027 0.0000 0.0000 0.0000
# 2 0.3144 134.2488 74.1247 0.0000 0.0000 0.0000
# 3 -1.3027 74.1247 116.1493 0.0000 0.0000 0.0000
# 4 0.0000 0.0000 0.0000 23.0257 0.0000 0.0000
# 5 0.0000 0.0000 0.0000 0.0000 10.4605 0.0000
# 6 0.0000 0.0000 0.0000 0.0000 0.0000 -88.0230
#
#
#
# Elastic Compliance Matrix: (Units=1/GPa)
#
#
# Indices 1 2 3 4 5 6 
#
# 1 0.026622 -0.000351 0.000522 0.000000 0.000000 0.000000
# 2 -0.000351 0.011506 -0.007347 0.000000 0.000000 0.000000
# 3 0.000522 -0.007347 0.013304 0.000000 0.000000 0.000000
# 4 0.000000 0.000000 0.000000 0.043430 0.000000 0.000000
# 5 0.000000 0.000000 0.000000 0.000000 0.095598 0.000000
# 6 0.000000 0.000000 0.000000 0.000000 0.000000 -0.011361
#
#
# Mechanical properties :
#
#
# Convention : Reuss Voigt Hill
#
# Bulk Modulus (GPa) = 26.96749 48.25150 37.60949
# Shear Modulus (GPa) = 24.29411 3.41626 13.85519
#
# Velocity S-wave (km/s) = 3.55014 1.33128 2.68103
# Velocity P-wave (km/s) = 5.54933 5.23406 5.39400
#
# Compressibility (1/GPa) = 0.03708169
#
# Stress axis : x y z
#
# Youngs Moduli (GPa) = 37.56295 86.90859 75.16374
#
# Poissons Ratio (x) = 0.03049 -0.03927
# Poissons Ratio (y) = 0.01318 0.55224
# Poissons Ratio (z) = -0.01963 0.63853
#
# Static dielectric constant tensor:
#      x y z
#    x 1.723280 0.000000 0.000000 
#    y 0.000000 1.693420 0.000000 
#    z 0.000000 0.000000 1.654840 
# 
# From -- ./inp_files/31382.got.cif
#   From: 2010.05.17/outbox.cif.g08.bks.cpg/sg53_16_cif.got.tgz:31382.got - 2010.06.03 12:45:16.
