data_PCOD9415423
_publ_section_title
;
Structure prediction by ZEFSAII (Michael W. Deem and Ramdas Pophale) SiO2 
 PCOD9415423
Probable space group: P M N A
;
_chemical_formula_sum "Si O2"
_cell_formula_units_Z 56
_cell_length_a 9.080312
_cell_length_b 13.680285
_cell_length_c 24.457369
_cell_angle_alpha 90.000000
_cell_angle_beta 90.000000
_cell_angle_gamma 90.000000
_cell_volume 3038.125097
_symmetry_space_group_name_H-M "P M N A"
_symmetry_group_IT_number 53
_symmetry_cell_setting 'orthorhombic'
loop_
_space_group_symop_operation_xyz
x,y,z
1/2-x,-y,1/2+z
x,-y,-z
1/2-x,y,1/2-z
-x,-y,-z
1/2+x,y,1/2-z
-x,y,z
1/2+x,-y,1/2+z
loop_
_atom_site_type_symbol
_atom_site_label
_atom_site_fract_x
_atom_site_fract_y
_atom_site_fract_z
Si Si1 0.676260 0.151756 0.420458
Si Si2 0.177111 0.476072 0.193161
Si Si3 0.675091 0.837741 0.309100
Si Si4 0.326955 0.950916 0.095363
Si Si5 0.176219 0.248515 0.193782
Si Si6 0.172058 0.242395 0.520545
Si Si7 0.325067 0.352357 0.615143
O O1 0.500000 0.145630 0.424841
O O2 0.716385 0.187365 0.359562
O O3 0.738494 0.226696 0.465094
O O4 0.749434 0.046303 0.428572
O O5 0.250000 0.508603 0.250000
O O6 0.216885 0.362581 0.184712
O O7 0.220740 0.546913 0.143815
O O8 0.000000 0.482621 0.198420
O O9 0.750000 0.836414 0.250000
O O10 0.500000 0.854009 0.304426
O O11 0.748085 0.918418 0.348536
O O12 0.697815 0.734409 0.340447
O O13 0.500000 0.969232 0.104129
O O14 0.313188 0.859308 0.054355
O O15 0.250000 0.214914 0.250000
O O16 0.000000 0.244344 0.200043
O O17 0.238258 0.323896 0.560708
O O18 0.000000 0.258844 0.509828
O O19 0.500000 0.355175 0.603368
#
# Coordination Sequence:
#
# PCOD9415423 Si02
#       7
#     8   8   8   8   8   8   8
#     4  11  22  36  55  77 102 135 173 212 258 308
#     4   9  17  32  54  79 106 136 171 209 252 302
#     4  10  19  31  48  74 106 137 170 208 254 306
#     4  10  21  36  53  74 101 134 173 216 259 305
#     4   9  20  37  56  79 105 134 170 211 253 300
#     4  10  21  36  54  77 104 134 171 213 256 305
#     4   9  18  32  52  77 105 137 170 207 253 304
#
# _framework density 18.43242
#
# number of rings (size 3 to 8) (size 9 to 14) (size 15 to 20)
#    0.000    2.286    0.000    2.571    0.000    6.286 
#    0.000    2.143    0.000    4.286    0.000    0.000 
#    0.000    0.000    0.000    0.000    0.000    0.000 
#
# Total GULP energy -312653.990389 kJ/mol
# GULP energy per Si atom -5583.106971 kJ/mol
# Density = 1.839047 g / cm^3
# Si number density = 18.432420 Si / 1000 Ang^3
#
#
#
# Elastic Constant Matrix: (Units=GPa)
#
#
# Indices 1 2 3 4 5 6 
#
# 1 56.9346 11.8555 39.0671 0.0000 0.0000 0.0000
# 2 11.8555 21.2488 -2.5697 0.0000 0.0000 0.0000
# 3 39.0671 -2.5697 72.7056 0.0000 0.0000 0.0000
# 4 0.0000 0.0000 0.0000 19.3901 0.0000 0.0000
# 5 0.0000 0.0000 0.0000 0.0000 35.0344 0.0000
# 6 0.0000 0.0000 0.0000 0.0000 0.0000 -84.7679
#
#
#
# Elastic Compliance Matrix: (Units=1/GPa)
#
#
# Indices 1 2 3 4 5 6 
#
# 1 0.036151 -0.022616 -0.020224 0.000000 0.000000 0.000000
# 2 -0.022616 0.061412 0.014323 0.000000 0.000000 0.000000
# 3 -0.020224 0.014323 0.025127 0.000000 0.000000 0.000000
# 4 0.000000 0.000000 0.000000 0.051573 0.000000 0.000000
# 5 0.000000 0.000000 0.000000 0.000000 0.028543 0.000000
# 6 0.000000 0.000000 0.000000 0.000000 0.000000 -0.011797
#
#
# Mechanical properties :
#
#
# Convention : Reuss Voigt Hill
#
# Bulk Modulus (GPa) = 15.23105 27.51054 21.37079
# Shear Modulus (GPa) = 18.52341 0.76706 9.64524
#
# Velocity S-wave (km/s) = 3.17351 0.64580 2.29000
# Velocity P-wave (km/s) = 4.65933 3.93873 4.31410
#
# Compressibility (1/GPa) = 0.06565538
#
# Stress axis : x y z
#
# Youngs Moduli (GPa) = 27.66199 16.28353 39.79704
#
# Poissons Ratio (x) = 0.36826 0.80487
# Poissons Ratio (y) = 0.62559 -0.57000
# Poissons Ratio (z) = 0.55944 -0.23322
#
# Static dielectric constant tensor:
#      x y z
#    x 1.610890 0.000000 0.000000 
#    y 0.000000 1.636480 0.000000 
#    z 0.000000 0.000000 1.615980 
# 
# From -- ./inp_files/30742.got.cif
#   From: 2010.05.17/outbox.cif.g08.bks.cpg/sg53_16_cif.got.tgz:30742.got - 2010.06.03 12:45:16.
