data_PCOD9415943
_publ_section_title
;
Structure prediction by ZEFSAII (Michael W. Deem and Ramdas Pophale) SiO2 
 PCOD9415943
Probable space group: P M N A
;
_chemical_formula_sum "Si O2"
_cell_formula_units_Z 48
_cell_length_a 8.090363
_cell_length_b 32.632663
_cell_length_c 9.623497
_cell_angle_alpha 90.000000
_cell_angle_beta 90.000000
_cell_angle_gamma 90.000000
_cell_volume 2540.700303
_symmetry_space_group_name_H-M "P M N A"
_symmetry_group_IT_number 53
_symmetry_cell_setting 'orthorhombic'
loop_
_space_group_symop_operation_xyz
x,y,z
1/2-x,-y,1/2+z
x,-y,-z
1/2-x,y,1/2-z
-x,-y,-z
1/2+x,y,1/2-z
-x,y,z
1/2+x,-y,1/2+z
loop_
_atom_site_type_symbol
_atom_site_label
_atom_site_fract_x
_atom_site_fract_y
_atom_site_fract_z
Si Si1 0.197815 0.782984 0.088900
Si Si2 0.800458 0.462153 0.590861
Si Si3 0.299960 0.038456 0.588856
Si Si4 0.800822 0.872405 0.088282
Si Si5 0.696504 0.705333 0.909335
Si Si6 0.699927 0.370588 0.909913
O O1 0.250000 0.777584 0.250000
O O2 0.258481 0.827938 0.036634
O O3 0.000000 0.783465 0.086712
O O4 0.256325 0.745935 0.994008
O O5 0.737506 0.500000 0.500000
O O6 0.750000 0.468018 0.750000
O O7 0.743038 0.416424 0.549178
O O8 0.000000 0.462035 0.582399
O O9 0.250000 0.034601 0.750000
O O10 0.500000 0.038342 0.583490
O O11 0.242585 0.083290 0.533843
O O12 0.238496 0.000000 0.500000
O O13 0.750000 0.872663 0.250000
O O14 0.000000 0.872348 0.078234
O O15 0.750000 0.707040 0.750000
O O16 0.500000 0.702216 0.911368
O O17 0.763471 0.665322 0.990460
O O18 0.750000 0.363195 0.750000
O O19 0.500000 0.370575 0.914245
#
# Coordination Sequence:
#
# PCOD9415943 Si02
#       6
#     8   8   8   8   8   8
#     4  10  19  33  54  77 100 128 165 206 248 295
#     4   9  18  33  52  75 103 132 164 202 243 289
#     4   9  17  30  48  70  97 127 160 198 239 285
#     4   8  15  28  47  70  95 124 159 199 239 282
#     4  11  23  37  52  73 102 133 166 205 252 300
#     4   9  19  35  54  75  99 130 167 205 243 288
#
# _framework density 18.892430000000001
#
# number of rings (size 3 to 8) (size 9 to 14) (size 15 to 20)
#    0.000    2.667    0.000    1.500    0.000    4.667 
#    0.000    0.833    0.000    2.000    0.000    0.000 
#    0.000    0.000    0.000    0.000    0.000    0.000 
#
# Total GULP energy -267478.466907 kJ/mol
# GULP energy per Si atom -5572.468061 kJ/mol
# Density = 1.884943 g / cm^3
# Si number density = 18.892430 Si / 1000 Ang^3
#
#
#
# Elastic Constant Matrix: (Units=GPa)
#
#
# Indices 1 2 3 4 5 6 
#
# 1 17.1527 19.4324 7.5847 0.0000 0.0000 0.0000
# 2 19.4324 245.0084 111.2444 0.0000 0.0000 0.0000
# 3 7.5847 111.2444 86.5037 0.0000 0.0000 0.0000
# 4 0.0000 0.0000 0.0000 29.4723 0.0000 0.0000
# 5 0.0000 0.0000 0.0000 0.0000 26.0072 0.0000
# 6 0.0000 0.0000 0.0000 0.0000 0.0000 15.6235
#
#
#
# Elastic Compliance Matrix: (Units=1/GPa)
#
#
# Indices 1 2 3 4 5 6 
#
# 1 0.064231 -0.006098 0.002210 0.000000 0.000000 0.000000
# 2 -0.006098 0.010388 -0.012824 0.000000 0.000000 0.000000
# 3 0.002210 -0.012824 0.027858 0.000000 0.000000 0.000000
# 4 0.000000 0.000000 0.000000 0.033930 0.000000 0.000000
# 5 0.000000 0.000000 0.000000 0.000000 0.038451 0.000000
# 6 0.000000 0.000000 0.000000 0.000000 0.000000 0.064006
#
#
# Mechanical properties :
#
#
# Convention : Reuss Voigt Hill
#
# Bulk Modulus (GPa) = 14.48159 69.46531 41.97345
# Shear Modulus (GPa) = 16.93157 28.24748 22.58953
#
# Velocity S-wave (km/s) = 2.99692 3.87094 3.46163
# Velocity P-wave (km/s) = 4.43366 7.53841 6.18405
#
# Compressibility (1/GPa) = 0.06905319
#
# Stress axis : x y z
#
# Youngs Moduli (GPa) = 15.56882 96.26605 35.89573
#
# Poissons Ratio (x) = 0.58701 -0.07933
# Poissons Ratio (y) = 0.09494 0.46033
# Poissons Ratio (z) = -0.03441 1.23454
#
# Static dielectric constant tensor:
#      x y z
#    x 1.678490 0.000000 0.000000 
#    y 0.000000 1.730420 0.000000 
#    z 0.000000 0.000000 1.593450 
# 
# From -- ./inp_files/6695.got.cif
#   From: 2010.05.17/outbox.cif.g08.bks.cpg/sg53_4_cif.got.tgz:6695.got - 2010.06.03 12:45:16.
