data_PCOD9415657
_publ_section_title
;
Structure prediction by ZEFSAII (Michael W. Deem and Ramdas Pophale) SiO2 
 PCOD9415657
Probable space group: P M N A
;
_chemical_formula_sum "Si O2"
_cell_formula_units_Z 46
_cell_length_a 14.470518
_cell_length_b 28.006008
_cell_length_c 5.190745
_cell_angle_alpha 90.000000
_cell_angle_beta 90.000000
_cell_angle_gamma 90.000000
_cell_volume 2103.608808
_symmetry_space_group_name_H-M "P M N A"
_symmetry_group_IT_number 53
_symmetry_cell_setting 'orthorhombic'
loop_
_space_group_symop_operation_xyz
x,y,z
1/2-x,-y,1/2+z
x,-y,-z
1/2-x,y,1/2-z
-x,-y,-z
1/2+x,y,1/2-z
-x,y,z
1/2+x,-y,1/2+z
loop_
_atom_site_type_symbol
_atom_site_label
_atom_site_fract_x
_atom_site_fract_y
_atom_site_fract_z
Si Si1 0.112215 0.357999 0.396354
Si Si2 0.816508 0.000000 0.000000
Si Si3 0.816286 0.102663 0.000168
Si Si4 0.314981 0.205950 0.499564
Si Si5 0.390505 0.307630 0.603682
Si Si6 0.000000 0.500000 0.000000
Si Si7 0.354825 0.456832 0.823535
O O1 0.147340 0.343510 0.114611
O O2 0.138877 0.408751 0.514093
O O3 0.000000 0.357383 0.383640
O O4 0.144454 0.319409 0.610343
O O5 0.867384 0.948643 0.000145
O O6 0.750000 0.000041 0.250000
O O7 0.750000 0.102649 0.750000
O O8 0.750000 0.102712 0.250000
O O9 0.865568 0.154213 0.003603
O O10 0.250000 0.208640 0.250000
O O11 0.374478 0.253557 0.517666
O O12 0.250000 0.206213 0.750000
O O13 0.500000 0.315714 0.616066
O O14 0.919547 0.539695 0.075544
O O15 0.250000 0.466134 0.750000
O O16 0.392790 0.500000 0.000000
#
# Coordination Sequence:
#
# PCOD9415657 Si02
#       7
#     8   4   8   8   8   2   8
#     4  10  23  40  63  85 117 150 187 235 287 329
#     4   8  12  20  34  56  89 124 165 208 264 322
#     4   8  14  23  38  62  92 129 166 215 268 321
#     4  10  19  32  51  75 106 138 179 227 278 323
#     4  10  22  39  58  82 110 149 185 226 278 338
#     4  12  26  48  72  92 140 160 194 260 298 344
#     4  12  27  44  70  99 124 164 204 242 302 371
#
# _framework density 21.867183000000001
#
# number of rings (size 3 to 8) (size 9 to 14) (size 15 to 20)
#    0.000    2.087    1.739    1.304    2.435    2.087 
#    0.000    0.000    0.000    0.000    0.000    0.609 
#    0.000    0.000    0.000   46.783    0.000    1.739 
#
# Total GULP energy -256250.510933 kJ/mol
# GULP energy per Si atom -5570.663281 kJ/mol
# Density = 2.181741 g / cm^3
# Si number density = 21.867183 Si / 1000 Ang^3
#
#
#
# Elastic Constant Matrix: (Units=GPa)
#
#
# Indices 1 2 3 4 5 6 
#
# 1 62.4074 -8.9111 12.0651 0.0000 0.0000 0.0000
# 2 -8.9111 135.6278 4.7929 0.0000 0.0000 0.0000
# 3 12.0651 4.7929 122.6112 0.0000 0.0000 0.0000
# 4 0.0000 0.0000 0.0000 34.9344 0.0000 0.0000
# 5 0.0000 0.0000 0.0000 0.0000 23.0225 0.0000
# 6 0.0000 0.0000 0.0000 0.0000 0.0000 32.9721
#
#
#
# Elastic Compliance Matrix: (Units=1/GPa)
#
#
# Indices 1 2 3 4 5 6 
#
# 1 0.016510 0.001144 -0.001669 0.000000 0.000000 0.000000
# 2 0.001144 0.007463 -0.000404 0.000000 0.000000 0.000000
# 3 -0.001669 -0.000404 0.008336 0.000000 0.000000 0.000000
# 4 0.000000 0.000000 0.000000 0.028625 0.000000 0.000000
# 5 0.000000 0.000000 0.000000 0.000000 0.043436 0.000000
# 6 0.000000 0.000000 0.000000 0.000000 0.000000 0.030329
#
#
# Mechanical properties :
#
#
# Convention : Reuss Voigt Hill
#
# Bulk Modulus (GPa) = 32.84223 37.39336 35.11780
# Shear Modulus (GPa) = 34.08157 39.03245 36.55701
#
# Velocity S-wave (km/s) = 3.95216 4.22948 4.09317
# Velocity P-wave (km/s) = 5.98979 6.40224 6.19945
#
# Compressibility (1/GPa) = 0.03044860
#
# Stress axis : x y z
#
# Youngs Moduli (GPa) = 60.57019 134.00245 119.96272
#
# Poissons Ratio (x) = -0.15326 0.20025
# Poissons Ratio (y) = -0.06928 0.04850
# Poissons Ratio (z) = 0.10111 0.05417
#
# Static dielectric constant tensor:
#      x y z
#    x 1.767120 0.000000 0.000000 
#    y 0.000000 1.868630 0.000000 
#    z 0.000000 0.000000 2.017060 
# 
# From -- ./inp_files/2255.got.cif
#   From: 2010.05.17/outbox.cif.g08.bks.cpg/sg53_2_cif.got.tgz:2255.got - 2010.06.03 12:45:16.
