data_PCOD9415198
_publ_section_title
;
Structure prediction by ZEFSAII (Michael W. Deem and Ramdas Pophale) SiO2 
 PCOD9415198
Probable space group: P M N A
;
_chemical_formula_sum "Si O2"
_cell_formula_units_Z 64
_cell_length_a 7.819535
_cell_length_b 18.644050
_cell_length_c 22.104731
_cell_angle_alpha 90.000000
_cell_angle_beta 90.000000
_cell_angle_gamma 90.000000
_cell_volume 3222.600136
_symmetry_space_group_name_H-M "P M N A"
_symmetry_group_IT_number 53
_symmetry_cell_setting 'orthorhombic'
loop_
_space_group_symop_operation_xyz
x,y,z
1/2-x,-y,1/2+z
x,-y,-z
1/2-x,y,1/2-z
-x,-y,-z
1/2+x,y,1/2-z
-x,y,z
1/2+x,-y,1/2+z
loop_
_atom_site_type_symbol
_atom_site_label
_atom_site_fract_x
_atom_site_fract_y
_atom_site_fract_z
Si Si1 0.702852 0.414370 0.344102
Si Si2 0.208149 0.057308 0.449762
Si Si3 0.704743 0.739904 0.853446
Si Si4 0.294158 0.101895 0.182342
Si Si5 0.693254 0.319883 0.917295
Si Si6 0.800119 0.418264 0.020471
Si Si7 0.202071 0.576110 0.315790
Si Si8 0.208704 0.781620 0.514303
O O1 0.500000 0.414601 0.345637
O O2 0.752939 0.335302 0.321305
O O3 0.771230 0.415686 0.412353
O O4 0.749671 0.491981 0.318127
O O5 0.263894 0.058889 0.378520
O O6 0.252135 0.135948 0.475015
O O7 0.000000 0.051606 0.448039
O O8 0.268508 0.000000 0.500000
O O9 0.500000 0.744517 0.855094
O O10 0.767587 0.814893 0.824692
O O11 0.765642 0.741240 0.923950
O O12 0.250000 0.075782 0.250000
O O13 0.500000 0.103347 0.178865
O O14 0.500000 0.300745 0.897599
O O15 0.777545 0.369266 0.865669
O O16 0.690517 0.373046 0.974371
O O17 0.772948 0.250937 0.950861
O O18 0.000000 0.394432 0.018734
O O19 0.799910 0.500000 0.000000
O O20 0.250000 0.603464 0.250000
O O21 0.000000 0.576742 0.325082
O O22 0.000000 0.776687 0.512528
#
# Coordination Sequence:
#
# PCOD9415198 Si02
#       8
#     8   8   8   8   8   8   8   8
#     4  11  21  32  48  70  97 127 161 202 247 295
#     4   8  14  27  50  79 107 133 165 204 243 286
#     4   9  17  30  47  68  98 131 163 200 240 286
#     4   9  18  31  49  74 103 138 172 203 243 290
#     4  10  19  31  51  72  89 116 157 202 244 287
#     4  10  19  30  45  69  98 123 150 192 246 292
#     4  11  24  38  50  64  85 121 166 208 254 301
#     4   8  14  26  46  73  99 120 151 199 244 283
#
# _framework density 19.859739000000001
#
# number of rings (size 3 to 8) (size 9 to 14) (size 15 to 20)
#    0.000    2.500    2.500    2.250    0.000    2.250 
#    0.000    1.250    0.000    1.125    0.000    0.000 
#    0.000    0.000    0.000    0.000    0.000    0.000 
#
# Total GULP energy -356318.675264 kJ/mol
# GULP energy per Si atom -5567.479301 kJ/mol
# Density = 1.981454 g / cm^3
# Si number density = 19.859739 Si / 1000 Ang^3
#
#
#
# Elastic Constant Matrix: (Units=GPa)
#
#
# Indices 1 2 3 4 5 6 
#
# 1 26.3419 3.7058 1.6243 0.0000 0.0000 0.0000
# 2 3.7058 87.5983 64.1542 0.0000 0.0000 0.0000
# 3 1.6243 64.1542 153.8761 0.0000 0.0000 0.0000
# 4 0.0000 0.0000 0.0000 4.6934 0.0000 0.0000
# 5 0.0000 0.0000 0.0000 0.0000 1.7606 0.0000
# 6 0.0000 0.0000 0.0000 0.0000 0.0000 78.1575
#
#
#
# Elastic Compliance Matrix: (Units=1/GPa)
#
#
# Indices 1 2 3 4 5 6 
#
# 1 0.038206 -0.001902 0.000389 0.000000 0.000000 0.000000
# 2 -0.001902 0.016528 -0.006871 0.000000 0.000000 0.000000
# 3 0.000389 -0.006871 0.009359 0.000000 0.000000 0.000000
# 4 0.000000 0.000000 0.000000 0.213064 0.000000 0.000000
# 5 0.000000 0.000000 0.000000 0.000000 0.567997 0.000000
# 6 0.000000 0.000000 0.000000 0.000000 0.000000 0.012795
#
#
# Mechanical properties :
#
#
# Convention : Reuss Voigt Hill
#
# Bulk Modulus (GPa) = 21.12940 45.19831 33.16385
# Shear Modulus (GPa) = 5.61488 30.14444 17.87966
#
# Velocity S-wave (km/s) = 1.68327 3.90021 3.00375
# Velocity P-wave (km/s) = 3.80004 6.56432 5.36333
#
# Compressibility (1/GPa) = 0.04732743
#
# Stress axis : x y z
#
# Youngs Moduli (GPa) = 26.17405 60.50261 106.84617
#
# Poissons Ratio (x) = 0.11505 -0.04162
# Poissons Ratio (y) = 0.04977 0.73413
# Poissons Ratio (z) = -0.01019 0.41571
#
# Static dielectric constant tensor:
#      x y z
#    x 1.740380 0.000000 0.000000 
#    y 0.000000 1.746180 0.000000 
#    z 0.000000 0.000000 1.746890 
# 
# From -- ./inp_files/34429.got.cif
#   From: 2010.05.17/outbox.cif.g08.bks.cpg/sg53_18_cif.got.tgz:34429.got - 2010.06.03 12:45:16.
