data_PCOD9415674
_publ_section_title
;
Structure prediction by ZEFSAII (Michael W. Deem and Ramdas Pophale) SiO2 
 PCOD9415674
Probable space group: P M N A
;
_chemical_formula_sum "Si O2"
_cell_formula_units_Z 56
_cell_length_a 8.628626
_cell_length_b 18.441563
_cell_length_c 19.466826
_cell_angle_alpha 90.000000
_cell_angle_beta 90.000000
_cell_angle_gamma 90.000000
_cell_volume 3097.665500
_symmetry_space_group_name_H-M "P M N A"
_symmetry_group_IT_number 53
_symmetry_cell_setting 'orthorhombic'
loop_
_space_group_symop_operation_xyz
x,y,z
1/2-x,-y,1/2+z
x,-y,-z
1/2-x,y,1/2-z
-x,-y,-z
1/2+x,y,1/2-z
-x,y,z
1/2+x,-y,1/2+z
loop_
_atom_site_type_symbol
_atom_site_label
_atom_site_fract_x
_atom_site_fract_y
_atom_site_fract_z
Si Si1 0.814315 0.479392 0.327766
Si Si2 0.812596 0.800111 0.563600
Si Si3 0.686995 0.319226 0.172738
Si Si4 0.687193 0.229000 0.587051
Si Si5 0.185729 0.370397 0.827633
Si Si6 0.812901 0.966787 0.574001
Si Si7 0.685565 0.912560 0.326667
O O1 0.750000 0.478273 0.250000
O O2 0.771277 0.399717 0.355457
O O3 0.744703 0.553044 0.358081
O O4 0.000000 0.485491 0.326825
O O5 0.759764 0.744309 0.622278
O O6 0.753260 0.776370 0.489196
O O7 0.763725 0.882981 0.577652
O O8 0.000000 0.799306 0.562545
O O9 0.750000 0.311210 0.250000
O O10 0.500000 0.317045 0.176636
O O11 0.500000 0.228449 0.583663
O O12 0.734797 0.301944 0.626769
O O13 0.736930 0.158354 0.630398
O O14 0.250000 0.362692 0.750000
O O15 0.000000 0.372120 0.823647
O O16 0.000000 0.969645 0.578337
O O17 0.767658 0.000000 0.500000
O O18 0.743518 0.016653 0.633225
O O19 0.750000 0.909748 0.250000
O O20 0.500000 0.912492 0.324345
#
# Coordination Sequence:
#
# PCOD9415674 Si02
#       7
#     8   8   8   8   8   8   8
#     4   9  16  29  50  75 103 136 175 217 265 317
#     4  10  21  37  58  81 108 142 180 219 266 324
#     4   9  19  35  55  80 107 137 176 222 268 317
#     4  10  22  37  53  78 110 144 181 220 265 320
#     4  10  19  32  51  77 107 139 179 223 266 316
#     4  10  20  37  59  82 108 142 181 222 271 326
#     4  11  23  38  58  83 112 144 182 226 271 320
#
# _framework density 18.078132
#
# number of rings (size 3 to 8) (size 9 to 14) (size 15 to 20)
#    0.000    2.143    1.429    2.571    0.000    4.286 
#    0.000    2.143    0.000    4.286    0.000    0.000 
#    0.000    0.000    0.000    0.000    0.000    0.000 
#
# Total GULP energy -312457.399961 kJ/mol
# GULP energy per Si atom -5579.596428 kJ/mol
# Density = 1.803699 g / cm^3
# Si number density = 18.078132 Si / 1000 Ang^3
#
#
#
# Elastic Constant Matrix: (Units=GPa)
#
#
# Indices 1 2 3 4 5 6 
#
# 1 23.4332 38.2890 23.0832 0.0000 0.0000 0.0000
# 2 38.2890 211.3245 93.9651 0.0000 0.0000 0.0000
# 3 23.0832 93.9651 118.5180 0.0000 0.0000 0.0000
# 4 0.0000 0.0000 0.0000 27.4638 0.0000 0.0000
# 5 0.0000 0.0000 0.0000 0.0000 26.1101 0.0000
# 6 0.0000 0.0000 0.0000 0.0000 0.0000 21.1862
#
#
#
# Elastic Compliance Matrix: (Units=1/GPa)
#
#
# Indices 1 2 3 4 5 6 
#
# 1 0.062432 -0.009120 -0.004929 0.000000 0.000000 0.000000
# 2 -0.009120 0.008641 -0.005074 0.000000 0.000000 0.000000
# 3 -0.004929 -0.005074 0.013421 0.000000 0.000000 0.000000
# 4 0.000000 0.000000 0.000000 0.036412 0.000000 0.000000
# 5 0.000000 0.000000 0.000000 0.000000 0.038299 0.000000
# 6 0.000000 0.000000 0.000000 0.000000 0.000000 0.047201
#
#
# Mechanical properties :
#
#
# Convention : Reuss Voigt Hill
#
# Bulk Modulus (GPa) = 21.62331 73.77224 47.69778
# Shear Modulus (GPa) = 19.22583 28.14790 23.68686
#
# Velocity S-wave (km/s) = 3.26465 3.95018 3.62366
# Velocity P-wave (km/s) = 5.11836 7.85502 6.62944
#
# Compressibility (1/GPa) = 0.04624638
#
# Stress axis : x y z
#
# Youngs Moduli (GPa) = 16.01755 115.72921 74.51174
#
# Poissons Ratio (x) = 1.05547 0.36725
# Poissons Ratio (y) = 0.14608 0.37811
# Poissons Ratio (z) = 0.07895 0.58727
#
# Static dielectric constant tensor:
#      x y z
#    x 1.615460 0.000000 0.000000 
#    y 0.000000 1.650110 0.000000 
#    z 0.000000 0.000000 1.569270 
# 
# From -- ./inp_files/31059.got.cif
#   From: 2010.05.17/outbox.cif.g08.bks.cpg/sg53_16_cif.got.tgz:31059.got - 2010.06.03 12:45:16.
