data_PCOD9415118
_publ_section_title
;
Structure prediction by ZEFSAII (Michael W. Deem and Ramdas Pophale) SiO2 
 PCOD9415118
Probable space group: P M N A
;
_chemical_formula_sum "Si O2"
_cell_formula_units_Z 48
_cell_length_a 9.006267
_cell_length_b 11.795707
_cell_length_c 27.290871
_cell_angle_alpha 90.000000
_cell_angle_beta 90.000000
_cell_angle_gamma 90.000000
_cell_volume 2899.253505
_symmetry_space_group_name_H-M "P M N A"
_symmetry_group_IT_number 53
_symmetry_cell_setting 'orthorhombic'
loop_
_space_group_symop_operation_xyz
x,y,z
1/2-x,-y,1/2+z
x,-y,-z
1/2-x,y,1/2-z
-x,-y,-z
1/2+x,y,1/2-z
-x,y,z
1/2+x,-y,1/2+z
loop_
_atom_site_type_symbol
_atom_site_label
_atom_site_fract_x
_atom_site_fract_y
_atom_site_fract_z
Si Si1 0.333408 0.981560 0.703655
Si Si2 0.323038 0.151365 0.865019
Si Si3 0.822356 0.355643 0.698195
Si Si4 0.820431 0.984876 0.943155
Si Si5 0.177100 0.378037 0.302421
Si Si6 0.832407 0.785817 0.876950
O O1 0.250000 0.933041 0.750000
O O2 0.500000 0.022161 0.714652
O O3 0.344020 0.884668 0.663445
O O4 0.230576 0.078934 0.681673
O O5 0.500000 0.145970 0.871404
O O6 0.278932 0.278264 0.848400
O O7 0.246666 0.086875 0.910532
O O8 0.750000 0.320241 0.750000
O O9 0.788428 0.488362 0.690824
O O10 0.000000 0.344212 0.703504
O O11 0.772609 0.860478 0.922669
O O12 0.000000 0.988147 0.937516
O O13 0.783461 0.000000 0.000000
O O14 0.250000 0.344534 0.250000
O O15 0.237866 0.309323 0.349281
O O16 0.000000 0.362994 0.298512
O O17 0.000000 0.744237 0.887845
#
# Coordination Sequence:
#
# PCOD9415118 Si02
#       6
#     8   8   8   8   8   8
#     4  10  19  29  42  64  95 126 155 190 233 280
#     4  10  19  31  48  70  95 122 156 195 235 283
#     4   9  19  32  46  68  98 131 163 195 228 268
#     4   9  19  36  55  73  94 120 152 196 248 293
#     4  10  19  31  47  68  97 131 164 194 227 269
#     4   9  18  31  47  68  92 119 153 192 234 280
#
# _framework density 16.555986000000001
#
# number of rings (size 3 to 8) (size 9 to 14) (size 15 to 20)
#    0.000    2.500    0.000    3.500    0.000    8.333 
#    0.000    0.000    0.000    1.000    0.000    7.000 
#    0.000    0.000    0.000    0.000    0.000    0.000 
#
# Total GULP energy -267224.057255 kJ/mol
# GULP energy per Si atom -5567.167859 kJ/mol
# Density = 1.651830 g / cm^3
# Si number density = 16.555986 Si / 1000 Ang^3
#
#
#
# Elastic Constant Matrix: (Units=GPa)
#
#
# Indices 1 2 3 4 5 6 
#
# 1 35.8280 30.3343 33.5582 0.0000 0.0000 0.0000
# 2 30.3343 87.6483 49.2855 0.0000 0.0000 0.0000
# 3 33.5582 49.2855 85.9648 0.0000 0.0000 0.0000
# 4 0.0000 0.0000 0.0000 23.8621 0.0000 0.0000
# 5 0.0000 0.0000 0.0000 0.0000 18.2255 0.0000
# 6 0.0000 0.0000 0.0000 0.0000 0.0000 22.7986
#
#
#
# Elastic Compliance Matrix: (Units=1/GPa)
#
#
# Indices 1 2 3 4 5 6 
#
# 1 0.048414 -0.009044 -0.013714 0.000000 0.000000 0.000000
# 2 -0.009044 0.018527 -0.007091 0.000000 0.000000 0.000000
# 3 -0.013714 -0.007091 0.021052 0.000000 0.000000 0.000000
# 4 0.000000 0.000000 0.000000 0.041907 0.000000 0.000000
# 5 0.000000 0.000000 0.000000 0.000000 0.054868 0.000000
# 6 0.000000 0.000000 0.000000 0.000000 0.000000 0.043862
#
#
# Mechanical properties :
#
#
# Convention : Reuss Voigt Hill
#
# Bulk Modulus (GPa) = 35.34383 48.42188 41.88286
# Shear Modulus (GPa) = 16.79201 19.39478 18.09339
#
# Velocity S-wave (km/s) = 3.18819 3.42638 3.30943
# Velocity P-wave (km/s) = 5.91161 6.70554 6.32106
#
# Compressibility (1/GPa) = 0.02829348
#
# Stress axis : x y z
#
# Youngs Moduli (GPa) = 20.65527 53.97599 47.50155
#
# Poissons Ratio (x) = 0.48815 0.65145
# Poissons Ratio (y) = 0.18680 0.33685
# Poissons Ratio (z) = 0.28327 0.38276
#
# Static dielectric constant tensor:
#      x y z
#    x 1.577760 0.000000 0.000000 
#    y 0.000000 1.586160 0.000000 
#    z 0.000000 0.000000 1.591680 
# 
# From -- ./inp_files/33858.got.cif
#   From: 2010.05.17/outbox.cif.g08.bks.cpg/sg53_17_cif.got.tgz:33858.got - 2010.06.03 12:45:16.
