data_PCOD9415207
_publ_section_title
;
Structure prediction by ZEFSAII (Michael W. Deem and Ramdas Pophale) SiO2 
 PCOD9415207
Probable space group: P M N A
;
_chemical_formula_sum "Si O2"
_cell_formula_units_Z 64
_cell_length_a 8.871347
_cell_length_b 15.999623
_cell_length_c 29.422061
_cell_angle_alpha 90.000000
_cell_angle_beta 90.000000
_cell_angle_gamma 90.000000
_cell_volume 4176.114599
_symmetry_space_group_name_H-M "P M N A"
_symmetry_group_IT_number 53
_symmetry_cell_setting 'orthorhombic'
loop_
_space_group_symop_operation_xyz
x,y,z
1/2-x,-y,1/2+z
x,-y,-z
1/2-x,y,1/2-z
-x,-y,-z
1/2+x,y,1/2-z
-x,y,z
1/2+x,-y,1/2+z
loop_
_atom_site_type_symbol
_atom_site_label
_atom_site_fract_x
_atom_site_fract_y
_atom_site_fract_z
Si Si1 0.317327 0.822717 0.948648
Si Si2 0.820018 0.178764 0.950999
Si Si3 0.318190 0.337497 0.609417
Si Si4 0.680845 0.406933 0.202240
Si Si5 0.326438 0.006286 0.944887
Si Si6 0.680502 0.396929 0.798415
Si Si7 0.818281 0.503258 0.947184
Si Si8 0.182129 0.340782 0.393740
O O1 0.500000 0.824912 0.952276
O O2 0.270756 0.914479 0.930515
O O3 0.272571 0.746896 0.916085
O O4 0.251995 0.809430 0.999087
O O5 0.774358 0.253798 0.917592
O O6 0.000000 0.180475 0.955776
O O7 0.767941 0.088090 0.933109
O O8 0.500000 0.337841 0.614083
O O9 0.244702 0.347088 0.658736
O O10 0.275663 0.418445 0.579188
O O11 0.750000 0.379741 0.250000
O O12 0.500000 0.403218 0.205447
O O13 0.721846 0.504737 0.194860
O O14 0.730199 0.354688 0.158369
O O15 0.500000 0.017949 0.930533
O O16 0.326016 0.000000 0.000000
O O17 0.750000 0.371158 0.750000
O O18 0.500000 0.391108 0.796784
O O19 0.746453 0.582840 0.922897
O O20 0.000000 0.510428 0.945393
O O21 0.773550 0.500000 0.000000
O O22 0.000000 0.345083 0.394826
#
# Coordination Sequence:
#
# PCOD9415207 Si02
#       8
#     8   8   8   8   8   8   8   8
#     4   9  18  31  47  66  93 125 154 190 231 274
#     4  10  19  30  46  68  94 123 156 194 230 269
#     4  10  20  32  45  65  94 125 156 189 229 273
#     4   9  18  31  47  67  89 114 149 190 229 269
#     4   8  15  29  46  65  89 119 154 190 232 276
#     4  10  19  32  50  69  90 117 153 194 235 275
#     4  10  20  32  44  61  91 128 158 185 220 264
#     4  10  19  32  47  67  91 119 156 191 224 267
#
# _framework density 15.325251
#
# number of rings (size 3 to 8) (size 9 to 14) (size 15 to 20)
#    0.000    2.500    1.250    2.250    0.000    6.000 
#    0.000    0.000    0.000    0.000    0.000    0.875 
#    0.000    4.000    0.000    0.000    0.000    0.000 
#
# Total GULP energy -356771.085140 kJ/mol
# GULP energy per Si atom -5574.548205 kJ/mol
# Density = 1.529037 g / cm^3
# Si number density = 15.325251 Si / 1000 Ang^3
#
#
#
# Elastic Constant Matrix: (Units=GPa)
#
#
# Indices 1 2 3 4 5 6 
#
# 1 15.4184 30.1523 28.5552 0.0000 0.0000 0.0000
# 2 30.1523 133.7678 72.7457 0.0000 0.0000 0.0000
# 3 28.5552 72.7457 121.8687 0.0000 0.0000 0.0000
# 4 0.0000 0.0000 0.0000 8.2276 0.0000 0.0000
# 5 0.0000 0.0000 0.0000 0.0000 21.9051 0.0000
# 6 0.0000 0.0000 0.0000 0.0000 0.0000 22.3070
#
#
#
# Elastic Compliance Matrix: (Units=1/GPa)
#
#
# Indices 1 2 3 4 5 6 
#
# 1 0.146499 -0.021254 -0.021639 0.000000 0.000000 0.000000
# 2 -0.021254 0.014152 -0.003468 0.000000 0.000000 0.000000
# 3 -0.021639 -0.003468 0.015346 0.000000 0.000000 0.000000
# 4 0.000000 0.000000 0.000000 0.121541 0.000000 0.000000
# 5 0.000000 0.000000 0.000000 0.000000 0.045651 0.000000
# 6 0.000000 0.000000 0.000000 0.000000 0.000000 0.044829
#
#
# Mechanical properties :
#
#
# Convention : Reuss Voigt Hill
#
# Bulk Modulus (GPa) = 12.00843 59.32903 35.66873
# Shear Modulus (GPa) = 9.83285 19.79474 14.81380
#
# Velocity S-wave (km/s) = 2.53575 3.59784 3.11243
# Velocity P-wave (km/s) = 4.05291 7.48709 6.02008
#
# Compressibility (1/GPa) = 0.08327483
#
# Stress axis : x y z
#
# Youngs Moduli (GPa) = 6.82598 70.66001 65.16434
#
# Poissons Ratio (x) = 1.50182 1.41012
# Poissons Ratio (y) = 0.14508 0.22597
# Poissons Ratio (z) = 0.14771 0.24503
#
# Static dielectric constant tensor:
#      x y z
#    x 1.514780 0.000000 0.000000 
#    y 0.000000 1.516760 0.000000 
#    z 0.000000 0.000000 1.489370 
# 
# From -- ./inp_files/38430.got.cif
#   From: 2010.05.17/outbox.cif.g08.bks.cpg/sg53_20_cif.got.tgz:38430.got - 2010.06.03 12:45:16.
