data_PCOD9415210
_publ_section_title
;
Structure prediction by ZEFSAII (Michael W. Deem and Ramdas Pophale) SiO2 
 PCOD9415210
Probable space group: P M N A
;
_chemical_formula_sum "Si O2"
_cell_formula_units_Z 64
_cell_length_a 8.356889
_cell_length_b 22.355892
_cell_length_c 19.374317
_cell_angle_alpha 90.000000
_cell_angle_beta 90.000000
_cell_angle_gamma 90.000000
_cell_volume 3619.620489
_symmetry_space_group_name_H-M "P M N A"
_symmetry_group_IT_number 53
_symmetry_cell_setting 'orthorhombic'
loop_
_space_group_symop_operation_xyz
x,y,z
1/2-x,-y,1/2+z
x,-y,-z
1/2-x,y,1/2-z
-x,-y,-z
1/2+x,y,1/2-z
-x,y,z
1/2+x,-y,1/2+z
loop_
_atom_site_type_symbol
_atom_site_label
_atom_site_fract_x
_atom_site_fract_y
_atom_site_fract_z
Si Si1 0.811474 0.401475 0.328156
Si Si2 0.195713 0.064232 0.972489
Si Si3 0.312673 0.531345 0.326466
Si Si4 0.188819 0.357318 0.592939
Si Si5 0.308264 0.890064 0.321340
Si Si6 0.189359 0.772716 0.379720
Si Si7 0.191282 0.686140 0.944542
Si Si8 0.685954 0.812812 0.525079
O O1 0.750000 0.394241 0.250000
O O2 0.772871 0.469986 0.348514
O O3 0.729730 0.355567 0.380234
O O4 0.000000 0.391971 0.330104
O O5 0.240028 0.076833 0.892617
O O6 0.000000 0.065437 0.974353
O O7 0.253962 0.120006 0.019825
O O8 0.248508 0.000000 0.000000
O O9 0.250000 0.547308 0.250000
O O10 0.500000 0.518412 0.321529
O O11 0.280247 0.585872 0.377662
O O12 0.224885 0.296426 0.635814
O O13 0.231881 0.341300 0.513955
O O14 0.000000 0.369234 0.598119
O O15 0.250000 0.918909 0.250000
O O16 0.500000 0.885078 0.321067
O O17 0.230126 0.824106 0.325916
O O18 0.295019 0.790503 0.446066
O O19 0.000000 0.775679 0.397449
O O20 0.251492 0.754918 0.934622
O O21 0.000000 0.688813 0.955260
O O22 0.500000 0.818985 0.544268
#
# Coordination Sequence:
#
# PCOD9415210 Si02
#       8
#     8   8   8   8   8   8   8   8
#     4  11  22  38  57  76  98 127 165 209 258 310
#     4   8  14  27  49  75  99 129 168 203 239 287
#     4  11  22  37  54  72  97 131 167 207 254 305
#     4  10  20  34  51  75 103 133 168 206 249 295
#     4  10  19  30  46  68  96 129 166 207 246 288
#     4   9  17  29  46  67  95 127 159 196 238 284
#     4  10  19  33  53  78 104 131 165 206 252 299
#     4   8  15  28  48  73 100 127 157 195 237 285
#
# _framework density 17.681411000000001
#
# number of rings (size 3 to 8) (size 9 to 14) (size 15 to 20)
#    0.000    2.375    0.000    5.250    0.000    3.000 
#    0.000    2.500    0.000   10.125    0.000    1.750 
#    0.000    0.000    0.000    0.000    0.000    0.000 
#
# Total GULP energy -356584.233615 kJ/mol
# GULP energy per Si atom -5571.628650 kJ/mol
# Density = 1.764117 g / cm^3
# Si number density = 17.681411 Si / 1000 Ang^3
#
#
#
# Elastic Constant Matrix: (Units=GPa)
#
#
# Indices 1 2 3 4 5 6 
#
# 1 29.8699 -5.9607 -2.7065 0.0000 0.0000 0.0000
# 2 -5.9607 127.8619 53.6362 0.0000 0.0000 0.0000
# 3 -2.7065 53.6362 56.0329 0.0000 0.0000 0.0000
# 4 0.0000 0.0000 0.0000 17.3390 0.0000 0.0000
# 5 0.0000 0.0000 0.0000 0.0000 23.5895 0.0000
# 6 0.0000 0.0000 0.0000 0.0000 0.0000 9.7172
#
#
#
# Elastic Compliance Matrix: (Units=1/GPa)
#
#
# Indices 1 2 3 4 5 6 
#
# 1 0.033794 0.001488 0.000208 0.000000 0.000000 0.000000
# 2 0.001488 0.013134 -0.012500 0.000000 0.000000 0.000000
# 3 0.000208 -0.012500 0.029822 0.000000 0.000000 0.000000
# 4 0.000000 0.000000 0.000000 0.057673 0.000000 0.000000
# 5 0.000000 0.000000 0.000000 0.000000 0.042392 0.000000
# 6 0.000000 0.000000 0.000000 0.000000 0.000000 0.102910
#
#
# Mechanical properties :
#
#
# Convention : Reuss Voigt Hill
#
# Bulk Modulus (GPa) = 18.13501 33.74475 25.93988
# Shear Modulus (GPa) = 15.63891 21.38220 18.51055
#
# Velocity S-wave (km/s) = 2.97725 3.48128 3.23908
# Velocity P-wave (km/s) = 4.70080 5.94015 5.35644
#
# Compressibility (1/GPa) = 0.05514196
#
# Stress axis : x y z
#
# Youngs Moduli (GPa) = 29.59080 76.13814 33.53191
#
# Poissons Ratio (x) = -0.11332 -0.00696
# Poissons Ratio (y) = -0.04404 0.41916
# Poissons Ratio (z) = -0.00615 0.95175
#
# Static dielectric constant tensor:
#      x y z
#    x 1.612850 0.000000 0.000000 
#    y 0.000000 1.636000 0.000000 
#    z 0.000000 0.000000 1.423790 
# 
# From -- ./inp_files/31376.got.cif
#   From: 2010.05.17/outbox.cif.g08.bks.cpg/sg53_16_cif.got.tgz:31376.got - 2010.06.03 12:45:16.
