data_PCOD9415300
_publ_section_title
;
Structure prediction by ZEFSAII (Michael W. Deem and Ramdas Pophale) SiO2 
 PCOD9415300
Probable space group: P M N A
;
_chemical_formula_sum "Si O2"
_cell_formula_units_Z 64
_cell_length_a 27.886276
_cell_length_b 11.869016
_cell_length_c 9.956923
_cell_angle_alpha 90.000000
_cell_angle_beta 90.000000
_cell_angle_gamma 90.000000
_cell_volume 3295.568820
_symmetry_space_group_name_H-M "P M N A"
_symmetry_group_IT_number 53
_symmetry_cell_setting 'orthorhombic'
loop_
_space_group_symop_operation_xyz
x,y,z
1/2-x,-y,1/2+z
x,-y,-z
1/2-x,y,1/2-z
-x,-y,-z
1/2+x,y,1/2-z
-x,y,z
1/2+x,-y,1/2+z
loop_
_atom_site_type_symbol
_atom_site_label
_atom_site_fract_x
_atom_site_fract_y
_atom_site_fract_z
Si Si1 0.796711 0.865423 0.522120
Si Si2 0.122300 0.153388 0.259575
Si Si3 0.948024 0.282022 0.911021
Si Si4 0.806852 0.280766 0.741016
Si Si5 0.054742 0.028995 0.842181
Si Si6 0.814515 0.136467 0.007850
Si Si7 0.055105 0.663937 0.781033
Si Si8 0.370334 0.533119 0.350966
O O1 0.833239 0.844874 0.641515
O O2 0.813645 0.791566 0.394593
O O3 0.740607 0.838983 0.550444
O O4 0.797672 0.000000 0.500000
O O5 0.081519 0.240973 0.305104
O O6 0.094801 0.035301 0.241467
O O7 0.146809 0.179361 0.114980
O O8 0.941093 0.163033 0.840700
O O9 0.907922 0.368531 0.876569
O O10 0.000000 0.328307 0.870458
O O11 0.949148 0.276151 0.072577
O O12 0.750000 0.298692 0.750000
O O13 0.821130 0.199419 0.866163
O O14 0.831943 0.402926 0.757365
O O15 0.000000 0.996702 0.804365
O O16 0.060320 0.000000 0.000000
O O17 0.819286 0.000000 0.000000
O O18 0.095344 0.566232 0.795024
O O19 0.000000 0.632170 0.744328
O O20 0.350580 0.500000 0.500000
#
# Coordination Sequence:
#
# PCOD9415300 Si02
#       8
#     8   8   8   8   8   8   8   8
#     4  10  23  39  55  86 126 162 193 238 302 371
#     4  12  21  33  60  89 119 156 197 247 298 362
#     4   9  17  30  51  83 118 146 184 245 305 349
#     4  10  22  41  60  84 122 160 198 250 304 361
#     4  10  19  30  49  85 123 154 195 250 307 356
#     4  10  20  35  60  88 119 154 199 244 293 357
#     4  10  20  35  55  83 117 150 194 250 298 350
#     4  10  20  35  59  87 111 149 202 250 299 348
#
# _framework density 19.420016
#
# number of rings (size 3 to 8) (size 9 to 14) (size 15 to 20)
#    0.000    1.875    1.250    3.750    3.500    3.500 
#    0.000    4.375    0.000    5.250    0.000    0.000 
#    0.000    0.000    0.000    0.000    0.000    0.000 
#
# Total GULP energy -356802.094647 kJ/mol
# GULP energy per Si atom -5575.032729 kJ/mol
# Density = 1.937581 g / cm^3
# Si number density = 19.420016 Si / 1000 Ang^3
#
#
#
# Elastic Constant Matrix: (Units=GPa)
#
#
# Indices 1 2 3 4 5 6 
#
# 1 101.9889 36.7705 39.8864 0.0000 0.0000 0.0000
# 2 36.7705 68.7715 16.9234 0.0000 0.0000 0.0000
# 3 39.8864 16.9234 41.2228 0.0000 0.0000 0.0000
# 4 0.0000 0.0000 0.0000 18.5968 0.0000 0.0000
# 5 0.0000 0.0000 0.0000 0.0000 7.9199 0.0000
# 6 0.0000 0.0000 0.0000 0.0000 0.0000 13.9516
#
#
#
# Elastic Compliance Matrix: (Units=1/GPa)
#
#
# Indices 1 2 3 4 5 6 
#
# 1 0.017647 -0.005822 -0.014685 0.000000 0.000000 0.000000
# 2 -0.005822 0.018096 -0.001796 0.000000 0.000000 0.000000
# 3 -0.014685 -0.001796 0.039205 0.000000 0.000000 0.000000
# 4 0.000000 0.000000 0.000000 0.053773 0.000000 0.000000
# 5 0.000000 0.000000 0.000000 0.000000 0.126264 0.000000
# 6 0.000000 0.000000 0.000000 0.000000 0.000000 0.071676
#
#
# Mechanical properties :
#
#
# Convention : Reuss Voigt Hill
#
# Bulk Modulus (GPa) = 32.95747 44.34932 38.65340
# Shear Modulus (GPa) = 13.11032 15.98718 14.54875
#
# Velocity S-wave (km/s) = 2.60107 2.87231 2.74005
# Velocity P-wave (km/s) = 5.10181 5.82123 5.47336
#
# Compressibility (1/GPa) = 0.03034213
#
# Stress axis : x y z
#
# Youngs Moduli (GPa) = 56.66691 55.26205 25.50725
#
# Poissons Ratio (x) = 0.32172 0.37457
# Poissons Ratio (y) = 0.32990 0.04581
# Poissons Ratio (z) = 0.83215 0.09924
#
# Static dielectric constant tensor:
#      x y z
#    x 1.738660 0.000000 0.000000 
#    y 0.000000 1.724140 0.000000 
#    z 0.000000 0.000000 1.715180 
# 
# From -- ./inp_files/13253.got.cif
#   From: 2010.05.17/outbox.cif.g08.bks.cpg/sg53_7_cif.got.tgz:13253.got - 2010.06.03 12:45:16.
