data_PCOD9415609
_publ_section_title
;
Structure prediction by ZEFSAII (Michael W. Deem and Ramdas Pophale) SiO2 
 PCOD9415609
Probable space group: P M N A
;
_chemical_formula_sum "Si O2"
_cell_formula_units_Z 64
_cell_length_a 9.240949
_cell_length_b 23.445712
_cell_length_c 16.407195
_cell_angle_alpha 90.000000
_cell_angle_beta 90.000000
_cell_angle_gamma 90.000000
_cell_volume 3554.793187
_symmetry_space_group_name_H-M "P M N A"
_symmetry_group_IT_number 53
_symmetry_cell_setting 'orthorhombic'
loop_
_space_group_symop_operation_xyz
x,y,z
1/2-x,-y,1/2+z
x,-y,-z
1/2-x,y,1/2-z
-x,-y,-z
1/2+x,y,1/2-z
-x,y,z
1/2+x,-y,1/2+z
loop_
_atom_site_type_symbol
_atom_site_label
_atom_site_fract_x
_atom_site_fract_y
_atom_site_fract_z
Si Si1 0.175573 0.871243 0.494423
Si Si2 0.165215 0.574446 0.932035
Si Si3 0.827277 0.924743 0.666162
Si Si4 0.670268 0.372169 0.921118
Si Si5 0.668740 0.464099 0.671523
Si Si6 0.827131 0.060670 0.666134
Si Si7 0.168173 0.687641 0.834128
Si Si8 0.326398 0.740385 0.989549
O O1 0.223895 0.894698 0.582743
O O2 0.224225 0.906942 0.415445
O O3 0.212012 0.804672 0.487070
O O4 0.000000 0.876204 0.495403
O O5 0.186123 0.511032 0.899298
O O6 0.173537 0.620747 0.859434
O O7 0.000000 0.579055 0.966202
O O8 0.282327 0.594345 0.997084
O O9 0.750000 0.906252 0.750000
O O10 0.000000 0.915325 0.674427
O O11 0.803325 0.992732 0.656401
O O12 0.500000 0.377530 0.906078
O O13 0.760433 0.404174 0.852470
O O14 0.706238 0.306493 0.940923
O O15 0.750000 0.487330 0.750000
O O16 0.500000 0.457706 0.687658
O O17 0.750000 0.078789 0.750000
O O18 0.000000 0.069523 0.674173
O O19 0.250000 0.697372 0.750000
O O20 0.000000 0.703710 0.827673
O O21 0.243991 0.721187 0.908063
O O22 0.500000 0.737578 0.974957
#
# Coordination Sequence:
#
# PCOD9415609 Si02
#       8
#     8   8   8   8   8   8   8   8
#     4   9  17  32  54  75  99 135 175 211 248 296
#     4   9  19  34  52  74  98 125 157 196 243 295
#     4   9  17  30  50  77 107 137 168 203 248 301
#     4  10  20  34  52  72  96 128 163 198 240 291
#     4  11  22  35  52  74  99 124 155 198 247 297
#     4   9  17  31  52  77 103 132 168 210 255 302
#     4  10  19  32  50  72 100 131 163 201 246 295
#     4   9  19  35  52  70  95 130 171 208 242 287
#
# _framework density 18.003861000000001
#
# number of rings (size 3 to 8) (size 9 to 14) (size 15 to 20)
#    0.000    2.500    0.000    2.250    0.000    5.500 
#    0.000    3.750    0.000    4.500    0.000    0.000 
#    0.000    0.000    0.000    0.000    0.000    0.000 
#
# Total GULP energy -356909.970802 kJ/mol
# GULP energy per Si atom -5576.718294 kJ/mol
# Density = 1.796288 g / cm^3
# Si number density = 18.003861 Si / 1000 Ang^3
#
#
#
# Elastic Constant Matrix: (Units=GPa)
#
#
# Indices 1 2 3 4 5 6 
#
# 1 38.3255 34.4075 25.3208 0.0000 0.0000 0.0000
# 2 34.4075 79.5321 40.8867 0.0000 0.0000 0.0000
# 3 25.3208 40.8867 76.8693 0.0000 0.0000 0.0000
# 4 0.0000 0.0000 0.0000 12.8928 0.0000 0.0000
# 5 0.0000 0.0000 0.0000 0.0000 31.4656 0.0000
# 6 0.0000 0.0000 0.0000 0.0000 0.0000 19.4230
#
#
#
# Elastic Compliance Matrix: (Units=1/GPa)
#
#
# Indices 1 2 3 4 5 6 
#
# 1 0.044649 -0.016179 -0.006102 0.000000 0.000000 0.000000
# 2 -0.016179 0.023169 -0.006994 0.000000 0.000000 0.000000
# 3 -0.006102 -0.006994 0.018739 0.000000 0.000000 0.000000
# 4 0.000000 0.000000 0.000000 0.077563 0.000000 0.000000
# 5 0.000000 0.000000 0.000000 0.000000 0.031781 0.000000
# 6 0.000000 0.000000 0.000000 0.000000 0.000000 0.051485
#
#
# Mechanical properties :
#
#
# Convention : Reuss Voigt Hill
#
# Bulk Modulus (GPa) = 35.70563 43.99521 39.85042
# Shear Modulus (GPa) = 15.85942 19.03042 17.44492
#
# Velocity S-wave (km/s) = 2.97120 3.25471 3.11618
# Velocity P-wave (km/s) = 5.62547 6.21400 5.92705
#
# Compressibility (1/GPa) = 0.02800679
#
# Stress axis : x y z
#
# Youngs Moduli (GPa) = 22.39706 43.16185 53.36474
#
# Poissons Ratio (x) = 0.69833 0.32561
# Poissons Ratio (y) = 0.36237 0.37323
# Poissons Ratio (z) = 0.13666 0.30187
#
# Static dielectric constant tensor:
#      x y z
#    x 1.602030 0.000000 0.000000 
#    y 0.000000 1.619410 0.000000 
#    z 0.000000 0.000000 1.629860 
# 
# From -- ./inp_files/20887.got.cif
#   From: 2010.05.17/outbox.cif.g08.bks.cpg/sg53_11_cif.got.tgz:20887.got - 2010.06.03 12:45:16.
