data_PCOD9415601
_publ_section_title
;
Structure prediction by ZEFSAII (Michael W. Deem and Ramdas Pophale) SiO2 
 PCOD9415601
Probable space group: P M N A
;
_chemical_formula_sum "Si O2"
_cell_formula_units_Z 64
_cell_length_a 7.584741
_cell_length_b 14.304851
_cell_length_c 29.604050
_cell_angle_alpha 90.000000
_cell_angle_beta 90.000000
_cell_angle_gamma 90.000000
_cell_volume 3211.997680
_symmetry_space_group_name_H-M "P M N A"
_symmetry_group_IT_number 53
_symmetry_cell_setting 'orthorhombic'
loop_
_space_group_symop_operation_xyz
x,y,z
1/2-x,-y,1/2+z
x,-y,-z
1/2-x,y,1/2-z
-x,-y,-z
1/2+x,y,1/2-z
-x,y,z
1/2+x,-y,1/2+z
loop_
_atom_site_type_symbol
_atom_site_label
_atom_site_fract_x
_atom_site_fract_y
_atom_site_fract_z
Si Si1 0.286191 0.720096 0.567800
Si Si2 0.709421 0.268637 0.199082
Si Si3 0.198936 0.881379 0.872443
Si Si4 0.787763 0.974086 0.199132
Si Si5 0.784109 0.396618 0.982745
Si Si6 0.705700 0.434500 0.143590
Si Si7 0.799291 0.363808 0.882393
Si Si8 0.788074 0.240281 0.800355
O O1 0.500000 0.723779 0.569108
O O2 0.221933 0.821331 0.585911
O O3 0.232983 0.682506 0.518843
O O4 0.229872 0.638463 0.602438
O O5 0.750000 0.246051 0.250000
O O6 0.500000 0.260262 0.190137
O O7 0.806672 0.198538 0.165946
O O8 0.762679 0.374179 0.186728
O O9 0.281424 0.966191 0.843573
O O10 0.000000 0.909478 0.885741
O O11 0.750000 0.010912 0.250000
O O12 0.000000 0.974918 0.195215
O O13 0.723711 0.867041 0.197685
O O14 0.719571 0.371826 0.932540
O O15 0.000000 0.400369 0.981463
O O16 0.728274 0.500000 0.000000
O O17 0.500000 0.457832 0.147462
O O18 0.803711 0.530061 0.135154
O O19 0.719914 0.300389 0.842625
O O20 0.000000 0.329776 0.889080
O O21 0.750000 0.277776 0.750000
O O22 0.000000 0.237810 0.803686
#
# Coordination Sequence:
#
# PCOD9415601 Si02
#       8
#     8   8   8   8   8   8   8   8
#     4   9  16  29  47  67  92 122 154 186 222 271
#     4  10  20  31  42  60  89 121 152 185 225 274
#     4   9  17  28  46  68  91 119 150 186 229 274
#     4   9  17  30  47  69  92 117 152 192 234 277
#     4   9  15  26  48  72  91 117 158 197 222 262
#     4  10  20  31  43  63  91 120 150 190 232 271
#     4  10  19  32  50  69  89 121 159 192 228 272
#     4   9  19  34  51  69  93 122 154 194 235 276
#
# _framework density 19.925294000000001
#
# number of rings (size 3 to 8) (size 9 to 14) (size 15 to 20)
#    0.000    2.625    1.250    1.125    0.000    4.000 
#    0.000    3.750    0.000    0.750    0.000    5.250 
#    0.000    0.000    0.000   13.625    0.000   14.250 
#
# Total GULP energy -356587.406030 kJ/mol
# GULP energy per Si atom -5571.678219 kJ/mol
# Density = 1.987994 g / cm^3
# Si number density = 19.925294 Si / 1000 Ang^3
#
#
#
# Elastic Constant Matrix: (Units=GPa)
#
#
# Indices 1 2 3 4 5 6 
#
# 1 48.7626 -0.0396 1.9948 0.0000 0.0000 0.0000
# 2 -0.0396 78.9160 62.1980 0.0000 0.0000 0.0000
# 3 1.9948 62.1980 125.9220 0.0000 0.0000 0.0000
# 4 0.0000 0.0000 0.0000 32.8082 0.0000 0.0000
# 5 0.0000 0.0000 0.0000 0.0000 10.7228 0.0000
# 6 0.0000 0.0000 0.0000 0.0000 0.0000 14.1976
#
#
#
# Elastic Compliance Matrix: (Units=1/GPa)
#
#
# Indices 1 2 3 4 5 6 
#
# 1 0.020530 0.000437 -0.000541 0.000000 0.000000 0.000000
# 2 0.000437 0.020759 -0.010261 0.000000 0.000000 0.000000
# 3 -0.000541 -0.010261 0.013018 0.000000 0.000000 0.000000
# 4 0.000000 0.000000 0.000000 0.030480 0.000000 0.000000
# 5 0.000000 0.000000 0.000000 0.000000 0.093259 0.000000
# 6 0.000000 0.000000 0.000000 0.000000 0.000000 0.070434
#
#
# Mechanical properties :
#
#
# Convention : Reuss Voigt Hill
#
# Bulk Modulus (GPa) = 29.78209 42.43413 36.10811
# Shear Modulus (GPa) = 17.83152 24.17556 21.00354
#
# Velocity S-wave (km/s) = 2.99477 3.48704 3.25024
# Velocity P-wave (km/s) = 5.19013 6.12825 5.67860
#
# Compressibility (1/GPa) = 0.03357722
#
# Stress axis : x y z
#
# Youngs Moduli (GPa) = 48.70923 48.17242 76.81634
#
# Poissons Ratio (x) = -0.02103 0.04155
# Poissons Ratio (y) = -0.02127 0.78817
# Poissons Ratio (z) = 0.02635 0.49427
#
# Static dielectric constant tensor:
#      x y z
#    x 1.787780 0.000000 0.000000 
#    y 0.000000 1.712500 0.000000 
#    z 0.000000 0.000000 1.720040 
# 
# From -- ./inp_files/38451.got.cif
#   From: 2010.05.17/outbox.cif.g08.bks.cpg/sg53_20_cif.got.tgz:38451.got - 2010.06.03 12:45:16.
