data_PCOD9415754
_publ_section_title
;
Structure prediction by ZEFSAII (Michael W. Deem and Ramdas Pophale) SiO2 
 PCOD9415754
Probable space group: P M N A
;
_chemical_formula_sum "Si O2"
_cell_formula_units_Z 64
_cell_length_a 8.970144
_cell_length_b 24.099894
_cell_length_c 15.871691
_cell_angle_alpha 90.000000
_cell_angle_beta 90.000000
_cell_angle_gamma 90.000000
_cell_volume 3431.134535
_symmetry_space_group_name_H-M "P M N A"
_symmetry_group_IT_number 53
_symmetry_cell_setting 'orthorhombic'
loop_
_space_group_symop_operation_xyz
x,y,z
1/2-x,-y,1/2+z
x,-y,-z
1/2-x,y,1/2-z
-x,-y,-z
1/2+x,y,1/2-z
-x,y,z
1/2+x,-y,1/2+z
loop_
_atom_site_type_symbol
_atom_site_label
_atom_site_fract_x
_atom_site_fract_y
_atom_site_fract_z
Si Si1 0.179004 0.051796 0.902741
Si Si2 0.321622 0.369266 0.511964
Si Si3 0.178517 0.939397 0.588351
Si Si4 0.821704 0.828941 0.164063
Si Si5 0.178036 0.181807 0.339699
Si Si6 0.179914 0.240643 0.999855
Si Si7 0.676856 0.574404 0.665330
Si Si8 0.829783 0.529569 0.407918
O O1 0.214787 0.106238 0.849195
O O2 0.000000 0.045522 0.907862
O O3 0.254000 0.995112 0.871105
O O4 0.244591 0.062881 0.996312
O O5 0.500000 0.375923 0.522050
O O6 0.283901 0.304752 0.518230
O O7 0.283437 0.390275 0.417619
O O8 0.240543 0.410230 0.576829
O O9 0.210835 0.882734 0.637576
O O10 0.000000 0.944747 0.578889
O O11 0.750000 0.808017 0.250000
O O12 0.000000 0.823922 0.169590
O O13 0.773823 0.796263 0.080286
O O14 0.250000 0.195760 0.250000
O O15 0.244512 0.218261 0.415513
O O16 0.000000 0.188345 0.336140
O O17 0.000000 0.236143 0.009391
O O18 0.750000 0.596965 0.750000
O O19 0.500000 0.574070 0.673583
O O20 0.735733 0.512101 0.649311
O O21 0.829133 0.500000 0.500000
O O22 0.000000 0.532841 0.378596
#
# Coordination Sequence:
#
# PCOD9415754 Si02
#       8
#     8   8   8   8   8   8   8   8
#     4  10  19  33  56  83 109 143 181 226 286 346
#     4   9  19  35  57  80 107 147 187 228 277 330
#     4  10  20  34  54  82 112 144 181 228 283 342
#     4  10  22  38  59  84 110 144 186 235 288 343
#     4  11  24  39  58  83 113 152 193 236 288 345
#     4  10  21  41  62  82 113 152 196 243 290 338
#     4  10  19  32  52  81 114 146 181 223 274 328
#     4   9  17  31  52  78 107 139 175 216 260 313
#
# _framework density 18.652722000000001
#
# number of rings (size 3 to 8) (size 9 to 14) (size 15 to 20)
#    0.000    2.125    1.250    2.625    0.000    6.500 
#    0.000    4.375    0.000    1.500    0.000    0.000 
#    0.000    0.000    0.000    0.000    0.000    0.000 
#
# Total GULP energy -357276.499021 kJ/mol
# GULP energy per Si atom -5582.445297 kJ/mol
# Density = 1.861027 g / cm^3
# Si number density = 18.652722 Si / 1000 Ang^3
#
#
#
# Elastic Constant Matrix: (Units=GPa)
#
#
# Indices 1 2 3 4 5 6 
#
# 1 36.9073 27.5382 16.2542 0.0000 0.0000 0.0000
# 2 27.5382 97.8719 18.6390 0.0000 0.0000 0.0000
# 3 16.2542 18.6390 64.9962 0.0000 0.0000 0.0000
# 4 0.0000 0.0000 0.0000 4.5388 0.0000 0.0000
# 5 0.0000 0.0000 0.0000 0.0000 27.0827 0.0000
# 6 0.0000 0.0000 0.0000 0.0000 0.0000 27.6597
#
#
#
# Elastic Compliance Matrix: (Units=1/GPa)
#
#
# Indices 1 2 3 4 5 6 
#
# 1 0.036783 -0.009095 -0.006591 0.000000 0.000000 0.000000
# 2 -0.009095 0.013056 -0.001470 0.000000 0.000000 0.000000
# 3 -0.006591 -0.001470 0.017455 0.000000 0.000000 0.000000
# 4 0.000000 0.000000 0.000000 0.220324 0.000000 0.000000
# 5 0.000000 0.000000 0.000000 0.000000 0.036924 0.000000
# 6 0.000000 0.000000 0.000000 0.000000 0.000000 0.036154
#
#
# Mechanical properties :
#
#
# Convention : Reuss Voigt Hill
#
# Bulk Modulus (GPa) = 30.31707 36.07090 33.19398
# Shear Modulus (GPa) = 12.31524 21.01251 16.66388
#
# Velocity S-wave (km/s) = 2.57230 3.36000 2.99218
# Velocity P-wave (km/s) = 5.01109 5.86795 5.45637
#
# Compressibility (1/GPa) = 0.03298472
#
# Stress axis : x y z
#
# Youngs Moduli (GPa) = 27.18627 76.59149 57.28957
#
# Poissons Ratio (x) = 0.69656 0.37758
# Poissons Ratio (y) = 0.24725 0.08420
# Poissons Ratio (z) = 0.17918 0.11257
#
# Static dielectric constant tensor:
#      x y z
#    x 1.625100 0.000000 0.000000 
#    y 0.000000 1.643990 0.000000 
#    z 0.000000 0.000000 1.636520 
# 
# From -- ./inp_files/20954.got.cif
#   From: 2010.05.17/outbox.cif.g08.bks.cpg/sg53_11_cif.got.tgz:20954.got - 2010.06.03 12:45:16.
