data_PCOD9415726
_publ_section_title
;
Structure prediction by ZEFSAII (Michael W. Deem and Ramdas Pophale) SiO2 
 PCOD9415726
Probable space group: P M N A
;
_chemical_formula_sum "Si O2"
_cell_formula_units_Z 40
_cell_length_a 8.506402
_cell_length_b 27.090419
_cell_length_c 9.316697
_cell_angle_alpha 90.000000
_cell_angle_beta 90.000000
_cell_angle_gamma 90.000000
_cell_volume 2146.958238
_symmetry_space_group_name_H-M "P M N A"
_symmetry_group_IT_number 53
_symmetry_cell_setting 'orthorhombic'
loop_
_space_group_symop_operation_xyz
x,y,z
1/2-x,-y,1/2+z
x,-y,-z
1/2-x,y,1/2-z
-x,-y,-z
1/2+x,y,1/2-z
-x,y,z
1/2+x,-y,1/2+z
loop_
_atom_site_type_symbol
_atom_site_label
_atom_site_fract_x
_atom_site_fract_y
_atom_site_fract_z
Si Si1 0.309953 0.048285 0.588191
Si Si2 0.688333 0.247790 0.086159
Si Si3 0.190109 0.451730 0.588490
Si Si4 0.688142 0.855407 0.586748
Si Si5 0.689897 0.356126 0.086977
O O1 0.250000 0.046693 0.750000
O O2 0.500000 0.048277 0.590098
O O3 0.258128 0.098033 0.506781
O O4 0.257904 0.000000 0.500000
O O5 0.750000 0.248353 0.250000
O O6 0.500000 0.244572 0.086362
O O7 0.755754 0.197152 0.023516
O O8 0.735837 0.301757 0.028146
O O9 0.241326 0.500000 0.500000
O O10 0.250000 0.453897 0.750000
O O11 0.244248 0.401824 0.508960
O O12 0.000000 0.451397 0.589935
O O13 0.750000 0.860036 0.750000
O O14 0.500000 0.855150 0.592768
O O15 0.750000 0.361217 0.250000
O O16 0.500000 0.357088 0.092127
#
# Coordination Sequence:
#
# PCOD9415726 Si02
#       5
#     8   8   8   8   8
#     4  10  22  38  55  77 103 132 168 208 251 301
#     4   9  16  28  48  73 102 134 168 205 246 292
#     4  10  21  36  53  75 102 131 167 209 252 301
#     4  10  19  32  52  78 105 133 169 208 247 295
#     4   9  18  32  51  76 103 132 168 208 248 295
#
# _framework density 18.631008999999999
#
# number of rings (size 3 to 8) (size 9 to 14) (size 15 to 20)
#    0.000    2.400    0.000    3.600    0.000    4.000 
#    0.000    1.000    0.000    4.800    0.000    0.000 
#    0.000    0.000    0.000    0.000    0.000    0.000 
#
# Total GULP energy -223098.676426 kJ/mol
# GULP energy per Si atom -5577.466911 kJ/mol
# Density = 1.858860 g / cm^3
# Si number density = 18.631009 Si / 1000 Ang^3
#
#
#
# Elastic Constant Matrix: (Units=GPa)
#
#
# Indices 1 2 3 4 5 6 
#
# 1 20.7172 35.2080 15.1340 0.0000 0.0000 0.0000
# 2 35.2080 240.0428 100.8709 0.0000 0.0000 0.0000
# 3 15.1340 100.8709 108.9149 0.0000 0.0000 0.0000
# 4 0.0000 0.0000 0.0000 33.3299 0.0000 0.0000
# 5 0.0000 0.0000 0.0000 0.0000 24.3693 0.0000
# 6 0.0000 0.0000 0.0000 0.0000 0.0000 28.5251
#
#
#
# Elastic Compliance Matrix: (Units=1/GPa)
#
#
# Indices 1 2 3 4 5 6 
#
# 1 0.064303 -0.009294 -0.000328 0.000000 0.000000 0.000000
# 2 -0.009294 0.008164 -0.006269 0.000000 0.000000 0.000000
# 3 -0.000328 -0.006269 0.015033 0.000000 0.000000 0.000000
# 4 0.000000 0.000000 0.000000 0.030003 0.000000 0.000000
# 5 0.000000 0.000000 0.000000 0.000000 0.041035 0.000000
# 6 0.000000 0.000000 0.000000 0.000000 0.000000 0.035057
#
#
# Mechanical properties :
#
#
# Convention : Reuss Voigt Hill
#
# Bulk Modulus (GPa) = 17.94745 74.67787 46.31266
# Shear Modulus (GPa) = 20.49611 31.80901 26.15256
#
# Velocity S-wave (km/s) = 3.32039 4.13645 3.75068
# Velocity P-wave (km/s) = 4.93497 7.93620 6.60822
#
# Compressibility (1/GPa) = 0.05571823
#
# Stress axis : x y z
#
# Youngs Moduli (GPa) = 15.55141 122.49585 66.51950
#
# Poissons Ratio (x) = 1.13846 0.02179
# Poissons Ratio (y) = 0.14453 0.41702
# Poissons Ratio (z) = 0.00509 0.76795
#
# Static dielectric constant tensor:
#      x y z
#    x 1.637910 0.000000 0.000000 
#    y 0.000000 1.697250 0.000000 
#    z 0.000000 0.000000 1.585390 
# 
# From -- ./inp_files/6434.got.cif
#   From: 2010.05.17/outbox.cif.g08.bks.cpg/sg53_4_cif.got.tgz:6434.got - 2010.06.03 12:45:16.
