data_PCOD9415521
_publ_section_title
;
Structure prediction by ZEFSAII (Michael W. Deem and Ramdas Pophale) SiO2 
 PCOD9415521
Probable space group: P M N A
;
_chemical_formula_sum "Si O2"
_cell_formula_units_Z 40
_cell_length_a 8.604831
_cell_length_b 14.132236
_cell_length_c 18.673376
_cell_angle_alpha 90.000000
_cell_angle_beta 90.000000
_cell_angle_gamma 90.000000
_cell_volume 2270.785271
_symmetry_space_group_name_H-M "P M N A"
_symmetry_group_IT_number 53
_symmetry_cell_setting 'orthorhombic'
loop_
_space_group_symop_operation_xyz
x,y,z
1/2-x,-y,1/2+z
x,-y,-z
1/2-x,y,1/2-z
-x,-y,-z
1/2+x,y,1/2-z
-x,y,z
1/2+x,-y,1/2+z
loop_
_atom_site_type_symbol
_atom_site_label
_atom_site_fract_x
_atom_site_fract_y
_atom_site_fract_z
Si Si1 0.810999 0.398764 0.527136
Si Si2 0.313389 0.884510 0.397525
Si Si3 0.813409 0.798755 0.541207
Si Si4 0.313581 0.695960 0.173096
Si Si5 0.313658 0.914221 0.669965
O O1 0.753774 0.500000 0.500000
O O2 0.764145 0.308205 0.479508
O O3 0.766544 0.373895 0.608585
O O4 0.000000 0.400965 0.525348
O O5 0.500000 0.881389 0.400460
O O6 0.248044 0.865371 0.476897
O O7 0.251707 0.798819 0.348642
O O8 0.265352 0.984613 0.364084
O O9 0.748849 0.834554 0.616284
O O10 0.000000 0.802224 0.541141
O O11 0.250000 0.667397 0.250000
O O12 0.500000 0.701314 0.174680
O O13 0.250000 0.905153 0.750000
O O14 0.500000 0.911602 0.671479
#
# Coordination Sequence:
#
# PCOD9415521 Si02
#       5
#     8   8   8   8   8
#     4   8  16  33  55  76  99 131 170 209 253 306
#     4  10  20  34  53  76 104 137 172 210 251 299
#     4  10  20  34  55  79 103 134 170 210 255 304
#     4  10  19  31  51  78 105 133 166 210 262 308
#     4  11  23  36  51  73 104 141 176 211 251 297
#
# _framework density 17.615051999999999
#
# number of rings (size 3 to 8) (size 9 to 14) (size 15 to 20)
#    0.000    2.200    0.000    4.800    0.000    7.200 
#    0.000    1.000    0.000   24.000    0.000    0.000 
#    0.000    0.000    0.000    0.000    0.000    0.000 
#
# Total GULP energy -223297.341167 kJ/mol
# GULP energy per Si atom -5582.433529 kJ/mol
# Density = 1.757496 g / cm^3
# Si number density = 17.615052 Si / 1000 Ang^3
#
#
#
# Elastic Constant Matrix: (Units=GPa)
#
#
# Indices 1 2 3 4 5 6 
#
# 1 44.4298 31.5562 38.4824 0.0000 0.0000 0.0000
# 2 31.5562 122.9146 106.2913 0.0000 0.0000 0.0000
# 3 38.4824 106.2913 169.3116 0.0000 0.0000 0.0000
# 4 0.0000 0.0000 0.0000 15.5341 0.0000 0.0000
# 5 0.0000 0.0000 0.0000 0.0000 35.5869 0.0000
# 6 0.0000 0.0000 0.0000 0.0000 0.0000 3.3991
#
#
#
# Elastic Compliance Matrix: (Units=1/GPa)
#
#
# Indices 1 2 3 4 5 6 
#
# 1 0.028811 -0.003793 -0.004167 0.000000 0.000000 0.000000
# 2 -0.003793 0.018297 -0.010625 0.000000 0.000000 0.000000
# 3 -0.004167 -0.010625 0.013523 0.000000 0.000000 0.000000
# 4 0.000000 0.000000 0.000000 0.064375 0.000000 0.000000
# 5 0.000000 0.000000 0.000000 0.000000 0.028100 0.000000
# 6 0.000000 0.000000 0.000000 0.000000 0.000000 0.294194
#
#
# Mechanical properties :
#
#
# Convention : Reuss Voigt Hill
#
# Bulk Modulus (GPa) = 42.62260 76.59063 59.60662
# Shear Modulus (GPa) = 10.15660 21.59242 15.87451
#
# Velocity S-wave (km/s) = 2.40383 3.50493 3.00524
# Velocity P-wave (km/s) = 5.65276 7.74300 6.77893
#
# Compressibility (1/GPa) = 0.02346173
#
# Stress axis : x y z
#
# Youngs Moduli (GPa) = 34.70928 54.65295 73.94617
#
# Poissons Ratio (x) = 0.20731 0.30813
# Poissons Ratio (y) = 0.13166 0.78565
# Poissons Ratio (z) = 0.14463 0.58067
#
# Static dielectric constant tensor:
#      x y z
#    x 1.596010 0.000000 0.000000 
#    y 0.000000 1.592690 0.000000 
#    z 0.000000 0.000000 1.587980 
# 
# From -- ./inp_files/19830.got.cif
#   From: 2010.05.17/outbox.cif.g08.bks.cpg/sg53_10_cif.got.tgz:19830.got - 2010.06.03 12:45:16.
