data_PCOD9415630
_publ_section_title
;
Structure prediction by ZEFSAII (Michael W. Deem and Ramdas Pophale) SiO2 
 PCOD9415630
Probable space group: P M N A
;
_chemical_formula_sum "Si O2"
_cell_formula_units_Z 64
_cell_length_a 7.777531
_cell_length_b 15.328176
_cell_length_c 28.401106
_cell_angle_alpha 90.000000
_cell_angle_beta 90.000000
_cell_angle_gamma 90.000000
_cell_volume 3385.848190
_symmetry_space_group_name_H-M "P M N A"
_symmetry_group_IT_number 53
_symmetry_cell_setting 'orthorhombic'
loop_
_space_group_symop_operation_xyz
x,y,z
1/2-x,-y,1/2+z
x,-y,-z
1/2-x,y,1/2-z
-x,-y,-z
1/2+x,y,1/2-z
-x,y,z
1/2+x,-y,1/2+z
loop_
_atom_site_type_symbol
_atom_site_label
_atom_site_fract_x
_atom_site_fract_y
_atom_site_fract_z
Si Si1 0.710475 0.851199 0.470679
Si Si2 0.301082 0.656637 0.464880
Si Si3 0.706650 0.644925 0.304069
Si Si4 0.293080 0.157958 0.695899
Si Si5 0.196998 0.654455 0.569749
Si Si6 0.210573 0.028073 0.884629
Si Si7 0.208471 0.522172 0.112017
Si Si8 0.292571 0.848954 0.578382
O O1 0.500000 0.850170 0.470830
O O2 0.772060 0.753708 0.457571
O O3 0.762552 0.921483 0.432239
O O4 0.763046 0.868254 0.524439
O O5 0.500000 0.663590 0.450235
O O6 0.296725 0.639288 0.520678
O O7 0.229626 0.579498 0.432849
O O8 0.750000 0.624836 0.250000
O O9 0.500000 0.647628 0.308037
O O10 0.770412 0.743484 0.314637
O O11 0.767392 0.573637 0.341519
O O12 0.250000 0.138441 0.750000
O O13 0.500000 0.160506 0.691574
O O14 0.229731 0.085138 0.659605
O O15 0.231300 0.576388 0.605468
O O16 0.238269 0.750414 0.589249
O O17 0.000000 0.653477 0.555334
O O18 0.000000 0.027769 0.883688
O O19 0.266914 0.927759 0.888558
O O20 0.000000 0.518906 0.112062
O O21 0.500000 0.849336 0.578325
#
# Coordination Sequence:
#
# PCOD9415630 Si02
#       8
#     8   8   8   8   8   8   8   8
#     4   8  13  23  43  72  97 115 145 190 231 267
#     4   9  17  30  49  71  96 126 159 194 231 275
#     4   9  18  32  51  75 102 127 151 186 233 284
#     4   9  17  30  48  72 100 125 149 181 225 276
#     4  11  22  33  45  65  96 130 161 197 240 281
#     4   9  15  25  47  74  94 117 155 196 228 265
#     4  10  19  32  51  72  93 123 163 199 231 274
#     4   9  17  30  48  68  91 122 159 196 232 272
#
# _framework density 18.902207000000001
#
# number of rings (size 3 to 8) (size 9 to 14) (size 15 to 20)
#    0.000    2.750    0.000    3.375    0.000    7.000 
#    0.000    0.625    0.000   14.250    0.000    1.750 
#    0.000    0.000    0.000    0.000    0.000    0.000 
#
# Total GULP energy -356931.022563 kJ/mol
# GULP energy per Si atom -5577.047228 kJ/mol
# Density = 1.885918 g / cm^3
# Si number density = 18.902207 Si / 1000 Ang^3
#
#
#
# Elastic Constant Matrix: (Units=GPa)
#
#
# Indices 1 2 3 4 5 6 
#
# 1 23.4874 3.7754 -3.8729 0.0000 0.0000 0.0000
# 2 3.7754 172.8646 96.2518 0.0000 0.0000 0.0000
# 3 -3.8729 96.2518 76.4912 0.0000 0.0000 0.0000
# 4 0.0000 0.0000 0.0000 28.9057 0.0000 0.0000
# 5 0.0000 0.0000 0.0000 0.0000 10.9427 0.0000
# 6 0.0000 0.0000 0.0000 0.0000 0.0000 -11.7148
#
#
#
# Elastic Compliance Matrix: (Units=1/GPa)
#
#
# Indices 1 2 3 4 5 6 
#
# 1 0.045776 -0.007651 0.011945 0.000000 0.000000 0.000000
# 2 -0.007651 0.020603 -0.026313 0.000000 0.000000 0.000000
# 3 0.011945 -0.026313 0.046789 0.000000 0.000000 0.000000
# 4 0.000000 0.000000 0.000000 0.034595 0.000000 0.000000
# 5 0.000000 0.000000 0.000000 0.000000 0.091385 0.000000
# 6 0.000000 0.000000 0.000000 0.000000 0.000000 -0.085362
#
#
# Mechanical properties :
#
#
# Convention : Reuss Voigt Hill
#
# Bulk Modulus (GPa) = 14.46554 51.68351 33.07452
# Shear Modulus (GPa) = 22.63791 17.40597 20.02194
#
# Velocity S-wave (km/s) = 3.46444 3.03783 3.25812
# Velocity P-wave (km/s) = 4.86544 6.30131 5.62935
#
# Compressibility (1/GPa) = 0.06912982
#
# Stress axis : x y z
#
# Youngs Moduli (GPa) = 21.84574 48.53571 21.37239
#
# Poissons Ratio (x) = 0.37133 -0.25529
# Poissons Ratio (y) = 0.16714 0.56238
# Poissons Ratio (z) = -0.26095 1.27714
#
# Static dielectric constant tensor:
#      x y z
#    x 1.712210 0.000000 0.000000 
#    y 0.000000 1.670320 0.000000 
#    z 0.000000 0.000000 1.631200 
# 
# From -- ./inp_files/38439.got.cif
#   From: 2010.05.17/outbox.cif.g08.bks.cpg/sg53_20_cif.got.tgz:38439.got - 2010.06.03 12:45:16.
