data_PCOD9415605
_publ_section_title
;
Structure prediction by ZEFSAII (Michael W. Deem and Ramdas Pophale) SiO2 
 PCOD9415605
Probable space group: P M N A
;
_chemical_formula_sum "Si O2"
_cell_formula_units_Z 48
_cell_length_a 8.885851
_cell_length_b 21.295375
_cell_length_c 14.141199
_cell_angle_alpha 90.000000
_cell_angle_beta 90.000000
_cell_angle_gamma 90.000000
_cell_volume 2675.904147
_symmetry_space_group_name_H-M "P M N A"
_symmetry_group_IT_number 53
_symmetry_cell_setting 'orthorhombic'
loop_
_space_group_symop_operation_xyz
x,y,z
1/2-x,-y,1/2+z
x,-y,-z
1/2-x,y,1/2-z
-x,-y,-z
1/2+x,y,1/2-z
-x,y,z
1/2+x,-y,1/2+z
loop_
_atom_site_type_symbol
_atom_site_label
_atom_site_fract_x
_atom_site_fract_y
_atom_site_fract_z
Si Si1 0.669475 0.518198 0.389261
Si Si2 0.821771 0.609931 0.655333
Si Si3 0.181374 0.644340 0.443068
Si Si4 0.817253 0.903655 0.458095
Si Si5 0.181727 0.030718 0.351927
Si Si6 0.181973 0.778106 0.353995
O O1 0.659405 0.500000 0.500000
O O2 0.500000 0.517262 0.349645
O O3 0.771551 0.462847 0.348910
O O4 0.741997 0.586946 0.387172
O O5 0.750000 0.638232 0.750000
O O6 0.775104 0.639151 0.554174
O O7 0.000000 0.614291 0.662134
O O8 0.222919 0.711438 0.400272
O O9 0.000000 0.636623 0.438450
O O10 0.770467 0.921705 0.564482
O O11 0.767230 0.837010 0.417727
O O12 0.000000 0.903394 0.459283
O O13 0.773612 0.961260 0.389407
O O14 0.250000 0.043813 0.250000
O O15 0.000000 0.032058 0.346059
O O16 0.250000 0.783425 0.250000
O O17 0.000000 0.780179 0.348018
#
# Coordination Sequence:
#
# PCOD9415605 Si02
#       6
#     8   8   8   8   8   8
#     4   9  17  30  49  71  94 121 155 197 241 284
#     4  10  19  32  50  71  95 125 161 200 243 290
#     4   9  19  34  50  69  97 130 161 196 241 292
#     4   8  16  31  50  71 100 135 165 195 239 292
#     4   9  16  29  50  75 101 131 165 201 241 283
#     4  10  20  35  53  72  95 127 164 199 239 289
#
# _framework density 17.937863
#
# number of rings (size 3 to 8) (size 9 to 14) (size 15 to 20)
#    0.000    2.833    0.000    2.500    0.000    4.000 
#    0.000    5.000    0.000    0.000    0.000    0.000 
#    0.000    0.000    0.000    0.000    0.000    0.000 
#
# Total GULP energy -267578.433673 kJ/mol
# GULP energy per Si atom -5574.550702 kJ/mol
# Density = 1.789704 g / cm^3
# Si number density = 17.937863 Si / 1000 Ang^3
#
#
#
# Elastic Constant Matrix: (Units=GPa)
#
#
# Indices 1 2 3 4 5 6 
#
# 1 19.3753 20.0953 21.7600 0.0000 0.0000 0.0000
# 2 20.0953 136.2757 63.9244 0.0000 0.0000 0.0000
# 3 21.7600 63.9244 125.9195 0.0000 0.0000 0.0000
# 4 0.0000 0.0000 0.0000 17.0237 0.0000 0.0000
# 5 0.0000 0.0000 0.0000 0.0000 32.1171 0.0000
# 6 0.0000 0.0000 0.0000 0.0000 0.0000 12.2454
#
#
#
# Elastic Compliance Matrix: (Units=1/GPa)
#
#
# Indices 1 2 3 4 5 6 
#
# 1 0.067447 -0.005878 -0.008671 0.000000 0.000000 0.000000
# 2 -0.005878 0.010144 -0.004134 0.000000 0.000000 0.000000
# 3 -0.008671 -0.004134 0.011539 0.000000 0.000000 0.000000
# 4 0.000000 0.000000 0.000000 0.058742 0.000000 0.000000
# 5 0.000000 0.000000 0.000000 0.000000 0.031136 0.000000
# 6 0.000000 0.000000 0.000000 0.000000 0.000000 0.081664
#
#
# Mechanical properties :
#
#
# Convention : Reuss Voigt Hill
#
# Bulk Modulus (GPa) = 19.31883 54.79221 37.05552
# Shear Modulus (GPa) = 15.85829 23.99662 19.92745
#
# Velocity S-wave (km/s) = 2.97655 3.66151 3.33666
# Velocity P-wave (km/s) = 4.75462 6.96329 5.96212
#
# Compressibility (1/GPa) = 0.05176297
#
# Stress axis : x y z
#
# Youngs Moduli (GPa) = 14.82641 98.58025 86.66514
#
# Poissons Ratio (x) = 0.57948 0.75150
# Poissons Ratio (y) = 0.08715 0.35826
# Poissons Ratio (z) = 0.12856 0.40752
#
# Static dielectric constant tensor:
#      x y z
#    x 1.613790 0.000000 0.000000 
#    y 0.000000 1.596640 0.000000 
#    z 0.000000 0.000000 1.635450 
# 
# From -- ./inp_files/20321.got.cif
#   From: 2010.05.17/outbox.cif.g08.bks.cpg/sg53_11_cif.got.tgz:20321.got - 2010.06.03 12:45:16.
