data_PCOD9415711
_publ_section_title
;
Structure prediction by ZEFSAII (Michael W. Deem and Ramdas Pophale) SiO2 
 PCOD9415711
Probable space group: P M N A
;
_chemical_formula_sum "Si O2"
_cell_formula_units_Z 64
_cell_length_a 9.215025
_cell_length_b 23.749645
_cell_length_c 15.205322
_cell_angle_alpha 90.000000
_cell_angle_beta 90.000000
_cell_angle_gamma 90.000000
_cell_volume 3327.739039
_symmetry_space_group_name_H-M "P M N A"
_symmetry_group_IT_number 53
_symmetry_cell_setting 'orthorhombic'
loop_
_space_group_symop_operation_xyz
x,y,z
1/2-x,-y,1/2+z
x,-y,-z
1/2-x,y,1/2-z
-x,-y,-z
1/2+x,y,1/2-z
-x,y,z
1/2+x,-y,1/2+z
loop_
_atom_site_type_symbol
_atom_site_label
_atom_site_fract_x
_atom_site_fract_y
_atom_site_fract_z
Si Si1 0.169433 0.079554 0.339337
Si Si2 0.658993 0.023591 0.598420
Si Si3 0.673431 0.459693 0.659728
Si Si4 0.674946 0.753649 0.032641
Si Si5 0.673707 0.798465 0.845489
Si Si6 0.325235 0.151524 0.653517
Si Si7 0.673808 0.409659 0.340222
Si Si8 0.174484 0.360377 0.973444
O O1 0.250000 0.090539 0.250000
O O2 0.204194 0.138623 0.386796
O O3 0.000000 0.077919 0.329356
O O4 0.221775 0.018488 0.366198
O O5 0.500000 0.014555 0.641423
O O6 0.694664 0.088946 0.611212
O O7 0.645879 0.000000 0.500000
O O8 0.750000 0.442708 0.750000
O O9 0.500000 0.458586 0.671512
O O10 0.713399 0.524787 0.641621
O O11 0.708302 0.416160 0.582798
O O12 0.500000 0.757548 0.040980
O O13 0.751263 0.801894 0.091134
O O14 0.737680 0.693242 0.060464
O O15 0.712408 0.759646 0.928296
O O16 0.750000 0.789177 0.750000
O O17 0.500000 0.794909 0.829953
O O18 0.250000 0.152104 0.750000
O O19 0.500000 0.160615 0.660661
O O20 0.750000 0.391936 0.250000
O O21 0.500000 0.407199 0.328962
O O22 0.712044 0.373561 0.425370
O O23 0.000000 0.350545 0.967869
#
# Coordination Sequence:
#
# PCOD9415711 Si02
#       8
#     8   8   8   8   8   8   8   8
#     4  10  19  32  52  77 104 134 170 213 266 327
#     4  10  21  36  56  84 114 142 176 223 280 341
#     4   9  18  34  57  84 113 146 185 228 277 335
#     4  11  24  41  59  82 113 149 196 247 290 337
#     4   9  20  37  57  82 112 148 188 234 288 347
#     4  11  24  42  63  85 114 155 199 243 292 344
#     4   9  18  34  57  85 117 151 185 226 278 338
#     4  10  21  37  57  81 112 151 192 232 281 340
#
# _framework density 19.232277
#
# number of rings (size 3 to 8) (size 9 to 14) (size 15 to 20)
#    0.000    2.125    0.000    2.625    0.000    7.250 
#    0.000    3.750    0.000    3.750    0.000    0.000 
#    0.000    0.000    0.000    0.000    0.000    0.000 
#
# Total GULP energy -356578.109216 kJ/mol
# GULP energy per Si atom -5571.532957 kJ/mol
# Density = 1.918850 g / cm^3
# Si number density = 19.232277 Si / 1000 Ang^3
#
#
#
# Elastic Constant Matrix: (Units=GPa)
#
#
# Indices 1 2 3 4 5 6 
#
# 1 45.1777 32.7227 31.1980 0.0000 0.0000 0.0000
# 2 32.7227 70.8813 39.6676 0.0000 0.0000 0.0000
# 3 31.1980 39.6676 89.3488 0.0000 0.0000 0.0000
# 4 0.0000 0.0000 0.0000 15.3481 0.0000 0.0000
# 5 0.0000 0.0000 0.0000 0.0000 30.4805 0.0000
# 6 0.0000 0.0000 0.0000 0.0000 0.0000 38.0383
#
#
#
# Elastic Compliance Matrix: (Units=1/GPa)
#
#
# Indices 1 2 3 4 5 6 
#
# 1 0.036234 -0.012836 -0.006953 0.000000 0.000000 0.000000
# 2 -0.012836 0.023320 -0.005871 0.000000 0.000000 0.000000
# 3 -0.006953 -0.005871 0.016226 0.000000 0.000000 0.000000
# 4 0.000000 0.000000 0.000000 0.065155 0.000000 0.000000
# 5 0.000000 0.000000 0.000000 0.000000 0.032808 0.000000
# 6 0.000000 0.000000 0.000000 0.000000 0.000000 0.026289
#
#
# Mechanical properties :
#
#
# Convention : Reuss Voigt Hill
#
# Bulk Modulus (GPa) = 40.88439 45.84271 43.36355
# Shear Modulus (GPa) = 19.26745 23.56136 21.41440
#
# Velocity S-wave (km/s) = 3.16860 3.50393 3.34048
# Velocity P-wave (km/s) = 5.88991 6.34493 6.12165
#
# Compressibility (1/GPa) = 0.02445922
#
# Stress axis : x y z
#
# Youngs Moduli (GPa) = 27.59860 42.88224 61.62828
#
# Poissons Ratio (x) = 0.55045 0.42849
# Poissons Ratio (y) = 0.35427 0.36182
# Poissons Ratio (z) = 0.19189 0.25176
#
# Static dielectric constant tensor:
#      x y z
#    x 1.663230 0.000000 0.000000 
#    y 0.000000 1.918910 0.000000 
#    z 0.000000 0.000000 1.628030 
# 
# From -- ./inp_files/20883.got.cif
#   From: 2010.05.17/outbox.cif.g08.bks.cpg/sg53_11_cif.got.tgz:20883.got - 2010.06.03 12:45:16.
