data_PCOD9415821
_publ_section_title
;
Structure prediction by ZEFSAII (Michael W. Deem and Ramdas Pophale) SiO2 
 PCOD9415821
Probable space group: P M N A
;
_chemical_formula_sum "Si O2"
_cell_formula_units_Z 40
_cell_length_a 15.961710
_cell_length_b 14.968219
_cell_length_c 9.162279
_cell_angle_alpha 90.000000
_cell_angle_beta 90.000000
_cell_angle_gamma 90.000000
_cell_volume 2189.036772
_symmetry_space_group_name_H-M "P M N A"
_symmetry_group_IT_number 53
_symmetry_cell_setting 'orthorhombic'
loop_
_space_group_symop_operation_xyz
x,y,z
1/2-x,-y,1/2+z
x,-y,-z
1/2-x,y,1/2-z
-x,-y,-z
1/2+x,y,1/2-z
-x,y,z
1/2+x,-y,1/2+z
loop_
_atom_site_type_symbol
_atom_site_label
_atom_site_fract_x
_atom_site_fract_y
_atom_site_fract_z
Si Si1 0.397839 0.912456 0.589133
Si Si2 0.402455 0.096199 0.074913
Si Si3 0.169671 0.762717 0.357946
Si Si4 0.594823 0.272687 0.564435
Si Si5 0.256117 0.406392 0.577266
O O1 0.500000 0.916582 0.586207
O O2 0.372297 0.912233 0.758330
O O3 0.375043 0.818069 0.515381
O O4 0.367815 0.000000 0.500000
O O5 0.500000 0.127116 0.078613
O O6 0.349675 0.161101 0.972329
O O7 0.401467 0.000000 0.000000
O O8 0.250000 0.778546 0.250000
O O9 0.098023 0.748839 0.237419
O O10 0.187470 0.671255 0.445271
O O11 0.500000 0.291486 0.518117
O O12 0.656782 0.355910 0.540061
O O13 0.245344 0.500000 0.500000
O O14 0.250000 0.423247 0.750000
#
# Coordination Sequence:
#
# PCOD9415821 Si02
#       5
#     8   8   8   8   8
#     4   9  17  29  48  77 108 136 168 207 253 300
#     4  10  19  32  54  80 106 139 175 212 252 298
#     4   9  19  35  51  73 104 137 173 209 256 310
#     4   9  17  32  54  76  99 131 172 216 257 299
#     4   9  20  36  53  72  98 132 166 206 262 316
#
# _framework density 18.272877000000001
#
# number of rings (size 3 to 8) (size 9 to 14) (size 15 to 20)
#    0.000    3.200    0.000    1.800    0.000    5.200 
#    0.000   11.000    0.000   15.000    0.000    0.000 
#    0.000    0.000    0.000    0.000    0.000    0.200 
#
# Total GULP energy -222832.993233 kJ/mol
# GULP energy per Si atom -5570.824831 kJ/mol
# Density = 1.823129 g / cm^3
# Si number density = 18.272877 Si / 1000 Ang^3
#
#
#
# Elastic Constant Matrix: (Units=GPa)
#
#
# Indices 1 2 3 4 5 6 
#
# 1 39.6935 37.7058 26.5482 0.0000 0.0000 0.0000
# 2 37.7058 146.8085 77.8009 0.0000 0.0000 0.0000
# 3 26.5482 77.8009 90.8383 0.0000 0.0000 0.0000
# 4 0.0000 0.0000 0.0000 46.7430 0.0000 0.0000
# 5 0.0000 0.0000 0.0000 0.0000 14.2314 0.0000
# 6 0.0000 0.0000 0.0000 0.0000 0.0000 -13.3834
#
#
#
# Elastic Compliance Matrix: (Units=1/GPa)
#
#
# Indices 1 2 3 4 5 6 
#
# 1 0.034317 -0.006407 -0.004542 0.000000 0.000000 0.000000
# 2 -0.006407 0.013669 -0.009835 0.000000 0.000000 0.000000
# 3 -0.004542 -0.009835 0.020759 0.000000 0.000000 0.000000
# 4 0.000000 0.000000 0.000000 0.021394 0.000000 0.000000
# 5 0.000000 0.000000 0.000000 0.000000 0.070267 0.000000
# 6 0.000000 0.000000 0.000000 0.000000 0.000000 -0.074719
#
#
# Mechanical properties :
#
#
# Convention : Reuss Voigt Hill
#
# Bulk Modulus (GPa) = 36.79459 62.38335 49.58897
# Shear Modulus (GPa) = 36.68018 18.53721 27.60870
#
# Velocity S-wave (km/s) = 4.48521 3.18852 3.89126
# Velocity P-wave (km/s) = 6.85586 6.91155 6.88376
#
# Compressibility (1/GPa) = 0.02717791
#
# Stress axis : x y z
#
# Youngs Moduli (GPa) = 29.14013 73.15830 48.17123
#
# Poissons Ratio (x) = 0.46871 0.21880
# Poissons Ratio (y) = 0.18669 0.47375
# Poissons Ratio (z) = 0.13236 0.71949
#
# Static dielectric constant tensor:
#      x y z
#    x 1.691600 0.000000 0.000000 
#    y 0.000000 1.611670 0.000000 
#    z 0.000000 0.000000 1.616500 
# 
# From -- ./inp_files/9793.got.cif
#   From: 2010.05.17/outbox.cif.g08.bks.cpg/sg53_5_cif.got.tgz:9793.got - 2010.06.03 12:45:16.
