data_PCOD9415296
_publ_section_title
;
Structure prediction by ZEFSAII (Michael W. Deem and Ramdas Pophale) SiO2 
 PCOD9415296
Probable space group: P M N A
;
_chemical_formula_sum "Si O2"
_cell_formula_units_Z 64
_cell_length_a 15.091140
_cell_length_b 11.291474
_cell_length_c 17.603694
_cell_angle_alpha 90.000000
_cell_angle_beta 90.000000
_cell_angle_gamma 90.000000
_cell_volume 2999.690845
_symmetry_space_group_name_H-M "P M N A"
_symmetry_group_IT_number 53
_symmetry_cell_setting 'orthorhombic'
loop_
_space_group_symop_operation_xyz
x,y,z
1/2-x,-y,1/2+z
x,-y,-z
1/2-x,y,1/2-z
-x,-y,-z
1/2+x,y,1/2-z
-x,y,z
1/2+x,-y,1/2+z
loop_
_atom_site_type_symbol
_atom_site_label
_atom_site_fract_x
_atom_site_fract_y
_atom_site_fract_z
Si Si1 0.708296 0.262604 0.586382
Si Si2 0.396337 0.627745 0.539316
Si Si3 0.394235 0.615120 0.717933
Si Si4 0.104255 0.875346 0.778136
Si Si5 0.093934 0.735893 0.387421
Si Si6 0.651181 0.645065 0.264968
Si Si7 0.210068 0.011389 0.084513
Si Si8 0.098157 0.983831 0.615885
O O1 0.665648 0.280584 0.504344
O O2 0.809690 0.310859 0.586168
O O3 0.642121 0.327549 0.646030
O O4 0.713703 0.125856 0.610738
O O5 0.383481 0.500000 0.500000
O O6 0.500000 0.660037 0.531797
O O7 0.375630 0.619488 0.628026
O O8 0.500000 0.602345 0.727940
O O9 0.367112 0.743615 0.748369
O O10 0.354053 0.494954 0.750089
O O11 0.000000 0.867494 0.798449
O O12 0.157409 0.917892 0.851482
O O13 0.111775 0.961042 0.705816
O O14 0.093597 0.711361 0.296919
O O15 0.094131 0.876558 0.400407
O O16 0.000000 0.688121 0.418770
O O17 0.750000 0.689023 0.250000
O O18 0.311019 0.060902 0.078049
O O19 0.170913 0.000000 0.000000
O O20 0.000000 0.933717 0.595589
#
# Coordination Sequence:
#
# PCOD9415296 Si02
#       8
#     8   8   8   8   8   8   8   8
#     4  10  20  34  51  77 106 132 172 216 258 315
#     4  10  19  32  52  76 104 139 170 208 264 317
#     4  10  20  34  51  75 105 136 174 213 256 316
#     4  10  21  36  54  77 110 147 177 215 270 329
#     4   9  18  33  54  77 103 132 169 219 267 306
#     4  10  19  30  49  78 101 131 169 213 263 306
#     4  11  22  35  55  81 109 143 179 224 274 319
#     4   9  19  37  58  79 104 141 184 225 271 320
#
# _framework density 21.335532000000001
#
# number of rings (size 3 to 8) (size 9 to 14) (size 15 to 20)
#    0.000    2.125    1.250    2.250    0.000    4.500 
#    0.000    0.000    0.000    0.375    0.000    0.000 
#    0.000    0.000    0.000    0.000    0.000    0.000 
#
# Total GULP energy -356872.520582 kJ/mol
# GULP energy per Si atom -5576.133134 kJ/mol
# Density = 2.128697 g / cm^3
# Si number density = 21.335532 Si / 1000 Ang^3
#
#
#
# Elastic Constant Matrix: (Units=GPa)
#
#
# Indices 1 2 3 4 5 6 
#
# 1 55.6544 2.8184 5.0616 0.0000 0.0000 0.0000
# 2 2.8184 38.5411 -9.4566 0.0000 0.0000 0.0000
# 3 5.0616 -9.4566 30.9780 0.0000 0.0000 0.0000
# 4 0.0000 0.0000 0.0000 21.5871 0.0000 0.0000
# 5 0.0000 0.0000 0.0000 0.0000 17.7912 0.0000
# 6 0.0000 0.0000 0.0000 0.0000 0.0000 21.3858
#
#
#
# Elastic Compliance Matrix: (Units=1/GPa)
#
#
# Indices 1 2 3 4 5 6 
#
# 1 0.018418 -0.002254 -0.003698 0.000000 0.000000 0.000000
# 2 -0.002254 0.028323 0.009014 0.000000 0.000000 0.000000
# 3 -0.003698 0.009014 0.035637 0.000000 0.000000 0.000000
# 4 0.000000 0.000000 0.000000 0.046324 0.000000 0.000000
# 5 0.000000 0.000000 0.000000 0.000000 0.056208 0.000000
# 6 0.000000 0.000000 0.000000 0.000000 0.000000 0.046760
#
#
# Mechanical properties :
#
#
# Convention : Reuss Voigt Hill
#
# Bulk Modulus (GPa) = 11.29892 13.55780 12.42836
# Shear Modulus (GPa) = 19.60432 20.60283 20.10357
#
# Velocity S-wave (km/s) = 3.03456 3.11088 3.07295
# Velocity P-wave (km/s) = 4.19349 4.38996 4.29285
#
# Compressibility (1/GPa) = 0.08850400
#
# Stress axis : x y z
#
# Youngs Moduli (GPa) = 54.29333 35.30699 28.06070
#
# Poissons Ratio (x) = 0.07959 0.10376
# Poissons Ratio (y) = 0.12239 -0.25295
# Poissons Ratio (z) = 0.20075 -0.31827
#
# Static dielectric constant tensor:
#      x y z
#    x 1.815510 0.000000 0.000000 
#    y 0.000000 1.793190 0.000000 
#    z 0.000000 0.000000 1.802580 
# 
# From -- ./inp_files/28562.got.cif
#   From: 2010.05.17/outbox.cif.g08.bks.cpg/sg53_15_cif.got.tgz:28562.got - 2010.06.03 12:45:16.
