data_PCOD9415842
_publ_section_title
;
Structure prediction by ZEFSAII (Michael W. Deem and Ramdas Pophale) SiO2 
 PCOD9415842
Probable space group: P M N A
;
_chemical_formula_sum "Si O2"
_cell_formula_units_Z 56
_cell_length_a 7.898613
_cell_length_b 14.864936
_cell_length_c 21.740613
_cell_angle_alpha 90.000000
_cell_angle_beta 90.000000
_cell_angle_gamma 90.000000
_cell_volume 2552.617044
_symmetry_space_group_name_H-M "P M N A"
_symmetry_group_IT_number 53
_symmetry_cell_setting 'orthorhombic'
loop_
_space_group_symop_operation_xyz
x,y,z
1/2-x,-y,1/2+z
x,-y,-z
1/2-x,y,1/2-z
-x,-y,-z
1/2+x,y,1/2-z
-x,y,z
1/2+x,-y,1/2+z
loop_
_atom_site_type_symbol
_atom_site_label
_atom_site_fract_x
_atom_site_fract_y
_atom_site_fract_z
Si Si1 0.297844 0.653453 0.319215
Si Si2 0.800206 0.834490 0.816155
Si Si3 0.704601 0.486458 0.927575
Si Si4 0.706193 0.025748 0.417592
Si Si5 0.702635 0.812173 0.996866
Si Si6 0.701084 0.678427 0.889684
Si Si7 0.305972 0.167689 0.626691
O O1 0.250000 0.621291 0.250000
O O2 0.500000 0.659548 0.320632
O O3 0.249873 0.592495 0.378805
O O4 0.228761 0.755967 0.329537
O O5 0.750000 0.867318 0.750000
O O6 0.732258 0.902903 0.866463
O O7 0.735882 0.734204 0.828569
O O8 0.000000 0.833316 0.822932
O O9 0.500000 0.482393 0.931106
O O10 0.766820 0.578387 0.895214
O O11 0.759417 0.500000 0.000000
O O12 0.500000 0.019200 0.420647
O O13 0.757070 0.084640 0.477693
O O14 0.769900 0.930220 0.390509
O O15 0.500000 0.803638 0.004530
O O16 0.763292 0.743482 0.944435
O O17 0.797389 0.788356 0.059078
O O18 0.500000 0.672558 0.897659
O O19 0.500000 0.151344 0.646225
#
# Coordination Sequence:
#
# PCOD9415842 Si02
#       7
#     8   8   8   8   8   8   8
#     4  11  25  43  62  86 118 157 202 251 301 358
#     4  10  20  34  53  76 104 139 179 223 270 321
#     4  10  21  40  66  92 118 151 191 239 297 356
#     4   9  19  35  53  76 110 150 188 229 280 337
#     4  10  19  32  54  86 117 143 180 230 280 333
#     4   9  19  35  55  80 110 141 173 214 269 331
#     4  10  21  37  56  78 109 151 191 227 277 338
#
# _framework density 21.938268999999998
#
# number of rings (size 3 to 8) (size 9 to 14) (size 15 to 20)
#    0.000    2.143    0.000    2.571    0.000    7.714 
#    0.000    0.000    0.000    0.000    0.000    0.000 
#    0.000    0.000    0.000    0.000    0.000    0.000 
#
# Total GULP energy -311862.618490 kJ/mol
# GULP energy per Si atom -5568.975330 kJ/mol
# Density = 2.188834 g / cm^3
# Si number density = 21.938269 Si / 1000 Ang^3
#
#
#
# Elastic Constant Matrix: (Units=GPa)
#
#
# Indices 1 2 3 4 5 6 
#
# 1 33.5583 6.7558 -5.6839 0.0000 0.0000 0.0000
# 2 6.7558 128.1045 26.0567 0.0000 0.0000 0.0000
# 3 -5.6839 26.0567 81.1491 0.0000 0.0000 0.0000
# 4 0.0000 0.0000 0.0000 14.5268 0.0000 0.0000
# 5 0.0000 0.0000 0.0000 0.0000 23.6908 0.0000
# 6 0.0000 0.0000 0.0000 0.0000 0.0000 17.9847
#
#
#
# Elastic Compliance Matrix: (Units=1/GPa)
#
#
# Indices 1 2 3 4 5 6 
#
# 1 0.030726 -0.002202 0.002859 0.000000 0.000000 0.000000
# 2 -0.002202 0.008509 -0.002887 0.000000 0.000000 0.000000
# 3 0.002859 -0.002887 0.013450 0.000000 0.000000 0.000000
# 4 0.000000 0.000000 0.000000 0.068839 0.000000 0.000000
# 5 0.000000 0.000000 0.000000 0.000000 0.042211 0.000000
# 6 0.000000 0.000000 0.000000 0.000000 0.000000 0.055603
#
#
# Mechanical properties :
#
#
# Convention : Reuss Voigt Hill
#
# Bulk Modulus (GPa) = 20.73514 33.00767 26.87140
# Shear Modulus (GPa) = 20.84442 25.61933 23.23187
#
# Velocity S-wave (km/s) = 3.08578 3.42100 3.25771
# Velocity P-wave (km/s) = 4.70830 5.53920 5.14057
#
# Compressibility (1/GPa) = 0.04822732
#
# Stress axis : x y z
#
# Youngs Moduli (GPa) = 32.54526 117.51729 74.34870
#
# Poissons Ratio (x) = 0.25877 -0.21258
# Poissons Ratio (y) = 0.07166 0.21461
# Poissons Ratio (z) = -0.09305 0.33922
#
# Static dielectric constant tensor:
#      x y z
#    x 1.788250 0.000000 0.000000 
#    y 0.000000 1.868840 0.000000 
#    z 0.000000 0.000000 1.849800 
# 
# From -- ./inp_files/30763.got.cif
#   From: 2010.05.17/outbox.cif.g08.bks.cpg/sg53_16_cif.got.tgz:30763.got - 2010.06.03 12:45:16.
