data_PCOD9415153
_publ_section_title
;
Structure prediction by ZEFSAII (Michael W. Deem and Ramdas Pophale) SiO2 
 PCOD9415153
Probable space group: P M N A
;
_chemical_formula_sum "Si O2"
_cell_formula_units_Z 48
_cell_length_a 25.239985
_cell_length_b 10.639985
_cell_length_c 9.396665
_cell_angle_alpha 90.000000
_cell_angle_beta 90.000000
_cell_angle_gamma 90.000000
_cell_volume 2523.503156
_symmetry_space_group_name_H-M "P M N A"
_symmetry_group_IT_number 53
_symmetry_cell_setting 'orthorhombic'
loop_
_space_group_symop_operation_xyz
x,y,z
1/2-x,-y,1/2+z
x,-y,-z
1/2-x,y,1/2-z
-x,-y,-z
1/2+x,y,1/2-z
-x,y,z
1/2+x,-y,1/2+z
loop_
_atom_site_type_symbol
_atom_site_label
_atom_site_fract_x
_atom_site_fract_y
_atom_site_fract_z
Si Si1 0.241580 0.839575 0.093919
Si Si2 0.193341 0.804095 0.669467
Si Si3 0.368605 0.876923 0.562689
Si Si4 0.875439 0.551023 0.655254
Si Si5 0.206437 0.559801 0.152073
Si Si6 0.561310 0.370554 0.413336
O O1 0.250000 0.896992 0.250000
O O2 0.234114 0.690374 0.114054
O O3 0.288769 0.859639 0.982423
O O4 0.184985 0.873544 0.030054
O O5 0.250000 0.790540 0.750000
O O6 0.153300 0.878725 0.774513
O O7 0.164141 0.670717 0.645535
O O8 0.400897 0.746644 0.545246
O O9 0.397722 0.000000 0.500000
O O10 0.887647 0.500000 0.500000
O O11 0.845173 0.444934 0.749456
O O12 0.924382 0.596561 0.750186
O O13 0.250000 0.491321 0.250000
O O14 0.194779 0.500000 0.000000
O O15 0.570367 0.500000 0.500000
O O16 0.500000 0.335512 0.430563
#
# Coordination Sequence:
#
# PCOD9415153 Si02
#       6
#     8   8   8   8   8   8
#     4  10  19  29  47  77 112 147 183 218 260 319
#     4   9  18  31  46  73 112 150 185 223 265 320
#     4  10  21  37  56  78 107 145 185 224 271 327
#     4  11  19  29  50  78 110 146 183 227 282 341
#     4  11  18  26  43  72 111 151 189 222 264 322
#     4  10  22  40  60  81 105 135 178 237 294 339
#
# _framework density 19.021176000000001
#
# number of rings (size 3 to 8) (size 9 to 14) (size 15 to 20)
#    0.000    1.833    0.000    8.500    0.000    2.667 
#    0.000    0.833    0.000    0.000    0.000    0.000 
#    0.000   12.000    0.000    0.000    0.000    0.000 
#
# Total GULP energy -267610.706162 kJ/mol
# GULP energy per Si atom -5575.223045 kJ/mol
# Density = 1.897788 g / cm^3
# Si number density = 19.021176 Si / 1000 Ang^3
#
#
#
# Elastic Constant Matrix: (Units=GPa)
#
#
# Indices 1 2 3 4 5 6 
#
# 1 82.0207 35.2096 35.9267 0.0000 0.0000 0.0000
# 2 35.2096 109.1384 53.1734 0.0000 0.0000 0.0000
# 3 35.9267 53.1734 147.8199 0.0000 0.0000 0.0000
# 4 0.0000 0.0000 0.0000 19.0304 0.0000 0.0000
# 5 0.0000 0.0000 0.0000 0.0000 20.8428 0.0000
# 6 0.0000 0.0000 0.0000 0.0000 0.0000 -90.1380
#
#
#
# Elastic Compliance Matrix: (Units=1/GPa)
#
#
# Indices 1 2 3 4 5 6 
#
# 1 0.014756 -0.003653 -0.002272 0.000000 0.000000 0.000000
# 2 -0.003653 0.012014 -0.003434 0.000000 0.000000 0.000000
# 3 -0.002272 -0.003434 0.008552 0.000000 0.000000 0.000000
# 4 0.000000 0.000000 0.000000 0.052548 0.000000 0.000000
# 5 0.000000 0.000000 0.000000 0.000000 0.047978 0.000000
# 6 0.000000 0.000000 0.000000 0.000000 0.000000 -0.011094
#
#
# Mechanical properties :
#
#
# Convention : Reuss Voigt Hill
#
# Bulk Modulus (GPa) = 60.22739 65.28871 62.75805
# Shear Modulus (GPa) = 33.55542 4.25831 18.90687
#
# Velocity S-wave (km/s) = 4.20469 1.49786 3.15618
# Velocity P-wave (km/s) = 7.43671 6.11475 6.80789
#
# Compressibility (1/GPa) = 0.01660374
#
# Stress axis : x y z
#
# Youngs Moduli (GPa) = 67.77098 83.23407 116.92623
#
# Poissons Ratio (x) = 0.30409 0.26566
# Poissons Ratio (y) = 0.24759 0.40150
# Poissons Ratio (z) = 0.15398 0.28581
#
# Static dielectric constant tensor:
#      x y z
#    x 1.648750 0.000000 0.000000 
#    y 0.000000 1.992720 0.000000 
#    z 0.000000 0.000000 1.739230 
# 
# From -- ./inp_files/11739.got.cif
#   From: 2010.05.17/outbox.cif.g08.bks.cpg/sg53_6_cif.got.tgz:11739.got - 2010.06.03 12:45:16.
