data_PCOD9415209
_publ_section_title
;
Structure prediction by ZEFSAII (Michael W. Deem and Ramdas Pophale) SiO2 
 PCOD9415209
Probable space group: P M N A
;
_chemical_formula_sum "Si O2"
_cell_formula_units_Z 40
_cell_length_a 8.569402
_cell_length_b 15.627556
_cell_length_c 13.383064
_cell_angle_alpha 90.000000
_cell_angle_beta 90.000000
_cell_angle_gamma 90.000000
_cell_volume 1792.244000
_symmetry_space_group_name_H-M "P M N A"
_symmetry_group_IT_number 53
_symmetry_cell_setting 'orthorhombic'
loop_
_space_group_symop_operation_xyz
x,y,z
1/2-x,-y,1/2+z
x,-y,-z
1/2-x,y,1/2-z
-x,-y,-z
1/2+x,y,1/2-z
-x,y,z
1/2+x,-y,1/2+z
loop_
_atom_site_type_symbol
_atom_site_label
_atom_site_fract_x
_atom_site_fract_y
_atom_site_fract_z
Si Si1 0.689355 0.192201 0.079325
Si Si2 0.820009 0.837719 0.352326
Si Si3 0.824905 0.014632 0.119002
Si Si4 0.687872 0.562933 0.144917
Si Si5 0.689699 0.378216 0.073175
O O1 0.500000 0.183866 0.082607
O O2 0.763957 0.110629 0.132815
O O3 0.737692 0.286350 0.115545
O O4 0.739884 0.188805 0.961846
O O5 0.750000 0.802103 0.250000
O O6 0.000000 0.815640 0.352225
O O7 0.791901 0.940075 0.348759
O O8 0.000000 0.002624 0.159494
O O9 0.834322 0.000000 0.000000
O O10 0.750000 0.595554 0.250000
O O11 0.500000 0.564309 0.147311
O O12 0.740937 0.464079 0.129155
O O13 0.735897 0.611449 0.043545
O O14 0.500000 0.379065 0.073836
#
# Coordination Sequence:
#
# PCOD9415209 Si02
#       5
#     8   8   8   8   8
#     4   9  17  31  50  69  91 124 163 197 235 288
#     4  10  19  30  46  68  94 124 159 198 240 287
#     4   9  17  30  47  66  90 120 153 190 232 276
#     4   9  17  32  53  74  98 130 166 202 244 295
#     4   8  16  32  52  72  98 134 168 197 241 303
#
# _framework density 22.318390000000001
#
# number of rings (size 3 to 8) (size 9 to 14) (size 15 to 20)
#    0.000    3.000    0.000    2.400    0.000    4.000 
#    0.000    5.000    0.000    2.400    0.000    0.000 
#    0.000    0.000    0.000    0.000    0.000    0.000 
#
# Total GULP energy -223128.248282 kJ/mol
# GULP energy per Si atom -5578.206207 kJ/mol
# Density = 2.226759 g / cm^3
# Si number density = 22.318390 Si / 1000 Ang^3
#
#
#
# Elastic Constant Matrix: (Units=GPa)
#
#
# Indices 1 2 3 4 5 6 
#
# 1 6.4961 -5.1571 4.5765 0.0000 0.0000 0.0000
# 2 -5.1571 128.5443 -10.9920 0.0000 0.0000 0.0000
# 3 4.5765 -10.9920 77.0681 0.0000 0.0000 0.0000
# 4 0.0000 0.0000 0.0000 -5.0646 0.0000 0.0000
# 5 0.0000 0.0000 0.0000 0.0000 23.7133 0.0000
# 6 0.0000 0.0000 0.0000 0.0000 0.0000 -6.5761
#
#
#
# Elastic Compliance Matrix: (Units=1/GPa)
#
#
# Indices 1 2 3 4 5 6 
#
# 1 0.164892 0.005849 -0.008957 0.000000 0.000000 0.000000
# 2 0.005849 0.008083 0.000805 0.000000 0.000000 0.000000
# 3 -0.008957 0.000805 0.013622 0.000000 0.000000 0.000000
# 4 0.000000 0.000000 0.000000 -0.197448 0.000000 0.000000
# 5 0.000000 0.000000 0.000000 0.000000 0.042170 0.000000
# 6 0.000000 0.000000 0.000000 0.000000 0.000000 -0.152066
#
#
# Mechanical properties :
#
#
# Convention : Reuss Voigt Hill
#
# Bulk Modulus (GPa) = 5.49475 20.99591 13.24533
# Shear Modulus (GPa) = -90.12606 17.32659 -36.39974
#
# Velocity S-wave (km/s) = -6.36158 2.78930 -4.04286
# Velocity P-wave (km/s) = 7.17581 4.44989 3.98062
#
# Compressibility (1/GPa) = 0.18199205
#
# Stress axis : x y z
#
# Youngs Moduli (GPa) = 6.06459 123.71681 73.40891
#
# Poissons Ratio (x) = -0.72367 0.65755
# Poissons Ratio (y) = -0.03547 -0.05913
# Poissons Ratio (z) = 0.05432 -0.09965
#
# Static dielectric constant tensor:
#      x y z
#    x 1.780260 0.000000 0.000000 
#    y 0.000000 1.844780 0.000000 
#    z 0.000000 0.000000 2.037580 
# 
# From -- ./inp_files/19875.got.cif
#   From: 2010.05.17/outbox.cif.g08.bks.cpg/sg53_10_cif.got.tgz:19875.got - 2010.06.03 12:45:16.
