data_PCOD9415520
_publ_section_title
;
Structure prediction by ZEFSAII (Michael W. Deem and Ramdas Pophale) SiO2 
 PCOD9415520
Probable space group: P M N A
;
_chemical_formula_sum "Si O2"
_cell_formula_units_Z 48
_cell_length_a 8.778651
_cell_length_b 16.870834
_cell_length_c 18.547212
_cell_angle_alpha 90.000000
_cell_angle_beta 90.000000
_cell_angle_gamma 90.000000
_cell_volume 2746.900776
_symmetry_space_group_name_H-M "P M N A"
_symmetry_group_IT_number 53
_symmetry_cell_setting 'orthorhombic'
loop_
_space_group_symop_operation_xyz
x,y,z
1/2-x,-y,1/2+z
x,-y,-z
1/2-x,y,1/2-z
-x,-y,-z
1/2+x,y,1/2-z
-x,y,z
1/2+x,-y,1/2+z
loop_
_atom_site_type_symbol
_atom_site_label
_atom_site_fract_x
_atom_site_fract_y
_atom_site_fract_z
Si Si1 0.318432 0.334604 0.673630
Si Si2 0.183245 0.014533 0.669812
Si Si3 0.818497 0.152162 0.170145
Si Si4 0.181628 0.741340 0.549184
Si Si5 0.316227 0.588800 0.477367
Si Si6 0.682262 0.181248 0.896704
O O1 0.250000 0.359607 0.750000
O O2 0.500000 0.334782 0.678651
O O3 0.273334 0.388896 0.605060
O O4 0.262106 0.246131 0.653828
O O5 0.250000 0.026189 0.750000
O O6 0.223809 0.091723 0.623398
O O7 0.000000 0.007730 0.673284
O O8 0.252094 0.931909 0.642395
O O9 0.750000 0.163095 0.250000
O O10 0.764279 0.221377 0.117546
O O11 0.000000 0.147891 0.174393
O O12 0.239249 0.654115 0.528275
O O13 0.217574 0.795069 0.478800
O O14 0.000000 0.741740 0.559803
O O15 0.274616 0.500000 0.500000
O O16 0.500000 0.596681 0.482746
O O17 0.500000 0.189471 0.886841
#
# Coordination Sequence:
#
# PCOD9415520 Si02
#       6
#     8   8   8   8   8   8
#     4  10  19  31  51  77 106 138 171 210 256 308
#     4  10  19  32  49  72 102 138 177 216 258 300
#     4  11  22  37  55  75 101 136 177 219 261 305
#     4  10  20  36  56  79 105 134 170 212 261 314
#     4   9  19  37  58  79 105 138 174 214 261 312
#     4   9  19  33  51  75 105 139 173 211 255 306
#
# _framework density 17.474238
#
# number of rings (size 3 to 8) (size 9 to 14) (size 15 to 20)
#    0.000    2.167    0.000    4.500    0.000    5.000 
#    0.000    4.167    0.000    2.000    0.000    0.000 
#    0.000    0.000    0.000    0.000    0.000    0.000 
#
# Total GULP energy -267941.449424 kJ/mol
# GULP energy per Si atom -5582.113530 kJ/mol
# Density = 1.743447 g / cm^3
# Si number density = 17.474238 Si / 1000 Ang^3
#
#
#
# Elastic Constant Matrix: (Units=GPa)
#
#
# Indices 1 2 3 4 5 6 
#
# 1 65.9667 54.8161 44.6142 0.0000 0.0000 0.0000
# 2 54.8161 140.5286 79.1741 0.0000 0.0000 0.0000
# 3 44.6142 79.1741 84.6309 0.0000 0.0000 0.0000
# 4 0.0000 0.0000 0.0000 17.5112 0.0000 0.0000
# 5 0.0000 0.0000 0.0000 0.0000 25.7237 0.0000
# 6 0.0000 0.0000 0.0000 0.0000 0.0000 27.2291
#
#
#
# Elastic Compliance Matrix: (Units=1/GPa)
#
#
# Indices 1 2 3 4 5 6 
#
# 1 0.025079 -0.004935 -0.008604 0.000000 0.000000 0.000000
# 2 -0.004935 0.016018 -0.012383 0.000000 0.000000 0.000000
# 3 -0.008604 -0.012383 0.027936 0.000000 0.000000 0.000000
# 4 0.000000 0.000000 0.000000 0.057106 0.000000 0.000000
# 5 0.000000 0.000000 0.000000 0.000000 0.038875 0.000000
# 6 0.000000 0.000000 0.000000 0.000000 0.000000 0.036725
#
#
# Mechanical properties :
#
#
# Convention : Reuss Voigt Hill
#
# Bulk Modulus (GPa) = 58.17770 72.03724 65.10747
# Shear Modulus (GPa) = 19.28164 21.59426 20.43795
#
# Velocity S-wave (km/s) = 3.32540 3.51918 3.42366
# Velocity P-wave (km/s) = 6.93614 7.60441 7.27795
#
# Compressibility (1/GPa) = 0.01718872
#
# Stress axis : x y z
#
# Youngs Moduli (GPa) = 39.87406 62.42996 35.79548
#
# Poissons Ratio (x) = 0.30811 0.30797
# Poissons Ratio (y) = 0.19679 0.44327
# Poissons Ratio (z) = 0.34306 0.77310
#
# Static dielectric constant tensor:
#      x y z
#    x 1.583690 0.000000 0.000000 
#    y 0.000000 1.575970 0.000000 
#    z 0.000000 0.000000 1.587340 
# 
# From -- ./inp_files/26405.got.cif
#   From: 2010.05.17/outbox.cif.g08.bks.cpg/sg53_14_cif.got.tgz:26405.got - 2010.06.03 12:45:16.
