data_PCOD9415332
_publ_section_title
;
Structure prediction by ZEFSAII (Michael W. Deem and Ramdas Pophale) SiO2 
 PCOD9415332
Probable space group: P M N A
;
_chemical_formula_sum "Si O2"
_cell_formula_units_Z 64
_cell_length_a 8.247259
_cell_length_b 18.940720
_cell_length_c 23.882527
_cell_angle_alpha 90.000000
_cell_angle_beta 90.000000
_cell_angle_gamma 90.000000
_cell_volume 3730.666221
_symmetry_space_group_name_H-M "P M N A"
_symmetry_group_IT_number 53
_symmetry_cell_setting 'orthorhombic'
loop_
_space_group_symop_operation_xyz
x,y,z
1/2-x,-y,1/2+z
x,-y,-z
1/2-x,y,1/2-z
-x,-y,-z
1/2+x,y,1/2-z
-x,y,z
1/2+x,-y,1/2+z
loop_
_atom_site_type_symbol
_atom_site_label
_atom_site_fract_x
_atom_site_fract_y
_atom_site_fract_z
Si Si1 0.305765 0.086661 0.685157
Si Si2 0.306799 0.761932 0.185520
Si Si3 0.303854 0.629730 0.112442
Si Si4 0.303484 0.219839 0.314671
Si Si5 0.305852 0.497936 0.187407
Si Si6 0.195205 0.360317 0.124891
Si Si7 0.804302 0.065438 0.185199
Si Si8 0.695630 0.581225 0.505949
O O1 0.250000 0.086396 0.750000
O O2 0.500000 0.088891 0.683640
O O3 0.242322 0.160966 0.662551
O O4 0.250089 0.010580 0.660963
O O5 0.250000 0.754432 0.250000
O O6 0.500000 0.758730 0.186914
O O7 0.246064 0.698283 0.146623
O O8 0.500000 0.630330 0.112763
O O9 0.249237 0.559306 0.145280
O O10 0.246048 0.623963 0.048944
O O11 0.250000 0.227936 0.250000
O O12 0.500000 0.220541 0.314988
O O13 0.244549 0.285473 0.351583
O O14 0.249607 0.142188 0.336292
O O15 0.250000 0.514246 0.250000
O O16 0.500000 0.495710 0.185937
O O17 0.239454 0.422873 0.167311
O O18 0.255266 0.383636 0.063550
O O19 0.000000 0.355943 0.121902
O O20 0.750000 0.065216 0.250000
O O21 0.000000 0.064987 0.183288
O O22 0.753928 0.500000 0.500000
O O23 0.500000 0.578843 0.508312
#
# Coordination Sequence:
#
# PCOD9415332 Si02
#       8
#     8   8   8   8   8   8   8   8
#     4   9  15  24  40  63  91 122 154 183 220 268
#     4  10  19  31  46  68  97 125 155 189 231 278
#     4  10  22  36  50  69  92 122 157 194 235 277
#     4   9  17  29  45  66  96 126 153 186 226 272
#     4  11  22  34  49  69  94 124 155 187 229 278
#     4  10  20  34  50  70  94 122 156 194 236 278
#     4   8  14  24  39  61  89 122 153 182 217 265
#     4  10  20  35  54  72  90 117 156 201 242 279
#
# _framework density 17.155111999999999
#
# number of rings (size 3 to 8) (size 9 to 14) (size 15 to 20)
#    0.000    2.375    1.250    2.625    0.000    4.250 
#    0.000    0.000    0.000    0.000    0.000    0.875 
#    0.000    7.000    0.000    0.000    0.000    0.000 
#
# Total GULP energy -356617.477087 kJ/mol
# GULP energy per Si atom -5572.148079 kJ/mol
# Density = 1.711607 g / cm^3
# Si number density = 17.155112 Si / 1000 Ang^3
#
#
#
# Elastic Constant Matrix: (Units=GPa)
#
#
# Indices 1 2 3 4 5 6 
#
# 1 9.9319 10.9797 2.0452 0.0000 0.0000 0.0000
# 2 10.9797 137.8817 19.8085 0.0000 0.0000 0.0000
# 3 2.0452 19.8085 53.6632 0.0000 0.0000 0.0000
# 4 0.0000 0.0000 0.0000 -1.7349 0.0000 0.0000
# 5 0.0000 0.0000 0.0000 0.0000 18.9363 0.0000
# 6 0.0000 0.0000 0.0000 0.0000 0.0000 14.9409
#
#
#
# Elastic Compliance Matrix: (Units=1/GPa)
#
#
# Indices 1 2 3 4 5 6 
#
# 1 0.110457 -0.008650 -0.001017 0.000000 0.000000 0.000000
# 2 -0.008650 0.008336 -0.002747 0.000000 0.000000 0.000000
# 3 -0.001017 -0.002747 0.019688 0.000000 0.000000 0.000000
# 4 0.000000 0.000000 0.000000 -0.576413 0.000000 0.000000
# 5 0.000000 0.000000 0.000000 0.000000 0.052808 0.000000
# 6 0.000000 0.000000 0.000000 0.000000 0.000000 0.066930
#
#
# Mechanical properties :
#
#
# Convention : Reuss Voigt Hill
#
# Bulk Modulus (GPa) = 8.79871 29.68263 19.24067
# Shear Modulus (GPa) = -19.57092 17.67137 -0.94978
#
# Velocity S-wave (km/s) = -3.38127 3.21299 -0.74488
# Velocity P-wave (km/s) = 3.17867 5.57714 3.24041
#
# Compressibility (1/GPa) = 0.11365300
#
# Stress axis : x y z
#
# Youngs Moduli (GPa) = 9.05327 119.96033 50.79327
#
# Poissons Ratio (x) = 1.03763 0.05165
# Poissons Ratio (y) = 0.07831 0.13955
# Poissons Ratio (z) = 0.00921 0.32958
#
# Static dielectric constant tensor:
#      x y z
#    x 1.595450 0.000000 0.000000 
#    y 0.000000 1.640280 0.000000 
#    z 0.000000 0.000000 1.716280 
# 
# From -- ./inp_files/34538.got.cif
#   From: 2010.05.17/outbox.cif.g08.bks.cpg/sg53_18_cif.got.tgz:34538.got - 2010.06.03 12:45:16.
