data_PCOD9415695
_publ_section_title
;
Structure prediction by ZEFSAII (Michael W. Deem and Ramdas Pophale) SiO2 
 PCOD9415695
Probable space group: P M N A
;
_chemical_formula_sum "Si O2"
_cell_formula_units_Z 48
_cell_length_a 9.095647
_cell_length_b 18.652603
_cell_length_c 16.689244
_cell_angle_alpha 90.000000
_cell_angle_beta 90.000000
_cell_angle_gamma 90.000000
_cell_volume 2831.455289
_symmetry_space_group_name_H-M "P M N A"
_symmetry_group_IT_number 53
_symmetry_cell_setting 'orthorhombic'
loop_
_space_group_symop_operation_xyz
x,y,z
1/2-x,-y,1/2+z
x,-y,-z
1/2-x,y,1/2-z
-x,-y,-z
1/2+x,y,1/2-z
-x,y,z
1/2+x,-y,1/2+z
loop_
_atom_site_type_symbol
_atom_site_label
_atom_site_fract_x
_atom_site_fract_y
_atom_site_fract_z
Si Si1 0.175246 0.082096 0.167787
Si Si2 0.668315 0.044589 0.916404
Si Si3 0.332011 0.549217 0.919691
Si Si4 0.175167 0.832988 0.994450
Si Si5 0.824972 0.334294 0.985937
Si Si6 0.177170 0.591357 0.333506
O O1 0.250000 0.105898 0.250000
O O2 0.000000 0.079057 0.176380
O O3 0.238386 0.004050 0.143890
O O4 0.210733 0.134448 0.093138
O O5 0.500000 0.051771 0.889470
O O6 0.740057 0.120167 0.939519
O O7 0.668514 0.000000 0.000000
O O8 0.500000 0.572801 0.905550
O O9 0.286129 0.492331 0.852306
O O10 0.333284 0.500000 0.000000
O O11 0.230284 0.616034 0.940854
O O12 0.208215 0.749046 0.999569
O O13 0.000000 0.843104 0.006077
O O14 0.742659 0.362489 0.906548
O O15 0.000000 0.342914 0.975955
O O16 0.250000 0.612725 0.250000
O O17 0.000000 0.597330 0.332415
#
# Coordination Sequence:
#
# PCOD9415695 Si02
#       6
#     8   8   8   8   8   8
#     4  10  19  33  52  73 100 131 165 207 251 293
#     4   9  17  30  50  74  96 123 162 201 239 289
#     4   8  16  31  49  70  96 126 162 201 241 288
#     4   9  19  34  51  73 102 135 167 202 246 296
#     4  10  19  32  52  76 102 133 168 203 245 299
#     4  10  20  34  52  74 100 130 166 209 254 297
#
# _framework density 16.952414000000001
#
# number of rings (size 3 to 8) (size 9 to 14) (size 15 to 20)
#    0.000    2.667    0.000    3.000    0.000    7.667 
#    0.000    1.667    0.000    8.000    0.000    0.000 
#    0.000    0.000    0.000    0.000    0.000    0.000 
#
# Total GULP energy -267508.686265 kJ/mol
# GULP energy per Si atom -5573.097631 kJ/mol
# Density = 1.691383 g / cm^3
# Si number density = 16.952414 Si / 1000 Ang^3
#
#
#
# Elastic Constant Matrix: (Units=GPa)
#
#
# Indices 1 2 3 4 5 6 
#
# 1 77.7599 66.2315 42.6465 0.0000 0.0000 0.0000
# 2 66.2315 121.1142 35.9872 0.0000 0.0000 0.0000
# 3 42.6465 35.9872 70.1414 0.0000 0.0000 0.0000
# 4 0.0000 0.0000 0.0000 15.4676 0.0000 0.0000
# 5 0.0000 0.0000 0.0000 0.0000 20.1667 0.0000
# 6 0.0000 0.0000 0.0000 0.0000 0.0000 26.5681
#
#
#
# Elastic Compliance Matrix: (Units=1/GPa)
#
#
# Indices 1 2 3 4 5 6 
#
# 1 0.030611 -0.013226 -0.011826 0.000000 0.000000 0.000000
# 2 -0.013226 0.015456 0.000111 0.000000 0.000000 0.000000
# 3 -0.011826 0.000111 0.021390 0.000000 0.000000 0.000000
# 4 0.000000 0.000000 0.000000 0.064651 0.000000 0.000000
# 5 0.000000 0.000000 0.000000 0.000000 0.049587 0.000000
# 6 0.000000 0.000000 0.000000 0.000000 0.000000 0.037639
#
#
# Mechanical properties :
#
#
# Convention : Reuss Voigt Hill
#
# Bulk Modulus (GPa) = 56.89470 62.08288 59.48879
# Shear Modulus (GPa) = 18.17698 20.71717 19.44707
#
# Velocity S-wave (km/s) = 3.27805 3.49962 3.39064
# Velocity P-wave (km/s) = 6.92544 7.28225 7.10608
#
# Compressibility (1/GPa) = 0.01757633
#
# Stress axis : x y z
#
# Youngs Moduli (GPa) = 32.66824 64.69953 46.75068
#
# Poissons Ratio (x) = 0.85569 0.55287
# Poissons Ratio (y) = 0.43206 -0.00520
# Poissons Ratio (z) = 0.38633 -0.00720
#
# Static dielectric constant tensor:
#      x y z
#    x 1.568780 0.000000 0.000000 
#    y 0.000000 1.563110 0.000000 
#    z 0.000000 0.000000 1.579170 
# 
# From -- ./inp_files/20167.got.cif
#   From: 2010.05.17/outbox.cif.g08.bks.cpg/sg53_11_cif.got.tgz:20167.got - 2010.06.03 12:45:16.
