data_PCOD9415652
_publ_section_title
;
Structure prediction by ZEFSAII (Michael W. Deem and Ramdas Pophale) SiO2 
 PCOD9415652
Probable space group: P M N A
;
_chemical_formula_sum "Si O2"
_cell_formula_units_Z 40
_cell_length_a 8.477882
_cell_length_b 27.164336
_cell_length_c 9.277046
_cell_angle_alpha 90.000000
_cell_angle_beta 90.000000
_cell_angle_gamma 90.000000
_cell_volume 2136.466912
_symmetry_space_group_name_H-M "P M N A"
_symmetry_group_IT_number 53
_symmetry_cell_setting 'orthorhombic'
loop_
_space_group_symop_operation_xyz
x,y,z
1/2-x,-y,1/2+z
x,-y,-z
1/2-x,y,1/2-z
-x,-y,-z
1/2+x,y,1/2-z
-x,y,z
1/2+x,-y,1/2+z
loop_
_atom_site_type_symbol
_atom_site_label
_atom_site_fract_x
_atom_site_fract_y
_atom_site_fract_z
Si Si1 0.190728 0.645403 0.412815
Si Si2 0.690663 0.047530 0.413435
Si Si3 0.688718 0.741842 0.914212
Si Si4 0.690658 0.548503 0.913115
Si Si5 0.188986 0.845073 0.915011
O O1 0.250000 0.642911 0.250000
O O2 0.243321 0.695455 0.491944
O O3 0.243022 0.597732 0.503628
O O4 0.000000 0.645415 0.411370
O O5 0.750000 0.044654 0.250000
O O6 0.500000 0.046555 0.411845
O O7 0.737118 0.101364 0.475629
O O8 0.748079 0.000000 0.500000
O O9 0.750000 0.737261 0.750000
O O10 0.500000 0.741883 0.908635
O O11 0.744253 0.794379 0.977264
O O12 0.750000 0.547836 0.750000
O O13 0.500000 0.548468 0.910791
O O14 0.742985 0.500000 0.000000
O O15 0.250000 0.845725 0.750000
O O16 0.000000 0.842084 0.914652
#
# Coordination Sequence:
#
# PCOD9415652 Si02
#       5
#     8   8   8   8   8
#     4  10  22  37  53  76 105 137 172 209 250 299
#     4   9  18  32  49  71  98 127 162 203 246 296
#     4  10  19  32  51  75 100 127 165 208 249 297
#     4  10  21  37  57  82 109 137 173 213 253 300
#     4   9  16  28  48  71  96 127 163 203 247 294
#
# _framework density 18.7225
#
# number of rings (size 3 to 8) (size 9 to 14) (size 15 to 20)
#    0.000    2.400    0.000    3.600    0.000    4.000 
#    0.000    1.000    0.000    4.800    0.000    0.000 
#    0.000    0.000    0.000    0.000    0.000    0.000 
#
# Total GULP energy -223080.602689 kJ/mol
# GULP energy per Si atom -5577.015067 kJ/mol
# Density = 1.867989 g / cm^3
# Si number density = 18.722500 Si / 1000 Ang^3
#
#
#
# Elastic Constant Matrix: (Units=GPa)
#
#
# Indices 1 2 3 4 5 6 
#
# 1 20.4070 33.5680 13.4128 0.0000 0.0000 0.0000
# 2 33.5680 242.3819 96.8125 0.0000 0.0000 0.0000
# 3 13.4128 96.8125 105.5887 0.0000 0.0000 0.0000
# 4 0.0000 0.0000 0.0000 33.8560 0.0000 0.0000
# 5 0.0000 0.0000 0.0000 0.0000 24.1213 0.0000
# 6 0.0000 0.0000 0.0000 0.0000 0.0000 25.4357
#
#
#
# Elastic Compliance Matrix: (Units=1/GPa)
#
#
# Indices 1 2 3 4 5 6 
#
# 1 0.063459 -0.008787 -0.000005 0.000000 0.000000 0.000000
# 2 -0.008787 0.007726 -0.005968 0.000000 0.000000 0.000000
# 3 -0.000005 -0.005968 0.014943 0.000000 0.000000 0.000000
# 4 0.000000 0.000000 0.000000 0.029537 0.000000 0.000000
# 5 0.000000 0.000000 0.000000 0.000000 0.041457 0.000000
# 6 0.000000 0.000000 0.000000 0.000000 0.000000 0.039315
#
#
# Mechanical properties :
#
#
# Convention : Reuss Voigt Hill
#
# Bulk Modulus (GPa) = 17.66470 72.88493 45.27481
# Shear Modulus (GPa) = 20.42258 31.65488 26.03873
#
# Velocity S-wave (km/s) = 3.30632 4.11632 3.73335
# Velocity P-wave (km/s) = 4.90216 7.84893 6.54358
#
# Compressibility (1/GPa) = 0.05661008
#
# Stress axis : x y z
#
# Youngs Moduli (GPa) = 15.75808 129.42700 66.91972
#
# Poissons Ratio (x) = 1.13724 0.00032
# Poissons Ratio (y) = 0.13846 0.39938
# Poissons Ratio (z) = 0.00008 0.77242
#
# Static dielectric constant tensor:
#      x y z
#    x 1.643130 0.000000 0.000000 
#    y 0.000000 1.703700 0.000000 
#    z 0.000000 0.000000 1.585260 
# 
# From -- ./inp_files/6442.got.cif
#   From: 2010.05.17/outbox.cif.g08.bks.cpg/sg53_4_cif.got.tgz:6442.got - 2010.06.03 12:45:16.
