data_PCOD9415396
_publ_section_title
;
Structure prediction by ZEFSAII (Michael W. Deem and Ramdas Pophale) SiO2 
 PCOD9415396
Probable space group: P M N A
;
_chemical_formula_sum "Si O2"
_cell_formula_units_Z 48
_cell_length_a 8.921039
_cell_length_b 12.995425
_cell_length_c 25.661478
_cell_angle_alpha 90.000000
_cell_angle_beta 90.000000
_cell_angle_gamma 90.000000
_cell_volume 2975.004257
_symmetry_space_group_name_H-M "P M N A"
_symmetry_group_IT_number 53
_symmetry_cell_setting 'orthorhombic'
loop_
_space_group_symop_operation_xyz
x,y,z
1/2-x,-y,1/2+z
x,-y,-z
1/2-x,y,1/2-z
-x,-y,-z
1/2+x,y,1/2-z
-x,y,z
1/2+x,-y,1/2+z
loop_
_atom_site_type_symbol
_atom_site_label
_atom_site_fract_x
_atom_site_fract_y
_atom_site_fract_z
Si Si1 0.179141 0.380598 0.110149
Si Si2 0.820840 0.773497 0.692371
Si Si3 0.820368 0.620805 0.106491
Si Si4 0.679272 0.996752 0.192223
Si Si5 0.671885 0.375149 0.001649
Si Si6 0.679795 0.211122 0.692431
O O1 0.254070 0.311454 0.154259
O O2 0.220801 0.501428 0.116499
O O3 0.235926 0.346442 0.053074
O O4 0.000000 0.372723 0.113074
O O5 0.750000 0.764933 0.750000
O O6 0.789558 0.889163 0.670696
O O7 0.000000 0.763110 0.696729
O O8 0.782573 0.694055 0.154767
O O9 0.000000 0.623417 0.099041
O O10 0.743401 0.657334 0.053097
O O11 0.750000 0.000127 0.250000
O O12 0.500000 0.983149 0.195033
O O13 0.754601 0.895135 0.168723
O O14 0.500000 0.341328 0.006261
O O15 0.673797 0.500000 0.000000
O O16 0.750000 0.224923 0.750000
O O17 0.500000 0.203155 0.697133
#
# Coordination Sequence:
#
# PCOD9415396 Si02
#       6
#     8   8   8   8   8   8
#     4  10  19  32  50  71  98 129 159 193 235 282
#     4  10  20  33  49  71  98 126 159 197 237 282
#     4   9  19  33  48  70  98 128 159 193 235 281
#     4   9  17  30  48  68  91 121 158 197 234 275
#     4   9  17  30  49  71  93 122 161 199 233 275
#     4  10  19  31  48  70  97 126 158 194 233 279
#
# _framework density 16.134429999999998
#
# number of rings (size 3 to 8) (size 9 to 14) (size 15 to 20)
#    0.000    2.500    0.000    3.500    0.000    6.667 
#    0.000    1.667    0.000    1.000    0.000    7.000 
#    0.000    0.000    0.000    0.000    0.000    0.000 
#
# Total GULP energy -267437.855421 kJ/mol
# GULP energy per Si atom -5571.621988 kJ/mol
# Density = 1.609771 g / cm^3
# Si number density = 16.134430 Si / 1000 Ang^3
#
#
#
# Elastic Constant Matrix: (Units=GPa)
#
#
# Indices 1 2 3 4 5 6 
#
# 1 73.2109 54.5677 51.1096 0.0000 0.0000 0.0000
# 2 54.5677 104.9561 68.6208 0.0000 0.0000 0.0000
# 3 51.1096 68.6208 101.1516 0.0000 0.0000 0.0000
# 4 0.0000 0.0000 0.0000 -2.9344 0.0000 0.0000
# 5 0.0000 0.0000 0.0000 0.0000 28.1341 0.0000
# 6 0.0000 0.0000 0.0000 0.0000 0.0000 27.8342
#
#
#
# Elastic Compliance Matrix: (Units=1/GPa)
#
#
# Indices 1 2 3 4 5 6 
#
# 1 0.024625 -0.008388 -0.006752 0.000000 0.000000 0.000000
# 2 -0.008388 0.019980 -0.009316 0.000000 0.000000 0.000000
# 3 -0.006752 -0.009316 0.019617 0.000000 0.000000 0.000000
# 4 0.000000 0.000000 0.000000 -0.340782 0.000000 0.000000
# 5 0.000000 0.000000 0.000000 0.000000 0.035544 0.000000
# 6 0.000000 0.000000 0.000000 0.000000 0.000000 0.035927
#
#
# Mechanical properties :
#
#
# Convention : Reuss Voigt Hill
#
# Bulk Modulus (GPa) = 65.31535 69.76827 67.54181
# Shear Modulus (GPa) = -33.09626 17.60814 -7.74406
#
# Velocity S-wave (km/s) = -4.53402 3.30713 -2.19320
# Velocity P-wave (km/s) = 3.62768 7.61042 5.96148
#
# Compressibility (1/GPa) = 0.01531034
#
# Stress axis : x y z
#
# Youngs Moduli (GPa) = 40.60916 50.05110 50.97538
#
# Poissons Ratio (x) = 0.41985 0.34417
# Poissons Ratio (y) = 0.34065 0.47487
# Poissons Ratio (z) = 0.27418 0.46625
#
# Static dielectric constant tensor:
#      x y z
#    x 1.541250 0.000000 0.000000 
#    y 0.000000 1.562020 0.000000 
#    z 0.000000 0.000000 1.513200 
# 
# From -- ./inp_files/30475.got.cif
#   From: 2010.05.17/outbox.cif.g08.bks.cpg/sg53_16_cif.got.tgz:30475.got - 2010.06.03 12:45:16.
