data_PCOD9415765
_publ_section_title
;
Structure prediction by ZEFSAII (Michael W. Deem and Ramdas Pophale) SiO2 
 PCOD9415765
Probable space group: P M N A
;
_chemical_formula_sum "Si O2"
_cell_formula_units_Z 48
_cell_length_a 27.303995
_cell_length_b 13.969047
_cell_length_c 5.359641
_cell_angle_alpha 90.000000
_cell_angle_beta 90.000000
_cell_angle_gamma 90.000000
_cell_volume 2044.224905
_symmetry_space_group_name_H-M "P M N A"
_symmetry_group_IT_number 53
_symmetry_cell_setting 'orthorhombic'
loop_
_space_group_symop_operation_xyz
x,y,z
1/2-x,-y,1/2+z
x,-y,-z
1/2-x,y,1/2-z
-x,-y,-z
1/2+x,y,1/2-z
-x,y,z
1/2+x,-y,1/2+z
loop_
_atom_site_type_symbol
_atom_site_label
_atom_site_fract_x
_atom_site_fract_y
_atom_site_fract_z
Si Si1 0.197095 0.563688 0.749217
Si Si2 0.942860 0.135769 0.582289
Si Si3 0.394261 0.857725 0.580613
Si Si4 0.445066 0.631846 0.130844
Si Si5 0.096711 0.638017 0.870401
Si Si6 0.221108 0.116021 0.001390
O O1 0.193136 0.500000 0.500000
O O2 0.250000 0.612651 0.750000
O O3 0.151459 0.632320 0.768331
O O4 0.195876 0.500000 0.000000
O O5 0.909044 0.103509 0.351842
O O6 0.939775 0.252545 0.599750
O O7 0.000000 0.112565 0.543173
O O8 0.922248 0.098437 0.844725
O O9 0.414592 0.749318 0.595739
O O10 0.336267 0.856522 0.521606
O O11 0.500000 0.612587 0.215670
O O12 0.409355 0.597418 0.351239
O O13 0.435708 0.594938 0.851605
O O14 0.250000 0.148246 0.750000
O O15 0.250000 0.147156 0.250000
O O16 0.221585 0.000000 0.000000
#
# Coordination Sequence:
#
# PCOD9415765 Si02
#       6
#     8   8   8   8   8   8
#     4  10  21  37  54  71  96 133 169 202 252 311
#     4   9  17  30  50  77 107 136 167 206 255 309
#     4  10  19  32  53  80 104 131 172 217 255 294
#     4   9  17  30  50  76 104 132 163 201 249 303
#     4  10  19  32  53  78 100 128 168 212 250 289
#     4  10  21  37  55  75 104 143 178 210 260 320
#
# _framework density 23.480782999999999
#
# number of rings (size 3 to 8) (size 9 to 14) (size 15 to 20)
#    0.000    2.333    0.000    3.000    0.000    4.667 
#    0.000    2.500    0.000   13.000    0.000    0.000 
#    0.000    0.000    0.000    0.000    0.000    0.000 
#
# Total GULP energy -268145.326305 kJ/mol
# GULP energy per Si atom -5586.360965 kJ/mol
# Density = 2.342734 g / cm^3
# Si number density = 23.480783 Si / 1000 Ang^3
#
#
#
# Elastic Constant Matrix: (Units=GPa)
#
#
# Indices 1 2 3 4 5 6 
#
# 1 113.6763 -20.9894 73.3728 0.0000 0.0000 0.0000
# 2 -20.9894 51.8015 21.3742 0.0000 0.0000 0.0000
# 3 73.3728 21.3742 221.9796 0.0000 0.0000 0.0000
# 4 0.0000 0.0000 0.0000 16.9218 0.0000 0.0000
# 5 0.0000 0.0000 0.0000 0.0000 63.5239 0.0000
# 6 0.0000 0.0000 0.0000 0.0000 0.0000 29.3043
#
#
#
# Elastic Compliance Matrix: (Units=1/GPa)
#
#
# Indices 1 2 3 4 5 6 
#
# 1 0.013587 0.007663 -0.005229 0.000000 0.000000 0.000000
# 2 0.007663 0.024425 -0.004885 0.000000 0.000000 0.000000
# 3 -0.005229 -0.004885 0.006704 0.000000 0.000000 0.000000
# 4 0.000000 0.000000 0.000000 0.059096 0.000000 0.000000
# 5 0.000000 0.000000 0.000000 0.000000 0.015742 0.000000
# 6 0.000000 0.000000 0.000000 0.000000 0.000000 0.034125
#
#
# Mechanical properties :
#
#
# Convention : Reuss Voigt Hill
#
# Bulk Modulus (GPa) = 25.11713 59.44138 42.27926
# Shear Modulus (GPa) = 29.09517 42.86332 35.97924
#
# Velocity S-wave (km/s) = 3.52391 4.27718 3.91869
# Velocity P-wave (km/s) = 5.22278 7.05423 6.20643
#
# Compressibility (1/GPa) = 0.03981346
#
# Stress axis : x y z
#
# Youngs Moduli (GPa) = 73.60163 40.94212 149.17465
#
# Poissons Ratio (x) = -0.31372 0.77999
# Poissons Ratio (y) = -0.56398 0.72866
# Poissons Ratio (z) = 0.38484 0.19999
#
# Static dielectric constant tensor:
#      x y z
#    x 1.826440 0.000000 0.000000 
#    y 0.000000 1.921450 0.000000 
#    z 0.000000 0.000000 1.932620 
# 
# From -- ./inp_files/3755.got.cif
#   From: 2010.05.17/outbox.cif.g08.bks.cpg/sg53_2_cif.got.tgz:3755.got - 2010.06.03 12:45:16.
