data_PCOD9415583
_publ_section_title
;
Structure prediction by ZEFSAII (Michael W. Deem and Ramdas Pophale) SiO2 
 PCOD9415583
Probable space group: P M N A
;
_chemical_formula_sum "Si O2"
_cell_formula_units_Z 64
_cell_length_a 8.771956
_cell_length_b 14.822564
_cell_length_c 31.158522
_cell_angle_alpha 90.000000
_cell_angle_beta 90.000000
_cell_angle_gamma 90.000000
_cell_volume 4051.320743
_symmetry_space_group_name_H-M "P M N A"
_symmetry_group_IT_number 53
_symmetry_cell_setting 'orthorhombic'
loop_
_space_group_symop_operation_xyz
x,y,z
1/2-x,-y,1/2+z
x,-y,-z
1/2-x,y,1/2-z
-x,-y,-z
1/2+x,y,1/2-z
-x,y,z
1/2+x,-y,1/2+z
loop_
_atom_site_type_symbol
_atom_site_label
_atom_site_fract_x
_atom_site_fract_y
_atom_site_fract_z
Si Si1 0.319211 0.935673 0.618553
Si Si2 0.822524 0.752064 0.026488
Si Si3 0.325391 0.741684 0.576034
Si Si4 0.817280 0.864685 0.703350
Si Si5 0.184807 0.442452 0.542518
Si Si6 0.319372 0.427814 0.116961
Si Si7 0.315831 0.654130 0.796335
Si Si8 0.317284 0.054441 0.956756
O O1 0.500000 0.950940 0.621644
O O2 0.293689 0.837601 0.597226
O O3 0.246866 0.927285 0.665637
O O4 0.246483 0.006340 0.585695
O O5 0.747523 0.658544 0.041154
O O6 0.740077 0.842979 0.041348
O O7 0.000000 0.754855 0.039023
O O8 0.814350 0.751261 0.974832
O O9 0.500000 0.715122 0.586892
O O10 0.212288 0.665726 0.592559
O O11 0.750000 0.887362 0.750000
O O12 0.773433 0.759192 0.694698
O O13 0.000000 0.869103 0.704306
O O14 0.231127 0.500000 0.500000
O O15 0.239537 0.494439 0.585357
O O16 0.000000 0.440205 0.542291
O O17 0.500000 0.442146 0.120708
O O18 0.260317 0.409977 0.165074
O O19 0.250000 0.630114 0.750000
O O20 0.500000 0.651178 0.794814
O O21 0.500000 0.052058 0.956182
O O22 0.266234 0.000000 0.000000
#
# Coordination Sequence:
#
# PCOD9415583 Si02
#       8
#     8   8   8   8   8   8   8   8
#     4  11  21  34  51  74 104 138 174 211 256 304
#     4  11  22  36  51  71 102 136 171 213 255 298
#     4  10  20  30  46  71 101 135 169 207 249 295
#     4  10  19  32  50  74 104 136 172 211 255 306
#     4  10  20  33  51  73  99 133 171 208 248 299
#     4  10  19  32  49  71  99 134 172 207 246 294
#     4   9  18  30  46  69  98 131 165 205 248 294
#     4  11  23  36  53  75 100 134 175 214 255 307
#
# _framework density 15.797318000000001
#
# number of rings (size 3 to 8) (size 9 to 14) (size 15 to 20)
#    0.000    1.750    3.750    1.500    0.000    3.250 
#    0.000    0.000    0.000    0.000    0.000    0.875 
#    0.000    2.000    0.000    0.000    0.000    0.000 
#
# Total GULP energy -357023.842663 kJ/mol
# GULP energy per Si atom -5578.497542 kJ/mol
# Density = 1.576136 g / cm^3
# Si number density = 15.797318 Si / 1000 Ang^3
#
#
#
# Elastic Constant Matrix: (Units=GPa)
#
#
# Indices 1 2 3 4 5 6 
#
# 1 28.4401 38.5106 36.8876 0.0000 0.0000 0.0000
# 2 38.5106 95.8437 70.4806 0.0000 0.0000 0.0000
# 3 36.8876 70.4806 130.4194 0.0000 0.0000 0.0000
# 4 0.0000 0.0000 0.0000 22.4641 0.0000 0.0000
# 5 0.0000 0.0000 0.0000 0.0000 24.1342 0.0000
# 6 0.0000 0.0000 0.0000 0.0000 0.0000 21.7895
#
#
#
# Elastic Compliance Matrix: (Units=1/GPa)
#
#
# Indices 1 2 3 4 5 6 
#
# 1 0.083110 -0.026731 -0.009061 0.000000 0.000000 0.000000
# 2 -0.026731 0.025912 -0.006443 0.000000 0.000000 0.000000
# 3 -0.009061 -0.006443 0.013712 0.000000 0.000000 0.000000
# 4 0.000000 0.000000 0.000000 0.044515 0.000000 0.000000
# 5 0.000000 0.000000 0.000000 0.000000 0.041435 0.000000
# 6 0.000000 0.000000 0.000000 0.000000 0.000000 0.045894
#
#
# Mechanical properties :
#
#
# Convention : Reuss Voigt Hill
#
# Bulk Modulus (GPa) = 26.13351 60.71786 43.42569
# Shear Modulus (GPa) = 14.21250 20.93252 17.57251
#
# Velocity S-wave (km/s) = 3.00272 3.64410 3.33884
# Velocity P-wave (km/s) = 5.34796 7.49833 6.51251
#
# Compressibility (1/GPa) = 0.03826504
#
# Stress axis : x y z
#
# Youngs Moduli (GPa) = 12.03222 38.59189 72.92843
#
# Poissons Ratio (x) = 1.03160 0.66079
# Poissons Ratio (y) = 0.32163 0.46986
# Poissons Ratio (z) = 0.10902 0.24864
#
# Static dielectric constant tensor:
#      x y z
#    x 1.537330 0.000000 0.000000 
#    y 0.000000 1.501750 0.000000 
#    z 0.000000 0.000000 1.535060 
# 
# From -- ./inp_files/38497.got.cif
#   From: 2010.05.17/outbox.cif.g08.bks.cpg/sg53_20_cif.got.tgz:38497.got - 2010.06.03 12:45:16.
