data_PCOD9415419
_publ_section_title
;
Structure prediction by ZEFSAII (Michael W. Deem and Ramdas Pophale) SiO2 
 PCOD9415419
Probable space group: P M N A
;
_chemical_formula_sum "Si O2"
_cell_formula_units_Z 64
_cell_length_a 9.087514
_cell_length_b 23.641726
_cell_length_c 17.667742
_cell_angle_alpha 90.000000
_cell_angle_beta 90.000000
_cell_angle_gamma 90.000000
_cell_volume 3795.817479
_symmetry_space_group_name_H-M "P M N A"
_symmetry_group_IT_number 53
_symmetry_cell_setting 'orthorhombic'
loop_
_space_group_symop_operation_xyz
x,y,z
1/2-x,-y,1/2+z
x,-y,-z
1/2-x,y,1/2-z
-x,-y,-z
1/2+x,y,1/2-z
-x,y,z
1/2+x,-y,1/2+z
loop_
_atom_site_type_symbol
_atom_site_label
_atom_site_fract_x
_atom_site_fract_y
_atom_site_fract_z
Si Si1 0.174945 0.127256 0.548706
Si Si2 0.176687 0.369936 0.482381
Si Si3 0.172913 0.181619 0.171365
Si Si4 0.676830 0.441013 0.169005
Si Si5 0.672921 0.064672 0.410183
Si Si6 0.168955 0.537189 0.077065
Si Si7 0.674614 0.039167 0.830744
Si Si8 0.676368 0.759996 0.971032
O O1 0.263528 0.091090 0.486991
O O2 0.204508 0.099407 0.629479
O O3 0.209900 0.193183 0.535399
O O4 0.000000 0.120131 0.533500
O O5 0.211733 0.396539 0.399191
O O6 0.253831 0.405822 0.548353
O O7 0.219771 0.304327 0.486564
O O8 0.000000 0.375017 0.490792
O O9 0.250000 0.194380 0.250000
O O10 0.191084 0.115273 0.150730
O O11 0.246362 0.216854 0.104102
O O12 0.000000 0.193483 0.174889
O O13 0.750000 0.427095 0.250000
O O14 0.500000 0.443537 0.176594
O O15 0.741250 0.500659 0.138241
O O16 0.500000 0.052087 0.417696
O O17 0.760674 0.009922 0.383923
O O18 0.000000 0.545541 0.101290
O O19 0.167197 0.500000 0.000000
O O20 0.750000 0.034989 0.750000
O O21 0.500000 0.031641 0.823658
O O22 0.500000 0.760265 0.959491
#
# Coordination Sequence:
#
# PCOD9415419 Si02
#       8
#     8   8   8   8   8   8   8   8
#     4   9  19  35  53  72  97 129 164 203 246 294
#     4   9  18  32  51  74  98 129 167 204 242 286
#     4  10  20  32  46  67  96 129 163 199 242 290
#     4  10  19  31  48  73 105 134 161 196 240 288
#     4  10  20  33  51  74  98 126 160 199 245 300
#     4   9  17  30  49  72  98 129 163 198 236 278
#     4  11  22  34  50  73  98 125 158 200 251 301
#     4   9  18  34  53  71  94 128 168 204 241 286
#
# _framework density 16.860664
#
# number of rings (size 3 to 8) (size 9 to 14) (size 15 to 20)
#    0.000    2.375    0.000    2.625    0.000    8.000 
#    0.000    1.250    0.000    0.750    0.000    1.750 
#    0.000    0.000    0.000    0.000    0.000    0.000 
#
# Total GULP energy -356926.688948 kJ/mol
# GULP energy per Si atom -5576.979515 kJ/mol
# Density = 1.682229 g / cm^3
# Si number density = 16.860664 Si / 1000 Ang^3
#
#
#
# Elastic Constant Matrix: (Units=GPa)
#
#
# Indices 1 2 3 4 5 6 
#
# 1 46.8315 46.6025 21.0953 0.0000 0.0000 0.0000
# 2 46.6025 125.0660 32.5089 0.0000 0.0000 0.0000
# 3 21.0953 32.5089 31.9300 0.0000 0.0000 0.0000
# 4 0.0000 0.0000 0.0000 6.2767 0.0000 0.0000
# 5 0.0000 0.0000 0.0000 0.0000 25.5477 0.0000
# 6 0.0000 0.0000 0.0000 0.0000 0.0000 20.0986
#
#
#
# Elastic Compliance Matrix: (Units=1/GPa)
#
#
# Indices 1 2 3 4 5 6 
#
# 1 0.038416 -0.010495 -0.014695 0.000000 0.000000 0.000000
# 2 -0.010495 0.013741 -0.007056 0.000000 0.000000 0.000000
# 3 -0.014695 -0.007056 0.048211 0.000000 0.000000 0.000000
# 4 0.000000 0.000000 0.000000 0.159319 0.000000 0.000000
# 5 0.000000 0.000000 0.000000 0.000000 0.039143 0.000000
# 6 0.000000 0.000000 0.000000 0.000000 0.000000 0.049755
#
#
# Mechanical properties :
#
#
# Convention : Reuss Voigt Hill
#
# Bulk Modulus (GPa) = 27.87415 44.91568 36.39491
# Shear Modulus (GPa) = 11.76372 17.29264 14.52818
#
# Velocity S-wave (km/s) = 2.64427 3.20601 2.93859
# Velocity P-wave (km/s) = 5.08830 6.35624 5.75728
#
# Compressibility (1/GPa) = 0.03587553
#
# Stress axis : x y z
#
# Youngs Moduli (GPa) = 26.03053 72.77736 20.74204
#
# Poissons Ratio (x) = 0.76380 0.30481
# Poissons Ratio (y) = 0.27319 0.14635
# Poissons Ratio (z) = 0.38253 0.51351
#
# Static dielectric constant tensor:
#      x y z
#    x 1.563500 0.000000 0.000000 
#    y 0.000000 1.574630 0.000000 
#    z 0.000000 0.000000 1.546500 
# 
# From -- ./inp_files/26879.got.cif
#   From: 2010.05.17/outbox.cif.g08.bks.cpg/sg53_14_cif.got.tgz:26879.got - 2010.06.03 12:45:16.
