data_PCOD9415392
_publ_section_title
;
Structure prediction by ZEFSAII (Michael W. Deem and Ramdas Pophale) SiO2 
 PCOD9415392
Probable space group: P M N A
;
_chemical_formula_sum "Si O2"
_cell_formula_units_Z 56
_cell_length_a 8.820524
_cell_length_b 14.970129
_cell_length_c 27.207089
_cell_angle_alpha 90.000000
_cell_angle_beta 90.000000
_cell_angle_gamma 90.000000
_cell_volume 3592.543256
_symmetry_space_group_name_H-M "P M N A"
_symmetry_group_IT_number 53
_symmetry_cell_setting 'orthorhombic'
loop_
_space_group_symop_operation_xyz
x,y,z
1/2-x,-y,1/2+z
x,-y,-z
1/2-x,y,1/2-z
-x,-y,-z
1/2+x,y,1/2-z
-x,y,z
1/2+x,-y,1/2+z
loop_
_atom_site_type_symbol
_atom_site_label
_atom_site_fract_x
_atom_site_fract_y
_atom_site_fract_z
Si Si1 0.182706 0.513444 0.390513
Si Si2 0.182172 0.877861 0.043644
Si Si3 0.818658 0.237393 0.382104
Si Si4 0.319323 0.628253 0.538652
Si Si5 0.319232 0.308599 0.936236
Si Si6 0.318598 0.618352 0.803709
Si Si7 0.182730 0.077010 0.068727
O O1 0.259372 0.461862 0.435967
O O2 0.218789 0.618191 0.394502
O O3 0.229203 0.461098 0.341088
O O4 0.000000 0.503066 0.395308
O O5 0.252113 0.790303 0.067790
O O6 0.000000 0.870575 0.044446
O O7 0.223060 0.972265 0.068502
O O8 0.225367 0.886423 0.985840
O O9 0.734286 0.294587 0.423962
O O10 0.781228 0.288438 0.331433
O O11 0.762502 0.137001 0.390316
O O12 0.000000 0.243621 0.389171
O O13 0.500000 0.627047 0.534083
O O14 0.244775 0.650206 0.486733
O O15 0.500000 0.302304 0.939573
O O16 0.250000 0.611632 0.750000
O O17 0.500000 0.613760 0.799788
O O18 0.000000 0.084361 0.072783
#
# Coordination Sequence:
#
# PCOD9415392 Si02
#       7
#     8   8   8   8   8   8   8
#     4   9  20  35  47  64  93 123 153 192 236 279
#     4   9  18  30  44  65  96 128 161 197 228 262
#     4  10  19  31  48  70  96 124 156 194 235 282
#     4  11  20  29  43  65  93 125 161 195 226 269
#     4  11  20  30  45  65  92 128 162 193 231 272
#     4   9  19  35  52  71  94 118 148 191 239 286
#     4   9  17  30  46  66  94 128 159 194 234 267
#
# _framework density 15.587842999999999
#
# number of rings (size 3 to 8) (size 9 to 14) (size 15 to 20)
#    0.000    2.286    1.429    4.286    0.000    6.286 
#    0.000    1.429    0.000    0.000    0.000    1.000 
#    0.000    2.286    0.000    0.000    0.000    0.000 
#
# Total GULP energy -312208.345819 kJ/mol
# GULP energy per Si atom -5575.149032 kJ/mol
# Density = 1.555236 g / cm^3
# Si number density = 15.587843 Si / 1000 Ang^3
#
#
#
# Elastic Constant Matrix: (Units=GPa)
#
#
# Indices 1 2 3 4 5 6 
#
# 1 27.2546 40.5539 20.4342 0.0000 0.0000 0.0000
# 2 40.5539 147.5981 51.6570 0.0000 0.0000 0.0000
# 3 20.4342 51.6570 70.7655 0.0000 0.0000 0.0000
# 4 0.0000 0.0000 0.0000 10.7852 0.0000 0.0000
# 5 0.0000 0.0000 0.0000 0.0000 16.9397 0.0000
# 6 0.0000 0.0000 0.0000 0.0000 0.0000 23.0921
#
#
#
# Elastic Compliance Matrix: (Units=1/GPa)
#
#
# Indices 1 2 3 4 5 6 
#
# 1 0.065050 -0.015176 -0.007705 0.000000 0.000000 0.000000
# 2 -0.015176 0.012641 -0.004845 0.000000 0.000000 0.000000
# 3 -0.007705 -0.004845 0.019893 0.000000 0.000000 0.000000
# 4 0.000000 0.000000 0.000000 0.092720 0.000000 0.000000
# 5 0.000000 0.000000 0.000000 0.000000 0.059033 0.000000
# 6 0.000000 0.000000 0.000000 0.000000 0.000000 0.043305
#
#
# Mechanical properties :
#
#
# Convention : Reuss Voigt Hill
#
# Bulk Modulus (GPa) = 23.73607 52.32315 38.02961
# Shear Modulus (GPa) = 13.80689 19.02827 16.41758
#
# Velocity S-wave (km/s) = 2.97938 3.49766 3.24887
# Velocity P-wave (km/s) = 5.20538 7.06760 6.20673
#
# Compressibility (1/GPa) = 0.04212997
#
# Stress axis : x y z
#
# Youngs Moduli (GPa) = 15.37281 79.10978 50.26898
#
# Poissons Ratio (x) = 1.20059 0.38735
# Poissons Ratio (y) = 0.23330 0.24356
# Poissons Ratio (z) = 0.11845 0.38329
#
# Static dielectric constant tensor:
#      x y z
#    x 1.520840 0.000000 0.000000 
#    y 0.000000 1.567510 0.000000 
#    z 0.000000 0.000000 1.494040 
# 
# From -- ./inp_files/38322.got.cif
#   From: 2010.05.17/outbox.cif.g08.bks.cpg/sg53_20_cif.got.tgz:38322.got - 2010.06.03 12:45:16.
