data_PCOD9415816
_publ_section_title
;
Structure prediction by ZEFSAII (Michael W. Deem and Ramdas Pophale) SiO2 
 PCOD9415816
Probable space group: P M N A
;
_chemical_formula_sum "Si O2"
_cell_formula_units_Z 52
_cell_length_a 28.742737
_cell_length_b 9.644044
_cell_length_c 11.307176
_cell_angle_alpha 90.000000
_cell_angle_beta 90.000000
_cell_angle_gamma 90.000000
_cell_volume 3134.306450
_symmetry_space_group_name_H-M "P M N A"
_symmetry_group_IT_number 53
_symmetry_cell_setting 'orthorhombic'
loop_
_space_group_symop_operation_xyz
x,y,z
1/2-x,-y,1/2+z
x,-y,-z
1/2-x,y,1/2-z
-x,-y,-z
1/2+x,y,1/2-z
-x,y,z
1/2+x,-y,1/2+z
loop_
_atom_site_type_symbol
_atom_site_label
_atom_site_fract_x
_atom_site_fract_y
_atom_site_fract_z
Si Si1 0.052498 0.465073 0.801511
Si Si2 0.797558 0.331684 0.895307
Si Si3 0.645175 0.210127 0.393434
Si Si4 0.948407 0.269794 0.019941
Si Si5 0.777383 0.983307 0.133195
Si Si6 0.149548 0.542384 0.720184
Si Si7 0.712955 0.500000 0.000000
O O1 0.053205 0.598058 0.890171
O O2 0.096867 0.481888 0.716493
O O3 0.000000 0.458861 0.750324
O O4 0.058709 0.334234 0.889502
O O5 0.789739 0.177360 0.846793
O O6 0.820954 0.438726 0.805059
O O7 0.831620 0.308203 0.006352
O O8 0.748445 0.389400 0.942477
O O9 0.593802 0.175799 0.438496
O O10 0.645210 0.306676 0.278741
O O11 0.676865 0.077210 0.376652
O O12 0.000000 0.209247 0.026796
O O13 0.750000 0.031788 0.250000
O O14 0.755188 0.000000 0.000000
O O15 0.178963 0.554772 0.601420
#
# Coordination Sequence:
#
# PCOD9415816 Si02
#       7
#     8   8   8   8   8   8   4
#     4   8  14  26  47  73 100 129 162 203 252 306
#     4  11  21  36  50  70 102 136 166 208 254 300
#     4  10  19  32  54  77  99 130 166 212 251 294
#     4   8  13  25  48  77 100 123 159 203 257 304
#     4  10  23  36  52  71 103 139 173 207 253 305
#     4  11  20  33  52  74 103 130 176 207 253 296
#     4  12  24  30  51  76 103 138 174 214 250 298
#
# _framework density 16.590592000000001
#
# number of rings (size 3 to 8) (size 9 to 14) (size 15 to 20)
#    0.000    2.154    3.077    2.308    4.308    0.000 
#    0.000    0.385    0.000    5.077    0.000    0.000 
#    0.000    0.615    0.000    0.308    0.000    0.000 
#
# Total GULP energy -289657.195011 kJ/mol
# GULP energy per Si atom -5570.330673 kJ/mol
# Density = 1.655283 g / cm^3
# Si number density = 16.590592 Si / 1000 Ang^3
#
#
#
# Elastic Constant Matrix: (Units=GPa)
#
#
# Indices 1 2 3 4 5 6 
#
# 1 139.6690 21.9875 48.4536 0.0000 0.0000 0.0000
# 2 21.9875 54.8315 11.4415 0.0000 0.0000 0.0000
# 3 48.4536 11.4415 44.1064 0.0000 0.0000 0.0000
# 4 0.0000 0.0000 0.0000 10.3860 0.0000 0.0000
# 5 0.0000 0.0000 0.0000 0.0000 2.7783 0.0000
# 6 0.0000 0.0000 0.0000 0.0000 0.0000 5.6187
#
#
#
# Elastic Compliance Matrix: (Units=1/GPa)
#
#
# Indices 1 2 3 4 5 6 
#
# 1 0.011802 -0.002143 -0.012410 0.000000 0.000000 0.000000
# 2 -0.002143 0.019671 -0.002748 0.000000 0.000000 0.000000
# 3 -0.012410 -0.002748 0.037018 0.000000 0.000000 0.000000
# 4 0.000000 0.000000 0.000000 0.096283 0.000000 0.000000
# 5 0.000000 0.000000 0.000000 0.000000 0.359929 0.000000
# 6 0.000000 0.000000 0.000000 0.000000 0.000000 0.177976
#
#
# Mechanical properties :
#
#
# Convention : Reuss Voigt Hill
#
# Bulk Modulus (GPa) = 29.50821 44.70800 37.10811
# Shear Modulus (GPa) = 6.67933 14.20490 10.44212
#
# Velocity S-wave (km/s) = 2.00866 2.92927 2.51151
# Velocity P-wave (km/s) = 4.81709 6.20057 5.55209
#
# Compressibility (1/GPa) = 0.03388887
#
# Stress axis : x y z
#
# Youngs Moduli (GPa) = 84.72944 50.83730 27.01388
#
# Poissons Ratio (x) = 0.10896 0.33523
# Poissons Ratio (y) = 0.18160 0.07424
# Poissons Ratio (z) = 1.05145 0.13971
#
# Static dielectric constant tensor:
#      x y z
#    x 1.593190 0.000000 0.000000 
#    y 0.000000 1.552310 0.000000 
#    z 0.000000 0.000000 1.569140 
# 
# From -- ./inp_files/18759.got.cif
#   From: 2010.05.17/outbox.cif.g08.bks.cpg/sg53_10_cif.got.tgz:18759.got - 2010.06.03 12:45:16.
