data_PCOD9415276
_publ_section_title
;
Structure prediction by ZEFSAII (Michael W. Deem and Ramdas Pophale) SiO2 
 PCOD9415276
Probable space group: P M N A
;
_chemical_formula_sum "Si O2"
_cell_formula_units_Z 56
_cell_length_a 8.914201
_cell_length_b 20.329859
_cell_length_c 15.950481
_cell_angle_alpha 90.000000
_cell_angle_beta 90.000000
_cell_angle_gamma 90.000000
_cell_volume 2890.617137
_symmetry_space_group_name_H-M "P M N A"
_symmetry_group_IT_number 53
_symmetry_cell_setting 'orthorhombic'
loop_
_space_group_symop_operation_xyz
x,y,z
1/2-x,-y,1/2+z
x,-y,-z
1/2-x,y,1/2-z
-x,-y,-z
1/2+x,y,1/2-z
-x,y,z
1/2+x,-y,1/2+z
loop_
_atom_site_type_symbol
_atom_site_label
_atom_site_fract_x
_atom_site_fract_y
_atom_site_fract_z
Si Si1 0.819022 0.164310 0.657956
Si Si2 0.674767 0.921220 0.491241
Si Si3 0.680203 0.285072 0.562229
Si Si4 0.171196 0.571110 0.009820
Si Si5 0.330808 0.257614 0.109779
Si Si6 0.168605 0.379428 0.178880
Si Si7 0.670690 0.886620 0.834299
O O1 0.750000 0.149868 0.750000
O O2 0.761466 0.112246 0.587028
O O3 0.759753 0.236412 0.627848
O O4 0.000000 0.163474 0.660683
O O5 0.500000 0.902089 0.483582
O O6 0.743154 0.900037 0.579916
O O7 0.683497 0.000000 0.500000
O O8 0.500000 0.283729 0.572957
O O9 0.728259 0.362705 0.557081
O O10 0.722839 0.255410 0.470956
O O11 0.000000 0.560510 0.042689
O O12 0.249558 0.500000 0.000000
O O13 0.160643 0.590933 0.912918
O O14 0.500000 0.268066 0.077542
O O15 0.274840 0.317335 0.164853
O O16 0.332598 0.192377 0.164652
O O17 0.250000 0.422022 0.250000
O O18 0.000000 0.362256 0.203421
O O19 0.750000 0.911054 0.750000
O O20 0.500000 0.911397 0.838725
#
# Coordination Sequence:
#
# PCOD9415276 Si02
#       7
#     8   8   8   8   8   8   8
#     4  12  25  43  68  96 127 167 217 270 322 378
#     4  11  25  45  68  93 124 162 205 257 315 377
#     4  10  19  34  60  89 120 158 200 252 308 363
#     4   8  16  32  54  80 112 154 199 242 299 369
#     4  10  19  32  53  82 115 149 187 231 284 347
#     4  10  19  30  48  74 105 143 184 233 287 345
#     4  11  23  37  58  88 122 161 197 241 294 355
#
# _framework density 19.373024999999998
#
# number of rings (size 3 to 8) (size 9 to 14) (size 15 to 20)
#    0.000    1.714    1.429    4.714    0.000    4.571 
#    0.000    0.714    0.000   17.143    0.000    0.000 
#    0.000    0.000    0.000    0.000    0.000    0.000 
#
# Total GULP energy -311923.664538 kJ/mol
# GULP energy per Si atom -5570.065438 kJ/mol
# Density = 1.932893 g / cm^3
# Si number density = 19.373025 Si / 1000 Ang^3
#
#
#
# Elastic Constant Matrix: (Units=GPa)
#
#
# Indices 1 2 3 4 5 6 
#
# 1 127.6240 50.3168 54.8430 0.0000 0.0000 0.0000
# 2 50.3168 72.0597 37.2430 0.0000 0.0000 0.0000
# 3 54.8430 37.2430 122.6986 0.0000 0.0000 0.0000
# 4 0.0000 0.0000 0.0000 -5.7479 0.0000 0.0000
# 5 0.0000 0.0000 0.0000 0.0000 30.6454 0.0000
# 6 0.0000 0.0000 0.0000 0.0000 0.0000 9.4531
#
#
#
# Elastic Compliance Matrix: (Units=1/GPa)
#
#
# Indices 1 2 3 4 5 6 
#
# 1 0.011841 -0.006562 -0.003301 0.000000 0.000000 0.000000
# 2 -0.006562 0.020096 -0.003167 0.000000 0.000000 0.000000
# 3 -0.003301 -0.003167 0.010587 0.000000 0.000000 0.000000
# 4 0.000000 0.000000 0.000000 -0.173978 0.000000 0.000000
# 5 0.000000 0.000000 0.000000 0.000000 0.032631 0.000000
# 6 0.000000 0.000000 0.000000 0.000000 0.000000 0.105785
#
#
# Mechanical properties :
#
#
# Convention : Reuss Voigt Hill
#
# Bulk Modulus (GPa) = 60.73698 67.46535 64.10116
# Shear Modulus (GPa) = 129.83450 18.86877 74.35163
#
# Velocity S-wave (km/s) = 8.19534 3.12424 6.20180
# Velocity P-wave (km/s) = 10.99868 6.92203 9.18927
#
# Compressibility (1/GPa) = 0.01646443
#
# Stress axis : x y z
#
# Youngs Moduli (GPa) = 84.45088 49.76045 94.45879
#
# Poissons Ratio (x) = 0.32654 0.31179
# Poissons Ratio (y) = 0.55419 0.29912
# Poissons Ratio (z) = 0.27876 0.15758
#
# Static dielectric constant tensor:
#      x y z
#    x 1.690130 0.000000 0.000000 
#    y 0.000000 1.755650 0.000000 
#    z 0.000000 0.000000 1.711200 
# 
# From -- ./inp_files/20486.got.cif
#   From: 2010.05.17/outbox.cif.g08.bks.cpg/sg53_11_cif.got.tgz:20486.got - 2010.06.03 12:45:16.
