data_PCOD9415913
_publ_section_title
;
Structure prediction by ZEFSAII (Michael W. Deem and Ramdas Pophale) SiO2 
 PCOD9415913
Probable space group: P M N A
;
_chemical_formula_sum "Si O2"
_cell_formula_units_Z 48
_cell_length_a 9.119562
_cell_length_b 17.918531
_cell_length_c 14.951457
_cell_angle_alpha 90.000000
_cell_angle_beta 90.000000
_cell_angle_gamma 90.000000
_cell_volume 2443.204945
_symmetry_space_group_name_H-M "P M N A"
_symmetry_group_IT_number 53
_symmetry_cell_setting 'orthorhombic'
loop_
_space_group_symop_operation_xyz
x,y,z
1/2-x,-y,1/2+z
x,-y,-z
1/2-x,y,1/2-z
-x,-y,-z
1/2+x,y,1/2-z
-x,y,z
1/2+x,-y,1/2+z
loop_
_atom_site_type_symbol
_atom_site_label
_atom_site_fract_x
_atom_site_fract_y
_atom_site_fract_z
Si Si1 0.166479 0.526644 0.103581
Si Si2 0.827923 0.873987 0.843435
Si Si3 0.673881 0.332299 0.959620
Si Si4 0.674390 0.164735 0.977223
Si Si5 0.827856 0.052670 0.843894
Si Si6 0.325694 0.380730 0.161521
O O1 0.266531 0.465367 0.151385
O O2 0.000000 0.526324 0.138455
O O3 0.161465 0.500000 0.000000
O O4 0.236387 0.608499 0.098498
O O5 0.750000 0.856758 0.750000
O O6 0.744857 0.836004 0.924871
O O7 0.000000 0.855189 0.841064
O O8 0.815379 0.963658 0.858344
O O9 0.500000 0.348414 0.951436
O O10 0.700717 0.246460 0.935587
O O11 0.710234 0.343323 0.065527
O O12 0.500000 0.153179 0.983269
O O13 0.749182 0.099929 0.920129
O O14 0.750000 0.069556 0.750000
O O15 0.000000 0.070937 0.840607
O O16 0.250000 0.347520 0.250000
O O17 0.500000 0.379014 0.172510
#
# Coordination Sequence:
#
# PCOD9415913 Si02
#       6
#     8   8   8   8   8   8
#     4   9  17  31  52  75  97 126 166 207 248 298
#     4  10  21  37  57  82 112 146 187 232 278 330
#     4   9  20  36  52  74 106 142 175 212 262 317
#     4  11  22  36  56  83 115 150 186 225 276 335
#     4  10  21  38  59  82 108 142 186 235 283 331
#     4  10  19  33  53  76 104 136 172 215 261 311
#
# _framework density 19.646325000000001
#
# number of rings (size 3 to 8) (size 9 to 14) (size 15 to 20)
#    0.000    2.167    0.000    3.000    0.000    8.667 
#    0.000    2.500    0.000    4.000    0.000    0.000 
#    0.000    0.000    0.000    0.000    0.000    0.000 
#
# Total GULP energy -268108.017689 kJ/mol
# GULP energy per Si atom -5585.583702 kJ/mol
# Density = 1.960161 g / cm^3
# Si number density = 19.646325 Si / 1000 Ang^3
#
#
#
# Elastic Constant Matrix: (Units=GPa)
#
#
# Indices 1 2 3 4 5 6 
#
# 1 83.8088 35.5376 9.1206 0.0000 0.0000 0.0000
# 2 35.5376 37.3748 10.0018 0.0000 0.0000 0.0000
# 3 9.1206 10.0018 25.5078 0.0000 0.0000 0.0000
# 4 0.0000 0.0000 0.0000 -74.4041 0.0000 0.0000
# 5 0.0000 0.0000 0.0000 0.0000 33.1011 0.0000
# 6 0.0000 0.0000 0.0000 0.0000 0.0000 43.2321
#
#
#
# Elastic Compliance Matrix: (Units=1/GPa)
#
#
# Indices 1 2 3 4 5 6 
#
# 1 0.019995 -0.019104 0.000341 0.000000 0.000000 0.000000
# 2 -0.019104 0.048144 -0.012047 0.000000 0.000000 0.000000
# 3 0.000341 -0.012047 0.043805 0.000000 0.000000 0.000000
# 4 0.000000 0.000000 0.000000 -0.013440 0.000000 0.000000
# 5 0.000000 0.000000 0.000000 0.000000 0.030210 0.000000
# 6 0.000000 0.000000 0.000000 0.000000 0.000000 0.023131
#
#
# Mechanical properties :
#
#
# Convention : Reuss Voigt Hill
#
# Bulk Modulus (GPa) = 19.87044 28.44571 24.15807
# Shear Modulus (GPa) = 21.71638 6.52126 14.11882
#
# Velocity S-wave (km/s) = 3.32831 1.82388 2.68367
# Velocity P-wave (km/s) = 4.99062 4.35267 4.68252
#
# Compressibility (1/GPa) = 0.05032602
#
# Stress axis : x y z
#
# Youngs Moduli (GPa) = 50.01156 20.77084 22.82826
#
# Poissons Ratio (x) = 0.39680 -0.00779
# Poissons Ratio (y) = 0.95541 0.27501
# Poissons Ratio (z) = -0.01706 0.25023
#
# Static dielectric constant tensor:
#      x y z
#    x 1.656170 0.000000 0.000000 
#    y 0.000000 1.682380 0.000000 
#    z 0.000000 0.000000 1.779810 
# 
# From -- ./inp_files/20136.got.cif
#   From: 2010.05.17/outbox.cif.g08.bks.cpg/sg53_11_cif.got.tgz:20136.got - 2010.06.03 12:45:16.
