data_PCOD9415836
_publ_section_title
;
Structure prediction by ZEFSAII (Michael W. Deem and Ramdas Pophale) SiO2 
 PCOD9415836
Probable space group: P M N A
;
_chemical_formula_sum "Si O2"
_cell_formula_units_Z 64
_cell_length_a 8.668459
_cell_length_b 20.064282
_cell_length_c 21.158042
_cell_angle_alpha 90.000000
_cell_angle_beta 90.000000
_cell_angle_gamma 90.000000
_cell_volume 3679.942201
_symmetry_space_group_name_H-M "P M N A"
_symmetry_group_IT_number 53
_symmetry_cell_setting 'orthorhombic'
loop_
_space_group_symop_operation_xyz
x,y,z
1/2-x,-y,1/2+z
x,-y,-z
1/2-x,y,1/2-z
-x,-y,-z
1/2+x,y,1/2-z
-x,y,z
1/2+x,-y,1/2+z
loop_
_atom_site_type_symbol
_atom_site_label
_atom_site_fract_x
_atom_site_fract_y
_atom_site_fract_z
Si Si1 0.815261 0.172547 0.508183
Si Si2 0.814606 0.172763 0.133821
Si Si3 0.816503 0.962747 0.683077
Si Si4 0.315632 0.461569 0.316296
Si Si5 0.314326 0.678401 0.632681
Si Si6 0.185031 0.677152 0.491664
Si Si7 0.684983 0.958444 0.436745
Si Si8 0.185628 0.539550 0.435577
O O1 0.736456 0.164931 0.439387
O O2 0.780311 0.247862 0.530660
O O3 0.751953 0.115204 0.553225
O O4 0.000000 0.166082 0.500776
O O5 0.737801 0.113348 0.172152
O O6 0.764830 0.247509 0.153720
O O7 0.000000 0.167233 0.137903
O O8 0.750000 0.986309 0.750000
O O9 0.000000 0.965853 0.683378
O O10 0.751253 0.005093 0.624549
O O11 0.250000 0.486195 0.250000
O O12 0.500000 0.461030 0.313959
O O13 0.259431 0.385354 0.328203
O O14 0.261480 0.505292 0.375443
O O15 0.500000 0.678557 0.633305
O O16 0.259650 0.669018 0.560596
O O17 0.231753 0.616384 0.446824
O O18 0.000000 0.672352 0.499996
O O19 0.500000 0.956590 0.432970
O O20 0.727322 0.000000 0.500000
O O21 0.225380 0.500000 0.500000
O O22 0.000000 0.535988 0.428441
#
# Coordination Sequence:
#
# PCOD9415836 Si02
#       8
#     8   8   8   8   8   8   8   8
#     4  10  19  32  54  84 113 143 183 227 275 324
#     4  10  19  34  53  78 112 148 186 225 269 321
#     4  12  25  40  58  81 112 148 187 229 276 329
#     4  11  23  37  53  77 109 147 188 230 276 326
#     4   9  19  33  51  76 109 146 184 225 268 320
#     4   9  18  32  53  82 112 142 178 224 274 325
#     4  11  22  37  59  84 113 147 185 228 275 324
#     4  10  19  34  57  82 110 144 182 225 275 326
#
# _framework density 17.391577999999999
#
# number of rings (size 3 to 8) (size 9 to 14) (size 15 to 20)
#    0.000    1.750    2.500    2.625    0.000    3.250 
#    0.000    1.250    0.000    0.750    0.000    3.500 
#    0.000    0.000    0.000    0.000    0.000    0.000 
#
# Total GULP energy -357357.488476 kJ/mol
# GULP energy per Si atom -5583.710757 kJ/mol
# Density = 1.735199 g / cm^3
# Si number density = 17.391578 Si / 1000 Ang^3
#
#
#
# Elastic Constant Matrix: (Units=GPa)
#
#
# Indices 1 2 3 4 5 6 
#
# 1 48.9251 32.4952 34.4616 0.0000 0.0000 0.0000
# 2 32.4952 103.9006 56.0280 0.0000 0.0000 0.0000
# 3 34.4616 56.0280 110.2658 0.0000 0.0000 0.0000
# 4 0.0000 0.0000 0.0000 19.0564 0.0000 0.0000
# 5 0.0000 0.0000 0.0000 0.0000 24.3430 0.0000
# 6 0.0000 0.0000 0.0000 0.0000 0.0000 25.4961
#
#
#
# Elastic Compliance Matrix: (Units=1/GPa)
#
#
# Indices 1 2 3 4 5 6 
#
# 1 0.028427 -0.005647 -0.006015 0.000000 0.000000 0.000000
# 2 -0.005647 0.014379 -0.005541 0.000000 0.000000 0.000000
# 3 -0.006015 -0.005541 0.013764 0.000000 0.000000 0.000000
# 4 0.000000 0.000000 0.000000 0.052476 0.000000 0.000000
# 5 0.000000 0.000000 0.000000 0.000000 0.041080 0.000000
# 6 0.000000 0.000000 0.000000 0.000000 0.000000 0.039222
#
#
# Mechanical properties :
#
#
# Convention : Reuss Voigt Hill
#
# Bulk Modulus (GPa) = 45.11888 56.56234 50.84061
# Shear Modulus (GPa) = 21.63175 23.11953 22.37564
#
# Velocity S-wave (km/s) = 3.53059 3.64998 3.59078
# Velocity P-wave (km/s) = 6.52835 7.09624 6.81821
#
# Compressibility (1/GPa) = 0.02216367
#
# Stress axis : x y z
#
# Youngs Moduli (GPa) = 35.17801 69.54679 72.65082
#
# Poissons Ratio (x) = 0.39273 0.43699
# Poissons Ratio (y) = 0.19865 0.40258
# Poissons Ratio (z) = 0.21159 0.38538
#
# Static dielectric constant tensor:
#      x y z
#    x 1.581960 0.000000 0.000000 
#    y 0.000000 1.617850 0.000000 
#    z 0.000000 0.000000 1.560300 
# 
# From -- ./inp_files/26895.got.cif
#   From: 2010.05.17/outbox.cif.g08.bks.cpg/sg53_14_cif.got.tgz:26895.got - 2010.06.03 12:45:16.
