data_PCOD9415572
_publ_section_title
;
Structure prediction by ZEFSAII (Michael W. Deem and Ramdas Pophale) SiO2 
 PCOD9415572
Probable space group: P M N A
;
_chemical_formula_sum "Si O2"
_cell_formula_units_Z 48
_cell_length_a 20.890954
_cell_length_b 8.583989
_cell_length_c 13.557440
_cell_angle_alpha 90.000000
_cell_angle_beta 90.000000
_cell_angle_gamma 90.000000
_cell_volume 2431.224795
_symmetry_space_group_name_H-M "P M N A"
_symmetry_group_IT_number 53
_symmetry_cell_setting 'orthorhombic'
loop_
_space_group_symop_operation_xyz
x,y,z
1/2-x,-y,1/2+z
x,-y,-z
1/2-x,y,1/2-z
-x,-y,-z
1/2+x,y,1/2-z
-x,y,z
1/2+x,-y,1/2+z
loop_
_atom_site_type_symbol
_atom_site_label
_atom_site_fract_x
_atom_site_fract_y
_atom_site_fract_z
Si Si1 0.319424 0.730771 0.655117
Si Si2 0.927630 0.875357 0.585995
Si Si3 0.715665 0.704157 0.149643
Si Si4 0.131165 0.952410 0.241451
Si Si5 0.826757 0.379188 0.361462
Si Si6 0.158948 0.172039 0.955104
O O1 0.245530 0.689269 0.634216
O O2 0.344300 0.624252 0.744193
O O3 0.357567 0.726048 0.551721
O O4 0.325845 0.904757 0.700291
O O5 0.875892 0.737336 0.586908
O O6 0.000000 0.817464 0.573049
O O7 0.914173 0.000000 0.500000
O O8 0.921565 0.965113 0.691124
O O9 0.750000 0.645597 0.250000
O O10 0.671278 0.844259 0.184994
O O11 0.677855 0.558023 0.106394
O O12 0.772970 0.765427 0.082709
O O13 0.116011 0.850928 0.143255
O O14 0.166432 0.000000 0.000000
#
# Coordination Sequence:
#
# PCOD9415572 Si02
#       6
#     8   8   8   8   8   8
#     4   9  18  32  51  80 113 147 173 218 278 351
#     4  10  23  40  58  76 101 150 204 239 275 328
#     4  10  19  32  48  85 119 143 174 218 283 345
#     4   9  20  33  54  75 111 143 183 230 275 329
#     4  10  20  34  52  78 116 145 181 229 283 335
#     4   9  19  29  51  81 115 143 176 218 276 348
#
# _framework density 19.743134999999999
#
# number of rings (size 3 to 8) (size 9 to 14) (size 15 to 20)
#    0.000    2.500    1.667    0.000   23.333    0.667 
#    0.000    0.833    0.000   14.500    0.000    0.000 
#    0.000   38.667    0.000    0.000    0.000    0.000 
#
# Total GULP energy -267421.808145 kJ/mol
# GULP energy per Si atom -5571.287670 kJ/mol
# Density = 1.969820 g / cm^3
# Si number density = 19.743135 Si / 1000 Ang^3
#
#
#
# Elastic Constant Matrix: (Units=GPa)
#
#
# Indices 1 2 3 4 5 6 
#
# 1 44.4654 20.0871 0.4805 0.0000 0.0000 0.0000
# 2 20.0871 35.1310 -13.2596 0.0000 0.0000 0.0000
# 3 0.4805 -13.2596 87.3850 0.0000 0.0000 0.0000
# 4 0.0000 0.0000 0.0000 8.7908 0.0000 0.0000
# 5 0.0000 0.0000 0.0000 0.0000 11.8563 0.0000
# 6 0.0000 0.0000 0.0000 0.0000 0.0000 11.2655
#
#
#
# Elastic Compliance Matrix: (Units=1/GPa)
#
#
# Indices 1 2 3 4 5 6 
#
# 1 0.031064 -0.018909 -0.003040 0.000000 0.000000 0.000000
# 2 -0.018909 0.041704 0.006432 0.000000 0.000000 0.000000
# 3 -0.003040 0.006432 0.012436 0.000000 0.000000 0.000000
# 4 0.000000 0.000000 0.000000 0.113755 0.000000 0.000000
# 5 0.000000 0.000000 0.000000 0.000000 0.084344 0.000000
# 6 0.000000 0.000000 0.000000 0.000000 0.000000 0.088767
#
#
# Mechanical properties :
#
#
# Convention : Reuss Voigt Hill
#
# Bulk Modulus (GPa) = 18.46016 20.17747 19.31881
# Shear Modulus (GPa) = 11.87192 17.02742 14.44967
#
# Velocity S-wave (km/s) = 2.45484 2.93993 2.70827
# Velocity P-wave (km/s) = 4.17198 4.66545 4.42560
#
# Compressibility (1/GPa) = 0.05417071
#
# Stress axis : x y z
#
# Youngs Moduli (GPa) = 32.19111 23.97824 80.40960
#
# Poissons Ratio (x) = 0.45341 0.24445
# Poissons Ratio (y) = 0.60871 -0.51720
# Poissons Ratio (z) = 0.09786 -0.15423
#
# Static dielectric constant tensor:
#      x y z
#    x 1.640070 0.000000 0.000000 
#    y 0.000000 1.733770 0.000000 
#    z 0.000000 0.000000 1.822620 
# 
# From -- ./inp_files/24164.got.cif
#   From: 2010.05.17/outbox.cif.g08.bks.cpg/sg53_13_cif.got.tgz:24164.got - 2010.06.03 12:45:16.
