data_PCOD9415970
_publ_section_title
;
Structure prediction by ZEFSAII (Michael W. Deem and Ramdas Pophale) SiO2 
 PCOD9415970
Probable space group: P M N A
;
_chemical_formula_sum "Si O2"
_cell_formula_units_Z 56
_cell_length_a 8.746715
_cell_length_b 20.573723
_cell_length_c 16.227072
_cell_angle_alpha 90.000000
_cell_angle_beta 90.000000
_cell_angle_gamma 90.000000
_cell_volume 2920.102037
_symmetry_space_group_name_H-M "P M N A"
_symmetry_group_IT_number 53
_symmetry_cell_setting 'orthorhombic'
loop_
_space_group_symop_operation_xyz
x,y,z
1/2-x,-y,1/2+z
x,-y,-z
1/2-x,y,1/2-z
-x,-y,-z
1/2+x,y,1/2-z
-x,y,z
1/2+x,-y,1/2+z
loop_
_atom_site_type_symbol
_atom_site_label
_atom_site_fract_x
_atom_site_fract_y
_atom_site_fract_z
Si Si1 0.324140 0.245824 0.372670
Si Si2 0.316812 0.671253 0.158293
Si Si3 0.324439 0.076579 0.485284
Si Si4 0.813719 0.575752 0.490999
Si Si5 0.821394 0.791160 0.064216
Si Si6 0.322353 0.625428 0.833806
Si Si7 0.823447 0.114189 0.324813
O O1 0.500000 0.264899 0.356860
O O2 0.302623 0.236300 0.470898
O O3 0.207437 0.297913 0.337203
O O4 0.282772 0.177549 0.332946
O O5 0.250000 0.660692 0.250000
O O6 0.500000 0.667336 0.163048
O O7 0.263980 0.617405 0.089314
O O8 0.270299 0.742674 0.123590
O O9 0.500000 0.095891 0.459959
O O10 0.284541 0.131477 0.554324
O O11 0.202730 0.082659 0.412830
O O12 0.331259 0.000000 0.500000
O O13 0.773752 0.500000 0.500000
O O14 0.756503 0.604404 0.577842
O O15 0.000000 0.579980 0.489958
O O16 0.000000 0.786086 0.086939
O O17 0.250000 0.598650 0.750000
O O18 0.500000 0.609388 0.832461
O O19 0.750000 0.074190 0.250000
O O20 0.000000 0.128672 0.311567
#
# Coordination Sequence:
#
# PCOD9415970 Si02
#       7
#     8   8   8   8   8   8   8
#     4  10  19  33  54  80 112 145 180 225 280 336
#     4  11  22  38  62  89 117 155 203 253 302 354
#     4   9  19  37  59  83 114 152 190 235 295 353
#     4   9  20  39  60  82 114 155 196 242 299 359
#     4   9  18  34  58  85 114 148 188 238 289 343
#     4  11  21  34  54  82 114 148 186 228 284 345
#     4  11  21  33  51  77 110 144 185 228 276 335
#
# _framework density 19.177413000000001
#
# number of rings (size 3 to 8) (size 9 to 14) (size 15 to 20)
#    0.000    2.000    1.429    3.857    0.000    3.143 
#    0.000    0.714    0.000    6.000    0.000    0.000 
#    0.000    0.000    0.000    0.000    0.000    0.000 
#
# Total GULP energy -311847.906600 kJ/mol
# GULP energy per Si atom -5568.712618 kJ/mol
# Density = 1.913376 g / cm^3
# Si number density = 19.177413 Si / 1000 Ang^3
#
#
#
# Elastic Constant Matrix: (Units=GPa)
#
#
# Indices 1 2 3 4 5 6 
#
# 1 49.0288 9.0966 41.7688 0.0000 0.0000 0.0000
# 2 9.0966 97.1468 51.2356 0.0000 0.0000 0.0000
# 3 41.7688 51.2356 132.2244 0.0000 0.0000 0.0000
# 4 0.0000 0.0000 0.0000 1.6241 0.0000 0.0000
# 5 0.0000 0.0000 0.0000 0.0000 32.3617 0.0000
# 6 0.0000 0.0000 0.0000 0.0000 0.0000 15.2492
#
#
#
# Elastic Compliance Matrix: (Units=1/GPa)
#
#
# Indices 1 2 3 4 5 6 
#
# 1 0.028422 0.002606 -0.009988 0.000000 0.000000 0.000000
# 2 0.002606 0.013177 -0.005929 0.000000 0.000000 0.000000
# 3 -0.009988 -0.005929 0.013016 0.000000 0.000000 0.000000
# 4 0.000000 0.000000 0.000000 0.615725 0.000000 0.000000
# 5 0.000000 0.000000 0.000000 0.000000 0.030901 0.000000
# 6 0.000000 0.000000 0.000000 0.000000 0.000000 0.065577
#
#
# Mechanical properties :
#
#
# Convention : Reuss Voigt Hill
#
# Bulk Modulus (GPa) = 35.72424 53.62244 44.67334
# Shear Modulus (GPa) = 6.22844 21.60027 13.91435
#
# Velocity S-wave (km/s) = 1.80412 3.35974 2.69654
# Velocity P-wave (km/s) = 4.79672 6.56296 5.74808
#
# Compressibility (1/GPa) = 0.02799220
#
# Stress axis : x y z
#
# Youngs Moduli (GPa) = 35.18426 75.89138 76.83068
#
# Poissons Ratio (x) = -0.19781 0.76740
# Poissons Ratio (y) = -0.09171 0.45555
# Poissons Ratio (z) = 0.35143 0.44998
#
# Static dielectric constant tensor:
#      x y z
#    x 1.663220 0.000000 0.000000 
#    y 0.000000 1.713280 0.000000 
#    z 0.000000 0.000000 1.787350 
# 
# From -- ./inp_files/20563.got.cif
#   From: 2010.05.17/outbox.cif.g08.bks.cpg/sg53_11_cif.got.tgz:20563.got - 2010.06.03 12:45:16.
