data_PCOD9415895
_publ_section_title
;
Structure prediction by ZEFSAII (Michael W. Deem and Ramdas Pophale) SiO2 
 PCOD9415895
Probable space group: P M N A
;
_chemical_formula_sum "Si O2"
_cell_formula_units_Z 36
_cell_length_a 16.871520
_cell_length_b 10.758787
_cell_length_c 7.933046
_cell_angle_alpha 90.000000
_cell_angle_beta 90.000000
_cell_angle_gamma 90.000000
_cell_volume 1439.983425
_symmetry_space_group_name_H-M "P M N A"
_symmetry_group_IT_number 53
_symmetry_cell_setting 'orthorhombic'
loop_
_space_group_symop_operation_xyz
x,y,z
1/2-x,-y,1/2+z
x,-y,-z
1/2-x,y,1/2-z
-x,-y,-z
1/2+x,y,1/2-z
-x,y,z
1/2+x,-y,1/2+z
loop_
_atom_site_type_symbol
_atom_site_label
_atom_site_fract_x
_atom_site_fract_y
_atom_site_fract_z
Si Si1 0.673233 0.614754 0.633175
Si Si2 0.500000 0.390472 0.358245
Si Si3 0.000000 0.753543 0.180433
Si Si4 0.500000 0.967044 0.804768
Si Si5 0.833927 0.968321 0.803428
Si Si6 0.668162 0.749181 0.304048
O O1 0.676877 0.500000 0.500000
O O2 0.750000 0.615822 0.750000
O O3 0.587022 0.605701 0.724358
O O4 0.670693 0.733560 0.506705
O O5 0.500000 0.500000 0.500000
O O6 0.500000 0.271888 0.482151
O O7 0.000000 0.901424 0.204789
O O8 0.917852 0.699109 0.249746
O O9 0.585074 0.907826 0.762369
O O10 0.500000 0.000000 0.000000
O O11 0.750000 0.911635 0.750000
O O12 0.831621 0.111000 0.729961
O O13 0.838310 0.000000 0.000000
O O14 0.750000 0.687522 0.250000
#
# Coordination Sequence:
#
# PCOD9415895 Si02
#       6
#     8   4   4   4   8   8
#     4  10  19  33  53  76 100 130 169 211 256 310
#     4   8  16  32  53  72  98 139 173 203 255 321
#     4   8  16  31  50  70  98 135 171 201 251 316
#     4  10  19  33  52  76 104 136 175 220 265 315
#     4  10  20  34  53  75 102 137 175 214 260 314
#     4   9  18  33  51  71  98 132 166 204 251 303
#
# _framework density 25.000288000000001
#
# number of rings (size 3 to 8) (size 9 to 14) (size 15 to 20)
#    0.000    2.667    0.000    1.667    0.000    0.889 
#    0.000    1.667    0.000    0.000    0.000    0.000 
#    0.000    0.000    0.000    0.000    0.000    0.000 
#
# Total GULP energy -200720.877202 kJ/mol
# GULP energy per Si atom -5575.579922 kJ/mol
# Density = 2.494339 g / cm^3
# Si number density = 25.000288 Si / 1000 Ang^3
#
#
#
# Elastic Constant Matrix: (Units=GPa)
#
#
# Indices 1 2 3 4 5 6 
#
# 1 384.9233 -5.6302 72.0989 0.0000 0.0000 0.0000
# 2 -5.6302 92.1765 -7.1164 0.0000 0.0000 0.0000
# 3 72.0989 -7.1164 47.8653 0.0000 0.0000 0.0000
# 4 0.0000 0.0000 0.0000 16.7641 0.0000 0.0000
# 5 0.0000 0.0000 0.0000 0.0000 50.5330 0.0000
# 6 0.0000 0.0000 0.0000 0.0000 0.0000 -4.0685
#
#
#
# Elastic Compliance Matrix: (Units=1/GPa)
#
#
# Indices 1 2 3 4 5 6 
#
# 1 0.003623 -0.000202 -0.005487 0.000000 0.000000 0.000000
# 2 -0.000202 0.010986 0.001938 0.000000 0.000000 0.000000
# 3 -0.005487 0.001938 0.029445 0.000000 0.000000 0.000000
# 4 0.000000 0.000000 0.000000 0.059651 0.000000 0.000000
# 5 0.000000 0.000000 0.000000 0.000000 0.019789 0.000000
# 6 0.000000 0.000000 0.000000 0.000000 0.000000 -0.245792
#
#
# Mechanical properties :
#
#
# Convention : Reuss Voigt Hill
#
# Bulk Modulus (GPa) = 27.35870 71.51886 49.43878
# Shear Modulus (GPa) = -48.72737 43.68658 -2.52040
#
# Velocity S-wave (km/s) = -4.41962 4.18478 -1.00515
# Velocity P-wave (km/s) = 3.88290 7.21243 4.29780
#
# Compressibility (1/GPa) = 0.03655145
#
# Stress axis : x y z
#
# Youngs Moduli (GPa) = 276.03747 91.02477 33.96167
#
# Poissons Ratio (x) = 0.01842 0.18634
# Poissons Ratio (y) = 0.05585 -0.06582
# Poissons Ratio (z) = 1.51459 -0.17642
#
# Static dielectric constant tensor:
#      x y z
#    x 2.070060 0.000000 0.000000 
#    y 0.000000 2.126800 0.000000 
#    z 0.000000 0.000000 1.933260 
# 
# From -- ./inp_files/8288.got.cif
#   From: 2010.05.17/outbox.cif.g08.bks.cpg/sg53_5_cif.got.tgz:8288.got - 2010.06.03 12:45:16.
