data_PCOD9415080
_publ_section_title
;
Structure prediction by ZEFSAII (Michael W. Deem and Ramdas Pophale) SiO2 
 PCOD9415080
Probable space group: P M N A
;
_chemical_formula_sum "Si O2"
_cell_formula_units_Z 64
_cell_length_a 8.935166
_cell_length_b 19.099505
_cell_length_c 25.156801
_cell_angle_alpha 90.000000
_cell_angle_beta 90.000000
_cell_angle_gamma 90.000000
_cell_volume 4293.190419
_symmetry_space_group_name_H-M "P M N A"
_symmetry_group_IT_number 53
_symmetry_cell_setting 'orthorhombic'
loop_
_space_group_symop_operation_xyz
x,y,z
1/2-x,-y,1/2+z
x,-y,-z
1/2-x,y,1/2-z
-x,-y,-z
1/2+x,y,1/2-z
-x,y,z
1/2+x,-y,1/2+z
loop_
_atom_site_type_symbol
_atom_site_label
_atom_site_fract_x
_atom_site_fract_y
_atom_site_fract_z
Si Si1 0.675942 0.547863 0.421330
Si Si2 0.679283 0.113050 0.492052
Si Si3 0.820374 0.061706 0.693763
Si Si4 0.174858 0.599651 0.955855
Si Si5 0.319376 0.013323 0.587384
Si Si6 0.825565 0.263305 0.488682
Si Si7 0.178608 0.784622 0.194697
Si Si8 0.825376 0.315137 0.610536
O O1 0.500000 0.550474 0.406553
O O2 0.683947 0.573281 0.482868
O O3 0.728003 0.467045 0.421427
O O4 0.771092 0.604446 0.389399
O O5 0.500000 0.119058 0.493752
O O6 0.715108 0.056668 0.446157
O O7 0.747849 0.188624 0.482269
O O8 0.724576 0.077859 0.548387
O O9 0.750000 0.037693 0.750000
O O10 0.754416 0.139856 0.684914
O O11 0.000000 0.063702 0.697087
O O12 0.763869 0.018007 0.643235
O O13 0.000000 0.610446 0.944141
O O14 0.258790 0.673161 0.954060
O O15 0.500000 0.016643 0.594994
O O16 0.808344 0.286463 0.550393
O O17 0.000000 0.256368 0.477463
O O18 0.250000 0.758978 0.250000
O O19 0.224223 0.731760 0.148539
O O20 0.000000 0.792670 0.198906
O O21 0.000000 0.309378 0.625156
#
# Coordination Sequence:
#
# PCOD9415080 Si02
#       8
#     8   8   8   8   8   8   8   8
#     4   8  14  25  40  58  78 107 143 175 206 243
#     4   9  18  31  47  64  87 119 151 182 221 267
#     4  11  21  33  49  68  89 115 146 183 224 265
#     4   8  14  25  40  56  79 109 142 175 207 244
#     4   9  18  33  49  66  87 115 150 185 221 266
#     4  10  19  27  39  61  88 115 146 180 215 255
#     4  11  21  33  47  62  83 111 143 181 218 255
#     4  10  19  29  41  61  87 115 145 178 215 257
#
# _framework density 14.907328
#
# number of rings (size 3 to 8) (size 9 to 14) (size 15 to 20)
#    0.000    2.500    0.000    6.000    0.000    5.000 
#    0.000    3.750    0.000    0.000    0.000    0.000 
#    0.000    1.000    0.000    8.250    0.000    5.250 
#
# Total GULP energy -356651.506449 kJ/mol
# GULP energy per Si atom -5572.679788 kJ/mol
# Density = 1.487340 g / cm^3
# Si number density = 14.907328 Si / 1000 Ang^3
#
#
#
# Elastic Constant Matrix: (Units=GPa)
#
#
# Indices 1 2 3 4 5 6 
#
# 1 78.9391 42.5131 38.8083 0.0000 0.0000 0.0000
# 2 42.5131 99.4292 26.3168 0.0000 0.0000 0.0000
# 3 38.8083 26.3168 57.5595 0.0000 0.0000 0.0000
# 4 0.0000 0.0000 0.0000 15.2141 0.0000 0.0000
# 5 0.0000 0.0000 0.0000 0.0000 19.7650 0.0000
# 6 0.0000 0.0000 0.0000 0.0000 0.0000 20.5768
#
#
#
# Elastic Compliance Matrix: (Units=1/GPa)
#
#
# Indices 1 2 3 4 5 6 
#
# 1 0.021856 -0.006194 -0.011904 0.000000 0.000000 0.000000
# 2 -0.006194 0.013198 -0.001858 0.000000 0.000000 0.000000
# 3 -0.011904 -0.001858 0.026249 0.000000 0.000000 0.000000
# 4 0.000000 0.000000 0.000000 0.065728 0.000000 0.000000
# 5 0.000000 0.000000 0.000000 0.000000 0.050594 0.000000
# 6 0.000000 0.000000 0.000000 0.000000 0.000000 0.048598
#
#
# Mechanical properties :
#
#
# Convention : Reuss Voigt Hill
#
# Bulk Modulus (GPa) = 46.74969 50.13378 48.44173
# Shear Modulus (GPa) = 18.29719 19.66384 18.98052
#
# Velocity S-wave (km/s) = 3.50722 3.63584 3.57211
# Velocity P-wave (km/s) = 6.91586 7.16443 7.04124
#
# Compressibility (1/GPa) = 0.02139052
#
# Stress axis : x y z
#
# Youngs Moduli (GPa) = 45.75340 75.77121 38.09714
#
# Poissons Ratio (x) = 0.46936 0.45351
# Poissons Ratio (y) = 0.28341 0.07077
# Poissons Ratio (z) = 0.54465 0.14076
#
# Static dielectric constant tensor:
#      x y z
#    x 1.496860 0.000000 0.000000 
#    y 0.000000 1.502720 0.000000 
#    z 0.000000 0.000000 1.489520 
# 
# From -- ./inp_files/34520.got.cif
#   From: 2010.05.17/outbox.cif.g08.bks.cpg/sg53_18_cif.got.tgz:34520.got - 2010.06.03 12:45:16.
