data_PCOD9415362
_publ_section_title
;
Structure prediction by ZEFSAII (Michael W. Deem and Ramdas Pophale) SiO2 
 PCOD9415362
Probable space group: P M N A
;
_chemical_formula_sum "Si O2"
_cell_formula_units_Z 48
_cell_length_a 8.123079
_cell_length_b 11.956704
_cell_length_c 27.412067
_cell_angle_alpha 90.000000
_cell_angle_beta 90.000000
_cell_angle_gamma 90.000000
_cell_volume 2662.403893
_symmetry_space_group_name_H-M "P M N A"
_symmetry_group_IT_number 53
_symmetry_cell_setting 'orthorhombic'
loop_
_space_group_symop_operation_xyz
x,y,z
1/2-x,-y,1/2+z
x,-y,-z
1/2-x,y,1/2-z
-x,-y,-z
1/2+x,y,1/2-z
-x,y,z
1/2+x,-y,1/2+z
loop_
_atom_site_type_symbol
_atom_site_label
_atom_site_fract_x
_atom_site_fract_y
_atom_site_fract_z
Si Si1 0.196023 0.135220 0.357246
Si Si2 0.189087 0.935175 0.196613
Si Si3 0.303882 0.397900 0.804853
Si Si4 0.798922 0.972756 0.445363
Si Si5 0.812704 0.223657 0.618285
Si Si6 0.695757 0.345529 0.304479
O O1 0.238471 0.263297 0.346431
O O2 0.000000 0.121764 0.352031
O O3 0.289821 0.065012 0.315794
O O4 0.245533 0.072928 0.407723
O O5 0.250000 0.911152 0.250000
O O6 0.308516 0.871299 0.159900
O O7 0.000000 0.901195 0.189101
O O8 0.250000 0.362351 0.750000
O O9 0.500000 0.384082 0.805826
O O10 0.236442 0.326766 0.851122
O O11 0.259469 0.527822 0.810223
O O12 0.739260 0.850710 0.425922
O O13 0.000000 0.967188 0.445044
O O14 0.745013 0.000000 0.500000
O O15 0.000000 0.254348 0.604603
O O16 0.750000 0.308142 0.250000
O O17 0.500000 0.347026 0.305760
#
# Coordination Sequence:
#
# PCOD9415362 Si02
#       6
#     8   8   8   8   8   8
#     4  10  19  32  49  70  96 124 158 198 240 285
#     4  11  20  29  43  65  95 127 158 192 234 284
#     4  10  19  31  47  69  98 131 165 197 233 278
#     4   8  15  30  53  77  97 120 154 200 250 291
#     4   9  18  31  48  71  97 125 159 199 240 286
#     4  11  21  33  49  70  98 131 166 198 234 281
#
# _framework density 18.02882
#
# number of rings (size 3 to 8) (size 9 to 14) (size 15 to 20)
#    0.000    2.167    0.000    7.000    0.000    2.667 
#    0.000    0.000    0.000   13.500    0.000    7.000 
#    0.000    0.000    0.000    0.000    0.000    0.000 
#
# Total GULP energy -267308.889878 kJ/mol
# GULP energy per Si atom -5568.935206 kJ/mol
# Density = 1.798779 g / cm^3
# Si number density = 18.028820 Si / 1000 Ang^3
#
#
#
# Elastic Constant Matrix: (Units=GPa)
#
#
# Indices 1 2 3 4 5 6 
#
# 1 55.8696 4.7888 5.7431 0.0000 0.0000 0.0000
# 2 4.7888 95.6724 42.6717 0.0000 0.0000 0.0000
# 3 5.7431 42.6717 76.7089 0.0000 0.0000 0.0000
# 4 0.0000 0.0000 0.0000 25.4375 0.0000 0.0000
# 5 0.0000 0.0000 0.0000 0.0000 10.1885 0.0000
# 6 0.0000 0.0000 0.0000 0.0000 0.0000 24.2980
#
#
#
# Elastic Compliance Matrix: (Units=1/GPa)
#
#
# Indices 1 2 3 4 5 6 
#
# 1 0.018049 -0.000400 -0.001129 0.000000 0.000000 0.000000
# 2 -0.000400 0.013910 -0.007708 0.000000 0.000000 0.000000
# 3 -0.001129 -0.007708 0.017409 0.000000 0.000000 0.000000
# 4 0.000000 0.000000 0.000000 0.039312 0.000000 0.000000
# 5 0.000000 0.000000 0.000000 0.000000 0.098150 0.000000
# 6 0.000000 0.000000 0.000000 0.000000 0.000000 0.041156
#
#
# Mechanical properties :
#
#
# Convention : Reuss Voigt Hill
#
# Bulk Modulus (GPa) = 32.36835 37.18423 34.77629
# Shear Modulus (GPa) = 19.47360 23.65461 21.56411
#
# Velocity S-wave (km/s) = 3.29011 3.62615 3.46221
# Velocity P-wave (km/s) = 5.69436 6.18074 5.94253
#
# Compressibility (1/GPa) = 0.03089437
#
# Stress axis : x y z
#
# Youngs Moduli (GPa) = 55.40430 71.88909 57.44257
#
# Poissons Ratio (x) = 0.02875 0.06484
# Poissons Ratio (y) = 0.02216 0.44277
# Poissons Ratio (z) = 0.06254 0.55413
#
# Static dielectric constant tensor:
#      x y z
#    x 1.655850 0.000000 0.000000 
#    y 0.000000 1.664620 0.000000 
#    z 0.000000 0.000000 1.617080 
# 
# From -- ./inp_files/36166.got.cif
#   From: 2010.05.17/outbox.cif.g08.bks.cpg/sg53_19_cif.got.tgz:36166.got - 2010.06.03 12:45:16.
