data_PCOD9415828
_publ_section_title
;
Structure prediction by ZEFSAII (Michael W. Deem and Ramdas Pophale) SiO2 
 PCOD9415828
Probable space group: P M N A
;
_chemical_formula_sum "Si O2"
_cell_formula_units_Z 64
_cell_length_a 7.559076
_cell_length_b 15.196704
_cell_length_c 24.535148
_cell_angle_alpha 90.000000
_cell_angle_beta 90.000000
_cell_angle_gamma 90.000000
_cell_volume 2818.427050
_symmetry_space_group_name_H-M "P M N A"
_symmetry_group_IT_number 53
_symmetry_cell_setting 'orthorhombic'
loop_
_space_group_symop_operation_xyz
x,y,z
1/2-x,-y,1/2+z
x,-y,-z
1/2-x,y,1/2-z
-x,-y,-z
1/2+x,y,1/2-z
-x,y,z
1/2+x,-y,1/2+z
loop_
_atom_site_type_symbol
_atom_site_label
_atom_site_fract_x
_atom_site_fract_y
_atom_site_fract_z
Si Si1 0.211098 0.739532 0.309136
Si Si2 0.717750 0.777450 0.497104
Si Si3 0.289636 0.641536 0.811004
Si Si4 0.793910 0.550611 0.335542
Si Si5 0.205906 0.195039 0.118522
Si Si6 0.298304 0.881149 0.394726
Si Si7 0.212937 0.030758 0.186043
Si Si8 0.214337 0.419461 0.961186
O O1 0.250000 0.778983 0.250000
O O2 0.282229 0.639848 0.310567
O O3 0.297662 0.794926 0.356809
O O4 0.000000 0.739231 0.318383
O O5 0.500000 0.777265 0.496187
O O6 0.780032 0.802245 0.557554
O O7 0.779280 0.847557 0.451761
O O8 0.770546 0.677437 0.481569
O O9 0.250000 0.672753 0.750000
O O10 0.500000 0.639050 0.818869
O O11 0.216148 0.542802 0.818077
O O12 0.217146 0.709071 0.854942
O O13 0.780163 0.562095 0.400382
O O14 0.000000 0.548442 0.319440
O O15 0.278084 0.123526 0.161198
O O16 0.000000 0.172334 0.111750
O O17 0.500000 0.908872 0.406751
O O18 0.218264 0.955887 0.355636
O O19 0.250000 0.019207 0.250000
O O20 0.000000 0.027370 0.183490
O O21 0.000000 0.419466 0.959785
O O22 0.270306 0.500000 0.000000
#
# Coordination Sequence:
#
# PCOD9415828 Si02
#       8
#     8   8   8   8   8   8   8   8
#     4  11  22  36  55  81 112 149 189 232 281 336
#     4   9  18  34  57  85 117 150 190 235 281 339
#     4  11  23  39  58  83 114 151 194 241 292 345
#     4  10  22  37  53  79 113 148 189 234 285 339
#     4  10  21  39  61  86 115 150 191 239 290 343
#     4  10  20  37  59  85 116 151 189 233 284 339
#     4  10  22  38  60  87 115 149 191 238 291 345
#     4  10  19  32  54  82 112 151 194 235 280 333
#
# _framework density 22.707702000000001
#
# number of rings (size 3 to 8) (size 9 to 14) (size 15 to 20)
#    0.000    1.875    1.250    2.625    0.000    6.250 
#    0.000    3.750    0.000    0.000    0.000    2.625 
#    0.000    0.000    0.000    0.000    0.000    0.000 
#
# Total GULP energy -357620.504596 kJ/mol
# GULP energy per Si atom -5587.820384 kJ/mol
# Density = 2.265602 g / cm^3
# Si number density = 22.707702 Si / 1000 Ang^3
#
#
#
# Elastic Constant Matrix: (Units=GPa)
#
#
# Indices 1 2 3 4 5 6 
#
# 1 59.7901 2.9334 -5.8820 0.0000 0.0000 0.0000
# 2 2.9334 89.1761 27.5705 0.0000 0.0000 0.0000
# 3 -5.8820 27.5705 140.6030 0.0000 0.0000 0.0000
# 4 0.0000 0.0000 0.0000 40.1552 0.0000 0.0000
# 5 0.0000 0.0000 0.0000 0.0000 18.1453 0.0000
# 6 0.0000 0.0000 0.0000 0.0000 0.0000 5.5048
#
#
#
# Elastic Compliance Matrix: (Units=1/GPa)
#
#
# Indices 1 2 3 4 5 6 
#
# 1 0.016851 -0.000822 0.000866 0.000000 0.000000 0.000000
# 2 -0.000822 0.011978 -0.002383 0.000000 0.000000 0.000000
# 3 0.000866 -0.002383 0.007616 0.000000 0.000000 0.000000
# 4 0.000000 0.000000 0.000000 0.024903 0.000000 0.000000
# 5 0.000000 0.000000 0.000000 0.000000 0.055111 0.000000
# 6 0.000000 0.000000 0.000000 0.000000 0.000000 0.181658
#
#
# Mechanical properties :
#
#
# Convention : Reuss Voigt Hill
#
# Bulk Modulus (GPa) = 31.48014 37.64588 34.56301
# Shear Modulus (GPa) = 15.95492 30.42422 23.18957
#
# Velocity S-wave (km/s) = 2.65358 3.66433 3.19912
# Velocity P-wave (km/s) = 4.82513 5.87516 5.37584
#
# Compressibility (1/GPa) = 0.03176606
#
# Stress axis : x y z
#
# Youngs Moduli (GPa) = 59.34464 83.48939 131.30697
#
# Poissons Ratio (x) = 0.06863 -0.11373
# Poissons Ratio (y) = 0.04879 0.31291
# Poissons Ratio (z) = -0.05140 0.19896
#
# Static dielectric constant tensor:
#      x y z
#    x 1.873180 0.000000 0.000000 
#    y 0.000000 1.853030 0.000000 
#    z 0.000000 0.000000 1.803970 
# 
# From -- ./inp_files/34210.got.cif
#   From: 2010.05.17/outbox.cif.g08.bks.cpg/sg53_18_cif.got.tgz:34210.got - 2010.06.03 12:45:16.
