data_PCOD9415664
_publ_section_title
;
Structure prediction by ZEFSAII (Michael W. Deem and Ramdas Pophale) SiO2 
 PCOD9415664
Probable space group: P M N A
;
_chemical_formula_sum "Si O2"
_cell_formula_units_Z 56
_cell_length_a 7.625973
_cell_length_b 16.502719
_cell_length_c 20.383031
_cell_angle_alpha 90.000000
_cell_angle_beta 90.000000
_cell_angle_gamma 90.000000
_cell_volume 2565.189970
_symmetry_space_group_name_H-M "P M N A"
_symmetry_group_IT_number 53
_symmetry_cell_setting 'orthorhombic'
loop_
_space_group_symop_operation_xyz
x,y,z
1/2-x,-y,1/2+z
x,-y,-z
1/2-x,y,1/2-z
-x,-y,-z
1/2+x,y,1/2-z
-x,y,z
1/2+x,-y,1/2+z
loop_
_atom_site_type_symbol
_atom_site_label
_atom_site_fract_x
_atom_site_fract_y
_atom_site_fract_z
Si Si1 0.208997 0.490039 0.325334
Si Si2 0.295759 0.572839 0.457140
Si Si3 0.790832 0.695258 0.674384
Si Si4 0.296648 0.159657 0.419942
Si Si5 0.216312 0.753353 0.046649
Si Si6 0.709992 0.160449 0.677021
Si Si7 0.211110 0.024393 0.176387
O O1 0.250000 0.511824 0.250000
O O2 0.284875 0.547844 0.380990
O O3 0.272093 0.397205 0.336492
O O4 0.000000 0.490275 0.332772
O O5 0.216039 0.500000 0.500000
O O6 0.500000 0.578459 0.476367
O O7 0.221376 0.662256 0.467401
O O8 0.750000 0.715577 0.750000
O O9 0.711018 0.760807 0.625825
O O10 0.000000 0.696678 0.665531
O O11 0.500000 0.138791 0.431801
O O12 0.222721 0.185573 0.490036
O O13 0.218795 0.085507 0.378528
O O14 0.273078 0.783950 0.117892
O O15 0.000000 0.752065 0.045806
O O16 0.750000 0.190591 0.750000
O O17 0.500000 0.156193 0.671379
O O18 0.777356 0.067882 0.671069
O O19 0.250000 0.054200 0.250000
O O20 0.000000 0.022207 0.170688
#
# Coordination Sequence:
#
# PCOD9415664 Si02
#       7
#     8   8   8   8   8   8   8
#     4  10  21  36  54  76 102 133 172 218 264 312
#     4  10  20  35  55  77 104 139 175 213 262 316
#     4  10  20  33  50  74 104 138 173 210 255 305
#     4  10  19  32  51  76 105 136 171 209 252 303
#     4   9  19  34  53  77 103 134 172 212 256 307
#     4   9  18  35  55  75 102 134 171 214 257 303
#     4   9  18  31  51  77 103 135 171 208 250 297
#
# _framework density 21.830739999999999
#
# number of rings (size 3 to 8) (size 9 to 14) (size 15 to 20)
#    0.000    2.429    0.000    2.143    0.000    6.000 
#    0.000    6.429    0.000    0.000    0.000    5.000 
#    0.000    0.000    0.000    0.000    0.000    0.000 
#
# Total GULP energy -312791.313461 kJ/mol
# GULP energy per Si atom -5585.559169 kJ/mol
# Density = 2.178105 g / cm^3
# Si number density = 21.830740 Si / 1000 Ang^3
#
#
#
# Elastic Constant Matrix: (Units=GPa)
#
#
# Indices 1 2 3 4 5 6 
#
# 1 48.4876 6.2763 -3.6986 0.0000 0.0000 0.0000
# 2 6.2763 83.9687 65.9141 0.0000 0.0000 0.0000
# 3 -3.6986 65.9141 122.5313 0.0000 0.0000 0.0000
# 4 0.0000 0.0000 0.0000 32.3723 0.0000 0.0000
# 5 0.0000 0.0000 0.0000 0.0000 20.6336 0.0000
# 6 0.0000 0.0000 0.0000 0.0000 0.0000 15.0042
#
#
#
# Elastic Compliance Matrix: (Units=1/GPa)
#
#
# Indices 1 2 3 4 5 6 
#
# 1 0.021291 -0.003628 0.002594 0.000000 0.000000 0.000000
# 2 -0.003628 0.021232 -0.011531 0.000000 0.000000 0.000000
# 3 0.002594 -0.011531 0.014442 0.000000 0.000000 0.000000
# 4 0.000000 0.000000 0.000000 0.030891 0.000000 0.000000
# 5 0.000000 0.000000 0.000000 0.000000 0.048465 0.000000
# 6 0.000000 0.000000 0.000000 0.000000 0.000000 0.066648
#
#
# Mechanical properties :
#
#
# Convention : Reuss Voigt Hill
#
# Bulk Modulus (GPa) = 31.41047 43.55236 37.48142
# Shear Modulus (GPa) = 20.94590 26.03507 23.49049
#
# Velocity S-wave (km/s) = 3.10089 3.45713 3.28385
# Velocity P-wave (km/s) = 5.21921 5.99408 5.62001
#
# Compressibility (1/GPa) = 0.03183652
#
# Stress axis : x y z
#
# Youngs Moduli (GPa) = 46.96751 47.09873 69.24049
#
# Poissons Ratio (x) = 0.17087 -0.17963
# Poissons Ratio (y) = 0.17039 0.79841
# Poissons Ratio (z) = -0.12184 0.54309
#
# Static dielectric constant tensor:
#      x y z
#    x 2.026550 0.000000 0.000000 
#    y 0.000000 1.794630 0.000000 
#    z 0.000000 0.000000 1.770790 
# 
# From -- ./inp_files/30855.got.cif
#   From: 2010.05.17/outbox.cif.g08.bks.cpg/sg53_16_cif.got.tgz:30855.got - 2010.06.03 12:45:16.
