data_PCOD9415408
_publ_section_title
;
Structure prediction by ZEFSAII (Michael W. Deem and Ramdas Pophale) SiO2 
 PCOD9415408
Probable space group: P M N A
;
_chemical_formula_sum "Si O2"
_cell_formula_units_Z 56
_cell_length_a 7.744322
_cell_length_b 15.723707
_cell_length_c 22.005130
_cell_angle_alpha 90.000000
_cell_angle_beta 90.000000
_cell_angle_gamma 90.000000
_cell_volume 2679.552578
_symmetry_space_group_name_H-M "P M N A"
_symmetry_group_IT_number 53
_symmetry_cell_setting 'orthorhombic'
loop_
_space_group_symop_operation_xyz
x,y,z
1/2-x,-y,1/2+z
x,-y,-z
1/2-x,y,1/2-z
-x,-y,-z
1/2+x,y,1/2-z
-x,y,z
1/2+x,-y,1/2+z
loop_
_atom_site_type_symbol
_atom_site_label
_atom_site_fract_x
_atom_site_fract_y
_atom_site_fract_z
Si Si1 0.295130 0.142904 0.815866
Si Si2 0.293132 0.463808 0.682181
Si Si3 0.789173 0.444398 0.059512
Si Si4 0.709671 0.731476 0.512005
Si Si5 0.794983 0.076592 0.454772
Si Si6 0.707607 0.948612 0.817573
Si Si7 0.699773 0.697444 0.381936
O O1 0.250000 0.178541 0.750000
O O2 0.500000 0.142363 0.825423
O O3 0.211195 0.205199 0.863192
O O4 0.231046 0.046674 0.816827
O O5 0.250000 0.491867 0.750000
O O6 0.500000 0.466703 0.680731
O O7 0.230817 0.515614 0.623285
O O8 0.229830 0.367290 0.668103
O O9 0.740794 0.344586 0.057345
O O10 0.000000 0.447406 0.058191
O O11 0.735090 0.500000 0.000000
O O12 0.500000 0.735922 0.511114
O O13 0.770096 0.828067 0.520259
O O14 0.777861 0.694031 0.448293
O O15 0.729069 0.081156 0.384346
O O16 0.000000 0.059742 0.450111
O O17 0.728619 0.000000 0.500000
O O18 0.750000 0.911960 0.750000
O O19 0.500000 0.946649 0.819408
O O20 0.500000 0.673500 0.389438
#
# Coordination Sequence:
#
# PCOD9415408 Si02
#       7
#     8   8   8   8   8   8   8
#     4  10  19  31  48  71 101 138 178 219 268 329
#     4  10  20  34  54  79 109 144 181 223 272 327
#     4   9  16  34  60  80 103 142 185 222 266 322
#     4  10  20  34  57  85 106 136 188 236 273 319
#     4  10  21  38  57  80 114 151 184 225 284 343
#     4   9  19  35  54  74 100 141 186 226 273 329
#     4  10  19  31  49  76 107 138 175 221 271 327
#
# _framework density 20.899013
#
# number of rings (size 3 to 8) (size 9 to 14) (size 15 to 20)
#    0.000    2.286    1.429    1.714    0.000    4.857 
#    0.000    1.429    0.000    4.286    0.000    0.000 
#    0.000    0.000    0.000    0.000    0.000    0.000 
#
# Total GULP energy -311800.291792 kJ/mol
# GULP energy per Si atom -5567.862353 kJ/mol
# Density = 2.085145 g / cm^3
# Si number density = 20.899013 Si / 1000 Ang^3
#
#
#
# Elastic Constant Matrix: (Units=GPa)
#
#
# Indices 1 2 3 4 5 6 
#
# 1 28.9459 1.3653 12.4126 0.0000 0.0000 0.0000
# 2 1.3653 85.2584 47.1702 0.0000 0.0000 0.0000
# 3 12.4126 47.1702 154.6315 0.0000 0.0000 0.0000
# 4 0.0000 0.0000 0.0000 34.6903 0.0000 0.0000
# 5 0.0000 0.0000 0.0000 0.0000 14.6229 0.0000
# 6 0.0000 0.0000 0.0000 0.0000 0.0000 -21.2318
#
#
#
# Elastic Compliance Matrix: (Units=1/GPa)
#
#
# Indices 1 2 3 4 5 6 
#
# 1 0.035885 0.001226 -0.003255 0.000000 0.000000 0.000000
# 2 0.001226 0.014152 -0.004416 0.000000 0.000000 0.000000
# 3 -0.003255 -0.004416 0.008075 0.000000 0.000000 0.000000
# 4 0.000000 0.000000 0.000000 0.028827 0.000000 0.000000
# 5 0.000000 0.000000 0.000000 0.000000 0.068386 0.000000
# 6 0.000000 0.000000 0.000000 0.000000 0.000000 -0.047099
#
#
# Mechanical properties :
#
#
# Convention : Reuss Voigt Hill
#
# Bulk Modulus (GPa) = 22.11201 43.41466 32.76333
# Shear Modulus (GPa) = 36.71374 19.47547 28.09461
#
# Velocity S-wave (km/s) = 4.19587 3.05599 3.67045
# Velocity P-wave (km/s) = 5.83757 5.76808 5.80293
#
# Compressibility (1/GPa) = 0.04522429
#
# Stress axis : x y z
#
# Youngs Moduli (GPa) = 27.86681 70.65943 123.83585
#
# Poissons Ratio (x) = -0.08663 0.40303
# Poissons Ratio (y) = -0.03416 0.54681
# Poissons Ratio (z) = 0.09069 0.31200
#
# Static dielectric constant tensor:
#      x y z
#    x 1.755820 0.000000 0.000000 
#    y 0.000000 1.737480 0.000000 
#    z 0.000000 0.000000 1.827640 
# 
# From -- ./inp_files/30817.got.cif
#   From: 2010.05.17/outbox.cif.g08.bks.cpg/sg53_16_cif.got.tgz:30817.got - 2010.06.03 12:45:16.
