data_PCOD9415010
_publ_section_title
;
Structure prediction by ZEFSAII (Michael W. Deem and Ramdas Pophale) SiO2 
 PCOD9415010
Probable space group: P M N A
;
_chemical_formula_sum "Si O2"
_cell_formula_units_Z 56
_cell_length_a 16.387290
_cell_length_b 12.269052
_cell_length_c 13.328998
_cell_angle_alpha 90.000000
_cell_angle_beta 90.000000
_cell_angle_gamma 90.000000
_cell_volume 2679.881862
_symmetry_space_group_name_H-M "P M N A"
_symmetry_group_IT_number 53
_symmetry_cell_setting 'orthorhombic'
loop_
_space_group_symop_operation_xyz
x,y,z
1/2-x,-y,1/2+z
x,-y,-z
1/2-x,y,1/2-z
-x,-y,-z
1/2+x,y,1/2-z
-x,y,z
1/2+x,-y,1/2+z
loop_
_atom_site_type_symbol
_atom_site_label
_atom_site_fract_x
_atom_site_fract_y
_atom_site_fract_z
Si Si1 0.839992 0.715604 0.614656
Si Si2 0.097104 0.324989 0.856494
Si Si3 0.348590 0.521497 0.754832
Si Si4 0.095349 0.855084 0.798908
Si Si5 0.598212 0.884044 0.045377
Si Si6 0.849417 0.326376 0.072413
Si Si7 0.099473 0.900125 0.225432
O O1 0.872557 0.596508 0.650196
O O2 0.855310 0.792359 0.711814
O O3 0.876897 0.781106 0.521717
O O4 0.745256 0.697523 0.592240
O O5 0.118708 0.400631 0.761584
O O6 0.127265 0.201978 0.839308
O O7 0.000000 0.325542 0.868659
O O8 0.136182 0.364836 0.960082
O O9 0.250000 0.517691 0.750000
O O10 0.377747 0.587430 0.656108
O O11 0.104519 0.785736 0.900117
O O12 0.000000 0.855829 0.767745
O O13 0.123949 0.979251 0.808463
O O14 0.500000 0.887557 0.045557
O O15 0.625862 0.880104 0.160176
O O16 0.626839 0.000000 0.000000
O O17 0.000000 0.898410 0.223665
#
# Coordination Sequence:
#
# PCOD9415010 Si02
#       7
#     8   8   8   8   8   8   8
#     4  10  20  37  58  89 119 146 195 252 307 358
#     4  11  23  40  60  86 120 161 209 249 296 366
#     4   9  21  40  60  80 114 155 196 251 305 351
#     4  10  18  35  60  83 113 156 197 240 301 360
#     4  10  18  34  60  87 114 151 199 244 294 355
#     4  10  22  38  56  85 122 153 196 251 301 361
#     4   9  20  36  54  82 118 151 190 246 300 353
#
# _framework density 20.896445
#
# number of rings (size 3 to 8) (size 9 to 14) (size 15 to 20)
#    0.000    2.143    1.429    2.571    0.000    5.714 
#    2.571    5.714    0.000    2.571    0.000    0.000 
#    0.000    0.000    0.000    0.000    0.000    0.000 
#
# Total GULP energy -312520.923676 kJ/mol
# GULP energy per Si atom -5580.730780 kJ/mol
# Density = 2.084888 g / cm^3
# Si number density = 20.896445 Si / 1000 Ang^3
#
#
#
# Elastic Constant Matrix: (Units=GPa)
#
#
# Indices 1 2 3 4 5 6 
#
# 1 29.7157 15.8853 6.5954 0.0000 0.0000 0.0000
# 2 15.8853 104.9237 15.6741 0.0000 0.0000 0.0000
# 3 6.5954 15.6741 42.1208 0.0000 0.0000 0.0000
# 4 0.0000 0.0000 0.0000 35.0750 0.0000 0.0000
# 5 0.0000 0.0000 0.0000 0.0000 -0.9541 0.0000
# 6 0.0000 0.0000 0.0000 0.0000 0.0000 22.9724
#
#
#
# Elastic Compliance Matrix: (Units=1/GPa)
#
#
# Indices 1 2 3 4 5 6 
#
# 1 0.037227 -0.005046 -0.003951 0.000000 0.000000 0.000000
# 2 -0.005046 0.010776 -0.003220 0.000000 0.000000 0.000000
# 3 -0.003951 -0.003220 0.025558 0.000000 0.000000 0.000000
# 4 0.000000 0.000000 0.000000 0.028510 0.000000 0.000000
# 5 0.000000 0.000000 0.000000 0.000000 -1.048094 0.000000
# 6 0.000000 0.000000 0.000000 0.000000 0.000000 0.043531
#
#
# Mechanical properties :
#
#
# Convention : Reuss Voigt Hill
#
# Bulk Modulus (GPa) = 20.35563 28.11885 24.23724
# Shear Modulus (GPa) = -5.80259 20.65902 7.42821
#
# Velocity S-wave (km/s) = -1.66819 3.14767 1.88746
# Velocity P-wave (km/s) = 2.46005 5.16681 4.04647
#
# Compressibility (1/GPa) = 0.04912647
#
# Stress axis : x y z
#
# Youngs Moduli (GPa) = 26.86256 92.80195 39.12657
#
# Poissons Ratio (x) = 0.46826 0.15460
# Poissons Ratio (y) = 0.13554 0.12598
# Poissons Ratio (z) = 0.10614 0.29880
#
# Static dielectric constant tensor:
#      x y z
#    x 1.738720 0.000000 0.000000 
#    y 0.000000 1.789810 0.000000 
#    z 0.000000 0.000000 1.735770 
# 
# From -- ./inp_files/22816.got.cif
#   From: 2010.05.17/outbox.cif.g08.bks.cpg/sg53_12_cif.got.tgz:22816.got - 2010.06.03 12:45:16.
