data_PCOD9415850
_publ_section_title
;
Structure prediction by ZEFSAII (Michael W. Deem and Ramdas Pophale) SiO2 
 PCOD9415850
Probable space group: P M N A
;
_chemical_formula_sum "Si O2"
_cell_formula_units_Z 32
_cell_length_a 8.809441
_cell_length_b 10.327142
_cell_length_c 20.189832
_cell_angle_alpha 90.000000
_cell_angle_beta 90.000000
_cell_angle_gamma 90.000000
_cell_volume 1836.797185
_symmetry_space_group_name_H-M "P M N A"
_symmetry_group_IT_number 53
_symmetry_cell_setting 'orthorhombic'
loop_
_space_group_symop_operation_xyz
x,y,z
1/2-x,-y,1/2+z
x,-y,-z
1/2-x,y,1/2-z
-x,-y,-z
1/2+x,y,1/2-z
-x,y,z
1/2+x,-y,1/2+z
loop_
_atom_site_type_symbol
_atom_site_label
_atom_site_fract_x
_atom_site_fract_y
_atom_site_fract_z
Si Si1 0.818674 0.339304 0.177389
Si Si2 0.682455 0.458161 0.925380
Si Si3 0.817840 0.098865 0.087541
Si Si4 0.682080 0.835797 0.055978
O O1 0.750000 0.352443 0.250000
O O2 0.759192 0.450469 0.128328
O O3 0.777095 0.201347 0.144161
O O4 0.000000 0.345926 0.180936
O O5 0.500000 0.473077 0.920645
O O6 0.719489 0.306552 0.917237
O O7 0.726706 0.500000 0.000000
O O8 0.000000 0.092024 0.081682
O O9 0.750581 0.955540 0.096656
O O10 0.749530 0.149867 0.018035
O O11 0.500000 0.847881 0.052177
#
# Coordination Sequence:
#
# PCOD9415850 Si02
#       4
#     8   8   8   8
#     4  11  24  39  58  82 113 153 192 234 287 342
#     4  10  20  36  58  85 116 149 189 235 282 337
#     4  10  20  34  53  81 113 145 183 231 279 330
#     4  10  19  32  56  85 111 144 182 228 280 329
#
# _framework density 17.42163
#
# number of rings (size 3 to 8) (size 9 to 14) (size 15 to 20)
#    0.000    1.750    2.500    3.750    0.000    5.500 
#    0.000    1.250    0.000    3.000    0.000    0.000 
#    0.000    0.000    0.000    0.000    0.000    0.000 
#
# Total GULP energy -178680.742206 kJ/mol
# GULP energy per Si atom -5583.773194 kJ/mol
# Density = 1.738198 g / cm^3
# Si number density = 17.421630 Si / 1000 Ang^3
#
#
#
# Elastic Constant Matrix: (Units=GPa)
#
#
# Indices 1 2 3 4 5 6 
#
# 1 58.1853 67.0844 47.6747 0.0000 0.0000 0.0000
# 2 67.0844 182.3566 93.5089 0.0000 0.0000 0.0000
# 3 47.6747 93.5089 127.0560 0.0000 0.0000 0.0000
# 4 0.0000 0.0000 0.0000 23.4730 0.0000 0.0000
# 5 0.0000 0.0000 0.0000 0.0000 12.9750 0.0000
# 6 0.0000 0.0000 0.0000 0.0000 0.0000 55.3083
#
#
#
# Elastic Compliance Matrix: (Units=1/GPa)
#
#
# Indices 1 2 3 4 5 6 
#
# 1 0.031970 -0.009010 -0.005365 0.000000 0.000000 0.000000
# 2 -0.009010 0.011347 -0.004970 0.000000 0.000000 0.000000
# 3 -0.005365 -0.004970 0.013542 0.000000 0.000000 0.000000
# 4 0.000000 0.000000 0.000000 0.042602 0.000000 0.000000
# 5 0.000000 0.000000 0.000000 0.000000 0.077071 0.000000
# 6 0.000000 0.000000 0.000000 0.000000 0.000000 0.018080
#
#
# Mechanical properties :
#
#
# Convention : Reuss Voigt Hill
#
# Bulk Modulus (GPa) = 55.04060 87.12599 71.08330
# Shear Modulus (GPa) = 20.88909 28.97326 24.93117
#
# Velocity S-wave (km/s) = 3.46646 4.08249 3.78702
# Velocity P-wave (km/s) = 6.90533 8.50536 7.74677
#
# Compressibility (1/GPa) = 0.01816841
#
# Stress axis : x y z
#
# Youngs Moduli (GPa) = 31.27884 88.12969 73.84685
#
# Poissons Ratio (x) = 0.79405 0.39620
# Poissons Ratio (y) = 0.28182 0.36703
# Poissons Ratio (z) = 0.16781 0.43802
#
# Static dielectric constant tensor:
#      x y z
#    x 1.582740 0.000000 0.000000 
#    y 0.000000 1.607370 0.000000 
#    z 0.000000 0.000000 1.552730 
# 
# From -- ./inp_files/19621.got.cif
#   From: 2010.05.17/outbox.cif.g08.bks.cpg/sg53_10_cif.got.tgz:19621.got - 2010.06.03 12:45:16.
