data_PCOD9415975
_publ_section_title
;
Structure prediction by ZEFSAII (Michael W. Deem and Ramdas Pophale) SiO2 
 PCOD9415975
Probable space group: P M N A
;
_chemical_formula_sum "Si O2"
_cell_formula_units_Z 56
_cell_length_a 8.787670
_cell_length_b 21.281636
_cell_length_c 15.657901
_cell_angle_alpha 90.000000
_cell_angle_beta 90.000000
_cell_angle_gamma 90.000000
_cell_volume 2928.277923
_symmetry_space_group_name_H-M "P M N A"
_symmetry_group_IT_number 53
_symmetry_cell_setting 'orthorhombic'
loop_
_space_group_symop_operation_xyz
x,y,z
1/2-x,-y,1/2+z
x,-y,-z
1/2-x,y,1/2-z
-x,-y,-z
1/2+x,y,1/2-z
-x,y,z
1/2+x,-y,1/2+z
loop_
_atom_site_type_symbol
_atom_site_label
_atom_site_fract_x
_atom_site_fract_y
_atom_site_fract_z
Si Si1 0.817433 0.147256 0.479354
Si Si2 0.819650 0.093321 0.662439
Si Si3 0.317192 0.375930 0.338856
Si Si4 0.182647 0.291753 0.489355
Si Si5 0.326568 0.971273 0.596114
Si Si6 0.816433 0.350781 0.842082
Si Si7 0.315389 0.489419 0.597602
O O1 0.769323 0.129114 0.576301
O O2 0.781701 0.219856 0.464780
O O3 0.741286 0.098013 0.414976
O O4 0.000000 0.138595 0.475037
O O5 0.750000 0.118351 0.750000
O O6 0.000000 0.097403 0.667369
O O7 0.769776 0.020881 0.650006
O O8 0.250000 0.351761 0.250000
O O9 0.500000 0.372660 0.338683
O O10 0.253349 0.337914 0.419211
O O11 0.269816 0.448866 0.350478
O O12 0.252043 0.308491 0.581442
O O13 0.000000 0.298681 0.492470
O O14 0.500000 0.969882 0.626801
O O15 0.325632 0.000000 0.500000
O O16 0.750000 0.333397 0.750000
O O17 0.767101 0.422731 0.864281
O O18 0.000000 0.348176 0.841092
O O19 0.263920 0.500000 0.500000
O O20 0.500000 0.487975 0.595873
#
# Coordination Sequence:
#
# PCOD9415975 Si02
#       7
#     8   8   8   8   8   8   8
#     4   9  20  37  56  77 108 148 186 227 274 328
#     4  10  19  33  54  81 112 144 179 223 274 325
#     4  11  22  39  62  86 114 149 191 241 297 350
#     4  11  23  40  59  84 117 155 199 241 287 345
#     4   9  17  31  53  80 106 134 172 215 260 315
#     4  11  22  38  59  84 117 154 193 240 293 350
#     4   9  17  34  59  85 113 146 187 238 294 351
#
# _framework density 19.123868999999999
#
# number of rings (size 3 to 8) (size 9 to 14) (size 15 to 20)
#    0.000    2.000    1.429    2.571    0.000    4.000 
#    0.000    5.000    0.000    3.429    0.000    0.000 
#    0.000    0.000    0.000    0.000    0.000    0.000 
#
# Total GULP energy -312662.654285 kJ/mol
# GULP energy per Si atom -5583.261684 kJ/mol
# Density = 1.908034 g / cm^3
# Si number density = 19.123869 Si / 1000 Ang^3
#
#
#
# Elastic Constant Matrix: (Units=GPa)
#
#
# Indices 1 2 3 4 5 6 
#
# 1 44.7488 16.6778 9.0427 0.0000 0.0000 0.0000
# 2 16.6778 68.2129 -11.5541 0.0000 0.0000 0.0000
# 3 9.0427 -11.5541 62.8832 0.0000 0.0000 0.0000
# 4 0.0000 0.0000 0.0000 7.1624 0.0000 0.0000
# 5 0.0000 0.0000 0.0000 0.0000 29.7835 0.0000
# 6 0.0000 0.0000 0.0000 0.0000 0.0000 22.3484
#
#
#
# Elastic Compliance Matrix: (Units=1/GPa)
#
#
# Indices 1 2 3 4 5 6 
#
# 1 0.026069 -0.007234 -0.005078 0.000000 0.000000 0.000000
# 2 -0.007234 0.017138 0.004189 0.000000 0.000000 0.000000
# 3 -0.005078 0.004189 0.017402 0.000000 0.000000 0.000000
# 4 0.000000 0.000000 0.000000 0.139618 0.000000 0.000000
# 5 0.000000 0.000000 0.000000 0.000000 0.033576 0.000000
# 6 0.000000 0.000000 0.000000 0.000000 0.000000 0.044746
#
#
# Mechanical properties :
#
#
# Convention : Reuss Voigt Hill
#
# Bulk Modulus (GPa) = 22.54053 22.68641 22.61347
# Shear Modulus (GPa) = 16.15076 22.63742 19.39409
#
# Velocity S-wave (km/s) = 2.90924 3.44426 3.18800
# Velocity P-wave (km/s) = 4.80594 5.26364 5.03999
#
# Compressibility (1/GPa) = 0.04436452
#
# Stress axis : x y z
#
# Youngs Moduli (GPa) = 38.35945 58.34907 57.46324
#
# Poissons Ratio (x) = 0.42209 0.29180
# Poissons Ratio (y) = 0.27749 -0.24073
# Poissons Ratio (z) = 0.19479 -0.24444
#
# Static dielectric constant tensor:
#      x y z
#    x 1.641320 0.000000 0.000000 
#    y 0.000000 1.659430 0.000000 
#    z 0.000000 0.000000 1.663740 
# 
# From -- ./inp_files/20596.got.cif
#   From: 2010.05.17/outbox.cif.g08.bks.cpg/sg53_11_cif.got.tgz:20596.got - 2010.06.03 12:45:16.
