data_PCOD9415270
_publ_section_title
;
Structure prediction by ZEFSAII (Michael W. Deem and Ramdas Pophale) SiO2 
 PCOD9415270
Probable space group: P M N A
;
_chemical_formula_sum "Si O2"
_cell_formula_units_Z 64
_cell_length_a 8.476515
_cell_length_b 21.380915
_cell_length_c 19.478889
_cell_angle_alpha 90.000000
_cell_angle_beta 90.000000
_cell_angle_gamma 90.000000
_cell_volume 3530.269045
_symmetry_space_group_name_H-M "P M N A"
_symmetry_group_IT_number 53
_symmetry_cell_setting 'orthorhombic'
loop_
_space_group_symop_operation_xyz
x,y,z
1/2-x,-y,1/2+z
x,-y,-z
1/2-x,y,1/2-z
-x,-y,-z
1/2+x,y,1/2-z
-x,y,z
1/2+x,-y,1/2+z
loop_
_atom_site_type_symbol
_atom_site_label
_atom_site_fract_x
_atom_site_fract_y
_atom_site_fract_z
Si Si1 0.310571 0.047989 0.171238
Si Si2 0.690958 0.776039 0.171936
Si Si3 0.809712 0.086932 0.671533
Si Si4 0.309326 0.468262 0.572110
Si Si5 0.309069 0.300964 0.413088
Si Si6 0.811116 0.671986 0.435347
Si Si7 0.809583 0.577100 0.827209
Si Si8 0.188782 0.820339 0.828209
O O1 0.250000 0.047334 0.250000
O O2 0.500000 0.051344 0.171310
O O3 0.244872 0.112819 0.142303
O O4 0.260497 0.980400 0.140722
O O5 0.750000 0.769125 0.250000
O O6 0.500000 0.775112 0.173610
O O7 0.740553 0.845077 0.144235
O O8 0.745941 0.720468 0.122739
O O9 0.750000 0.086726 0.750000
O O10 0.000000 0.086362 0.671850
O O11 0.261232 0.500000 0.500000
O O12 0.500000 0.465371 0.571885
O O13 0.246069 0.398419 0.577875
O O14 0.258160 0.514626 0.632830
O O15 0.500000 0.301401 0.415053
O O16 0.247617 0.306625 0.490067
O O17 0.257840 0.361890 0.369902
O O18 0.257779 0.238063 0.374095
O O19 0.000000 0.672626 0.434984
O O20 0.750000 0.579321 0.750000
O O21 0.000000 0.577472 0.826832
O O22 0.250000 0.813715 0.750000
O O23 0.000000 0.820416 0.825319
#
# Coordination Sequence:
#
# PCOD9415270 Si02
#       8
#     8   8   8   8   8   8   8   8
#     4   9  15  24  42  68  98 132 170 211 257 308
#     4   9  19  35  53  78 108 136 171 215 264 312
#     4   8  14  26  45  68  97 132 168 209 256 308
#     4  10  20  39  61  76 102 141 176 208 251 314
#     4  10  21  38  55  73 103 144 182 209 254 317
#     4  11  23  36  56  83 108 134 172 221 261 303
#     4  10  21  37  58  82 106 136 173 215 258 304
#     4  10  19  30  48  73 104 138 173 218 262 309
#
# _framework density 18.12893
#
# number of rings (size 3 to 8) (size 9 to 14) (size 15 to 20)
#    0.000    2.375    1.250    2.250    0.000    4.250 
#    0.000    2.500    0.000    0.750    0.000    5.250 
#    0.000    0.000    0.000    0.000    0.000    0.000 
#
# Total GULP energy -356738.824767 kJ/mol
# GULP energy per Si atom -5574.044137 kJ/mol
# Density = 1.808767 g / cm^3
# Si number density = 18.128930 Si / 1000 Ang^3
#
#
#
# Elastic Constant Matrix: (Units=GPa)
#
#
# Indices 1 2 3 4 5 6 
#
# 1 17.2919 31.1918 15.6854 0.0000 0.0000 0.0000
# 2 31.1918 226.4828 86.0986 0.0000 0.0000 0.0000
# 3 15.6854 86.0986 97.0585 0.0000 0.0000 0.0000
# 4 0.0000 0.0000 0.0000 14.2976 0.0000 0.0000
# 5 0.0000 0.0000 0.0000 0.0000 19.0882 0.0000
# 6 0.0000 0.0000 0.0000 0.0000 0.0000 23.2806
#
#
#
# Elastic Compliance Matrix: (Units=1/GPa)
#
#
# Indices 1 2 3 4 5 6 
#
# 1 0.078319 -0.009015 -0.004660 0.000000 0.000000 0.000000
# 2 -0.009015 0.007700 -0.005373 0.000000 0.000000 0.000000
# 3 -0.004660 -0.005373 0.015823 0.000000 0.000000 0.000000
# 4 0.000000 0.000000 0.000000 0.069942 0.000000 0.000000
# 5 0.000000 0.000000 0.000000 0.000000 0.052388 0.000000
# 6 0.000000 0.000000 0.000000 0.000000 0.000000 0.042954
#
#
# Mechanical properties :
#
#
# Convention : Reuss Voigt Hill
#
# Bulk Modulus (GPa) = 15.68753 67.42051 41.55402
# Shear Modulus (GPa) = 15.31533 25.19044 20.25289
#
# Velocity S-wave (km/s) = 2.90970 3.73167 3.34602
# Velocity P-wave (km/s) = 4.46772 7.47244 6.15621
#
# Compressibility (1/GPa) = 0.06374491
#
# Stress axis : x y z
#
# Youngs Moduli (GPa) = 12.76831 129.87776 63.20037
#
# Poissons Ratio (x) = 1.17081 0.29452
# Poissons Ratio (y) = 0.11510 0.33959
# Poissons Ratio (z) = 0.05950 0.69787
#
# Static dielectric constant tensor:
#      x y z
#    x 1.601640 0.000000 0.000000 
#    y 0.000000 1.670110 0.000000 
#    z 0.000000 0.000000 1.588680 
# 
# From -- ./inp_files/31401.got.cif
#   From: 2010.05.17/outbox.cif.g08.bks.cpg/sg53_16_cif.got.tgz:31401.got - 2010.06.03 12:45:16.
