data_PCOD9415945
_publ_section_title
;
Structure prediction by ZEFSAII (Michael W. Deem and Ramdas Pophale) SiO2 
 PCOD9415945
Probable space group: P M N A
;
_chemical_formula_sum "Si O2"
_cell_formula_units_Z 48
_cell_length_a 8.434961
_cell_length_b 19.377719
_cell_length_c 15.798594
_cell_angle_alpha 90.000000
_cell_angle_beta 90.000000
_cell_angle_gamma 90.000000
_cell_volume 2582.284993
_symmetry_space_group_name_H-M "P M N A"
_symmetry_group_IT_number 53
_symmetry_cell_setting 'orthorhombic'
loop_
_space_group_symop_operation_xyz
x,y,z
1/2-x,-y,1/2+z
x,-y,-z
1/2-x,y,1/2-z
-x,-y,-z
1/2+x,y,1/2-z
-x,y,z
1/2+x,-y,1/2+z
loop_
_atom_site_type_symbol
_atom_site_label
_atom_site_fract_x
_atom_site_fract_y
_atom_site_fract_z
Si Si1 0.191621 0.579160 0.499409
Si Si2 0.808708 0.172150 0.843046
Si Si3 0.310047 0.331044 0.656611
Si Si4 0.306185 0.920765 0.500100
Si Si5 0.809814 0.172904 0.156824
Si Si6 0.190150 0.327914 0.343378
O O1 0.246626 0.500000 0.500000
O O2 0.246953 0.619520 0.416316
O O3 0.244824 0.620583 0.583011
O O4 0.000000 0.578860 0.499987
O O5 0.750000 0.151894 0.750000
O O6 0.757582 0.251490 0.858981
O O7 0.000000 0.171747 0.842606
O O8 0.754197 0.121354 0.917138
O O9 0.250000 0.350713 0.750000
O O10 0.500000 0.332253 0.656236
O O11 0.500000 0.920918 0.499601
O O12 0.256646 0.879445 0.583953
O O13 0.253666 0.000000 0.500000
O O14 0.750000 0.153110 0.250000
O O15 0.749882 0.250357 0.138993
O O16 0.000000 0.174585 0.157897
O O17 0.250000 0.347706 0.250000
O O18 0.000000 0.326862 0.341845
#
# Coordination Sequence:
#
# PCOD9415945 Si02
#       6
#     8   8   8   8   8   8
#     4  10  22  38  54  77 109 140 171 212 261 310
#     4   9  18  33  53  76 100 130 170 212 252 297
#     4  10  20  35  56  80 105 136 176 218 260 308
#     4   9  18  32  50  73 103 138 170 203 250 306
#     4  10  19  33  54  77 102 132 171 215 255 302
#     4  10  20  35  56  78 103 135 172 215 259 306
#
# _framework density 18.588190000000001
#
# number of rings (size 3 to 8) (size 9 to 14) (size 15 to 20)
#    0.000    2.333    0.000    3.500    0.000    5.000 
#    0.000    3.333    0.000    3.500    0.000    0.000 
#    0.000    0.000    0.000    0.000    0.000    0.000 
#
# Total GULP energy -267976.966167 kJ/mol
# GULP energy per Si atom -5582.853462 kJ/mol
# Density = 1.854588 g / cm^3
# Si number density = 18.588190 Si / 1000 Ang^3
#
#
#
# Elastic Constant Matrix: (Units=GPa)
#
#
# Indices 1 2 3 4 5 6 
#
# 1 20.7225 23.9973 25.8179 0.0000 0.0000 0.0000
# 2 23.9973 150.8729 152.0437 0.0000 0.0000 0.0000
# 3 25.8179 152.0437 200.9261 0.0000 0.0000 0.0000
# 4 0.0000 0.0000 0.0000 13.4996 0.0000 0.0000
# 5 0.0000 0.0000 0.0000 0.0000 14.4166 0.0000
# 6 0.0000 0.0000 0.0000 0.0000 0.0000 10.4719
#
#
#
# Elastic Compliance Matrix: (Units=1/GPa)
#
#
# Indices 1 2 3 4 5 6 
#
# 1 0.059349 -0.007391 -0.002033 0.000000 0.000000 0.000000
# 2 -0.007391 0.028838 -0.020873 0.000000 0.000000 0.000000
# 3 -0.002033 -0.020873 0.021033 0.000000 0.000000 0.000000
# 4 0.000000 0.000000 0.000000 0.074076 0.000000 0.000000
# 5 0.000000 0.000000 0.000000 0.000000 0.069364 0.000000
# 6 0.000000 0.000000 0.000000 0.000000 0.000000 0.095493
#
#
# Mechanical properties :
#
#
# Convention : Reuss Voigt Hill
#
# Bulk Modulus (GPa) = 20.56491 86.24880 53.40686
# Shear Modulus (GPa) = 11.76592 19.05514 15.41053
#
# Velocity S-wave (km/s) = 2.51864 3.20522 2.88245
# Velocity P-wave (km/s) = 4.42103 7.75877 6.31443
#
# Compressibility (1/GPa) = 0.04862652
#
# Stress axis : x y z
#
# Youngs Moduli (GPa) = 16.84955 34.67617 47.54461
#
# Poissons Ratio (x) = 0.25628 0.09668
# Poissons Ratio (y) = 0.12453 0.99238
# Poissons Ratio (z) = 0.03426 0.72378
#
# Static dielectric constant tensor:
#      x y z
#    x 1.636640 0.000000 0.000000 
#    y 0.000000 1.625790 0.000000 
#    z 0.000000 0.000000 1.618730 
# 
# From -- ./inp_files/20153.got.cif
#   From: 2010.05.17/outbox.cif.g08.bks.cpg/sg53_11_cif.got.tgz:20153.got - 2010.06.03 12:45:16.
