data_PCOD9415815
_publ_section_title
;
Structure prediction by ZEFSAII (Michael W. Deem and Ramdas Pophale) SiO2 
 PCOD9415815
Probable space group: P M N A
;
_chemical_formula_sum "Si O2"
_cell_formula_units_Z 64
_cell_length_a 15.024479
_cell_length_b 17.661285
_cell_length_c 11.534092
_cell_angle_alpha 90.000000
_cell_angle_beta 90.000000
_cell_angle_gamma 90.000000
_cell_volume 3060.589831
_symmetry_space_group_name_H-M "P M N A"
_symmetry_group_IT_number 53
_symmetry_cell_setting 'orthorhombic'
loop_
_space_group_symop_operation_xyz
x,y,z
1/2-x,-y,1/2+z
x,-y,-z
1/2-x,y,1/2-z
-x,-y,-z
1/2+x,y,1/2-z
-x,y,z
1/2+x,-y,1/2+z
loop_
_atom_site_type_symbol
_atom_site_label
_atom_site_fract_x
_atom_site_fract_y
_atom_site_fract_z
Si Si1 0.395999 0.817113 0.181729
Si Si2 0.851779 0.469775 0.709513
Si Si3 0.602167 0.276916 0.429508
Si Si4 0.350495 0.357134 0.204307
Si Si5 0.897661 0.138352 0.942275
Si Si6 0.398300 0.422565 0.547501
Si Si7 0.892910 0.664887 0.448307
Si Si8 0.767038 0.957607 0.382070
O O1 0.500000 0.830540 0.148089
O O2 0.394759 0.815161 0.321308
O O3 0.366791 0.736356 0.130612
O O4 0.332254 0.885574 0.141439
O O5 0.750000 0.473217 0.750000
O O6 0.884934 0.556015 0.699676
O O7 0.900428 0.428085 0.815463
O O8 0.860173 0.415858 0.599750
O O9 0.500000 0.269642 0.471380
O O10 0.602111 0.304713 0.298405
O O11 0.638570 0.194520 0.458064
O O12 0.645073 0.346274 0.500897
O O13 0.250000 0.360548 0.250000
O O14 0.358389 0.323746 0.077502
O O15 0.829882 0.071306 0.921217
O O16 0.000000 0.114221 0.962890
O O17 0.355167 0.500000 0.500000
O O18 0.500000 0.422424 0.500779
O O19 0.000000 0.661624 0.449989
O O20 0.750000 0.991931 0.250000
O O21 0.800966 0.000000 0.500000
#
# Coordination Sequence:
#
# PCOD9415815 Si02
#       8
#     8   8   8   8   8   8   8   8
#     4   9  20  40  64  93 125 159 207 257 305 369
#     4  11  24  36  55  80 115 156 207 259 315 366
#     4  10  20  36  58  82 112 152 199 249 307 363
#     4  11  25  38  52  79 120 164 202 261 315 366
#     4   9  19  37  64  95 126 160 201 251 303 368
#     4  10  19  32  54  77 103 141 193 249 295 351
#     4  11  24  41  61  85 117 162 214 260 312 378
#     4  10  22  42  68  98 130 166 204 246 311 380
#
# _framework density 20.911000999999999
#
# number of rings (size 3 to 8) (size 9 to 14) (size 15 to 20)
#    0.000    1.875    1.250    1.875    3.500    6.000 
#    2.250    0.000    0.000    0.000    0.000    0.000 
#    0.000    0.000    0.000    0.000    0.000    0.000 
#
# Total GULP energy -357066.589678 kJ/mol
# GULP energy per Si atom -5579.165464 kJ/mol
# Density = 2.086341 g / cm^3
# Si number density = 20.911001 Si / 1000 Ang^3
#
#
#
# Elastic Constant Matrix: (Units=GPa)
#
#
# Indices 1 2 3 4 5 6 
#
# 1 57.5371 17.3657 4.5534 0.0000 0.0000 0.0000
# 2 17.3657 46.8887 38.4167 0.0000 0.0000 0.0000
# 3 4.5534 38.4167 94.5799 0.0000 0.0000 0.0000
# 4 0.0000 0.0000 0.0000 33.5632 0.0000 0.0000
# 5 0.0000 0.0000 0.0000 0.0000 23.9751 0.0000
# 6 0.0000 0.0000 0.0000 0.0000 0.0000 28.6887
#
#
#
# Elastic Compliance Matrix: (Units=1/GPa)
#
#
# Indices 1 2 3 4 5 6 
#
# 1 0.020152 -0.009995 0.003090 0.000000 0.000000 0.000000
# 2 -0.009995 0.036922 -0.014516 0.000000 0.000000 0.000000
# 3 0.003090 -0.014516 0.016320 0.000000 0.000000 0.000000
# 4 0.000000 0.000000 0.000000 0.029795 0.000000 0.000000
# 5 0.000000 0.000000 0.000000 0.000000 0.041710 0.000000
# 6 0.000000 0.000000 0.000000 0.000000 0.000000 0.034857
#
#
# Mechanical properties :
#
#
# Convention : Reuss Voigt Hill
#
# Bulk Modulus (GPa) = 32.73091 35.51969 34.12530
# Shear Modulus (GPa) = 21.47931 26.49005 23.98468
#
# Velocity S-wave (km/s) = 3.20844 3.56307 3.39040
# Velocity P-wave (km/s) = 5.42327 5.82669 5.62860
#
# Compressibility (1/GPa) = 0.03055216
#
# Stress axis : x y z
#
# Youngs Moduli (GPa) = 49.62239 27.08426 61.27302
#
# Poissons Ratio (x) = 0.27070 -0.18931
# Poissons Ratio (y) = 0.49597 0.88943
# Poissons Ratio (z) = -0.15331 0.39315
#
# Static dielectric constant tensor:
#      x y z
#    x 1.809770 0.000000 0.000000 
#    y 0.000000 1.781960 0.000000 
#    z 0.000000 0.000000 1.764810 
# 
# From -- ./inp_files/16204.got.cif
#   From: 2010.05.17/outbox.cif.g08.bks.cpg/sg53_9_cif.got.tgz:16204.got - 2010.06.03 12:45:16.
