data_PCOD9415998
_publ_section_title
;
Structure prediction by ZEFSAII (Michael W. Deem and Ramdas Pophale) SiO2 
 PCOD9415998
Probable space group: P M N A
;
_chemical_formula_sum "Si O2"
_cell_formula_units_Z 64
_cell_length_a 8.794550
_cell_length_b 12.414504
_cell_length_c 31.877603
_cell_angle_alpha 90.000000
_cell_angle_beta 90.000000
_cell_angle_gamma 90.000000
_cell_volume 3480.395935
_symmetry_space_group_name_H-M "P M N A"
_symmetry_group_IT_number 53
_symmetry_cell_setting 'orthorhombic'
loop_
_space_group_symop_operation_xyz
x,y,z
1/2-x,-y,1/2+z
x,-y,-z
1/2-x,y,1/2-z
-x,-y,-z
1/2+x,y,1/2-z
-x,y,z
1/2+x,-y,1/2+z
loop_
_atom_site_type_symbol
_atom_site_label
_atom_site_fract_x
_atom_site_fract_y
_atom_site_fract_z
Si Si1 0.182491 0.495766 0.795773
Si Si2 0.818111 0.100710 0.632012
Si Si3 0.181117 0.243540 0.794853
Si Si4 0.821343 0.885529 0.978045
Si Si5 0.180213 0.244521 0.939895
Si Si6 0.683525 0.374509 0.125708
Si Si7 0.681273 0.134912 0.111640
Si Si8 0.816345 0.509011 0.049278
O O1 0.250000 0.525356 0.750000
O O2 0.218687 0.369214 0.802881
O O3 0.251692 0.561592 0.834390
O O4 0.000000 0.507586 0.794908
O O5 0.748850 0.167802 0.669848
O O6 0.769187 0.163736 0.590061
O O7 0.000000 0.100028 0.634828
O O8 0.760738 0.977285 0.630945
O O9 0.250000 0.214664 0.750000
O O10 0.000000 0.234360 0.793987
O O11 0.721851 0.869810 0.937301
O O12 0.000000 0.885728 0.966171
O O13 0.797288 0.792917 0.012314
O O14 0.789586 0.000000 0.000000
O O15 0.220917 0.369599 0.935499
O O16 0.000000 0.233171 0.930636
O O17 0.500000 0.378930 0.125947
O O18 0.735809 0.249897 0.128463
O O19 0.742400 0.426257 0.082005
O O20 0.500000 0.134265 0.116739
O O21 0.000000 0.495979 0.050875
O O22 0.772265 0.500000 0.000000
#
# Coordination Sequence:
#
# PCOD9415998 Si02
#       8
#     8   8   8   8   8   8   8   8
#     4  10  21  39  64  92 118 146 183 230 285 343
#     4  11  22  36  55  80 110 144 183 223 271 326
#     4  10  21  38  61  88 116 142 173 218 273 331
#     4  10  19  33  55  80 106 143 191 236 278 330
#     4  10  20  34  53  80 110 140 181 232 281 329
#     4  11  23  39  58  82 115 153 196 241 286 339
#     4  10  23  39  54  77 112 153 191 233 279 328
#     4  10  21  37  56  79 112 152 191 235 289 344
#
# _framework density 18.388714
#
# number of rings (size 3 to 8) (size 9 to 14) (size 15 to 20)
#    0.000    1.750    1.250    3.000    0.000    8.500 
#    0.000    0.625    0.000    0.000    0.000    0.000 
#    0.000    0.000    0.000    0.000    0.000    0.000 
#
# Total GULP energy -357443.643871 kJ/mol
# GULP energy per Si atom -5585.056935 kJ/mol
# Density = 1.834686 g / cm^3
# Si number density = 18.388714 Si / 1000 Ang^3
#
#
#
# Elastic Constant Matrix: (Units=GPa)
#
#
# Indices 1 2 3 4 5 6 
#
# 1 22.9923 34.2751 30.4183 0.0000 0.0000 0.0000
# 2 34.2751 108.7947 61.6099 0.0000 0.0000 0.0000
# 3 30.4183 61.6099 102.8032 0.0000 0.0000 0.0000
# 4 0.0000 0.0000 0.0000 31.6137 0.0000 0.0000
# 5 0.0000 0.0000 0.0000 0.0000 35.1350 0.0000
# 6 0.0000 0.0000 0.0000 0.0000 0.0000 21.4231
#
#
#
# Elastic Compliance Matrix: (Units=1/GPa)
#
#
# Indices 1 2 3 4 5 6 
#
# 1 0.096064 -0.021446 -0.015572 0.000000 0.000000 0.000000
# 2 -0.021446 0.018702 -0.004862 0.000000 0.000000 0.000000
# 3 -0.015572 -0.004862 0.017249 0.000000 0.000000 0.000000
# 4 0.000000 0.000000 0.000000 0.031632 0.000000 0.000000
# 5 0.000000 0.000000 0.000000 0.000000 0.028462 0.000000
# 6 0.000000 0.000000 0.000000 0.000000 0.000000 0.046679
#
#
# Mechanical properties :
#
#
# Convention : Reuss Voigt Hill
#
# Bulk Modulus (GPa) = 20.72352 54.13298 37.42825
# Shear Modulus (GPa) = 14.76533 24.85348 19.80941
#
# Velocity S-wave (km/s) = 2.83672 3.68035 3.28572
# Velocity P-wave (km/s) = 4.69292 6.89652 5.89854
#
# Compressibility (1/GPa) = 0.04825434
#
# Stress axis : x y z
#
# Youngs Moduli (GPa) = 10.40972 53.47164 57.97561
#
# Poissons Ratio (x) = 1.14677 0.90277
# Poissons Ratio (y) = 0.22325 0.28188
# Poissons Ratio (z) = 0.16210 0.25998
#
# Static dielectric constant tensor:
#      x y z
#    x 1.622710 0.000000 0.000000 
#    y 0.000000 1.654270 0.000000 
#    z 0.000000 0.000000 1.591980 
# 
# From -- ./inp_files/38243.got.cif
#   From: 2010.05.17/outbox.cif.g08.bks.cpg/sg53_20_cif.got.tgz:38243.got - 2010.06.03 12:45:16.
