data_PCOD9415681
_publ_section_title
;
Structure prediction by ZEFSAII (Michael W. Deem and Ramdas Pophale) SiO2 
 PCOD9415681
Probable space group: P M N A
;
_chemical_formula_sum "Si O2"
_cell_formula_units_Z 64
_cell_length_a 9.363705
_cell_length_b 23.950056
_cell_length_c 14.799181
_cell_angle_alpha 90.000000
_cell_angle_beta 90.000000
_cell_angle_gamma 90.000000
_cell_volume 3318.882965
_symmetry_space_group_name_H-M "P M N A"
_symmetry_group_IT_number 53
_symmetry_cell_setting 'orthorhombic'
loop_
_space_group_symop_operation_xyz
x,y,z
1/2-x,-y,1/2+z
x,-y,-z
1/2-x,y,1/2-z
-x,-y,-z
1/2+x,y,1/2-z
-x,y,z
1/2+x,-y,1/2+z
loop_
_atom_site_type_symbol
_atom_site_label
_atom_site_fract_x
_atom_site_fract_y
_atom_site_fract_z
Si Si1 0.832582 0.376281 0.957610
Si Si2 0.837986 0.520573 0.396072
Si Si3 0.159951 0.759711 0.834603
Si Si4 0.659080 0.106354 0.333755
Si Si5 0.170876 0.248479 0.959999
Si Si6 0.170404 0.153699 0.654788
Si Si7 0.166419 0.066099 0.502276
Si Si8 0.169892 0.586732 0.837526
O O1 0.734502 0.418945 0.902514
O O2 0.812882 0.312314 0.928660
O O3 0.000000 0.391392 0.946589
O O4 0.803158 0.382899 0.065867
O O5 0.846630 0.500000 0.500000
O O6 0.736234 0.475166 0.349980
O O7 0.000000 0.521203 0.359439
O O8 0.250000 0.739120 0.750000
O O9 0.149826 0.826748 0.824227
O O10 0.000000 0.735393 0.832457
O O11 0.218749 0.751524 0.935105
O O12 0.750000 0.084122 0.250000
O O13 0.500000 0.083085 0.332353
O O14 0.735549 0.093671 0.427045
O O15 0.259498 0.204044 0.902824
O O16 0.000000 0.234590 0.958912
O O17 0.250000 0.150606 0.750000
O O18 0.191783 0.096917 0.597135
O O19 0.000000 0.162285 0.665730
O O20 0.000000 0.075921 0.478902
O O21 0.191183 0.000000 0.500000
O O22 0.250000 0.611016 0.750000
O O23 0.000000 0.585115 0.823362
#
# Coordination Sequence:
#
# PCOD9415681 Si02
#       8
#     8   8   8   8   8   8   8   8
#     4   9  19  34  54  78 108 146 184 230 282 335
#     4   9  17  31  51  74 102 138 181 227 274 328
#     4   9  18  31  51  79 111 147 185 227 274 332
#     4  10  19  33  55  83 115 150 186 227 277 335
#     4  10  20  38  60  84 117 155 197 241 289 344
#     4  11  24  42  65  88 115 153 195 242 292 343
#     4  10  22  40  61  88 120 151 190 239 289 344
#     4  10  19  32  51  78 111 146 184 225 279 338
#
# _framework density 19.283595999999999
#
# number of rings (size 3 to 8) (size 9 to 14) (size 15 to 20)
#    0.000    2.250    1.250    1.500    0.000    5.250 
#    0.000    1.875    0.000    3.000    0.000    0.000 
#    0.000    0.000    0.000    0.000    0.000    0.000 
#
# Total GULP energy -357147.657797 kJ/mol
# GULP energy per Si atom -5580.432153 kJ/mol
# Density = 1.923971 g / cm^3
# Si number density = 19.283596 Si / 1000 Ang^3
#
#
#
# Elastic Constant Matrix: (Units=GPa)
#
#
# Indices 1 2 3 4 5 6 
#
# 1 85.4070 67.8290 61.2544 0.0000 0.0000 0.0000
# 2 67.8290 89.0383 40.8034 0.0000 0.0000 0.0000
# 3 61.2544 40.8034 99.0833 0.0000 0.0000 0.0000
# 4 0.0000 0.0000 0.0000 2.1507 0.0000 0.0000
# 5 0.0000 0.0000 0.0000 0.0000 27.8538 0.0000
# 6 0.0000 0.0000 0.0000 0.0000 0.0000 -82.2665
#
#
#
# Elastic Compliance Matrix: (Units=1/GPa)
#
#
# Indices 1 2 3 4 5 6 
#
# 1 0.044620 -0.026317 -0.016747 0.000000 0.000000 0.000000
# 2 -0.026317 0.029365 0.004177 0.000000 0.000000 0.000000
# 3 -0.016747 0.004177 0.018726 0.000000 0.000000 0.000000
# 4 0.000000 0.000000 0.000000 0.464956 0.000000 0.000000
# 5 0.000000 0.000000 0.000000 0.000000 0.035902 0.000000
# 6 0.000000 0.000000 0.000000 0.000000 0.000000 -0.012156
#
#
# Mechanical properties :
#
#
# Convention : Reuss Voigt Hill
#
# Bulk Modulus (GPa) = 66.95109 68.14468 67.54788
# Shear Modulus (GPa) = 7.52823 -3.54293 1.99265
#
# Velocity S-wave (km/s) = 1.97799 -1.35693 1.01764
# Velocity P-wave (km/s) = 6.32544 5.74107 6.04032
#
# Compressibility (1/GPa) = 0.01493628
#
# Stress axis : x y z
#
# Youngs Moduli (GPa) = 22.41131 34.05389 53.40187
#
# Poissons Ratio (x) = 0.89619 0.89434
# Poissons Ratio (y) = 0.58979 -0.22303
# Poissons Ratio (z) = 0.37533 -0.14223
#
# Static dielectric constant tensor:
#      x y z
#    x 1.666600 0.000000 0.000000 
#    y 0.000000 1.678610 0.000000 
#    z 0.000000 0.000000 1.666410 
# 
# From -- ./inp_files/20957.got.cif
#   From: 2010.05.17/outbox.cif.g08.bks.cpg/sg53_11_cif.got.tgz:20957.got - 2010.06.03 12:45:16.
