data_PCOD9415535
_publ_section_title
;
Structure prediction by ZEFSAII (Michael W. Deem and Ramdas Pophale) SiO2 
 PCOD9415535
Probable space group: P M N A
;
_chemical_formula_sum "Si O2"
_cell_formula_units_Z 64
_cell_length_a 9.367403
_cell_length_b 19.384535
_cell_length_c 19.190412
_cell_angle_alpha 90.000000
_cell_angle_beta 90.000000
_cell_angle_gamma 90.000000
_cell_volume 3484.647810
_symmetry_space_group_name_H-M "P M N A"
_symmetry_group_IT_number 53
_symmetry_cell_setting 'orthorhombic'
loop_
_space_group_symop_operation_xyz
x,y,z
1/2-x,-y,1/2+z
x,-y,-z
1/2-x,y,1/2-z
-x,-y,-z
1/2+x,y,1/2-z
-x,y,z
1/2+x,-y,1/2+z
loop_
_atom_site_type_symbol
_atom_site_label
_atom_site_fract_x
_atom_site_fract_y
_atom_site_fract_z
Si Si1 0.831238 0.928220 0.080362
Si Si2 0.330411 0.357246 0.177924
Si Si3 0.157477 0.143511 0.687634
Si Si4 0.830312 0.920617 0.914036
Si Si5 0.839672 0.306723 0.684994
Si Si6 0.327327 0.767753 0.599026
Si Si7 0.831933 0.690545 0.041061
Si Si8 0.163149 0.574765 0.534990
O O1 0.742968 0.869789 0.117739
O O2 0.000000 0.921575 0.095076
O O3 0.778353 0.003359 0.107600
O O4 0.814013 0.922384 0.997711
O O5 0.250000 0.373061 0.250000
O O6 0.500000 0.346329 0.189562
O O7 0.257451 0.288737 0.144167
O O8 0.316151 0.416478 0.118245
O O9 0.250000 0.112958 0.750000
O O10 0.145178 0.225021 0.699235
O O11 0.000000 0.113523 0.684917
O O12 0.778506 0.846545 0.887055
O O13 0.000000 0.920963 0.900375
O O14 0.750000 0.336359 0.750000
O O15 0.756236 0.309493 0.612272
O O16 0.000000 0.336072 0.679923
O O17 0.500000 0.761829 0.610475
O O18 0.303973 0.749927 0.516930
O O19 0.000000 0.691446 0.056465
O O20 0.780820 0.622358 0.000747
O O21 0.171258 0.500000 0.500000
O O22 0.000000 0.601108 0.521798
#
# Coordination Sequence:
#
# PCOD9415535 Si02
#       8
#     8   8   8   8   8   8   8   8
#     4   9  16  29  48  68  92 123 160 202 250 304
#     4  10  20  35  56  81 107 136 172 213 257 303
#     4  10  20  32  46  65  89 121 160 201 245 293
#     4   8  15  28  48  71  94 124 160 200 249 303
#     4  10  20  33  49  70  99 133 170 211 254 303
#     4   9  17  31  51  75 102 132 169 210 253 304
#     4  10  19  31  52  80 106 133 166 207 252 297
#     4   9  19  37  59  81 108 143 177 208 247 297
#
# _framework density 18.366275000000002
#
# number of rings (size 3 to 8) (size 9 to 14) (size 15 to 20)
#    0.000    2.625    0.000    3.000    0.000    3.750 
#    0.000    3.750    0.000    1.500    0.000    0.000 
#    0.000    0.000    0.000    0.000    0.000    0.000 
#
# Total GULP energy -356306.411598 kJ/mol
# GULP energy per Si atom -5567.287681 kJ/mol
# Density = 1.832447 g / cm^3
# Si number density = 18.366275 Si / 1000 Ang^3
#
#
#
# Elastic Constant Matrix: (Units=GPa)
#
#
# Indices 1 2 3 4 5 6 
#
# 1 84.7693 7.6034 51.5268 0.0000 0.0000 0.0000
# 2 7.6034 45.4454 7.9662 0.0000 0.0000 0.0000
# 3 51.5268 7.9662 80.8445 0.0000 0.0000 0.0000
# 4 0.0000 0.0000 0.0000 57.4251 0.0000 0.0000
# 5 0.0000 0.0000 0.0000 0.0000 22.9987 0.0000
# 6 0.0000 0.0000 0.0000 0.0000 0.0000 24.3370
#
#
#
# Elastic Compliance Matrix: (Units=1/GPa)
#
#
# Indices 1 2 3 4 5 6 
#
# 1 0.019310 -0.001092 -0.012200 0.000000 0.000000 0.000000
# 2 -0.001092 0.022453 -0.001516 0.000000 0.000000 0.000000
# 3 -0.012200 -0.001516 0.020295 0.000000 0.000000 0.000000
# 4 0.000000 0.000000 0.000000 0.017414 0.000000 0.000000
# 5 0.000000 0.000000 0.000000 0.000000 0.043481 0.000000
# 6 0.000000 0.000000 0.000000 0.000000 0.000000 0.041090
#
#
# Mechanical properties :
#
#
# Convention : Reuss Voigt Hill
#
# Bulk Modulus (GPa) = 30.82532 38.36133 34.59333
# Shear Modulus (GPa) = 24.45308 30.54968 27.50138
#
# Velocity S-wave (km/s) = 3.65281 4.08285 3.87380
# Velocity P-wave (km/s) = 5.88309 6.56951 6.23575
#
# Compressibility (1/GPa) = 0.03244086
#
# Stress axis : x y z
#
# Youngs Moduli (GPa) = 51.78548 44.53757 49.27420
#
# Poissons Ratio (x) = 0.04865 0.60115
# Poissons Ratio (y) = 0.05656 0.07471
# Poissons Ratio (z) = 0.63178 0.06753
#
# Static dielectric constant tensor:
#      x y z
#    x 1.636090 0.000000 0.000000 
#    y 0.000000 1.633100 0.000000 
#    z 0.000000 0.000000 1.630650 
# 
# From -- ./inp_files/31207.got.cif
#   From: 2010.05.17/outbox.cif.g08.bks.cpg/sg53_16_cif.got.tgz:31207.got - 2010.06.03 12:45:16.
