data_PCOD9415486
_publ_section_title
;
Structure prediction by ZEFSAII (Michael W. Deem and Ramdas Pophale) SiO2 
 PCOD9415486
Probable space group: P M N A
;
_chemical_formula_sum "Si O2"
_cell_formula_units_Z 64
_cell_length_a 9.202782
_cell_length_b 23.702851
_cell_length_c 15.476556
_cell_angle_alpha 90.000000
_cell_angle_beta 90.000000
_cell_angle_gamma 90.000000
_cell_volume 3375.934753
_symmetry_space_group_name_H-M "P M N A"
_symmetry_group_IT_number 53
_symmetry_cell_setting 'orthorhombic'
loop_
_space_group_symop_operation_xyz
x,y,z
1/2-x,-y,1/2+z
x,-y,-z
1/2-x,y,1/2-z
-x,-y,-z
1/2+x,y,1/2-z
-x,y,z
1/2+x,-y,1/2+z
loop_
_atom_site_type_symbol
_atom_site_label
_atom_site_fract_x
_atom_site_fract_y
_atom_site_fract_z
Si Si1 0.334431 0.931189 0.162290
Si Si2 0.332455 0.365362 0.996501
Si Si3 0.665449 0.463559 0.589214
Si Si4 0.332038 0.955859 0.926459
Si Si5 0.175546 0.848039 0.845361
Si Si6 0.173518 0.171854 0.844110
Si Si7 0.665788 0.437478 0.171940
Si Si8 0.828077 0.752303 0.988881
O O1 0.250000 0.924765 0.250000
O O2 0.242042 0.884782 0.110211
O O3 0.000000 0.940021 0.549181
O O4 0.338810 0.997599 0.147998
O O5 0.500000 0.360861 0.968836
O O6 0.241508 0.404245 0.930756
O O7 0.329149 0.399786 0.086433
O O8 0.263009 0.304754 0.012688
O O9 0.662378 0.500000 0.500000
O O10 0.500000 0.456045 0.617972
O O11 0.757272 0.503295 0.651725
O O12 0.500000 0.088323 0.837892
O O13 0.240313 0.903240 0.894270
O O14 0.276025 0.000000 0.000000
O O15 0.250000 0.843184 0.750000
O O16 0.206155 0.795300 0.909797
O O17 0.000000 0.853115 0.835736
O O18 0.250000 0.184487 0.750000
O O19 0.000000 0.164540 0.831323
O O20 0.195889 0.218855 0.917395
O O21 0.750000 0.408626 0.250000
O O22 0.500000 0.446779 0.196215
O O23 0.000000 0.739665 0.981972
#
# Coordination Sequence:
#
# PCOD9415486 Si02
#       8
#     8   8   8   8   8   8   8   8
#     4  10  19  31  50  75 102 132 167 213 270 333
#     4  10  21  36  57  83 111 147 191 237 281 333
#     4   9  17  32  55  80 108 142 176 216 269 323
#     4  10  21  36  55  81 111 143 183 233 289 350
#     4  11  24  41  60  83 115 157 202 249 300 354
#     4  10  20  36  58  83 110 141 181 233 292 353
#     4  10  20  34  54  84 118 149 186 231 279 333
#     4  10  23  41  59  81 112 152 197 242 291 349
#
# _framework density 18.957712999999998
#
# number of rings (size 3 to 8) (size 9 to 14) (size 15 to 20)
#    0.000    2.000    0.000    4.125    0.000    7.750 
#    0.000    3.125    0.000    1.500    0.000    0.000 
#    0.000    0.000    0.000    0.000    0.000    0.000 
#
# Total GULP energy -356389.729593 kJ/mol
# GULP energy per Si atom -5568.589525 kJ/mol
# Density = 1.891456 g / cm^3
# Si number density = 18.957713 Si / 1000 Ang^3
#
#
#
# Elastic Constant Matrix: (Units=GPa)
#
#
# Indices 1 2 3 4 5 6 
#
# 1 138.3867 83.5169 40.5666 0.0000 0.0000 0.0000
# 2 83.5169 136.4134 31.7021 0.0000 0.0000 0.0000
# 3 40.5666 31.7021 63.6710 0.0000 0.0000 0.0000
# 4 0.0000 0.0000 0.0000 10.1240 0.0000 0.0000
# 5 0.0000 0.0000 0.0000 0.0000 22.9094 0.0000
# 6 0.0000 0.0000 0.0000 0.0000 0.0000 34.0096
#
#
#
# Elastic Compliance Matrix: (Units=1/GPa)
#
#
# Indices 1 2 3 4 5 6 
#
# 1 0.012610 -0.006619 -0.004738 0.000000 0.000000 0.000000
# 2 -0.006619 0.011764 -0.001640 0.000000 0.000000 0.000000
# 3 -0.004738 -0.001640 0.019541 0.000000 0.000000 0.000000
# 4 0.000000 0.000000 0.000000 0.098775 0.000000 0.000000
# 5 0.000000 0.000000 0.000000 0.000000 0.043650 0.000000
# 6 0.000000 0.000000 0.000000 0.000000 0.000000 0.029403
#
#
# Mechanical properties :
#
#
# Convention : Reuss Voigt Hill
#
# Bulk Modulus (GPa) = 55.80355 72.22694 64.01525
# Shear Modulus (GPa) = 20.18467 25.58763 22.88615
#
# Velocity S-wave (km/s) = 3.26655 3.67784 3.47828
# Velocity P-wave (km/s) = 6.61262 7.49780 7.06908
#
# Compressibility (1/GPa) = 0.01792001
#
# Stress axis : x y z
#
# Youngs Moduli (GPa) = 79.30436 85.00393 51.17323
#
# Poissons Ratio (x) = 0.56263 0.24248
# Poissons Ratio (y) = 0.52490 0.08394
# Poissons Ratio (z) = 0.37578 0.13944
#
# Static dielectric constant tensor:
#      x y z
#    x 1.661040 0.000000 0.000000 
#    y 0.000000 1.786610 0.000000 
#    z 0.000000 0.000000 1.841170 
# 
# From -- ./inp_files/20802.got.cif
#   From: 2010.05.17/outbox.cif.g08.bks.cpg/sg53_11_cif.got.tgz:20802.got - 2010.06.03 12:45:16.
