data_PCOD9415052
_publ_section_title
;
Structure prediction by ZEFSAII (Michael W. Deem and Ramdas Pophale) SiO2 
 PCOD9415052
Probable space group: P M N A
;
_chemical_formula_sum "Si O2"
_cell_formula_units_Z 48
_cell_length_a 17.469772
_cell_length_b 7.637478
_cell_length_c 19.030069
_cell_angle_alpha 90.000000
_cell_angle_beta 90.000000
_cell_angle_gamma 90.000000
_cell_volume 2539.086943
_symmetry_space_group_name_H-M "P M N A"
_symmetry_group_IT_number 53
_symmetry_cell_setting 'orthorhombic'
loop_
_space_group_symop_operation_xyz
x,y,z
1/2-x,-y,1/2+z
x,-y,-z
1/2-x,y,1/2-z
-x,-y,-z
1/2+x,y,1/2-z
-x,y,z
1/2+x,-y,1/2+z
loop_
_atom_site_type_symbol
_atom_site_label
_atom_site_fract_x
_atom_site_fract_y
_atom_site_fract_z
Si Si1 0.208144 0.853558 0.821984
Si Si2 0.417024 0.208189 0.994583
Si Si3 0.817740 0.751589 0.192483
Si Si4 0.772042 0.396941 0.570290
Si Si5 0.411161 0.406841 0.289006
Si Si6 0.852979 0.290772 0.360206
O O1 0.250000 0.792754 0.750000
O O2 0.145028 0.707714 0.839128
O O3 0.286398 0.859494 0.867597
O O4 0.168194 0.039407 0.808077
O O5 0.500000 0.260479 0.964770
O O6 0.408837 0.275682 0.074123
O O7 0.345310 0.283587 0.952747
O O8 0.413917 0.000000 0.000000
O O9 0.750000 0.728678 0.250000
O O10 0.789820 0.710884 0.113309
O O11 0.881711 0.607674 0.211195
O O12 0.746111 0.500000 0.500000
O O13 0.803019 0.536691 0.626371
O O14 0.500000 0.397754 0.307605
O O15 0.397404 0.316111 0.212582
#
# Coordination Sequence:
#
# PCOD9415052 Si02
#       6
#     8   8   8   8   8   8
#     4   9  19  33  56  79 107 144 190 232 270 326
#     4  10  21  34  50  82 123 155 185 221 272 341
#     4  11  19  37  58  80 109 147 189 229 275 333
#     4  10  20  33  57  81 108 146 189 222 271 333
#     4  11  21  34  55  82 113 145 185 239 289 327
#     4  10  18  36  55  78 113 151 189 227 272 332
#
# _framework density 18.904432
#
# number of rings (size 3 to 8) (size 9 to 14) (size 15 to 20)
#    0.000    1.833    3.333    2.000    0.000    4.333 
#    0.000    0.000    0.000    0.500    0.000    1.167 
#    0.000    0.000    0.000    0.000    0.000    0.000 
#
# Total GULP energy -267236.130378 kJ/mol
# GULP energy per Si atom -5567.419383 kJ/mol
# Density = 1.886140 g / cm^3
# Si number density = 18.904432 Si / 1000 Ang^3
#
#
#
# Elastic Constant Matrix: (Units=GPa)
#
#
# Indices 1 2 3 4 5 6 
#
# 1 101.8789 37.2134 11.1156 0.0000 0.0000 0.0000
# 2 37.2134 82.3131 -5.4526 0.0000 0.0000 0.0000
# 3 11.1156 -5.4526 38.6375 0.0000 0.0000 0.0000
# 4 0.0000 0.0000 0.0000 21.4778 0.0000 0.0000
# 5 0.0000 0.0000 0.0000 0.0000 15.7250 0.0000
# 6 0.0000 0.0000 0.0000 0.0000 0.0000 -6.8555
#
#
#
# Elastic Compliance Matrix: (Units=1/GPa)
#
#
# Indices 1 2 3 4 5 6 
#
# 1 0.012463 -0.005927 -0.004422 0.000000 0.000000 0.000000
# 2 -0.005927 0.015082 0.003834 0.000000 0.000000 0.000000
# 3 -0.004422 0.003834 0.027695 0.000000 0.000000 0.000000
# 4 0.000000 0.000000 0.000000 0.046560 0.000000 0.000000
# 5 0.000000 0.000000 0.000000 0.000000 0.063593 0.000000
# 6 0.000000 0.000000 0.000000 0.000000 0.000000 -0.145868
#
#
# Mechanical properties :
#
#
# Convention : Reuss Voigt Hill
#
# Bulk Modulus (GPa) = 23.69166 34.28692 28.98929
# Shear Modulus (GPa) = 107.23616 18.06634 62.65125
#
# Velocity S-wave (km/s) = 7.53980 3.09474 5.76307
# Velocity P-wave (km/s) = 9.39987 5.56293 7.72347
#
# Compressibility (1/GPa) = 0.04220894
#
# Stress axis : x y z
#
# Youngs Moduli (GPa) = 80.23631 66.30209 36.10789
#
# Poissons Ratio (x) = 0.39300 0.15967
# Poissons Ratio (y) = 0.47560 -0.13843
# Poissons Ratio (z) = 0.35481 -0.25419
#
# Static dielectric constant tensor:
#      x y z
#    x 1.723320 0.000000 0.000000 
#    y 0.000000 1.737300 0.000000 
#    z 0.000000 0.000000 1.710560 
# 
# From -- ./inp_files/32729.got.cif
#   From: 2010.05.17/outbox.cif.g08.bks.cpg/sg53_17_cif.got.tgz:32729.got - 2010.06.03 12:45:16.
