data_PCOD9415596
_publ_section_title
;
Structure prediction by ZEFSAII (Michael W. Deem and Ramdas Pophale) SiO2 
 PCOD9415596
Probable space group: P M N A
;
_chemical_formula_sum "Si O2"
_cell_formula_units_Z 64
_cell_length_a 7.492689
_cell_length_b 15.425978
_cell_length_c 24.259983
_cell_angle_alpha 90.000000
_cell_angle_beta 90.000000
_cell_angle_gamma 90.000000
_cell_volume 2804.018706
_symmetry_space_group_name_H-M "P M N A"
_symmetry_group_IT_number 53
_symmetry_cell_setting 'orthorhombic'
loop_
_space_group_symop_operation_xyz
x,y,z
1/2-x,-y,1/2+z
x,-y,-z
1/2-x,y,1/2-z
-x,-y,-z
1/2+x,y,1/2-z
-x,y,z
1/2+x,-y,1/2+z
loop_
_atom_site_type_symbol
_atom_site_label
_atom_site_fract_x
_atom_site_fract_y
_atom_site_fract_z
Si Si1 0.213465 0.130862 0.685451
Si Si2 0.280673 0.687753 0.135958
Si Si3 0.205889 0.093395 0.017433
Si Si4 0.280605 0.357932 0.103615
Si Si5 0.712298 0.218525 0.190512
Si Si6 0.291439 0.710578 0.012436
Si Si7 0.713511 0.491902 0.813800
Si Si8 0.716620 0.049606 0.140721
O O1 0.250000 0.121236 0.750000
O O2 0.280492 0.222253 0.662827
O O3 0.000000 0.131689 0.677990
O O4 0.282402 0.046703 0.653072
O O5 0.500000 0.688320 0.136036
O O6 0.219640 0.685474 0.072388
O O7 0.222497 0.604481 0.170832
O O8 0.221448 0.088535 0.083045
O O9 0.000000 0.093138 0.999447
O O10 0.280796 0.184979 0.996363
O O11 0.286942 0.000000 0.000000
O O12 0.500000 0.358760 0.102130
O O13 0.220922 0.277161 0.141012
O O14 0.223083 0.441510 0.138890
O O15 0.218517 0.339484 0.041296
O O16 0.750000 0.257061 0.250000
O O17 0.500000 0.216062 0.184441
O O18 0.776867 0.119933 0.185672
O O19 0.500000 0.688236 0.014215
O O20 0.750000 0.514736 0.750000
O O21 0.500000 0.491806 0.818578
O O22 0.500000 0.046400 0.139637
#
# Coordination Sequence:
#
# PCOD9415596 Si02
#       8
#     8   8   8   8   8   8   8   8
#     4  10  20  34  52  78 108 142 185 229 273 328
#     4   9  19  34  56  83 108 140 186 230 274 327
#     4  11  23  36  52  79 113 145 182 227 273 325
#     4   9  18  33  55  81 110 140 181 226 266 319
#     4  10  19  32  49  75 105 137 177 218 262 318
#     4  10  19  37  60  80 108 146 185 228 275 324
#     4  10  20  36  57  84 114 144 182 228 275 330
#     4  10  20  35  54  75 104 142 186 225 265 323
#
# _framework density 22.824383000000001
#
# number of rings (size 3 to 8) (size 9 to 14) (size 15 to 20)
#    0.000    2.125    1.250    2.250    0.000    3.500 
#    0.000    4.375    0.000    0.000    0.000    1.750 
#    0.000    0.000    0.000    0.000    0.000    0.000 
#
# Total GULP energy -357423.014734 kJ/mol
# GULP energy per Si atom -5584.734605 kJ/mol
# Density = 2.277243 g / cm^3
# Si number density = 22.824383 Si / 1000 Ang^3
#
#
#
# Elastic Constant Matrix: (Units=GPa)
#
#
# Indices 1 2 3 4 5 6 
#
# 1 61.0059 3.6541 -12.5363 0.0000 0.0000 0.0000
# 2 3.6541 105.4267 5.0797 0.0000 0.0000 0.0000
# 3 -12.5363 5.0797 64.9464 0.0000 0.0000 0.0000
# 4 0.0000 0.0000 0.0000 27.7633 0.0000 0.0000
# 5 0.0000 0.0000 0.0000 0.0000 13.8989 0.0000
# 6 0.0000 0.0000 0.0000 0.0000 0.0000 0.9762
#
#
#
# Elastic Compliance Matrix: (Units=1/GPa)
#
#
# Indices 1 2 3 4 5 6 
#
# 1 0.017129 -0.000756 0.003365 0.000000 0.000000 0.000000
# 2 -0.000756 0.009554 -0.000893 0.000000 0.000000 0.000000
# 3 0.003365 -0.000893 0.016117 0.000000 0.000000 0.000000
# 4 0.000000 0.000000 0.000000 0.036019 0.000000 0.000000
# 5 0.000000 0.000000 0.000000 0.000000 0.071948 0.000000
# 6 0.000000 0.000000 0.000000 0.000000 0.000000 1.024423
#
#
# Mechanical properties :
#
#
# Convention : Reuss Voigt Hill
#
# Bulk Modulus (GPa) = 21.62970 24.86377 23.24673
# Shear Modulus (GPa) = 4.21171 24.20645 14.20908
#
# Velocity S-wave (km/s) = 1.35988 3.26015 2.49778
# Velocity P-wave (km/s) = 3.45873 5.00885 4.30415
#
# Compressibility (1/GPa) = 0.04623273
#
# Stress axis : x y z
#
# Youngs Moduli (GPa) = 58.38155 104.66276 62.04710
#
# Poissons Ratio (x) = 0.07911 -0.20881
# Poissons Ratio (y) = 0.04413 0.05542
# Poissons Ratio (z) = -0.19648 0.09348
#
# Static dielectric constant tensor:
#      x y z
#    x 1.881630 0.000000 0.000000 
#    y 0.000000 1.854740 0.000000 
#    z 0.000000 0.000000 1.878100 
# 
# From -- ./inp_files/34205.got.cif
#   From: 2010.05.17/outbox.cif.g08.bks.cpg/sg53_18_cif.got.tgz:34205.got - 2010.06.03 12:45:16.
