data_PCOD9415147
_publ_section_title
;
Structure prediction by ZEFSAII (Michael W. Deem and Ramdas Pophale) SiO2 
 PCOD9415147
Probable space group: P M N A
;
_chemical_formula_sum "Si O2"
_cell_formula_units_Z 56
_cell_length_a 9.221970
_cell_length_b 18.186671
_cell_length_c 19.920440
_cell_angle_alpha 90.000000
_cell_angle_beta 90.000000
_cell_angle_gamma 90.000000
_cell_volume 3340.995128
_symmetry_space_group_name_H-M "P M N A"
_symmetry_group_IT_number 53
_symmetry_cell_setting 'orthorhombic'
loop_
_space_group_symop_operation_xyz
x,y,z
1/2-x,-y,1/2+z
x,-y,-z
1/2-x,y,1/2-z
-x,-y,-z
1/2+x,y,1/2-z
-x,y,z
1/2+x,-y,1/2+z
loop_
_atom_site_type_symbol
_atom_site_label
_atom_site_fract_x
_atom_site_fract_y
_atom_site_fract_z
Si Si1 0.671999 0.921862 0.819696
Si Si2 0.329724 0.785158 0.611135
Si Si3 0.332394 0.490006 0.581396
Si Si4 0.328313 0.955748 0.067106
Si Si5 0.669522 0.195565 0.550278
Si Si6 0.667151 0.343390 0.934181
Si Si7 0.332490 0.636757 0.903250
O O1 0.750000 0.938085 0.750000
O O2 0.500000 0.910323 0.810976
O O3 0.744698 0.849302 0.851069
O O4 0.692243 0.989210 0.871083
O O5 0.500000 0.784655 0.628599
O O6 0.318325 0.800146 0.531029
O O7 0.256100 0.706302 0.624217
O O8 0.331635 0.500000 0.500000
O O9 0.500000 0.489183 0.602446
O O10 0.252684 0.413137 0.594977
O O11 0.246413 0.559664 0.610525
O O12 0.500000 0.938641 0.060591
O O13 0.240513 0.880617 0.072821
O O14 0.284374 0.000000 0.000000
O O15 0.500000 0.199020 0.567159
O O16 0.753243 0.266434 0.578575
O O17 0.500000 0.342260 0.912604
O O18 0.667552 0.353980 0.015398
O O19 0.500000 0.636988 0.881512
#
# Coordination Sequence:
#
# PCOD9415147 Si02
#       7
#     8   8   8   8   8   8   8
#     4  11  23  38  55  74 100 132 166 208 256 307
#     4  10  19  31  47  69  96 126 163 204 248 295
#     4   9  15  23  35  54  84 120 158 198 241 287
#     4  10  20  35  54  74  98 129 167 208 254 307
#     4  10  19  29  46  71  97 125 162 208 251 296
#     4   9  16  25  38  57  87 124 160 197 241 293
#     4   9  16  25  39  59  85 121 162 198 237 287
#
# _framework density 16.761472999999999
#
# number of rings (size 3 to 8) (size 9 to 14) (size 15 to 20)
#    0.000    2.286    1.429    2.571    0.000    7.714 
#    0.000    0.000    0.000    0.000    0.000    0.000 
#    0.000    1.143    0.000    9.714    0.000   10.143 
#
# Total GULP energy -312381.780578 kJ/mol
# GULP energy per Si atom -5578.246082 kJ/mol
# Density = 1.672332 g / cm^3
# Si number density = 16.761473 Si / 1000 Ang^3
#
#
#
# Elastic Constant Matrix: (Units=GPa)
#
#
# Indices 1 2 3 4 5 6 
#
# 1 170.4642 115.2474 38.1664 0.0000 0.0000 0.0000
# 2 115.2474 170.1360 28.0197 0.0000 0.0000 0.0000
# 3 38.1664 28.0197 26.1726 0.0000 0.0000 0.0000
# 4 0.0000 0.0000 0.0000 5.9228 0.0000 0.0000
# 5 0.0000 0.0000 0.0000 0.0000 13.5160 0.0000
# 6 0.0000 0.0000 0.0000 0.0000 0.0000 35.5623
#
#
#
# Elastic Compliance Matrix: (Units=1/GPa)
#
#
# Indices 1 2 3 4 5 6 
#
# 1 0.013276 -0.007047 -0.011816 0.000000 0.000000 0.000000
# 2 -0.007047 0.010877 -0.001367 0.000000 0.000000 0.000000
# 3 -0.011816 -0.001367 0.056902 0.000000 0.000000 0.000000
# 4 0.000000 0.000000 0.000000 0.168838 0.000000 0.000000
# 5 0.000000 0.000000 0.000000 0.000000 0.073986 0.000000
# 6 0.000000 0.000000 0.000000 0.000000 0.000000 0.028120
#
#
# Mechanical properties :
#
#
# Convention : Reuss Voigt Hill
#
# Bulk Modulus (GPa) = 24.63398 81.07108 52.85253
# Shear Modulus (GPa) = 12.31553 23.35618 17.83586
#
# Velocity S-wave (km/s) = 2.71357 3.73694 3.26559
# Velocity P-wave (km/s) = 4.95446 8.19098 6.76900
#
# Compressibility (1/GPa) = 0.04059433
#
# Stress axis : x y z
#
# Youngs Moduli (GPa) = 75.32194 91.94099 17.57398
#
# Poissons Ratio (x) = 0.64793 0.20765
# Poissons Ratio (y) = 0.53081 0.02403
# Poissons Ratio (z) = 0.88999 0.12572
#
# Static dielectric constant tensor:
#      x y z
#    x 1.560110 0.000000 0.000000 
#    y 0.000000 1.535950 0.000000 
#    z 0.000000 0.000000 1.543190 
# 
# From -- ./inp_files/31003.got.cif
#   From: 2010.05.17/outbox.cif.g08.bks.cpg/sg53_16_cif.got.tgz:31003.got - 2010.06.03 12:45:16.
