data_PCOD9415293
_publ_section_title
;
Structure prediction by ZEFSAII (Michael W. Deem and Ramdas Pophale) SiO2 
 PCOD9415293
Probable space group: P M N A
;
_chemical_formula_sum "Si O2"
_cell_formula_units_Z 48
_cell_length_a 8.665971
_cell_length_b 14.352179
_cell_length_c 22.229589
_cell_angle_alpha 90.000000
_cell_angle_beta 90.000000
_cell_angle_gamma 90.000000
_cell_volume 2764.817736
_symmetry_space_group_name_H-M "P M N A"
_symmetry_group_IT_number 53
_symmetry_cell_setting 'orthorhombic'
loop_
_space_group_symop_operation_xyz
x,y,z
1/2-x,-y,1/2+z
x,-y,-z
1/2-x,y,1/2-z
-x,-y,-z
1/2+x,y,1/2-z
-x,y,z
1/2+x,-y,1/2+z
loop_
_atom_site_type_symbol
_atom_site_label
_atom_site_fract_x
_atom_site_fract_y
_atom_site_fract_z
Si Si1 0.181451 0.658333 0.400913
Si Si2 0.320363 0.203525 0.689905
Si Si3 0.316562 0.458632 0.066900
Si Si4 0.317039 0.998685 0.815249
Si Si5 0.317880 0.281886 0.474160
Si Si6 0.684818 0.066009 0.443398
O O1 0.288033 0.724861 0.362416
O O2 0.219989 0.548975 0.392932
O O3 0.213501 0.690381 0.469062
O O4 0.000000 0.671003 0.387293
O O5 0.250000 0.246590 0.750000
O O6 0.500000 0.182016 0.696542
O O7 0.230435 0.107225 0.680207
O O8 0.500000 0.440910 0.070794
O O9 0.225264 0.362433 0.073964
O O10 0.284882 0.500000 0.000000
O O11 0.250000 0.965895 0.750000
O O12 0.500000 0.988451 0.812867
O O13 0.255063 0.955913 0.877815
O O14 0.500000 0.289617 0.488674
O O15 0.286842 0.174989 0.457241
O O16 0.500000 0.051698 0.438784
O O17 0.737117 0.000000 0.500000
#
# Coordination Sequence:
#
# PCOD9415293 Si02
#       6
#     8   8   8   8   8   8
#     4  10  19  32  50  73 102 134 168 206 252 304
#     4  11  21  34  52  74 101 131 165 206 252 303
#     4   8  16  30  47  68  98 133 164 200 246 300
#     4  11  22  37  57  78 104 140 179 216 258 314
#     4  10  19  30  49  76 104 135 170 211 256 303
#     4  10  21  36  53  77 110 142 175 220 268 309
#
# _framework density 17.361000000000001
#
# number of rings (size 3 to 8) (size 9 to 14) (size 15 to 20)
#    0.000    2.000    0.000    7.000    0.000    6.667 
#    0.000    0.000    0.000    1.000    0.000    7.000 
#    0.000    0.000    0.000    0.000    0.000    0.000 
#
# Total GULP energy -267417.064511 kJ/mol
# GULP energy per Si atom -5571.188844 kJ/mol
# Density = 1.732149 g / cm^3
# Si number density = 17.361000 Si / 1000 Ang^3
#
#
#
# Elastic Constant Matrix: (Units=GPa)
#
#
# Indices 1 2 3 4 5 6 
#
# 1 58.5356 38.7245 26.9949 0.0000 0.0000 0.0000
# 2 38.7245 88.5018 36.8362 0.0000 0.0000 0.0000
# 3 26.9949 36.8362 75.4184 0.0000 0.0000 0.0000
# 4 0.0000 0.0000 0.0000 14.4042 0.0000 0.0000
# 5 0.0000 0.0000 0.0000 0.0000 20.3391 0.0000
# 6 0.0000 0.0000 0.0000 0.0000 0.0000 28.4333
#
#
#
# Elastic Compliance Matrix: (Units=1/GPa)
#
#
# Indices 1 2 3 4 5 6 
#
# 1 0.025238 -0.009142 -0.004569 0.000000 0.000000 0.000000
# 2 -0.009142 0.017494 -0.005272 0.000000 0.000000 0.000000
# 3 -0.004569 -0.005272 0.017470 0.000000 0.000000 0.000000
# 4 0.000000 0.000000 0.000000 0.069424 0.000000 0.000000
# 5 0.000000 0.000000 0.000000 0.000000 0.049166 0.000000
# 6 0.000000 0.000000 0.000000 0.000000 0.000000 0.035170
#
#
# Mechanical properties :
#
#
# Convention : Reuss Voigt Hill
#
# Bulk Modulus (GPa) = 44.97086 47.50743 46.23914
# Shear Modulus (GPa) = 19.27978 20.62867 19.95423
#
# Velocity S-wave (km/s) = 3.33607 3.45079 3.39392
# Velocity P-wave (km/s) = 6.38739 6.58036 6.48459
#
# Compressibility (1/GPa) = 0.02223662
#
# Stress axis : x y z
#
# Youngs Moduli (GPa) = 39.62244 57.16397 57.24190
#
# Poissons Ratio (x) = 0.52257 0.26152
# Poissons Ratio (y) = 0.36221 0.30179
# Poissons Ratio (z) = 0.18102 0.30138
#
# Static dielectric constant tensor:
#      x y z
#    x 1.584550 0.000000 0.000000 
#    y 0.000000 1.608650 0.000000 
#    z 0.000000 0.000000 1.687520 
# 
# From -- ./inp_files/33846.got.cif
#   From: 2010.05.17/outbox.cif.g08.bks.cpg/sg53_17_cif.got.tgz:33846.got - 2010.06.03 12:45:16.
