data_PCOD9415364
_publ_section_title
;
Structure prediction by ZEFSAII (Michael W. Deem and Ramdas Pophale) SiO2 
 PCOD9415364
Probable space group: P M N A
;
_chemical_formula_sum "Si O2"
_cell_formula_units_Z 64
_cell_length_a 8.303677
_cell_length_b 18.947639
_cell_length_c 23.869831
_cell_angle_alpha 90.000000
_cell_angle_beta 90.000000
_cell_angle_gamma 90.000000
_cell_volume 3755.561631
_symmetry_space_group_name_H-M "P M N A"
_symmetry_group_IT_number 53
_symmetry_cell_setting 'orthorhombic'
loop_
_space_group_symop_operation_xyz
x,y,z
1/2-x,-y,1/2+z
x,-y,-z
1/2-x,y,1/2-z
-x,-y,-z
1/2+x,y,1/2-z
-x,y,z
1/2+x,-y,1/2+z
loop_
_atom_site_type_symbol
_atom_site_label
_atom_site_fract_x
_atom_site_fract_y
_atom_site_fract_z
Si Si1 0.694955 0.238305 0.185589
Si Si2 0.805395 0.931851 0.314706
Si Si3 0.694313 0.418811 0.506581
Si Si4 0.694775 0.370109 0.111211
Si Si5 0.807173 0.222504 0.685613
Si Si6 0.807698 0.637363 0.126535
Si Si7 0.807468 0.500201 0.687797
Si Si8 0.305490 0.083420 0.185338
O O1 0.750000 0.247872 0.250000
O O2 0.500000 0.239260 0.186135
O O3 0.750314 0.301543 0.145699
O O4 0.748285 0.160435 0.164342
O O5 0.750000 0.932280 0.250000
O O6 0.751132 0.855025 0.336034
O O7 0.000000 0.932019 0.316428
O O8 0.750426 0.007668 0.339322
O O9 0.751548 0.500000 0.500000
O O10 0.500000 0.420689 0.508223
O O11 0.747040 0.375510 0.452235
O O12 0.752517 0.385039 0.564808
O O13 0.500000 0.369916 0.111305
O O14 0.750237 0.440271 0.144243
O O15 0.750000 0.231284 0.750000
O O16 0.749761 0.287111 0.648101
O O17 0.000000 0.222642 0.686490
O O18 0.753561 0.576112 0.168917
O O19 0.000000 0.637918 0.125083
O O20 0.750000 0.517651 0.750000
O O21 0.000000 0.499771 0.687030
O O22 0.250000 0.082938 0.250000
O O23 0.500000 0.083385 0.183547
#
# Coordination Sequence:
#
# PCOD9415364 Si02
#       8
#     8   8   8   8   8   8   8   8
#     4   9  17  29  45  70 101 130 158 190 229 275
#     4   8  14  24  40  63  91 125 157 186 221 267
#     4  10  21  38  56  71  87 115 156 201 244 284
#     4  10  21  34  50  72  96 123 156 194 236 276
#     4  10  19  31  47  70 100 128 157 191 232 279
#     4  11  22  36  52  69  91 119 155 196 239 282
#     4  11  22  34  49  70  96 126 156 186 227 277
#     4   8  13  23  40  62  92 126 157 186 220 265
#
# _framework density 17.041392999999999
#
# number of rings (size 3 to 8) (size 9 to 14) (size 15 to 20)
#    0.000    2.375    1.250    1.875    0.000    2.750 
#    0.000    0.000    0.000    0.000    0.000    0.875 
#    0.000    7.000    0.000    0.000    0.000    0.000 
#
# Total GULP energy -356568.346103 kJ/mol
# GULP energy per Si atom -5571.380408 kJ/mol
# Density = 1.700261 g / cm^3
# Si number density = 17.041393 Si / 1000 Ang^3
#
#
#
# Elastic Constant Matrix: (Units=GPa)
#
#
# Indices 1 2 3 4 5 6 
#
# 1 14.3915 13.5166 5.1735 0.0000 0.0000 0.0000
# 2 13.5166 135.9115 21.7612 0.0000 0.0000 0.0000
# 3 5.1735 21.7612 56.6392 0.0000 0.0000 0.0000
# 4 0.0000 0.0000 0.0000 5.3471 0.0000 0.0000
# 5 0.0000 0.0000 0.0000 0.0000 21.4694 0.0000
# 6 0.0000 0.0000 0.0000 0.0000 0.0000 -1.8627
#
#
#
# Elastic Compliance Matrix: (Units=1/GPa)
#
#
# Indices 1 2 3 4 5 6 
#
# 1 0.077659 -0.007019 -0.004397 0.000000 0.000000 0.000000
# 2 -0.007019 0.008474 -0.002615 0.000000 0.000000 0.000000
# 3 -0.004397 -0.002615 0.019062 0.000000 0.000000 0.000000
# 4 0.000000 0.000000 0.000000 0.187016 0.000000 0.000000
# 5 0.000000 0.000000 0.000000 0.000000 0.046578 0.000000
# 6 0.000000 0.000000 0.000000 0.000000 0.000000 -0.536866
#
#
# Mechanical properties :
#
#
# Convention : Reuss Voigt Hill
#
# Bulk Modulus (GPa) = 12.96449 31.98276 22.47362
# Shear Modulus (GPa) = -34.64904 16.09017 -9.27943
#
# Velocity S-wave (km/s) = -4.51402 3.07609 -2.33603
# Velocity P-wave (km/s) = 4.42090 5.60579 2.43726
#
# Compressibility (1/GPa) = 0.07713379
#
# Stress axis : x y z
#
# Youngs Moduli (GPa) = 12.87684 118.00132 52.46082
#
# Poissons Ratio (x) = 0.82829 0.23064
# Poissons Ratio (y) = 0.09039 0.13718
# Poissons Ratio (z) = 0.05661 0.30855
#
# Static dielectric constant tensor:
#      x y z
#    x 1.586790 0.000000 0.000000 
#    y 0.000000 1.639450 0.000000 
#    z 0.000000 0.000000 1.542710 
# 
# From -- ./inp_files/31146.got.cif
#   From: 2010.05.17/outbox.cif.g08.bks.cpg/sg53_16_cif.got.tgz:31146.got - 2010.06.03 12:45:16.
