data_PCOD9415651
_publ_section_title
;
Structure prediction by ZEFSAII (Michael W. Deem and Ramdas Pophale) SiO2 
 PCOD9415651
Probable space group: P M N A
;
_chemical_formula_sum "Si O2"
_cell_formula_units_Z 64
_cell_length_a 7.655284
_cell_length_b 22.142629
_cell_length_c 18.173242
_cell_angle_alpha 90.000000
_cell_angle_beta 90.000000
_cell_angle_gamma 90.000000
_cell_volume 3080.511968
_symmetry_space_group_name_H-M "P M N A"
_symmetry_group_IT_number 53
_symmetry_cell_setting 'orthorhombic'
loop_
_space_group_symop_operation_xyz
x,y,z
1/2-x,-y,1/2+z
x,-y,-z
1/2-x,y,1/2-z
-x,-y,-z
1/2+x,y,1/2-z
-x,y,z
1/2+x,-y,1/2+z
loop_
_atom_site_type_symbol
_atom_site_label
_atom_site_fract_x
_atom_site_fract_y
_atom_site_fract_z
Si Si1 0.792142 0.623446 0.164180
Si Si2 0.789825 0.380046 0.164226
Si Si3 0.205669 0.743350 0.422414
Si Si4 0.797577 0.259123 0.091040
Si Si5 0.291715 0.129136 0.428273
Si Si6 0.300153 0.127975 0.901179
Si Si7 0.789047 0.999990 0.414783
Si Si8 0.286214 0.501673 0.415041
O O1 0.750000 0.621316 0.250000
O O2 0.725580 0.684691 0.127171
O O3 0.725484 0.562902 0.124328
O O4 0.000000 0.624311 0.155014
O O5 0.750000 0.381649 0.250000
O O6 0.718630 0.318237 0.128562
O O7 0.725288 0.441080 0.125532
O O8 0.000000 0.380061 0.153909
O O9 0.288715 0.733686 0.502611
O O10 0.276797 0.805658 0.386136
O O11 0.000000 0.753449 0.435797
O O12 0.727133 0.191844 0.107081
O O13 0.000000 0.257623 0.113952
O O14 0.500000 0.134589 0.440668
O O15 0.204253 0.125442 0.509124
O O16 0.258995 0.066373 0.386412
O O17 0.500000 0.128624 0.874404
O O18 0.223420 0.062641 0.878944
O O19 0.000000 0.996451 0.415967
O O20 0.725873 0.000000 0.500000
O O21 0.234583 0.500000 0.500000
O O22 0.500000 0.502108 0.412708
#
# Coordination Sequence:
#
# PCOD9415651 Si02
#       8
#     8   8   8   8   8   8   8   8
#     4  11  22  36  54  76 104 135 167 203 245 294
#     4  10  20  35  54  75 101 133 168 204 243 288
#     4  10  19  32  51  74  99 129 168 211 251 294
#     4   9  18  32  49  70  99 134 168 205 251 300
#     4   9  15  22  36  61  90 120 157 200 243 288
#     4   8  15  26  39  58  88 124 158 195 241 293
#     4   8  13  22  35  54  85 123 156 189 238 294
#     4   9  18  34  57  80 101 130 165 199 240 291
#
# _framework density 20.775766999999998
#
# number of rings (size 3 to 8) (size 9 to 14) (size 15 to 20)
#    0.000    2.750    0.000    3.000    0.000    5.750 
#    0.000    0.625    0.000    2.625    0.000    0.875 
#    0.000    4.000    0.000    0.000    0.000    0.000 
#
# Total GULP energy -356651.713229 kJ/mol
# GULP energy per Si atom -5572.683019 kJ/mol
# Density = 2.072848 g / cm^3
# Si number density = 20.775767 Si / 1000 Ang^3
#
#
#
# Elastic Constant Matrix: (Units=GPa)
#
#
# Indices 1 2 3 4 5 6 
#
# 1 45.8059 1.8631 -10.8010 0.0000 0.0000 0.0000
# 2 1.8631 271.8526 80.3763 0.0000 0.0000 0.0000
# 3 -10.8010 80.3763 64.3628 0.0000 0.0000 0.0000
# 4 0.0000 0.0000 0.0000 -8.1809 0.0000 0.0000
# 5 0.0000 0.0000 0.0000 0.0000 10.7048 0.0000
# 6 0.0000 0.0000 0.0000 0.0000 0.0000 8.9618
#
#
#
# Elastic Compliance Matrix: (Units=1/GPa)
#
#
# Indices 1 2 3 4 5 6 
#
# 1 0.023464 -0.002101 0.006561 0.000000 0.000000 0.000000
# 2 -0.002101 0.006020 -0.007870 0.000000 0.000000 0.000000
# 3 0.006561 -0.007870 0.026466 0.000000 0.000000 0.000000
# 4 0.000000 0.000000 0.000000 -0.122235 0.000000 0.000000
# 5 0.000000 0.000000 0.000000 0.000000 0.093416 0.000000
# 6 0.000000 0.000000 0.000000 0.000000 0.000000 0.111585
#
#
# Mechanical properties :
#
#
# Convention : Reuss Voigt Hill
#
# Bulk Modulus (GPa) = 20.35426 58.32201 39.33813
# Shear Modulus (GPa) = 30.88117 23.00265 26.94191
#
# Velocity S-wave (km/s) = 3.85957 3.33105 3.60501
# Velocity P-wave (km/s) = 5.44795 6.55192 6.02527
#
# Compressibility (1/GPa) = 0.04912976
#
# Stress axis : x y z
#
# Youngs Moduli (GPa) = 42.61902 166.12189 37.78462
#
# Poissons Ratio (x) = 0.34895 -0.24789
# Poissons Ratio (y) = 0.08952 0.29736
# Poissons Ratio (z) = -0.27961 1.30736
#
# Static dielectric constant tensor:
#      x y z
#    x 1.799750 0.000000 0.000000 
#    y 0.000000 1.832410 0.000000 
#    z 0.000000 0.000000 1.697670 
# 
# From -- ./inp_files/26975.got.cif
#   From: 2010.05.17/outbox.cif.g08.bks.cpg/sg53_14_cif.got.tgz:26975.got - 2010.06.03 12:45:16.
