data_PCOD9415770
_publ_section_title
;
Structure prediction by ZEFSAII (Michael W. Deem and Ramdas Pophale) SiO2 
 PCOD9415770
Probable space group: P M N A
;
_chemical_formula_sum "Si O2"
_cell_formula_units_Z 44
_cell_length_a 9.095360
_cell_length_b 11.921731
_cell_length_c 23.649289
_cell_angle_alpha 90.000000
_cell_angle_beta 90.000000
_cell_angle_gamma 90.000000
_cell_volume 2564.349999
_symmetry_space_group_name_H-M "P M N A"
_symmetry_group_IT_number 53
_symmetry_cell_setting 'orthorhombic'
loop_
_space_group_symop_operation_xyz
x,y,z
1/2-x,-y,1/2+z
x,-y,-z
1/2-x,y,1/2-z
-x,-y,-z
1/2+x,y,1/2-z
-x,y,z
1/2+x,-y,1/2+z
loop_
_atom_site_type_symbol
_atom_site_label
_atom_site_fract_x
_atom_site_fract_y
_atom_site_fract_z
Si Si1 0.666202 0.696400 0.415694
Si Si2 0.825456 0.372918 0.194585
Si Si3 0.329254 0.129795 0.991675
Si Si4 0.162030 0.689251 0.587453
Si Si5 0.748285 0.500000 0.500000
Si Si6 0.824414 0.382034 0.693827
O O1 0.500000 0.708594 0.394883
O O2 0.722219 0.803956 0.449952
O O3 0.669760 0.589109 0.458374
O O4 0.775775 0.676876 0.363771
O O5 0.750000 0.319254 0.250000
O O6 0.500000 0.383795 0.298192
O O7 0.784119 0.315462 0.135610
O O8 0.748159 0.494538 0.189540
O O9 0.500000 0.137341 0.971882
O O10 0.323639 0.199647 0.049921
O O11 0.292651 0.000000 0.000000
O O12 0.171204 0.583898 0.543926
O O13 0.000000 0.685324 0.614422
O O14 0.750000 0.330458 0.750000
O O15 0.000000 0.388752 0.699353
#
# Coordination Sequence:
#
# PCOD9415770 Si02
#       6
#     8   8   8   8   4   8
#     4  11  21  33  52  79 110 141 175 218 263 314
#     4  11  21  33  50  74 107 142 176 213 258 311
#     4   9  20  38  57  78 105 140 180 221 267 315
#     4  10  19  32  53  78 106 139 175 215 261 313
#     4  10  20  30  50  74 112 138 174 208 262 314
#     4  11  21  34  52  75 107 143 178 214 259 314
#
# _framework density 17.158344
#
# number of rings (size 3 to 8) (size 9 to 14) (size 15 to 20)
#    0.000    1.636    1.818    5.455    0.000    4.727 
#    0.000    0.000    0.000    1.091    0.000    5.091 
#    0.000    0.000    0.000    0.000    0.000    0.000 
#
# Total GULP energy -245308.248794 kJ/mol
# GULP energy per Si atom -5575.187473 kJ/mol
# Density = 1.711929 g / cm^3
# Si number density = 17.158344 Si / 1000 Ang^3
#
#
#
# Elastic Constant Matrix: (Units=GPa)
#
#
# Indices 1 2 3 4 5 6 
#
# 1 145.1882 28.4938 47.2711 0.0000 0.0000 0.0000
# 2 28.4938 95.6307 23.3622 0.0000 0.0000 0.0000
# 3 47.2711 23.3622 86.0139 0.0000 0.0000 0.0000
# 4 0.0000 0.0000 0.0000 8.6797 0.0000 0.0000
# 5 0.0000 0.0000 0.0000 0.0000 26.5429 0.0000
# 6 0.0000 0.0000 0.0000 0.0000 0.0000 11.4467
#
#
#
# Elastic Compliance Matrix: (Units=1/GPa)
#
#
# Indices 1 2 3 4 5 6 
#
# 1 0.008586 -0.001505 -0.004310 0.000000 0.000000 0.000000
# 2 -0.001505 0.011464 -0.002286 0.000000 0.000000 0.000000
# 3 -0.004310 -0.002286 0.014616 0.000000 0.000000 0.000000
# 4 0.000000 0.000000 0.000000 0.115212 0.000000 0.000000
# 5 0.000000 0.000000 0.000000 0.000000 0.037675 0.000000
# 6 0.000000 0.000000 0.000000 0.000000 0.000000 0.087361
#
#
# Mechanical properties :
#
#
# Convention : Reuss Voigt Hill
#
# Bulk Modulus (GPa) = 54.16396 58.34300 56.25348
# Shear Modulus (GPa) = 16.81964 24.51424 20.66694
#
# Velocity S-wave (km/s) = 3.13431 3.78392 3.47433
# Velocity P-wave (km/s) = 6.68836 7.29159 6.99648
#
# Compressibility (1/GPa) = 0.01846246
#
# Stress axis : x y z
#
# Youngs Moduli (GPa) = 116.46441 87.22958 68.41972
#
# Poissons Ratio (x) = 0.13132 0.29488
# Poissons Ratio (y) = 0.17533 0.15643
# Poissons Ratio (z) = 0.50195 0.19944
#
# Static dielectric constant tensor:
#      x y z
#    x 1.599590 0.000000 0.000000 
#    y 0.000000 1.553250 0.000000 
#    z 0.000000 0.000000 1.623150 
# 
# From -- ./inp_files/33782.got.cif
#   From: 2010.05.17/outbox.cif.g08.bks.cpg/sg53_17_cif.got.tgz:33782.got - 2010.06.03 12:45:16.
