data_PCOD9415861
_publ_section_title
;
Structure prediction by ZEFSAII (Michael W. Deem and Ramdas Pophale) SiO2 
 PCOD9415861
Probable space group: P M N A
;
_chemical_formula_sum "Si O2"
_cell_formula_units_Z 64
_cell_length_a 8.805721
_cell_length_b 21.655429
_cell_length_c 20.531587
_cell_angle_alpha 90.000000
_cell_angle_beta 90.000000
_cell_angle_gamma 90.000000
_cell_volume 3915.202529
_symmetry_space_group_name_H-M "P M N A"
_symmetry_group_IT_number 53
_symmetry_cell_setting 'orthorhombic'
loop_
_space_group_symop_operation_xyz
x,y,z
1/2-x,-y,1/2+z
x,-y,-z
1/2-x,y,1/2-z
-x,-y,-z
1/2+x,y,1/2-z
-x,y,z
1/2+x,-y,1/2+z
loop_
_atom_site_type_symbol
_atom_site_label
_atom_site_fract_x
_atom_site_fract_y
_atom_site_fract_z
Si Si1 0.317896 0.480037 0.819338
Si Si2 0.817787 0.374326 0.320259
Si Si3 0.683450 0.562963 0.039193
Si Si4 0.183223 0.054162 0.047197
Si Si5 0.829099 0.191962 0.314355
Si Si6 0.169990 0.043869 0.314640
Si Si7 0.680503 0.192213 0.452126
Si Si8 0.316848 0.326370 0.454934
O O1 0.250000 0.459682 0.750000
O O2 0.500000 0.475802 0.815226
O O3 0.280122 0.552670 0.828557
O O4 0.269770 0.445058 0.885236
O O5 0.750000 0.356341 0.250000
O O6 0.750165 0.339464 0.382793
O O7 0.000000 0.368375 0.319547
O O8 0.500000 0.569499 0.036814
O O9 0.720394 0.500000 0.000000
O O10 0.758259 0.620327 0.002609
O O11 0.234559 0.037219 0.119859
O O12 0.240049 0.123701 0.029593
O O13 0.000000 0.055912 0.045305
O O14 0.237199 0.000000 0.000000
O O15 0.750000 0.217089 0.250000
O O16 0.842939 0.117999 0.305763
O O17 0.722445 0.199334 0.376259
O O18 0.000000 0.216277 0.324472
O O19 0.250000 0.018868 0.250000
O O20 0.000000 0.019162 0.322260
O O21 0.500000 0.189654 0.460914
O O22 0.732751 0.258074 0.480163
O O23 0.500000 0.327544 0.450862
#
# Coordination Sequence:
#
# PCOD9415861 Si02
#       8
#     8   8   8   8   8   8   8   8
#     4   9  18  32  51  72  95 123 156 198 242 281
#     4  10  19  33  49  68  96 131 168 203 238 279
#     4  10  19  35  53  71  97 129 161 198 244 284
#     4   9  17  31  51  71  92 124 161 197 241 290
#     4   9  16  26  42  62  85 119 159 192 226 268
#     4   9  16  26  42  66  95 123 153 191 231 274
#     4   9  19  33  45  63  94 123 155 197 238 284
#     4  11  22  33  47  70  97 129 164 201 243 287
#
# _framework density 16.346534999999999
#
# number of rings (size 3 to 8) (size 9 to 14) (size 15 to 20)
#    0.000    2.500    1.250    1.500    0.000    6.000 
#    0.000    0.000    0.000    0.000    0.000    0.875 
#    0.000    2.000    0.000    0.000    0.000    0.000 
#
# Total GULP energy -356524.844300 kJ/mol
# GULP energy per Si atom -5570.700692 kJ/mol
# Density = 1.630933 g / cm^3
# Si number density = 16.346535 Si / 1000 Ang^3
#
#
#
# Elastic Constant Matrix: (Units=GPa)
#
#
# Indices 1 2 3 4 5 6 
#
# 1 15.4763 20.2891 20.5837 0.0000 0.0000 0.0000
# 2 20.2891 110.5865 64.6476 0.0000 0.0000 0.0000
# 3 20.5837 64.6476 100.2823 0.0000 0.0000 0.0000
# 4 0.0000 0.0000 0.0000 -10.7844 0.0000 0.0000
# 5 0.0000 0.0000 0.0000 0.0000 24.5065 0.0000
# 6 0.0000 0.0000 0.0000 0.0000 0.0000 9.4535
#
#
#
# Elastic Compliance Matrix: (Units=1/GPa)
#
#
# Indices 1 2 3 4 5 6 
#
# 1 0.094911 -0.009668 -0.013249 0.000000 0.000000 0.000000
# 2 -0.009668 0.015496 -0.008005 0.000000 0.000000 0.000000
# 3 -0.013249 -0.008005 0.017852 0.000000 0.000000 0.000000
# 4 0.000000 0.000000 0.000000 -0.092727 0.000000 0.000000
# 5 0.000000 0.000000 0.000000 0.000000 0.040805 0.000000
# 6 0.000000 0.000000 0.000000 0.000000 0.000000 0.105781
#
#
# Mechanical properties :
#
#
# Convention : Reuss Voigt Hill
#
# Bulk Modulus (GPa) = 15.05689 48.59843 31.82766
# Shear Modulus (GPa) = 18.78990 12.69011 15.74001
#
# Velocity S-wave (km/s) = 3.39407 2.78927 3.10642
# Velocity P-wave (km/s) = 4.95889 6.33783 5.69028
#
# Compressibility (1/GPa) = 0.06641479
#
# Stress axis : x y z
#
# Youngs Moduli (GPa) = 10.53624 64.53150 56.01648
#
# Poissons Ratio (x) = 0.62390 0.74213
# Poissons Ratio (y) = 0.10187 0.44843
# Poissons Ratio (z) = 0.13959 0.51660
#
# Static dielectric constant tensor:
#      x y z
#    x 1.564360 0.000000 0.000000 
#    y 0.000000 1.584120 0.000000 
#    z 0.000000 0.000000 1.523910 
# 
# From -- ./inp_files/31168.got.cif
#   From: 2010.05.17/outbox.cif.g08.bks.cpg/sg53_16_cif.got.tgz:31168.got - 2010.06.03 12:45:16.
