data_PCOD9415665
_publ_section_title
;
Structure prediction by ZEFSAII (Michael W. Deem and Ramdas Pophale) SiO2 
 PCOD9415665
Probable space group: P M N A
;
_chemical_formula_sum "Si O2"
_cell_formula_units_Z 64
_cell_length_a 9.421039
_cell_length_b 19.445409
_cell_length_c 19.501070
_cell_angle_alpha 90.000000
_cell_angle_beta 90.000000
_cell_angle_gamma 90.000000
_cell_volume 3572.517173
_symmetry_space_group_name_H-M "P M N A"
_symmetry_group_IT_number 53
_symmetry_cell_setting 'orthorhombic'
loop_
_space_group_symop_operation_xyz
x,y,z
1/2-x,-y,1/2+z
x,-y,-z
1/2-x,y,1/2-z
-x,-y,-z
1/2+x,y,1/2-z
-x,y,z
1/2+x,-y,1/2+z
loop_
_atom_site_type_symbol
_atom_site_label
_atom_site_fract_x
_atom_site_fract_y
_atom_site_fract_z
Si Si1 0.831085 0.602896 0.583880
Si Si2 0.330094 0.647848 0.071960
Si Si3 0.170400 0.530551 0.322854
Si Si4 0.670540 0.063026 0.551511
Si Si5 0.333274 0.991858 0.178151
Si Si6 0.658536 0.731925 0.614350
Si Si7 0.842185 0.221862 0.958848
Si Si8 0.334911 0.147695 0.179743
O O1 0.797250 0.610719 0.502090
O O2 0.803807 0.531232 0.622469
O O3 0.738880 0.660296 0.622605
O O4 0.000000 0.617156 0.589738
O O5 0.500000 0.654747 0.072890
O O6 0.287544 0.599234 0.135232
O O7 0.260986 0.723507 0.077082
O O8 0.250000 0.522762 0.250000
O O9 0.000000 0.532157 0.310655
O O10 0.500000 0.057370 0.561346
O O11 0.754921 0.052844 0.621720
O O12 0.700862 0.142108 0.530356
O O13 0.708898 0.000000 0.500000
O O14 0.250000 0.987421 0.250000
O O15 0.500000 0.975956 0.187352
O O16 0.324318 0.070626 0.150935
O O17 0.500000 0.733132 0.645068
O O18 0.644959 0.745574 0.533891
O O19 0.757404 0.793286 0.638923
O O20 0.000000 0.221346 0.926639
O O21 0.250000 0.144353 0.250000
O O22 0.500000 0.163235 0.190004
#
# Coordination Sequence:
#
# PCOD9415665 Si02
#       8
#     8   8   8   8   8   8   8   8
#     4   9  18  34  55  77 104 138 176 216 258 309
#     4   9  18  35  58  79 101 136 180 220 258 306
#     4  10  21  36  55  80 108 138 173 216 267 317
#     4  10  20  35  56  81 111 145 178 218 271 323
#     4  10  21  36  54  76 103 137 179 224 269 321
#     4  10  19  32  51  76 106 137 171 211 257 311
#     4   9  19  34  53  79 107 136 172 215 263 314
#     4  10  20  33  49  70  98 135 176 215 259 312
#
# _framework density 17.914541
#
# number of rings (size 3 to 8) (size 9 to 14) (size 15 to 20)
#    0.000    2.375    0.000    2.250    0.000    6.750 
#    0.000    1.875    0.000    5.250    0.000    0.000 
#    0.000    0.000    0.000    0.000    0.000    0.000 
#
# Total GULP energy -356350.955364 kJ/mol
# GULP energy per Si atom -5567.983678 kJ/mol
# Density = 1.787377 g / cm^3
# Si number density = 17.914541 Si / 1000 Ang^3
#
#
#
# Elastic Constant Matrix: (Units=GPa)
#
#
# Indices 1 2 3 4 5 6 
#
# 1 58.3658 50.2866 27.9775 0.0000 0.0000 0.0000
# 2 50.2866 114.7534 38.4386 0.0000 0.0000 0.0000
# 3 27.9775 38.4386 52.1026 0.0000 0.0000 0.0000
# 4 0.0000 0.0000 0.0000 33.2921 0.0000 0.0000
# 5 0.0000 0.0000 0.0000 0.0000 27.4937 0.0000
# 6 0.0000 0.0000 0.0000 0.0000 0.0000 29.5673
#
#
#
# Elastic Compliance Matrix: (Units=1/GPa)
#
#
# Indices 1 2 3 4 5 6 
#
# 1 0.030148 -0.010345 -0.008556 0.000000 0.000000 0.000000
# 2 -0.010345 0.015125 -0.005603 0.000000 0.000000 0.000000
# 3 -0.008556 -0.005603 0.027921 0.000000 0.000000 0.000000
# 4 0.000000 0.000000 0.000000 0.030037 0.000000 0.000000
# 5 0.000000 0.000000 0.000000 0.000000 0.036372 0.000000
# 6 0.000000 0.000000 0.000000 0.000000 0.000000 0.033821
#
#
# Mechanical properties :
#
#
# Convention : Reuss Voigt Hill
#
# Bulk Modulus (GPa) = 41.34913 50.95858 46.15385
# Shear Modulus (GPa) = 21.69247 25.30524 23.49885
#
# Velocity S-wave (km/s) = 3.48355 3.76247 3.62570
# Velocity P-wave (km/s) = 6.26990 6.88346 6.58383
#
# Compressibility (1/GPa) = 0.02418431
#
# Stress axis : x y z
#
# Youngs Moduli (GPa) = 33.16968 66.11754 35.81517
#
# Poissons Ratio (x) = 0.68400 0.30645
# Poissons Ratio (y) = 0.34315 0.20068
# Poissons Ratio (z) = 0.28382 0.37046
#
# Static dielectric constant tensor:
#      x y z
#    x 1.616710 0.000000 0.000000 
#    y 0.000000 1.641210 0.000000 
#    z 0.000000 0.000000 1.608360 
# 
# From -- ./inp_files/31215.got.cif
#   From: 2010.05.17/outbox.cif.g08.bks.cpg/sg53_16_cif.got.tgz:31215.got - 2010.06.03 12:45:16.
