data_PCOD9415447
_publ_section_title
;
Structure prediction by ZEFSAII (Michael W. Deem and Ramdas Pophale) SiO2 
 PCOD9415447
Probable space group: P M N A
;
_chemical_formula_sum "Si O2"
_cell_formula_units_Z 64
_cell_length_a 9.305305
_cell_length_b 23.946404
_cell_length_c 15.284279
_cell_angle_alpha 90.000000
_cell_angle_beta 90.000000
_cell_angle_gamma 90.000000
_cell_volume 3405.774383
_symmetry_space_group_name_H-M "P M N A"
_symmetry_group_IT_number 53
_symmetry_cell_setting 'orthorhombic'
loop_
_space_group_symop_operation_xyz
x,y,z
1/2-x,-y,1/2+z
x,-y,-z
1/2-x,y,1/2-z
-x,-y,-z
1/2+x,y,1/2-z
-x,y,z
1/2+x,-y,1/2+z
loop_
_atom_site_type_symbol
_atom_site_label
_atom_site_fract_x
_atom_site_fract_y
_atom_site_fract_z
Si Si1 0.167493 0.077490 0.838023
Si Si2 0.325539 0.365296 0.476713
Si Si3 0.157588 0.976853 0.598079
Si Si4 0.828519 0.801166 0.155832
Si Si5 0.172660 0.149960 0.345234
Si Si6 0.173705 0.240867 0.031736
Si Si7 0.328068 0.541228 0.659461
Si Si8 0.328229 0.589700 0.340185
O O1 0.250000 0.088261 0.750000
O O2 0.198605 0.136292 0.885360
O O3 0.000000 0.074869 0.825999
O O4 0.222005 0.017730 0.866932
O O5 0.500000 0.367310 0.479737
O O6 0.288046 0.304154 0.441572
O O7 0.278932 0.416188 0.415286
O O8 0.277712 0.375493 0.576174
O O9 0.191479 0.911970 0.611956
O O10 0.000000 0.986527 0.640517
O O11 0.144968 0.000000 0.500000
O O12 0.750000 0.792242 0.250000
O O13 0.000000 0.796891 0.172888
O O14 0.792069 0.763196 0.072439
O O15 0.250000 0.150670 0.250000
O O16 0.243693 0.195959 0.408859
O O17 0.000000 0.158720 0.336195
O O18 0.000000 0.232509 0.039904
O O19 0.250000 0.554257 0.750000
O O20 0.500000 0.547242 0.669587
O O21 0.301532 0.475957 0.639389
O O22 0.250000 0.603940 0.250000
O O23 0.500000 0.596722 0.329227
#
# Coordination Sequence:
#
# PCOD9415447 Si02
#       8
#     8   8   8   8   8   8   8   8
#     4  10  19  31  49  73  99 127 161 201 250 308
#     4   9  18  33  54  77 103 140 181 220 264 316
#     4  10  21  36  55  80 107 133 165 211 266 321
#     4   9  19  34  53  78 108 142 177 219 272 329
#     4  11  24  41  60  81 109 147 187 228 275 325
#     4  10  21  38  57  78 106 141 186 233 272 316
#     4   9  17  31  52  77 105 138 175 216 264 317
#     4   9  17  31  52  79 110 141 174 213 262 320
#
# _framework density 18.791615
#
# number of rings (size 3 to 8) (size 9 to 14) (size 15 to 20)
#    0.000    2.375    0.000    2.250    0.000    5.750 
#    0.000    3.125    0.000    3.000    0.000    0.000 
#    0.000    0.000    0.000    0.000    0.000    0.000 
#
# Total GULP energy -356358.767008 kJ/mol
# GULP energy per Si atom -5568.105734 kJ/mol
# Density = 1.874884 g / cm^3
# Si number density = 18.791615 Si / 1000 Ang^3
#
#
#
# Elastic Constant Matrix: (Units=GPa)
#
#
# Indices 1 2 3 4 5 6 
#
# 1 39.0752 25.7677 27.9567 0.0000 0.0000 0.0000
# 2 25.7677 65.8235 45.2159 0.0000 0.0000 0.0000
# 3 27.9567 45.2159 89.2904 0.0000 0.0000 0.0000
# 4 0.0000 0.0000 0.0000 16.2768 0.0000 0.0000
# 5 0.0000 0.0000 0.0000 0.0000 29.4586 0.0000
# 6 0.0000 0.0000 0.0000 0.0000 0.0000 15.8195
#
#
#
# Elastic Compliance Matrix: (Units=1/GPa)
#
#
# Indices 1 2 3 4 5 6 
#
# 1 0.036790 -0.009951 -0.006480 0.000000 0.000000 0.000000
# 2 -0.009951 0.025987 -0.010044 0.000000 0.000000 0.000000
# 3 -0.006480 -0.010044 0.018314 0.000000 0.000000 0.000000
# 4 0.000000 0.000000 0.000000 0.061437 0.000000 0.000000
# 5 0.000000 0.000000 0.000000 0.000000 0.033946 0.000000
# 6 0.000000 0.000000 0.000000 0.000000 0.000000 0.063213
#
#
# Mechanical properties :
#
#
# Convention : Reuss Voigt Hill
#
# Bulk Modulus (GPa) = 35.53418 43.56328 39.54873
# Shear Modulus (GPa) = 16.55536 18.66091 17.60813
#
# Velocity S-wave (km/s) = 2.97138 3.15468 3.06440
# Velocity P-wave (km/s) = 5.54281 6.04169 5.79762
#
# Compressibility (1/GPa) = 0.02814192
#
# Stress axis : x y z
#
# Youngs Moduli (GPa) = 27.18156 38.48079 54.60169
#
# Poissons Ratio (x) = 0.38291 0.35381
# Poissons Ratio (y) = 0.27048 0.54842
# Poissons Ratio (z) = 0.17613 0.38650
#
# Static dielectric constant tensor:
#      x y z
#    x 1.644350 0.000000 0.000000 
#    y 0.000000 1.916470 0.000000 
#    z 0.000000 0.000000 1.604530 
# 
# From -- ./inp_files/20879.got.cif
#   From: 2010.05.17/outbox.cif.g08.bks.cpg/sg53_11_cif.got.tgz:20879.got - 2010.06.03 12:45:16.
