data_PCOD9415969
_publ_section_title
;
Structure prediction by ZEFSAII (Michael W. Deem and Ramdas Pophale) SiO2 
 PCOD9415969
Probable space group: P M N A
;
_chemical_formula_sum "Si O2"
_cell_formula_units_Z 40
_cell_length_a 8.322408
_cell_length_b 9.442749
_cell_length_c 26.500747
_cell_angle_alpha 90.000000
_cell_angle_beta 90.000000
_cell_angle_gamma 90.000000
_cell_volume 2082.598564
_symmetry_space_group_name_H-M "P M N A"
_symmetry_group_IT_number 53
_symmetry_cell_setting 'orthorhombic'
loop_
_space_group_symop_operation_xyz
x,y,z
1/2-x,-y,1/2+z
x,-y,-z
1/2-x,y,1/2-z
-x,-y,-z
1/2+x,y,1/2-z
-x,y,z
1/2+x,-y,1/2+z
loop_
_atom_site_type_symbol
_atom_site_label
_atom_site_fract_x
_atom_site_fract_y
_atom_site_fract_z
Si Si1 0.192416 0.341545 0.694385
Si Si2 0.803500 0.162813 0.598145
Si Si3 0.303548 0.336792 0.000677
Si Si4 0.690852 0.662919 0.694333
Si Si5 0.305864 0.837608 0.901144
O O1 0.250000 0.298025 0.750000
O O2 0.249055 0.239723 0.649527
O O3 0.248738 0.502502 0.685332
O O4 0.000000 0.342041 0.694371
O O5 0.752937 0.252584 0.549349
O O6 0.000000 0.162622 0.598172
O O7 0.750727 0.000091 0.595364
O O8 0.500000 0.337480 0.000877
O O9 0.250787 0.254683 0.050937
O O10 0.251110 0.500000 0.000000
O O11 0.750000 0.705964 0.750000
O O12 0.500000 0.661650 0.694383
O O13 0.753446 0.764351 0.650538
O O14 0.500000 0.838896 0.902488
#
# Coordination Sequence:
#
# PCOD9415969 Si02
#       5
#     8   8   8   8   8
#     4  10  19  34  55  78 105 136 176 220 264 313
#     4   9  18  31  51  81 111 141 177 218 263 313
#     4   9  16  28  51  81 109 139 178 220 259 305
#     4  11  22  37  56  78 105 138 179 220 264 315
#     4  10  19  33  54  80 111 142 175 218 266 313
#
# _framework density 19.206775
#
# number of rings (size 3 to 8) (size 9 to 14) (size 15 to 20)
#    0.000    2.200    0.000    5.400    0.000    6.400 
#    0.000    4.000    0.000    9.000    0.000    0.000 
#    0.000    0.000    0.000    0.000    0.000    0.000 
#
# Total GULP energy -223396.989823 kJ/mol
# GULP energy per Si atom -5584.924746 kJ/mol
# Density = 1.916306 g / cm^3
# Si number density = 19.206775 Si / 1000 Ang^3
#
#
#
# Elastic Constant Matrix: (Units=GPa)
#
#
# Indices 1 2 3 4 5 6 
#
# 1 23.7848 20.9383 17.9248 0.0000 0.0000 0.0000
# 2 20.9383 187.1489 152.5672 0.0000 0.0000 0.0000
# 3 17.9248 152.5672 202.7067 0.0000 0.0000 0.0000
# 4 0.0000 0.0000 0.0000 5.8448 0.0000 0.0000
# 5 0.0000 0.0000 0.0000 0.0000 25.0582 0.0000
# 6 0.0000 0.0000 0.0000 0.0000 0.0000 14.8766
#
#
#
# Elastic Compliance Matrix: (Units=1/GPa)
#
#
# Indices 1 2 3 4 5 6 
#
# 1 0.046657 -0.004805 -0.000510 0.000000 0.000000 0.000000
# 2 -0.004805 0.014322 -0.010355 0.000000 0.000000 0.000000
# 3 -0.000510 -0.010355 0.012772 0.000000 0.000000 0.000000
# 4 0.000000 0.000000 0.000000 0.171092 0.000000 0.000000
# 5 0.000000 0.000000 0.000000 0.000000 0.039907 0.000000
# 6 0.000000 0.000000 0.000000 0.000000 0.000000 0.067220
#
#
# Mechanical properties :
#
#
# Convention : Reuss Voigt Hill
#
# Bulk Modulus (GPa) = 23.57741 88.50012 56.03877
# Shear Modulus (GPa) = 12.58030 23.96992 18.27511
#
# Velocity S-wave (km/s) = 2.56206 3.53653 3.08797
# Velocity P-wave (km/s) = 4.58851 7.92803 6.47719
#
# Compressibility (1/GPa) = 0.04241347
#
# Stress axis : x y z
#
# Youngs Moduli (GPa) = 21.43284 69.82093 78.29698
#
# Poissons Ratio (x) = 0.33546 0.03990
# Poissons Ratio (y) = 0.10298 0.81075
# Poissons Ratio (z) = 0.01092 0.72299
#
# Static dielectric constant tensor:
#      x y z
#    x 1.672660 0.000000 0.000000 
#    y 0.000000 1.646500 0.000000 
#    z 0.000000 0.000000 1.656770 
# 
# From -- ./inp_files/33637.got.cif
#   From: 2010.05.17/outbox.cif.g08.bks.cpg/sg53_17_cif.got.tgz:33637.got - 2010.06.03 12:45:16.
