data_PCOD9415323
_publ_section_title
;
Structure prediction by ZEFSAII (Michael W. Deem and Ramdas Pophale) SiO2 
 PCOD9415323
Probable space group: P M N A
;
_chemical_formula_sum "Si O2"
_cell_formula_units_Z 64
_cell_length_a 7.655675
_cell_length_b 23.743145
_cell_length_c 18.171053
_cell_angle_alpha 90.000000
_cell_angle_beta 90.000000
_cell_angle_gamma 90.000000
_cell_volume 3302.948699
_symmetry_space_group_name_H-M "P M N A"
_symmetry_group_IT_number 53
_symmetry_cell_setting 'orthorhombic'
loop_
_space_group_symop_operation_xyz
x,y,z
1/2-x,-y,1/2+z
x,-y,-z
1/2-x,y,1/2-z
-x,-y,-z
1/2+x,y,1/2-z
-x,y,z
1/2+x,-y,1/2+z
loop_
_atom_site_type_symbol
_atom_site_label
_atom_site_fract_x
_atom_site_fract_y
_atom_site_fract_z
Si Si1 0.289778 0.431554 0.164409
Si Si2 0.286487 0.924592 0.627108
Si Si3 0.299578 0.464199 0.924017
Si Si4 0.294236 0.884409 0.469457
Si Si5 0.784294 0.636092 0.519098
Si Si6 0.709737 0.047935 0.668872
Si Si7 0.292312 0.197605 0.329167
Si Si8 0.800758 0.761171 0.514495
O O1 0.250000 0.419492 0.250000
O O2 0.500000 0.433298 0.158488
O O3 0.223337 0.493319 0.136913
O O4 0.231959 0.387711 0.100165
O O5 0.500000 0.925430 0.628158
O O6 0.225995 0.914382 0.543276
O O7 0.232121 0.867715 0.668636
O O8 0.224128 0.983866 0.658381
O O9 0.500000 0.452581 0.901471
O O10 0.305416 0.500000 0.000000
O O11 0.223378 0.405813 0.954113
O O12 0.500000 0.896418 0.470017
O O13 0.221790 0.911885 0.395635
O O14 0.276394 0.817364 0.478319
O O15 0.723049 0.699379 0.504000
O O16 0.000000 0.635611 0.519190
O O17 0.750000 0.068768 0.750000
O O18 0.500000 0.045231 0.662807
O O19 0.250000 0.222433 0.250000
O O20 0.500000 0.198515 0.341560
O O21 0.206645 0.228114 0.397857
O O22 0.000000 0.759183 0.489479
#
# Coordination Sequence:
#
# PCOD9415323 Si02
#       8
#     8   8   8   8   8   8   8   8
#     4   9  16  27  45  69  96 120 143 176 220 266
#     4   8  15  29  49  69  88 115 150 186 227 278
#     4   7  11  23  44  65  84 111 147 180 208 246
#     4   9  18  33  50  67  91 123 155 187 229 279
#     4   8  15  28  46  67  87 115 155 189 216 254
#     4  10  19  31  49  71  93 116 146 188 236 284
#     4  10  19  31  46  65  93 125 155 186 225 273
#     4  10  19  31  48  68  90 118 157 197 227 262
#
# _framework density 19.376626000000002
#
# number of rings (size 3 to 8) (size 9 to 14) (size 15 to 20)
#    0.000    3.125    0.000    3.750    0.000    2.500 
#    0.000    5.000    0.000    9.375    0.000    3.500 
#    0.000    0.000    0.000    0.000    0.000    0.000 
#
# Total GULP energy -356460.640912 kJ/mol
# GULP energy per Si atom -5569.697514 kJ/mol
# Density = 1.933252 g / cm^3
# Si number density = 19.376626 Si / 1000 Ang^3
#
#
#
# Elastic Constant Matrix: (Units=GPa)
#
#
# Indices 1 2 3 4 5 6 
#
# 1 33.8591 -8.6683 -5.1080 0.0000 0.0000 0.0000
# 2 -8.6683 55.1971 9.3245 0.0000 0.0000 0.0000
# 3 -5.1080 9.3245 52.0992 0.0000 0.0000 0.0000
# 4 0.0000 0.0000 0.0000 8.1437 0.0000 0.0000
# 5 0.0000 0.0000 0.0000 0.0000 9.5306 0.0000
# 6 0.0000 0.0000 0.0000 0.0000 0.0000 7.3254
#
#
#
# Elastic Compliance Matrix: (Units=1/GPa)
#
#
# Indices 1 2 3 4 5 6 
#
# 1 0.031022 0.004494 0.002237 0.000000 0.000000 0.000000
# 2 0.004494 0.019333 -0.003019 0.000000 0.000000 0.000000
# 3 0.002237 -0.003019 0.019954 0.000000 0.000000 0.000000
# 4 0.000000 0.000000 0.000000 0.122795 0.000000 0.000000
# 5 0.000000 0.000000 0.000000 0.000000 0.104925 0.000000
# 6 0.000000 0.000000 0.000000 0.000000 0.000000 0.136512
#
#
# Mechanical properties :
#
#
# Convention : Reuss Voigt Hill
#
# Bulk Modulus (GPa) = 12.86470 14.69463 13.77967
# Shear Modulus (GPa) = 11.03683 14.70707 12.87195
#
# Velocity S-wave (km/s) = 2.38921 2.75800 2.58020
# Velocity P-wave (km/s) = 3.77688 4.21216 4.00044
#
# Compressibility (1/GPa) = 0.07773209
#
# Stress axis : x y z
#
# Youngs Moduli (GPa) = 32.23500 51.72583 50.11543
#
# Poissons Ratio (x) = -0.23245 -0.11212
# Poissons Ratio (y) = -0.14486 0.15132
# Poissons Ratio (z) = -0.07212 0.15619
#
# Static dielectric constant tensor:
#      x y z
#    x 1.742870 0.000000 0.000000 
#    y 0.000000 1.705080 0.000000 
#    z 0.000000 0.000000 1.679910 
# 
# From -- ./inp_files/27043.got.cif
#   From: 2010.05.17/outbox.cif.g08.bks.cpg/sg53_14_cif.got.tgz:27043.got - 2010.06.03 12:45:16.
