data_PCOD9415983
_publ_section_title
;
Structure prediction by ZEFSAII (Michael W. Deem and Ramdas Pophale) SiO2 
 PCOD9415983
Probable space group: P M N A
;
_chemical_formula_sum "Si O2"
_cell_formula_units_Z 56
_cell_length_a 8.967584
_cell_length_b 22.080432
_cell_length_c 14.587548
_cell_angle_alpha 90.000000
_cell_angle_beta 90.000000
_cell_angle_gamma 90.000000
_cell_volume 2888.453082
_symmetry_space_group_name_H-M "P M N A"
_symmetry_group_IT_number 53
_symmetry_cell_setting 'orthorhombic'
loop_
_space_group_symop_operation_xyz
x,y,z
1/2-x,-y,1/2+z
x,-y,-z
1/2-x,y,1/2-z
-x,-y,-z
1/2+x,y,1/2-z
-x,y,z
1/2+x,-y,1/2+z
loop_
_atom_site_type_symbol
_atom_site_label
_atom_site_fract_x
_atom_site_fract_y
_atom_site_fract_z
Si Si1 0.325291 0.886004 0.654088
Si Si2 0.677198 0.602786 0.657960
Si Si3 0.322756 0.637001 0.452941
Si Si4 0.168182 0.518879 0.393015
Si Si5 0.325102 0.968102 0.346480
Si Si6 0.322157 0.130231 0.965071
Si Si7 0.322147 0.237511 0.650678
O O1 0.250000 0.868482 0.750000
O O2 0.500000 0.870244 0.652427
O O3 0.240236 0.859697 0.566915
O O4 0.313945 0.959316 0.646499
O O5 0.750000 0.629168 0.750000
O O6 0.500000 0.605984 0.665655
O O7 0.722217 0.632597 0.560408
O O8 0.730425 0.533005 0.650545
O O9 0.500000 0.623606 0.449788
O O10 0.238410 0.585425 0.395085
O O11 0.297254 0.702520 0.410127
O O12 0.160162 0.500000 0.500000
O O13 0.000000 0.518098 0.355206
O O14 0.250000 0.950145 0.250000
O O15 0.500000 0.951932 0.347612
O O16 0.240542 0.933366 0.426783
O O17 0.500000 0.130435 0.963808
O O18 0.254815 0.180994 0.898669
O O19 0.250000 0.245994 0.750000
O O20 0.500000 0.227562 0.658430
#
# Coordination Sequence:
#
# PCOD9415983 Si02
#       7
#     8   8   8   8   8   8   8
#     4  10  21  38  60  87 118 151 188 231 281 336
#     4  10  19  33  54  82 114 147 184 225 274 330
#     4   9  20  38  58  79 109 149 187 230 282 334
#     4   9  17  30  51  79 110 144 181 223 270 322
#     4  10  20  35  57  86 119 153 189 232 282 336
#     4  12  24  38  58  84 115 152 192 234 282 334
#     4  11  24  43  63  83 109 143 187 236 286 338
#
# _framework density 19.387540000000001
#
# number of rings (size 3 to 8) (size 9 to 14) (size 15 to 20)
#    0.000    1.857    0.000    4.286    0.000    7.429 
#    0.000    2.143    0.000    1.714    0.000    0.000 
#    0.000    0.000    0.000    0.000    0.000    0.000 
#
# Total GULP energy -312893.149953 kJ/mol
# GULP energy per Si atom -5587.377678 kJ/mol
# Density = 1.934341 g / cm^3
# Si number density = 19.387540 Si / 1000 Ang^3
#
#
#
# Elastic Constant Matrix: (Units=GPa)
#
#
# Indices 1 2 3 4 5 6 
#
# 1 120.8209 33.9608 58.3321 0.0000 0.0000 0.0000
# 2 33.9608 31.5551 22.0562 0.0000 0.0000 0.0000
# 3 58.3321 22.0562 136.7459 0.0000 0.0000 0.0000
# 4 0.0000 0.0000 0.0000 19.7144 0.0000 0.0000
# 5 0.0000 0.0000 0.0000 0.0000 35.6507 0.0000
# 6 0.0000 0.0000 0.0000 0.0000 0.0000 6.4901
#
#
#
# Elastic Compliance Matrix: (Units=1/GPa)
#
#
# Indices 1 2 3 4 5 6 
#
# 1 0.013440 -0.011786 -0.003832 0.000000 0.000000 0.000000
# 2 -0.011786 0.046053 -0.002401 0.000000 0.000000 0.000000
# 3 -0.003832 -0.002401 0.009335 0.000000 0.000000 0.000000
# 4 0.000000 0.000000 0.000000 0.050724 0.000000 0.000000
# 5 0.000000 0.000000 0.000000 0.000000 0.028050 0.000000
# 6 0.000000 0.000000 0.000000 0.000000 0.000000 0.154080
#
#
# Mechanical properties :
#
#
# Convention : Reuss Voigt Hill
#
# Bulk Modulus (GPa) = 30.49663 57.53558 44.01610
# Shear Modulus (GPa) = 14.34109 24.02256 19.18182
#
# Velocity S-wave (km/s) = 2.72271 3.52386 3.14887
# Velocity P-wave (km/s) = 5.06442 6.80425 5.99776
#
# Compressibility (1/GPa) = 0.03279051
#
# Stress axis : x y z
#
# Youngs Moduli (GPa) = 74.40709 21.71419 107.12769
#
# Poissons Ratio (x) = 0.25592 0.41051
# Poissons Ratio (y) = 0.87694 0.25716
# Poissons Ratio (z) = 0.28513 0.05213
#
# Static dielectric constant tensor:
#      x y z
#    x 1.653070 0.000000 0.000000 
#    y 0.000000 1.659400 0.000000 
#    z 0.000000 0.000000 1.697440 
# 
# From -- ./inp_files/20525.got.cif
#   From: 2010.05.17/outbox.cif.g08.bks.cpg/sg53_11_cif.got.tgz:20525.got - 2010.06.03 12:45:16.
