data_PCOD9415909
_publ_section_title
;
Structure prediction by ZEFSAII (Michael W. Deem and Ramdas Pophale) SiO2 
 PCOD9415909
Probable space group: P M N A
;
_chemical_formula_sum "Si O2"
_cell_formula_units_Z 64
_cell_length_a 14.823880
_cell_length_b 21.725422
_cell_length_c 9.173575
_cell_angle_alpha 90.000000
_cell_angle_beta 90.000000
_cell_angle_gamma 90.000000
_cell_volume 2954.396143
_symmetry_space_group_name_H-M "P M N A"
_symmetry_group_IT_number 53
_symmetry_cell_setting 'orthorhombic'
loop_
_space_group_symop_operation_xyz
x,y,z
1/2-x,-y,1/2+z
x,-y,-z
1/2-x,y,1/2-z
-x,-y,-z
1/2+x,y,1/2-z
-x,y,z
1/2+x,-y,1/2+z
loop_
_atom_site_type_symbol
_atom_site_label
_atom_site_fract_x
_atom_site_fract_y
_atom_site_fract_z
Si Si1 0.110671 0.623709 0.666864
Si Si2 0.894305 0.743371 0.837441
Si Si3 0.894305 0.256629 0.837441
Si Si4 0.389763 0.500000 0.666747
Si Si5 0.652142 0.133437 0.824809
Si Si6 0.889329 0.623709 0.333136
Si Si7 0.347932 1.000000 0.174532
Si Si8 0.847858 0.866563 0.675191
O O1 0.142382 0.684806 0.750414
O O2 0.137818 0.561773 0.749937
O O3 0.141189 0.623615 0.500000
O O4 0.000000 0.624231 0.664312
O O5 0.889112 0.806013 0.746096
O O6 0.000000 0.730211 0.854668
O O7 0.854355 0.750709 1.000000
O O8 0.889112 0.193987 0.746096
O O9 0.857618 0.315194 0.750414
O O10 0.000000 0.269789 0.854668
O O11 0.358722 0.500000 0.500000
O O12 0.500000 0.500000 0.664618
O O13 0.362182 0.438227 0.750063
O O14 0.750000 0.130719 0.750000
O O15 0.608723 0.066332 0.790920
O O16 0.656370 0.139760 0.000000
O O17 0.000000 0.624231 0.335688
O O18 0.250000 1.000000 0.250000
O O19 0.391277 0.066332 0.209080
O O20 0.334586 0.000000 0.000000
O O21 0.750000 0.869280 0.750000
#
# Coordination Sequence:
#
# PCOD9415909 Si02
#       8
#     8   8   8   8   8   8   8   8
#     4   9  16  26  41  62  89 122 159 198 240 285
#     4  10  20  33  48  69  99 132 164 200 244 291
#     4  10  20  33  48  69  99 132 164 200 244 291
#     4   9  15  23  37  59  88 121 156 195 238 283
#     4  10  19  33  53  75  98 125 160 200 242 289
#     4   9  16  26  41  62  89 122 159 198 240 285
#     4   8  16  30  49  72  95 121 155 197 241 284
#     4  10  19  33  53  75  98 125 160 200 242 289
#
# _framework density 21.662633
#
# number of rings (size 3 to 8) (size 9 to 14) (size 15 to 20)
#    0.000    2.625    0.000    2.625    0.000    7.000 
#    0.000    0.625    0.000    3.750    0.000    0.875 
#    0.000    0.000    0.000    0.000    0.000    0.000 
#
# Total GULP energy -357061.045178 kJ/mol
# GULP energy per Si atom -5579.078831 kJ/mol
# Density = 2.161333 g / cm^3
# Si number density = 21.662633 Si / 1000 Ang^3
#
#
#
# Elastic Constant Matrix: (Units=GPa)
#
#
# Indices 1 2 3 4 5 6 
#
# 1 41.0856 7.9527 9.8060 0.0000 0.0000 0.0000
# 2 7.9527 251.8202 130.8880 0.0000 0.0000 0.0000
# 3 9.8060 130.8880 184.7675 0.0000 0.0000 0.0000
# 4 0.0000 0.0000 0.0000 38.0351 0.0000 0.0000
# 5 0.0000 0.0000 0.0000 0.0000 11.8811 0.0000
# 6 0.0000 0.0000 0.0000 0.0000 0.0000 -0.0252
#
#
#
# Elastic Compliance Matrix: (Units=1/GPa)
#
#
# Indices 1 2 3 4 5 6 
#
# 1 0.024656 -0.000156 -0.001198 0.000000 0.000000 0.000000
# 2 -0.000156 0.006286 -0.004445 0.000000 0.000000 0.000000
# 3 -0.001198 -0.004445 0.008625 0.000000 0.000000 0.000000
# 4 0.000000 0.000000 0.000000 0.026292 0.000000 0.000000
# 5 0.000000 0.000000 0.000000 0.000000 0.084167 0.000000
# 6 0.000000 0.000000 0.000000 0.000000 0.000000-39.741154
#
#
# Mechanical properties :
#
#
# Convention : Reuss Voigt Hill
#
# Bulk Modulus (GPa) = 35.75434 86.10739 60.93087
# Shear Modulus (GPa) = -0.12636 31.91330 15.89347
#
# Velocity S-wave (km/s) = -0.24178 3.84239 2.71159
# Velocity P-wave (km/s) = 4.05746 7.71497 6.16376
#
# Compressibility (1/GPa) = 0.02796863
#
# Stress axis : x y z
#
# Youngs Moduli (GPa) = 40.55877 159.07509 115.94813
#
# Poissons Ratio (x) = 0.02480 0.13891
# Poissons Ratio (y) = 0.00632 0.51538
# Poissons Ratio (z) = 0.04859 0.70708
#
# Static dielectric constant tensor:
#      x y z
#    x 1.888800 0.000000 0.000000 
#    y 0.000000 1.797940 0.000000 
#    z 0.000000 0.000000 1.754580 
# 
# From -- ./inp_files/11244.got.cif
#   From: 2010.05.17/outbox.cif.g08.bks.cpg/sg53_6_cif.got.tgz:11244.got - 2010.06.03 12:45:16.
