data_PCOD9415304
_publ_section_title
;
Structure prediction by ZEFSAII (Michael W. Deem and Ramdas Pophale) SiO2 
 PCOD9415304
Probable space group: P M N A
;
_chemical_formula_sum "Si O2"
_cell_formula_units_Z 64
_cell_length_a 9.158590
_cell_length_b 21.857026
_cell_length_c 18.798078
_cell_angle_alpha 90.000000
_cell_angle_beta 90.000000
_cell_angle_gamma 90.000000
_cell_volume 3762.990602
_symmetry_space_group_name_H-M "P M N A"
_symmetry_group_IT_number 53
_symmetry_cell_setting 'orthorhombic'
loop_
_space_group_symop_operation_xyz
x,y,z
1/2-x,-y,1/2+z
x,-y,-z
1/2-x,y,1/2-z
-x,-y,-z
1/2+x,y,1/2-z
-x,y,z
1/2+x,-y,1/2+z
loop_
_atom_site_type_symbol
_atom_site_label
_atom_site_fract_x
_atom_site_fract_y
_atom_site_fract_z
Si Si1 0.166572 0.766248 0.135770
Si Si2 0.171708 0.695490 0.571622
Si Si3 0.325310 0.068460 0.976946
Si Si4 0.166653 0.186663 0.027810
Si Si5 0.826345 0.478373 0.920149
Si Si6 0.828718 0.649131 0.408208
Si Si7 0.825857 0.401372 0.173616
Si Si8 0.673406 0.113233 0.819044
O O1 0.241688 0.700175 0.136277
O O2 0.262785 0.818428 0.172147
O O3 0.000000 0.765242 0.162430
O O4 0.162065 0.787145 0.052978
O O5 0.239962 0.763311 0.570273
O O6 0.186496 0.667915 0.491668
O O7 0.257791 0.651926 0.625188
O O8 0.000000 0.697221 0.588450
O O9 0.500000 0.076853 0.986108
O O10 0.293412 0.079327 0.893336
O O11 0.242096 0.120727 0.021006
O O12 0.286648 0.000000 0.000000
O O13 0.000000 0.182651 0.053407
O O14 0.738499 0.417889 0.899822
O O15 0.799759 0.534473 0.866993
O O16 0.000000 0.464532 0.920698
O O17 0.786564 0.500000 0.000000
O O18 0.000000 0.650590 0.390872
O O19 0.750000 0.401812 0.250000
O O20 0.000000 0.393177 0.180037
O O21 0.750000 0.085121 0.750000
O O22 0.500000 0.115016 0.809767
#
# Coordination Sequence:
#
# PCOD9415304 Si02
#       8
#     8   8   8   8   8   8   8   8
#     4   9  17  30  48  71 101 133 167 208 255 305
#     4  10  19  32  52  77 103 132 168 212 262 313
#     4   9  18  33  53  78 109 144 181 221 263 309
#     4   9  17  29  49  77 105 132 166 211 258 302
#     4  10  20  35  54  75 101 135 177 222 268 321
#     4  10  19  30  50  78 104 129 167 218 263 309
#     4  11  23  38  55  75 103 136 172 218 272 328
#     4  10  19  32  51  75 105 139 177 217 261 314
#
# _framework density 17.007750000000001
#
# number of rings (size 3 to 8) (size 9 to 14) (size 15 to 20)
#    0.000    2.250    1.250    2.250    0.000    6.000 
#    0.000    0.625    0.000    2.250    0.000    3.500 
#    0.000    0.000    0.000    0.000    0.000    0.000 
#
# Total GULP energy -357094.758905 kJ/mol
# GULP energy per Si atom -5579.605608 kJ/mol
# Density = 1.696904 g / cm^3
# Si number density = 17.007750 Si / 1000 Ang^3
#
#
#
# Elastic Constant Matrix: (Units=GPa)
#
#
# Indices 1 2 3 4 5 6 
#
# 1 107.5749 82.6455 50.2353 0.0000 0.0000 0.0000
# 2 82.6455 147.1473 42.1041 0.0000 0.0000 0.0000
# 3 50.2353 42.1041 58.9649 0.0000 0.0000 0.0000
# 4 0.0000 0.0000 0.0000 10.6664 0.0000 0.0000
# 5 0.0000 0.0000 0.0000 0.0000 21.1182 0.0000
# 6 0.0000 0.0000 0.0000 0.0000 0.0000 27.7519
#
#
#
# Elastic Compliance Matrix: (Units=1/GPa)
#
#
# Indices 1 2 3 4 5 6 
#
# 1 0.021697 -0.008668 -0.012295 0.000000 0.000000 0.000000
# 2 -0.008668 0.012004 -0.001187 0.000000 0.000000 0.000000
# 3 -0.012295 -0.001187 0.028282 0.000000 0.000000 0.000000
# 4 0.000000 0.000000 0.000000 0.093752 0.000000 0.000000
# 5 0.000000 0.000000 0.000000 0.000000 0.047352 0.000000
# 6 0.000000 0.000000 0.000000 0.000000 0.000000 0.036034
#
#
# Mechanical properties :
#
#
# Convention : Reuss Voigt Hill
#
# Bulk Modulus (GPa) = 56.55343 73.73966 65.14655
# Shear Modulus (GPa) = 17.28228 21.15413 19.21820
#
# Velocity S-wave (km/s) = 3.19116 3.53057 3.36515
# Velocity P-wave (km/s) = 6.84848 7.75052 7.31342
#
# Compressibility (1/GPa) = 0.01768239
#
# Stress axis : x y z
#
# Youngs Moduli (GPa) = 46.09017 83.30702 35.35878
#
# Poissons Ratio (x) = 0.72209 0.43474
# Poissons Ratio (y) = 0.39950 0.04196
# Poissons Ratio (z) = 0.56669 0.09886
#
# Static dielectric constant tensor:
#      x y z
#    x 1.570600 0.000000 0.000000 
#    y 0.000000 1.545750 0.000000 
#    z 0.000000 0.000000 1.576730 
# 
# From -- ./inp_files/26778.got.cif
#   From: 2010.05.17/outbox.cif.g08.bks.cpg/sg53_14_cif.got.tgz:26778.got - 2010.06.03 12:45:16.
