data_PCOD9415543
_publ_section_title
;
Structure prediction by ZEFSAII (Michael W. Deem and Ramdas Pophale) SiO2 
 PCOD9415543
Probable space group: P M N A
;
_chemical_formula_sum "Si O2"
_cell_formula_units_Z 56
_cell_length_a 20.557813
_cell_length_b 9.578797
_cell_length_c 15.329617
_cell_angle_alpha 90.000000
_cell_angle_beta 90.000000
_cell_angle_gamma 90.000000
_cell_volume 3018.694651
_symmetry_space_group_name_H-M "P M N A"
_symmetry_group_IT_number 53
_symmetry_cell_setting 'orthorhombic'
loop_
_space_group_symop_operation_xyz
x,y,z
1/2-x,-y,1/2+z
x,-y,-z
1/2-x,y,1/2-z
-x,-y,-z
1/2+x,y,1/2-z
-x,y,z
1/2+x,-y,1/2+z
loop_
_atom_site_type_symbol
_atom_site_label
_atom_site_fract_x
_atom_site_fract_y
_atom_site_fract_z
Si Si1 0.711814 0.420758 0.586076
Si Si2 0.276409 0.934971 0.595571
Si Si3 0.358066 0.346043 0.982483
Si Si4 0.575673 0.861294 0.153245
Si Si5 0.819468 0.819875 0.201732
Si Si6 0.813521 0.689705 0.807812
Si Si7 0.138124 0.154374 0.347939
O O1 0.688315 0.500000 0.500000
O O2 0.787579 0.378795 0.563787
O O3 0.677816 0.282279 0.619431
O O4 0.695499 0.530350 0.663866
O O5 0.305325 0.780624 0.604412
O O6 0.204674 0.933755 0.637284
O O7 0.273501 0.000000 0.500000
O O8 0.318148 0.027374 0.660782
O O9 0.398125 0.235761 0.925220
O O10 0.387086 0.500000 0.000000
O O11 0.353862 0.269172 0.075693
O O12 0.500000 0.835374 0.167357
O O13 0.620901 0.812365 0.233124
O O14 0.586514 0.029032 0.140747
O O15 0.750000 0.792277 0.250000
O O16 0.750000 0.719220 0.750000
O O17 0.866778 0.756768 0.742297
#
# Coordination Sequence:
#
# PCOD9415543 Si02
#       7
#     8   8   8   8   8   8   8
#     4  11  21  34  58  98 128 153 198 261 321 384
#     4  11  18  31  56  89 120 150 194 254 312 369
#     4  11  23  38  62  95 132 166 208 256 314 388
#     4  12  26  43  62  90 128 176 222 259 308 376
#     4  12  20  37  62  90 121 160 206 259 321 368
#     4  10  19  31  52  87 124 154 191 250 316 361
#     4  11  21  38  59  90 125 168 207 254 312 377
#
# _framework density 18.551064
#
# number of rings (size 3 to 8) (size 9 to 14) (size 15 to 20)
#    0.000    0.857    4.286    7.286    2.000    1.429 
#    0.000    0.000    0.000    0.857    0.000    0.000 
#    0.000    0.000    0.000    0.000    0.000    0.000 
#
# Total GULP energy -311891.100574 kJ/mol
# GULP energy per Si atom -5569.483939 kJ/mol
# Density = 1.850884 g / cm^3
# Si number density = 18.551064 Si / 1000 Ang^3
#
#
#
# Elastic Constant Matrix: (Units=GPa)
#
#
# Indices 1 2 3 4 5 6 
#
# 1 58.0928 29.0993 30.3807 0.0000 0.0000 0.0000
# 2 29.0993 95.5844 22.8870 0.0000 0.0000 0.0000
# 3 30.3807 22.8870 84.6107 0.0000 0.0000 0.0000
# 4 0.0000 0.0000 0.0000 46.8282 0.0000 0.0000
# 5 0.0000 0.0000 0.0000 0.0000 10.5072 0.0000
# 6 0.0000 0.0000 0.0000 0.0000 0.0000 10.6984
#
#
#
# Elastic Compliance Matrix: (Units=1/GPa)
#
#
# Indices 1 2 3 4 5 6 
#
# 1 0.023637 -0.005521 -0.006994 0.000000 0.000000 0.000000
# 2 -0.005521 0.012476 -0.001392 0.000000 0.000000 0.000000
# 3 -0.006994 -0.001392 0.014707 0.000000 0.000000 0.000000
# 4 0.000000 0.000000 0.000000 0.021355 0.000000 0.000000
# 5 0.000000 0.000000 0.000000 0.000000 0.095173 0.000000
# 6 0.000000 0.000000 0.000000 0.000000 0.000000 0.093472
#
#
# Mechanical properties :
#
#
# Convention : Reuss Voigt Hill
#
# Bulk Modulus (GPa) = 43.46840 44.78023 44.12432
# Shear Modulus (GPa) = 16.87465 24.00148 20.43807
#
# Velocity S-wave (km/s) = 3.01928 3.60085 3.32282
# Velocity P-wave (km/s) = 5.96971 6.44046 6.20954
#
# Compressibility (1/GPa) = 0.02300522
#
# Stress axis : x y z
#
# Youngs Moduli (GPa) = 42.30648 80.15244 67.99654
#
# Poissons Ratio (x) = 0.44255 0.47555
# Poissons Ratio (y) = 0.23359 0.09467
# Poissons Ratio (z) = 0.29588 0.11159
#
# Static dielectric constant tensor:
#      x y z
#    x 1.627890 0.000000 0.000000 
#    y 0.000000 1.712790 0.000000 
#    z 0.000000 0.000000 1.722570 
# 
# From -- ./inp_files/24311.got.cif
#   From: 2010.05.17/outbox.cif.g08.bks.cpg/sg53_13_cif.got.tgz:24311.got - 2010.06.03 12:45:16.
