data_PCOD9415292
_publ_section_title
;
Structure prediction by ZEFSAII (Michael W. Deem and Ramdas Pophale) SiO2 
 PCOD9415292
Probable space group: P M N A
;
_chemical_formula_sum "Si O2"
_cell_formula_units_Z 48
_cell_length_a 21.887570
_cell_length_b 16.421424
_cell_length_c 5.808436
_cell_angle_alpha 90.000000
_cell_angle_beta 90.000000
_cell_angle_gamma 90.000000
_cell_volume 2087.697500
_symmetry_space_group_name_H-M "P M N A"
_symmetry_group_IT_number 53
_symmetry_cell_setting 'orthorhombic'
loop_
_space_group_symop_operation_xyz
x,y,z
1/2-x,-y,1/2+z
x,-y,-z
1/2-x,y,1/2-z
-x,-y,-z
1/2+x,y,1/2-z
-x,y,z
1/2+x,-y,1/2+z
loop_
_atom_site_type_symbol
_atom_site_label
_atom_site_fract_x
_atom_site_fract_y
_atom_site_fract_z
Si Si1 0.120134 0.181714 0.362001
Si Si2 0.682723 0.086151 0.497278
Si Si3 0.185311 0.738213 0.252323
Si Si4 0.571515 0.470667 0.248898
Si Si5 0.931413 0.302580 0.026933
Si Si6 0.934899 0.068303 0.697045
O O1 0.162978 0.110899 0.259541
O O2 0.165755 0.242857 0.487271
O O3 0.080370 0.218283 0.158366
O O4 0.075039 0.151293 0.558329
O O5 0.697886 0.174713 0.614484
O O6 0.622595 0.063164 0.641583
O O7 0.719655 0.000000 0.500000
O O8 0.250000 0.693588 0.250000
O O9 0.127029 0.693672 0.140059
O O10 0.596576 0.500000 0.500000
O O11 0.500000 0.498029 0.248595
O O12 0.572440 0.373467 0.281552
O O13 0.596630 0.500000 0.000000
O O14 0.000000 0.306584 0.925693
O O15 0.000000 0.067076 0.818069
O O16 0.934656 0.000000 0.500000
#
# Coordination Sequence:
#
# PCOD9415292 Si02
#       6
#     8   8   8   8   8   8
#     4  10  21  36  58  79 117 155 210 266 331 398
#     4  10  20  36  51  76 110 151 213 277 331 385
#     4  10  24  42  59  89 123 170 218 267 331 403
#     4   9  19  36  62 100 142 175 211 262 326 392
#     4  10  22  38  64  98 130 169 215 273 331 396
#     4  10  19  30  49  75 111 154 198 255 328 398
#
# _framework density 22.991834999999998
#
# number of rings (size 3 to 8) (size 9 to 14) (size 15 to 20)
#    0.000    2.167    1.667    0.500    2.333   10.333 
#    3.000    0.000    0.000    0.000    4.333    0.000 
#    0.000    0.000    0.000    0.000    0.000    0.000 
#
# Total GULP energy -267497.216685 kJ/mol
# GULP energy per Si atom -5572.858681 kJ/mol
# Density = 2.293950 g / cm^3
# Si number density = 22.991835 Si / 1000 Ang^3
#
#
#
# Elastic Constant Matrix: (Units=GPa)
#
#
# Indices 1 2 3 4 5 6 
#
# 1 127.0445 6.3539 37.2474 0.0000 0.0000 0.0000
# 2 6.3539 55.1871 9.2428 0.0000 0.0000 0.0000
# 3 37.2474 9.2428 97.0937 0.0000 0.0000 0.0000
# 4 0.0000 0.0000 0.0000 34.9916 0.0000 0.0000
# 5 0.0000 0.0000 0.0000 0.0000 -2.6549 0.0000
# 6 0.0000 0.0000 0.0000 0.0000 0.0000 2.3422
#
#
#
# Elastic Compliance Matrix: (Units=1/GPa)
#
#
# Indices 1 2 3 4 5 6 
#
# 1 0.008880 -0.000459 -0.003363 0.000000 0.000000 0.000000
# 2 -0.000459 0.018437 -0.001579 0.000000 0.000000 0.000000
# 3 -0.003363 -0.001579 0.011740 0.000000 0.000000 0.000000
# 4 0.000000 0.000000 0.000000 0.028578 0.000000 0.000000
# 5 0.000000 0.000000 0.000000 0.000000 -0.376663 0.000000
# 6 0.000000 0.000000 0.000000 0.000000 0.000000 0.426948
#
#
# Mechanical properties :
#
#
# Convention : Reuss Voigt Hill
#
# Bulk Modulus (GPa) = 35.39171 42.77927 39.08549
# Shear Modulus (GPa) = 36.19476 22.03453 29.11465
#
# Velocity S-wave (km/s) = 3.97198 3.09910 3.56238
# Velocity P-wave (km/s) = 6.03838 5.60826 5.82729
#
# Compressibility (1/GPa) = 0.02825520
#
# Stress axis : x y z
#
# Youngs Moduli (GPa) = 112.61039 54.23730 85.18082
#
# Poissons Ratio (x) = 0.02490 0.28646
# Poissons Ratio (y) = 0.05171 0.13450
# Poissons Ratio (z) = 0.37870 0.08564
#
# Static dielectric constant tensor:
#      x y z
#    x 1.879630 0.000000 0.000000 
#    y 0.000000 1.966030 0.000000 
#    z 0.000000 0.000000 1.946190 
# 
# From -- ./inp_files/3744.got.cif
#   From: 2010.05.17/outbox.cif.g08.bks.cpg/sg53_2_cif.got.tgz:3744.got - 2010.06.03 12:45:16.
