data_PCOD9415500
_publ_section_title
;
Structure prediction by ZEFSAII (Michael W. Deem and Ramdas Pophale) SiO2 
 PCOD9415500
Probable space group: P M N A
;
_chemical_formula_sum "Si O2"
_cell_formula_units_Z 32
_cell_length_a 22.276394
_cell_length_b 13.758898
_cell_length_c 5.119045
_cell_angle_alpha 90.000000
_cell_angle_beta 90.000000
_cell_angle_gamma 90.000000
_cell_volume 1568.980294
_symmetry_space_group_name_H-M "P M N A"
_symmetry_group_IT_number 53
_symmetry_cell_setting 'orthorhombic'
loop_
_space_group_symop_operation_xyz
x,y,z
1/2-x,-y,1/2+z
x,-y,-z
1/2-x,y,1/2-z
-x,-y,-z
1/2+x,y,1/2-z
-x,y,z
1/2+x,-y,1/2+z
loop_
_atom_site_type_symbol
_atom_site_label
_atom_site_fract_x
_atom_site_fract_y
_atom_site_fract_z
Si Si1 0.250000 0.430272 0.250000
Si Si2 0.500000 0.431223 0.256349
Si Si3 0.429310 0.784963 0.165925
Si Si4 0.069914 0.089440 0.169254
Si Si5 0.375615 0.612756 0.908503
O O1 0.257733 0.500000 0.500000
O O2 0.188746 0.370246 0.280294
O O3 0.500000 0.500000 0.500000
O O4 0.436496 0.376868 0.259250
O O5 0.500000 0.500000 0.000000
O O6 0.500000 0.761639 0.112465
O O7 0.410086 0.866365 0.948228
O O8 0.388607 0.690200 0.133439
O O9 0.427091 0.825997 0.455613
O O10 0.000000 0.061676 0.217783
O O11 0.097196 0.000000 0.000000
O O12 0.373433 0.500000 0.000000
#
# Coordination Sequence:
#
# PCOD9415500 Si02
#       5
#     4   4   8   8   8
#     4  10  22  38  54  72 104 150 190 222 262 314
#     4  10  20  32  50  72 101 140 175 216 266 306
#     4  10  19  31  50  78 105 140 178 214 266 320
#     4   9  18  32  50  74 107 139 173 219 267 316
#     4  10  21  37  53  79 111 146 182 224 264 324
#
# _framework density 20.395413000000001
#
# number of rings (size 3 to 8) (size 9 to 14) (size 15 to 20)
#    0.000    2.250    1.250    1.500    0.000   11.000 
#    0.000    0.000    0.000    0.000    0.000    3.500 
#    0.000    0.000    0.000    0.000    0.000    0.000 
#
# Total GULP energy -178396.792250 kJ/mol
# GULP energy per Si atom -5574.899758 kJ/mol
# Density = 2.034899 g / cm^3
# Si number density = 20.395413 Si / 1000 Ang^3
#
#
#
# Elastic Constant Matrix: (Units=GPa)
#
#
# Indices 1 2 3 4 5 6 
#
# 1 135.7221 9.7610 7.8456 0.0000 0.0000 0.0000
# 2 9.7610 69.8960 6.5727 0.0000 0.0000 0.0000
# 3 7.8456 6.5727 102.9514 0.0000 0.0000 0.0000
# 4 0.0000 0.0000 0.0000 32.8251 0.0000 0.0000
# 5 0.0000 0.0000 0.0000 0.0000 11.6222 0.0000
# 6 0.0000 0.0000 0.0000 0.0000 0.0000 -1.6137
#
#
#
# Elastic Compliance Matrix: (Units=1/GPa)
#
#
# Indices 1 2 3 4 5 6 
#
# 1 0.007469 -0.000995 -0.000506 0.000000 0.000000 0.000000
# 2 -0.000995 0.014526 -0.000852 0.000000 0.000000 0.000000
# 3 -0.000506 -0.000852 0.009806 0.000000 0.000000 0.000000
# 4 0.000000 0.000000 0.000000 0.030464 0.000000 0.000000
# 5 0.000000 0.000000 0.000000 0.000000 0.086042 0.000000
# 6 0.000000 0.000000 0.000000 0.000000 0.000000 -0.619701
#
#
# Mechanical properties :
#
#
# Convention : Reuss Voigt Hill
#
# Bulk Modulus (GPa) = 36.90601 39.65868 38.28235
# Shear Modulus (GPa) = -10.92524 27.52606 8.30041
#
# Velocity S-wave (km/s) = -2.31697 3.67770 2.01955
# Velocity P-wave (km/s) = 3.31312 6.12545 4.92432
#
# Compressibility (1/GPa) = 0.02709586
#
# Stress axis : x y z
#
# Youngs Moduli (GPa) = 133.88993 68.84176 101.97611
#
# Poissons Ratio (x) = 0.06853 0.05156
# Poissons Ratio (y) = 0.13328 0.08683
# Poissons Ratio (z) = 0.06770 0.05862
#
# Static dielectric constant tensor:
#      x y z
#    x 1.735880 0.000000 0.000000 
#    y 0.000000 1.827130 0.000000 
#    z 0.000000 0.000000 1.773520 
# 
# From -- ./inp_files/3445.got.cif
#   From: 2010.05.17/outbox.cif.g08.bks.cpg/sg53_2_cif.got.tgz:3445.got - 2010.06.03 12:45:16.
