data_PCOD9415940
_publ_section_title
;
Structure prediction by ZEFSAII (Michael W. Deem and Ramdas Pophale) SiO2 
 PCOD9415940
Probable space group: P M N A
;
_chemical_formula_sum "Si O2"
_cell_formula_units_Z 40
_cell_length_a 8.602778
_cell_length_b 11.884589
_cell_length_c 22.270823
_cell_angle_alpha 90.000000
_cell_angle_beta 90.000000
_cell_angle_gamma 90.000000
_cell_volume 2276.979651
_symmetry_space_group_name_H-M "P M N A"
_symmetry_group_IT_number 53
_symmetry_cell_setting 'orthorhombic'
loop_
_space_group_symop_operation_xyz
x,y,z
1/2-x,-y,1/2+z
x,-y,-z
1/2-x,y,1/2-z
-x,-y,-z
1/2+x,y,1/2-z
-x,y,z
1/2+x,-y,1/2+z
loop_
_atom_site_type_symbol
_atom_site_label
_atom_site_fract_x
_atom_site_fract_y
_atom_site_fract_z
Si Si1 0.814519 0.834505 0.466354
Si Si2 0.183188 0.046617 0.084532
Si Si3 0.189545 0.576876 0.442963
Si Si4 0.687024 0.470621 0.183618
Si Si5 0.186017 0.792120 0.684686
O O1 0.733828 0.883720 0.525574
O O2 0.766538 0.706875 0.453105
O O3 0.000000 0.835953 0.475532
O O4 0.768949 0.926238 0.416418
O O5 0.235208 0.124116 0.138776
O O6 0.000000 0.027640 0.083586
O O7 0.239938 0.500000 0.500000
O O8 0.240739 0.535136 0.376732
O O9 0.000000 0.571469 0.442592
O O10 0.750000 0.503275 0.250000
O O11 0.500000 0.480382 0.186628
O O12 0.725784 0.338968 0.173317
O O13 0.250000 0.819003 0.750000
O O14 0.000000 0.802231 0.681464
#
# Coordination Sequence:
#
# PCOD9415940 Si02
#       5
#     8   8   8   8   8
#     4  10  19  33  54  76 100 133 172 211 256 305
#     4  11  21  34  51  73 104 135 168 211 258 305
#     4   9  17  31  53  79 103 131 171 215 256 304
#     4   9  18  33  53  77 105 135 167 207 255 308
#     4  10  19  33  54  78 103 132 169 209 252 302
#
# _framework density 17.567131
#
# number of rings (size 3 to 8) (size 9 to 14) (size 15 to 20)
#    0.000    2.200    0.000    5.400    0.000    4.000 
#    0.000    3.000    0.000    6.600    0.000    0.000 
#    0.000    0.000    0.000    0.000    0.000    0.000 
#
# Total GULP energy -223061.991136 kJ/mol
# GULP energy per Si atom -5576.549778 kJ/mol
# Density = 1.752715 g / cm^3
# Si number density = 17.567131 Si / 1000 Ang^3
#
#
#
# Elastic Constant Matrix: (Units=GPa)
#
#
# Indices 1 2 3 4 5 6 
#
# 1 15.8430 11.3088 4.3779 0.0000 0.0000 0.0000
# 2 11.3088 120.1612 79.9421 0.0000 0.0000 0.0000
# 3 4.3779 79.9421 108.2726 0.0000 0.0000 0.0000
# 4 0.0000 0.0000 0.0000 34.9279 0.0000 0.0000
# 5 0.0000 0.0000 0.0000 0.0000 30.0899 0.0000
# 6 0.0000 0.0000 0.0000 0.0000 0.0000 14.7780
#
#
#
# Elastic Compliance Matrix: (Units=1/GPa)
#
#
# Indices 1 2 3 4 5 6 
#
# 1 0.068498 -0.009049 0.003912 0.000000 0.000000 0.000000
# 2 -0.009049 0.017552 -0.012594 0.000000 0.000000 0.000000
# 3 0.003912 -0.012594 0.018376 0.000000 0.000000 0.000000
# 4 0.000000 0.000000 0.000000 0.028630 0.000000 0.000000
# 5 0.000000 0.000000 0.000000 0.000000 0.033234 0.000000
# 6 0.000000 0.000000 0.000000 0.000000 0.000000 0.067668
#
#
# Mechanical properties :
#
#
# Convention : Reuss Voigt Hill
#
# Bulk Modulus (GPa) = 14.50029 48.39271 31.44650
# Shear Modulus (GPa) = 17.09937 25.86903 21.48420
#
# Velocity S-wave (km/s) = 3.12328 3.84159 3.50090
# Velocity P-wave (km/s) = 4.61288 6.87635 5.85503
#
# Compressibility (1/GPa) = 0.06896414
#
# Stress axis : x y z
#
# Youngs Moduli (GPa) = 14.59904 56.97297 54.41829
#
# Poissons Ratio (x) = 0.51554 -0.21286
# Poissons Ratio (y) = 0.13210 0.68532
# Poissons Ratio (z) = -0.05710 0.71750
#
# Static dielectric constant tensor:
#      x y z
#    x 1.596330 0.000000 0.000000 
#    y 0.000000 1.600880 0.000000 
#    z 0.000000 0.000000 1.598610 
# 
# From -- ./inp_files/30347.got.cif
#   From: 2010.05.17/outbox.cif.g08.bks.cpg/sg53_16_cif.got.tgz:30347.got - 2010.06.03 12:45:16.
