data_PCOD9415742
_publ_section_title
;
Structure prediction by ZEFSAII (Michael W. Deem and Ramdas Pophale) SiO2 
 PCOD9415742
Probable space group: P M N A
;
_chemical_formula_sum "Si O2"
_cell_formula_units_Z 64
_cell_length_a 9.417605
_cell_length_b 12.911014
_cell_length_c 28.128462
_cell_angle_alpha 90.000000
_cell_angle_beta 90.000000
_cell_angle_gamma 90.000000
_cell_volume 3420.163041
_symmetry_space_group_name_H-M "P M N A"
_symmetry_group_IT_number 53
_symmetry_cell_setting 'orthorhombic'
loop_
_space_group_symop_operation_xyz
x,y,z
1/2-x,-y,1/2+z
x,-y,-z
1/2-x,y,1/2-z
-x,-y,-z
1/2+x,y,1/2-z
-x,y,z
1/2+x,-y,1/2+z
loop_
_atom_site_type_symbol
_atom_site_label
_atom_site_fract_x
_atom_site_fract_y
_atom_site_fract_z
Si Si1 0.159203 0.160310 0.568550
Si Si2 0.336669 0.731602 0.297834
Si Si3 0.170790 0.838402 0.800053
Si Si4 0.330019 0.884629 0.516980
Si Si5 0.161563 0.623817 0.375484
Si Si6 0.338317 0.051456 0.645106
Si Si7 0.670892 0.472201 0.444987
Si Si8 0.671379 0.747833 0.601994
O O1 0.254527 0.183850 0.522869
O O2 0.152482 0.264745 0.598969
O O3 0.234037 0.074652 0.601635
O O4 0.000000 0.129142 0.554968
O O5 0.250000 0.744756 0.250000
O O6 0.500000 0.702880 0.289416
O O7 0.256887 0.646391 0.329523
O O8 0.337088 0.842592 0.324564
O O9 0.250000 0.824265 0.750000
O O10 0.218526 0.762726 0.843425
O O11 0.000000 0.828383 0.793126
O O12 0.196314 0.953781 0.821699
O O13 0.500000 0.874754 0.513772
O O14 0.286211 0.844944 0.568827
O O15 0.292001 0.000000 0.500000
O O16 0.242442 0.547685 0.410786
O O17 0.000000 0.590262 0.364818
O O18 0.500000 0.035355 0.626608
O O19 0.703031 0.500000 0.500000
O O20 0.500000 0.485165 0.439189
O O21 0.707922 0.356271 0.426809
O O22 0.500000 0.750036 0.604613
#
# Coordination Sequence:
#
# PCOD9415742 Si02
#       8
#     8   8   8   8   8   8   8   8
#     4  10  20  32  49  77 112 143 173 217 268 315
#     4  10  19  32  52  79 110 143 180 222 268 318
#     4  10  20  36  56  78 106 140 180 223 267 315
#     4  10  19  33  55  79 106 143 181 214 257 318
#     4  10  21  36  53  76 106 139 176 218 266 319
#     4   9  18  32  52  77 108 148 187 219 257 315
#     4  10  20  36  59  82 104 136 179 226 276 328
#     4   9  19  35  55  80 108 139 180 228 272 324
#
# _framework density 18.712558000000001
#
# number of rings (size 3 to 8) (size 9 to 14) (size 15 to 20)
#    0.000    2.250    0.000    3.000    0.000    6.000 
#    0.000    2.500    0.000    1.500    0.000    0.000 
#    0.000    0.000    0.000    0.000    0.000    0.000 
#
# Total GULP energy -356896.009013 kJ/mol
# GULP energy per Si atom -5576.500141 kJ/mol
# Density = 1.866997 g / cm^3
# Si number density = 18.712558 Si / 1000 Ang^3
#
#
#
# Elastic Constant Matrix: (Units=GPa)
#
#
# Indices 1 2 3 4 5 6 
#
# 1 47.4900 37.6220 41.3369 0.0000 0.0000 0.0000
# 2 37.6220 78.3868 41.5235 0.0000 0.0000 0.0000
# 3 41.3369 41.5235 120.7135 0.0000 0.0000 0.0000
# 4 0.0000 0.0000 0.0000 25.7320 0.0000 0.0000
# 5 0.0000 0.0000 0.0000 0.0000 25.4526 0.0000
# 6 0.0000 0.0000 0.0000 0.0000 0.0000 14.4071
#
#
#
# Elastic Compliance Matrix: (Units=1/GPa)
#
#
# Indices 1 2 3 4 5 6 
#
# 1 0.040338 -0.014726 -0.008747 0.000000 0.000000 0.000000
# 2 -0.014726 0.020976 -0.002173 0.000000 0.000000 0.000000
# 3 -0.008747 -0.002173 0.012027 0.000000 0.000000 0.000000
# 4 0.000000 0.000000 0.000000 0.038862 0.000000 0.000000
# 5 0.000000 0.000000 0.000000 0.000000 0.039289 0.000000
# 6 0.000000 0.000000 0.000000 0.000000 0.000000 0.069410
#
#
# Mechanical properties :
#
#
# Convention : Reuss Voigt Hill
#
# Bulk Modulus (GPa) = 45.35626 54.17277 49.76451
# Shear Modulus (GPa) = 17.88628 21.52551 19.70589
#
# Velocity S-wave (km/s) = 3.09503 3.39532 3.24865
# Velocity P-wave (km/s) = 6.08796 6.66211 6.38150
#
# Compressibility (1/GPa) = 0.02204768
#
# Stress axis : x y z
#
# Youngs Moduli (GPa) = 24.79081 47.67327 83.14719
#
# Poissons Ratio (x) = 0.70206 0.72733
# Poissons Ratio (y) = 0.36508 0.18064
# Poissons Ratio (z) = 0.21686 0.10357
#
# Static dielectric constant tensor:
#      x y z
#    x 1.635590 0.000000 0.000000 
#    y 0.000000 1.673510 0.000000 
#    z 0.000000 0.000000 1.651260 
# 
# From -- ./inp_files/38189.got.cif
#   From: 2010.05.17/outbox.cif.g08.bks.cpg/sg53_20_cif.got.tgz:38189.got - 2010.06.03 12:45:16.
