data_PCOD9415795
_publ_section_title
;
Structure prediction by ZEFSAII (Michael W. Deem and Ramdas Pophale) SiO2 
 PCOD9415795
Probable space group: P M N A
;
_chemical_formula_sum "Si O2"
_cell_formula_units_Z 60
_cell_length_a 18.788453
_cell_length_b 13.075537
_cell_length_c 12.268257
_cell_angle_alpha 90.000000
_cell_angle_beta 90.000000
_cell_angle_gamma 90.000000
_cell_volume 3013.931808
_symmetry_space_group_name_H-M "P M N A"
_symmetry_group_IT_number 53
_symmetry_cell_setting 'orthorhombic'
loop_
_space_group_symop_operation_xyz
x,y,z
1/2-x,-y,1/2+z
x,-y,-z
1/2-x,y,1/2-z
-x,-y,-z
1/2+x,y,1/2-z
-x,y,z
1/2+x,-y,1/2+z
loop_
_atom_site_type_symbol
_atom_site_label
_atom_site_fract_x
_atom_site_fract_y
_atom_site_fract_z
Si Si1 0.084074 0.227379 0.659565
Si Si2 0.679629 0.882023 0.980783
Si Si3 0.750000 0.572126 0.750000
Si Si4 0.582362 0.223898 0.453144
Si Si5 0.722144 0.312213 0.473529
Si Si6 0.161301 0.566460 0.395676
Si Si7 0.415099 0.887151 0.765865
Si Si8 0.415385 0.087905 0.642737
O O1 0.128513 0.155314 0.578468
O O2 0.108818 0.342872 0.638097
O O3 0.099276 0.185829 0.780732
O O4 0.000000 0.215887 0.639987
O O5 0.744110 0.801508 0.975764
O O6 0.632481 0.871032 0.871532
O O7 0.700273 0.000000 0.000000
O O8 0.767716 0.640368 0.854290
O O9 0.814942 0.502532 0.705859
O O10 0.500000 0.247247 0.475834
O O11 0.638487 0.306251 0.493192
O O12 0.590413 0.201063 0.325088
O O13 0.601120 0.120541 0.520318
O O14 0.766865 0.379299 0.558434
O O15 0.134925 0.500000 0.500000
O O16 0.500000 0.897698 0.793544
O O17 0.386885 0.989030 0.704566
O O18 0.500000 0.069036 0.642001
#
# Coordination Sequence:
#
# PCOD9415795 Si02
#       8
#     8   8   4   8   8   8   8   8
#     4  10  20  35  57  88 121 153 195 243 290 348
#     4  11  21  35  56  87 125 158 193 236 286 349
#     4  10  20  42  66  78 114 152 190 246 300 354
#     4  10  21  37  56  79 113 150 191 240 287 339
#     4  10  22  39  59  88 114 150 196 238 293 356
#     4   9  21  38  60  85 109 149 194 241 304 352
#     4  10  19  32  53  80 112 161 201 225 275 338
#     4   9  18  32  52  78 113 153 191 231 276 331
#
# _framework density 19.907551000000002
#
# number of rings (size 3 to 8) (size 9 to 14) (size 15 to 20)
#    0.000    2.133    1.333    1.600    1.867    3.467 
#    0.000    0.667    0.000    3.600    0.000    0.000 
#    0.000    0.000    0.000    0.000    0.000    0.000 
#
# Total GULP energy -334765.104750 kJ/mol
# GULP energy per Si atom -5579.418412 kJ/mol
# Density = 1.986224 g / cm^3
# Si number density = 19.907551 Si / 1000 Ang^3
#
#
#
# Elastic Constant Matrix: (Units=GPa)
#
#
# Indices 1 2 3 4 5 6 
#
# 1 66.9700 24.7056 19.7426 0.0000 0.0000 0.0000
# 2 24.7056 74.9160 -0.5974 0.0000 0.0000 0.0000
# 3 19.7426 -0.5974 69.8997 0.0000 0.0000 0.0000
# 4 0.0000 0.0000 0.0000 15.6474 0.0000 0.0000
# 5 0.0000 0.0000 0.0000 0.0000 10.3119 0.0000
# 6 0.0000 0.0000 0.0000 0.0000 0.0000 20.7322
#
#
#
# Elastic Compliance Matrix: (Units=1/GPa)
#
#
# Indices 1 2 3 4 5 6 
#
# 1 0.018820 -0.006249 -0.005369 0.000000 0.000000 0.000000
# 2 -0.006249 0.015424 0.001897 0.000000 0.000000 0.000000
# 3 -0.005369 0.001897 0.015839 0.000000 0.000000 0.000000
# 4 0.000000 0.000000 0.000000 0.063908 0.000000 0.000000
# 5 0.000000 0.000000 0.000000 0.000000 0.096975 0.000000
# 6 0.000000 0.000000 0.000000 0.000000 0.000000 0.048234
#
#
# Mechanical properties :
#
#
# Convention : Reuss Voigt Hill
#
# Bulk Modulus (GPa) = 32.63655 33.27638 32.95646
# Shear Modulus (GPa) = 17.30957 20.53396 18.92176
#
# Velocity S-wave (km/s) = 2.95192 3.21513 3.08633
# Velocity P-wave (km/s) = 5.29605 5.52580 5.41214
#
# Compressibility (1/GPa) = 0.03064049
#
# Stress axis : x y z
#
# Youngs Moduli (GPa) = 53.13427 64.83279 63.13580
#
# Poissons Ratio (x) = 0.40516 0.33898
# Poissons Ratio (y) = 0.33205 -0.11976
# Poissons Ratio (z) = 0.28528 -0.12298
#
# Static dielectric constant tensor:
#      x y z
#    x 1.692310 0.000000 0.000000 
#    y 0.000000 1.737170 0.000000 
#    z 0.000000 0.000000 1.692020 
# 
# From -- ./inp_files/17926.got.cif
#   From: 2010.05.17/outbox.cif.g08.bks.cpg/sg53_9_cif.got.tgz:17926.got - 2010.06.03 12:45:16.
