data_PCOD9415800
_publ_section_title
;
Structure prediction by ZEFSAII (Michael W. Deem and Ramdas Pophale) SiO2 
 PCOD9415800
Probable space group: P M N A
;
_chemical_formula_sum "Si O2"
_cell_formula_units_Z 52
_cell_length_a 9.908715
_cell_length_b 11.311593
_cell_length_c 26.197407
_cell_angle_alpha 90.000000
_cell_angle_beta 90.000000
_cell_angle_gamma 90.000000
_cell_volume 2936.293170
_symmetry_space_group_name_H-M "P M N A"
_symmetry_group_IT_number 53
_symmetry_cell_setting 'orthorhombic'
loop_
_space_group_symop_operation_xyz
x,y,z
1/2-x,-y,1/2+z
x,-y,-z
1/2-x,y,1/2-z
-x,-y,-z
1/2+x,y,1/2-z
-x,y,z
1/2+x,-y,1/2+z
loop_
_atom_site_type_symbol
_atom_site_label
_atom_site_fract_x
_atom_site_fract_y
_atom_site_fract_z
Si Si1 0.845271 0.050004 0.901016
Si Si2 0.149807 0.253075 0.968908
Si Si3 0.338673 0.356341 0.301256
Si Si4 0.250414 0.500000 0.500000
Si Si5 0.656036 0.861808 0.950383
Si Si6 0.152732 0.617738 0.604769
Si Si7 0.653225 0.926547 0.704495
O O1 0.837395 0.188696 0.914346
O O2 0.000000 0.012839 0.913489
O O3 0.739013 0.975779 0.933586
O O4 0.821264 0.009387 0.843680
O O5 0.000000 0.221666 0.988715
O O6 0.166412 0.392406 0.975291
O O7 0.266171 0.195079 0.002393
O O8 0.250000 0.383789 0.250000
O O9 0.500000 0.386113 0.297361
O O10 0.263843 0.408580 0.351637
O O11 0.331910 0.213203 0.307556
O O12 0.173293 0.553840 0.549564
O O13 0.500000 0.886842 0.960690
O O14 0.661478 0.757873 0.907912
O O15 0.000000 0.592393 0.622833
O O16 0.750000 0.957021 0.750000
O O17 0.500000 0.943174 0.721124
#
# Coordination Sequence:
#
# PCOD9415800 Si02
#       7
#     8   8   8   4   8   8   8
#     4  10  19  33  51  75 105 138 171 211 262 317
#     4  10  21  35  53  73 100 137 180 224 266 317
#     4  10  19  32  53  81 111 143 178 221 273 330
#     4  10  22  38  56  80 104 144 194 238 282 326
#     4  10  20  32  49  76 108 138 170 212 263 322
#     4  10  20  35  55  78 109 146 183 228 278 328
#     4   9  18  31  49  75 107 139 170 207 258 319
#
# _framework density 17.709403999999999
#
# number of rings (size 3 to 8) (size 9 to 14) (size 15 to 20)
#    0.000    2.154    1.538    1.846    0.000    7.385 
#    0.000    0.000    0.000    0.923    0.000    2.154 
#    0.000    0.000    0.000    0.000    0.000    0.000 
#
# Total GULP energy -289500.726701 kJ/mol
# GULP energy per Si atom -5567.321667 kJ/mol
# Density = 1.766910 g / cm^3
# Si number density = 17.709404 Si / 1000 Ang^3
#
#
#
# Elastic Constant Matrix: (Units=GPa)
#
#
# Indices 1 2 3 4 5 6 
#
# 1 98.6425 32.7792 74.6458 0.0000 0.0000 0.0000
# 2 32.7792 68.8014 33.9010 0.0000 0.0000 0.0000
# 3 74.6458 33.9010 75.3798 0.0000 0.0000 0.0000
# 4 0.0000 0.0000 0.0000 27.6389 0.0000 0.0000
# 5 0.0000 0.0000 0.0000 0.0000 25.8827 0.0000
# 6 0.0000 0.0000 0.0000 0.0000 0.0000 12.0373
#
#
#
# Elastic Compliance Matrix: (Units=1/GPa)
#
#
# Indices 1 2 3 4 5 6 
#
# 1 0.040466 0.000598 -0.040341 0.000000 0.000000 0.000000
# 2 0.000598 0.018681 -0.008994 0.000000 0.000000 0.000000
# 3 -0.040341 -0.008994 0.057260 0.000000 0.000000 0.000000
# 4 0.000000 0.000000 0.000000 0.036181 0.000000 0.000000
# 5 0.000000 0.000000 0.000000 0.000000 0.038636 0.000000
# 6 0.000000 0.000000 0.000000 0.000000 0.000000 0.083075
#
#
# Mechanical properties :
#
#
# Convention : Reuss Voigt Hill
#
# Bulk Modulus (GPa) = 52.81809 58.38618 55.60213
# Shear Modulus (GPa) = 13.22454 19.87828 16.55141
#
# Velocity S-wave (km/s) = 2.73564 3.35396 3.06046
# Velocity P-wave (km/s) = 6.31411 6.93104 6.62976
#
# Compressibility (1/GPa) = 0.01893291
#
# Stress axis : x y z
#
# Youngs Moduli (GPa) = 24.71185 53.52955 17.46428
#
# Poissons Ratio (x) = -0.03202 0.70453
# Poissons Ratio (y) = -0.01478 0.15708
# Poissons Ratio (z) = 0.99691 0.48145
#
# Static dielectric constant tensor:
#      x y z
#    x 1.613160 0.000000 0.000000 
#    y 0.000000 1.611990 0.000000 
#    z 0.000000 0.000000 1.614860 
# 
# From -- ./inp_files/36284.got.cif
#   From: 2010.05.17/outbox.cif.g08.bks.cpg/sg53_19_cif.got.tgz:36284.got - 2010.06.03 12:45:16.
