data_PCOD9415849
_publ_section_title
;
Structure prediction by ZEFSAII (Michael W. Deem and Ramdas Pophale) SiO2 
 PCOD9415849
Probable space group: P M N A
;
_chemical_formula_sum "Si O2"
_cell_formula_units_Z 64
_cell_length_a 14.082091
_cell_length_b 10.390249
_cell_length_c 22.135185
_cell_angle_alpha 90.000000
_cell_angle_beta 90.000000
_cell_angle_gamma 90.000000
_cell_volume 3238.741289
_symmetry_space_group_name_H-M "P M N A"
_symmetry_group_IT_number 53
_symmetry_cell_setting 'orthorhombic'
loop_
_space_group_symop_operation_xyz
x,y,z
1/2-x,-y,1/2+z
x,-y,-z
1/2-x,y,1/2-z
-x,-y,-z
1/2+x,y,1/2-z
-x,y,z
1/2+x,-y,1/2+z
loop_
_atom_site_type_symbol
_atom_site_label
_atom_site_fract_x
_atom_site_fract_y
_atom_site_fract_z
Si Si1 0.887233 0.283678 0.346485
Si Si2 0.112583 0.621766 0.779277
Si Si3 0.889274 0.168792 0.119896
Si Si4 0.811659 0.494012 0.572392
Si Si5 0.104918 0.580234 0.938475
Si Si6 0.308427 0.743008 0.158370
Si Si7 0.889584 0.324646 0.788874
Si Si8 0.227589 0.974737 0.676119
O O1 0.847008 0.354600 0.286696
O O2 0.865286 0.383707 0.399538
O O3 0.837456 0.146016 0.342366
O O4 0.000000 0.264673 0.344696
O O5 0.138692 0.729324 0.827423
O O6 0.125429 0.476074 0.797118
O O7 0.000000 0.639124 0.771732
O O8 0.878919 0.263983 0.061529
O O9 0.822757 0.049847 0.136251
O O10 0.000000 0.133833 0.124046
O O11 0.823916 0.500000 0.500000
O O12 0.700988 0.520724 0.586481
O O13 0.834047 0.357740 0.605187
O O14 0.000000 0.566532 0.908164
O O15 0.095922 0.500000 0.000000
O O16 0.194748 0.738313 0.172665
O O17 0.364795 0.701129 0.218702
O O18 0.323909 0.895488 0.154219
O O19 0.000000 0.291133 0.801810
O O20 0.250000 0.978976 0.750000
#
# Coordination Sequence:
#
# PCOD9415849 Si02
#       8
#     8   8   8   8   8   8   8   8
#     4  11  23  39  61  89 122 160 206 256 308 366
#     4   9  17  29  53  86 115 148 192 247 300 351
#     4  10  19  32  55  88 122 159 203 245 297 372
#     4  11  23  42  69  91 116 163 216 269 310 356
#     4   9  18  34  59  90 119 151 201 261 311 351
#     4  11  24  39  57  91 129 161 204 252 309 374
#     4  10  20  35  58  89 128 163 194 250 319 370
#     4  12  23  37  56  90 129 167 195 241 308 379
#
# _framework density 19.760763000000001
#
# number of rings (size 3 to 8) (size 9 to 14) (size 15 to 20)
#    0.000    1.625    5.000    0.750    0.000    2.750 
#    0.000    0.625    0.000    0.750    0.000    4.375 
#    0.000    0.000    0.000    0.000    0.000    0.000 
#
# Total GULP energy -356377.030260 kJ/mol
# GULP energy per Si atom -5568.391098 kJ/mol
# Density = 1.971579 g / cm^3
# Si number density = 19.760763 Si / 1000 Ang^3
#
#
#
# Elastic Constant Matrix: (Units=GPa)
#
#
# Indices 1 2 3 4 5 6 
#
# 1 69.6395 16.7863 10.3014 0.0000 0.0000 0.0000
# 2 16.7863 108.3550 45.6274 0.0000 0.0000 0.0000
# 3 10.3014 45.6274 86.5473 0.0000 0.0000 0.0000
# 4 0.0000 0.0000 0.0000 7.8869 0.0000 0.0000
# 5 0.0000 0.0000 0.0000 0.0000 19.6519 0.0000
# 6 0.0000 0.0000 0.0000 0.0000 0.0000 13.8070
#
#
#
# Elastic Compliance Matrix: (Units=1/GPa)
#
#
# Indices 1 2 3 4 5 6 
#
# 1 0.014951 -0.002014 -0.000718 0.000000 0.000000 0.000000
# 2 -0.002014 0.012134 -0.006157 0.000000 0.000000 0.000000
# 3 -0.000718 -0.006157 0.014886 0.000000 0.000000 0.000000
# 4 0.000000 0.000000 0.000000 0.126793 0.000000 0.000000
# 5 0.000000 0.000000 0.000000 0.000000 0.050886 0.000000
# 6 0.000000 0.000000 0.000000 0.000000 0.000000 0.072427
#
#
# Mechanical properties :
#
#
# Convention : Reuss Voigt Hill
#
# Bulk Modulus (GPa) = 41.33434 45.55243 43.44338
# Shear Modulus (GPa) = 15.72730 21.05760 18.39245
#
# Velocity S-wave (km/s) = 2.82420 3.26794 3.05414
# Velocity P-wave (km/s) = 5.62118 6.11075 5.87107
#
# Compressibility (1/GPa) = 0.02419296
#
# Stress axis : x y z
#
# Youngs Moduli (GPa) = 66.88378 82.41554 67.17807
#
# Poissons Ratio (x) = 0.16598 0.04822
# Poissons Ratio (y) = 0.13470 0.41362
# Poissons Ratio (z) = 0.04801 0.50744
#
# Static dielectric constant tensor:
#      x y z
#    x 1.738790 0.000000 0.000000 
#    y 0.000000 1.740610 0.000000 
#    z 0.000000 0.000000 1.749630 
# 
# From -- ./inp_files/35391.got.cif
#   From: 2010.05.17/outbox.cif.g08.bks.cpg/sg53_18_cif.got.tgz:35391.got - 2010.06.03 12:45:16.
