data_PCOD9415289
_publ_section_title
;
Structure prediction by ZEFSAII (Michael W. Deem and Ramdas Pophale) SiO2 
 PCOD9415289
Probable space group: P M N A
;
_chemical_formula_sum "Si O2"
_cell_formula_units_Z 64
_cell_length_a 8.219842
_cell_length_b 20.319145
_cell_length_c 19.621209
_cell_angle_alpha 90.000000
_cell_angle_beta 90.000000
_cell_angle_gamma 90.000000
_cell_volume 3277.137496
_symmetry_space_group_name_H-M "P M N A"
_symmetry_group_IT_number 53
_symmetry_cell_setting 'orthorhombic'
loop_
_space_group_symop_operation_xyz
x,y,z
1/2-x,-y,1/2+z
x,-y,-z
1/2-x,y,1/2-z
-x,-y,-z
1/2+x,y,1/2-z
-x,y,z
1/2+x,-y,1/2+z
loop_
_atom_site_type_symbol
_atom_site_label
_atom_site_fract_x
_atom_site_fract_y
_atom_site_fract_z
Si Si1 0.800745 0.288825 0.947956
Si Si2 0.693511 0.381057 0.673443
Si Si3 0.698682 0.863036 0.440261
Si Si4 0.692378 0.528645 0.826514
Si Si5 0.801345 0.091032 0.086685
Si Si6 0.803379 0.654087 0.906791
Si Si7 0.696084 0.217636 0.327000
Si Si8 0.696545 0.963602 0.328197
O O1 0.743698 0.330043 0.882717
O O2 0.748521 0.212738 0.945930
O O3 0.000000 0.288070 0.948028
O O4 0.750840 0.325150 0.017473
O O5 0.750000 0.366480 0.750000
O O6 0.500000 0.377198 0.672806
O O7 0.740449 0.456232 0.657062
O O8 0.500000 0.862516 0.440468
O O9 0.748982 0.903193 0.507916
O O10 0.750734 0.900128 0.371729
O O11 0.750000 0.546509 0.750000
O O12 0.500000 0.524082 0.824788
O O13 0.745129 0.584269 0.879397
O O14 0.749909 0.157537 0.125290
O O15 0.000000 0.089439 0.086461
O O16 0.747028 0.027851 0.129562
O O17 0.747095 0.712480 0.856472
O O18 0.000000 0.653330 0.906209
O O19 0.750000 0.207581 0.250000
O O20 0.500000 0.218081 0.329328
O O21 0.750000 0.964221 0.250000
O O22 0.500000 0.964535 0.328651
#
# Coordination Sequence:
#
# PCOD9415289 Si02
#       8
#     8   8   8   8   8   8   8   8
#     4   9  18  33  55  80 106 138 179 223 265 315
#     4  10  20  36  57  80 104 136 178 222 268 317
#     4   9  16  31  54  79 104 136 183 226 260 304
#     4  11  22  37  56  79 108 142 177 217 264 317
#     4   9  16  30  51  77 104 136 178 222 259 301
#     4  10  19  34  54  77 106 140 176 219 265 314
#     4  10  19  30  49  74 104 138 173 213 258 305
#     4  10  20  32  52  80 109 140 176 222 268 314
#
# _framework density 19.529239
#
# number of rings (size 3 to 8) (size 9 to 14) (size 15 to 20)
#    0.000    2.250    1.250    3.375    0.000    4.000 
#    0.000    3.750    0.000    3.750    0.000    0.000 
#    0.000    0.000    0.000    0.000    0.000    0.000 
#
# Total GULP energy -357287.765711 kJ/mol
# GULP energy per Si atom -5582.621339 kJ/mol
# Density = 1.948479 g / cm^3
# Si number density = 19.529239 Si / 1000 Ang^3
#
#
#
# Elastic Constant Matrix: (Units=GPa)
#
#
# Indices 1 2 3 4 5 6 
#
# 1 17.4972 8.2987 10.5877 0.0000 0.0000 0.0000
# 2 8.2987 111.1382 101.3591 0.0000 0.0000 0.0000
# 3 10.5877 101.3591 151.6576 0.0000 0.0000 0.0000
# 4 0.0000 0.0000 0.0000 39.7083 0.0000 0.0000
# 5 0.0000 0.0000 0.0000 0.0000 25.6489 0.0000
# 6 0.0000 0.0000 0.0000 0.0000 0.0000 7.0087
#
#
#
# Elastic Compliance Matrix: (Units=1/GPa)
#
#
# Indices 1 2 3 4 5 6 
#
# 1 0.059796 -0.001685 -0.003049 0.000000 0.000000 0.000000
# 2 -0.001685 0.023091 -0.015315 0.000000 0.000000 0.000000
# 3 -0.003049 -0.015315 0.017042 0.000000 0.000000 0.000000
# 4 0.000000 0.000000 0.000000 0.025184 0.000000 0.000000
# 5 0.000000 0.000000 0.000000 0.000000 0.038988 0.000000
# 6 0.000000 0.000000 0.000000 0.000000 0.000000 0.142679
#
#
# Mechanical properties :
#
#
# Convention : Reuss Voigt Hill
#
# Bulk Modulus (GPa) = 16.71332 57.86488 37.28910
# Shear Modulus (GPa) = 13.63061 25.14303 19.38682
#
# Velocity S-wave (km/s) = 2.64476 3.59201 3.15414
# Velocity P-wave (km/s) = 4.23119 6.84818 5.69212
#
# Compressibility (1/GPa) = 0.05983251
#
# Stress axis : x y z
#
# Youngs Moduli (GPa) = 16.72361 43.30650 58.67709
#
# Poissons Ratio (x) = 0.07295 0.17889
# Poissons Ratio (y) = 0.02817 0.89865
# Poissons Ratio (z) = 0.05098 0.66325
#
# Static dielectric constant tensor:
#      x y z
#    x 1.698720 0.000000 0.000000 
#    y 0.000000 1.677620 0.000000 
#    z 0.000000 0.000000 1.667590 
# 
# From -- ./inp_files/26989.got.cif
#   From: 2010.05.17/outbox.cif.g08.bks.cpg/sg53_14_cif.got.tgz:26989.got - 2010.06.03 12:45:16.
