data_PCOD9415039
_publ_section_title
;
Structure prediction by ZEFSAII (Michael W. Deem and Ramdas Pophale) SiO2 
 PCOD9415039
Probable space group: P M N A
;
_chemical_formula_sum "Si O2"
_cell_formula_units_Z 56
_cell_length_a 7.941058
_cell_length_b 18.149148
_cell_length_c 19.901019
_cell_angle_alpha 90.000000
_cell_angle_beta 90.000000
_cell_angle_gamma 90.000000
_cell_volume 2868.203256
_symmetry_space_group_name_H-M "P M N A"
_symmetry_group_IT_number 53
_symmetry_cell_setting 'orthorhombic'
loop_
_space_group_symop_operation_xyz
x,y,z
1/2-x,-y,1/2+z
x,-y,-z
1/2-x,y,1/2-z
-x,-y,-z
1/2+x,y,1/2-z
-x,y,z
1/2+x,-y,1/2+z
loop_
_atom_site_type_symbol
_atom_site_label
_atom_site_fract_x
_atom_site_fract_y
_atom_site_fract_z
Si Si1 0.198491 0.805362 0.674174
Si Si2 0.296622 0.601928 0.327574
Si Si3 0.202618 0.941928 0.906932
Si Si4 0.800515 0.693457 0.561997
Si Si5 0.206155 0.101887 0.942950
Si Si6 0.301342 0.262480 0.586103
Si Si7 0.203959 0.527847 0.925831
O O1 0.250000 0.789485 0.750000
O O2 0.241632 0.888207 0.651829
O O3 0.269859 0.749774 0.617860
O O4 0.000000 0.796575 0.671181
O O5 0.250000 0.597398 0.250000
O O6 0.500000 0.602737 0.332939
O O7 0.231135 0.676800 0.362770
O O8 0.238762 0.531399 0.370690
O O9 0.000000 0.942754 0.907823
O O10 0.259120 0.026977 0.905538
O O11 0.257555 0.908014 0.978970
O O12 0.717871 0.707212 0.489607
O O13 0.770793 0.609836 0.584574
O O14 0.000000 0.705799 0.553147
O O15 0.268422 0.179294 0.913874
O O16 0.000000 0.103349 0.942868
O O17 0.500000 0.256086 0.600704
O O18 0.000000 0.531087 0.924713
O O19 0.254168 0.500000 0.000000
#
# Coordination Sequence:
#
# PCOD9415039 Si02
#       7
#     8   8   8   8   8   8   8
#     4  11  24  39  54  78 113 153 192 233 288 342
#     4  10  22  38  58  83 112 147 182 221 273 332
#     4   9  16  31  55  83 110 141 183 230 278 329
#     4  11  23  36  55  86 115 141 184 238 286 328
#     4   8  15  28  55  87 109 139 184 227 270 326
#     4  10  18  35  60  83 112 151 190 226 270 332
#     4  10  20  38  61  84 109 143 188 227 270 335
#
# _framework density 19.524417
#
# number of rings (size 3 to 8) (size 9 to 14) (size 15 to 20)
#    0.000    2.143    2.857    1.714    0.000    3.714 
#    0.000    5.714    0.000    1.714    0.000    0.000 
#    0.000    0.000    0.000    0.000    0.000    0.000 
#
# Total GULP energy -312542.711926 kJ/mol
# GULP energy per Si atom -5581.119856 kJ/mol
# Density = 1.947998 g / cm^3
# Si number density = 19.524417 Si / 1000 Ang^3
#
#
#
# Elastic Constant Matrix: (Units=GPa)
#
#
# Indices 1 2 3 4 5 6 
#
# 1 10.9463 -7.2698 -6.3890 0.0000 0.0000 0.0000
# 2 -7.2698 138.3672 56.4693 0.0000 0.0000 0.0000
# 3 -6.3890 56.4693 115.1401 0.0000 0.0000 0.0000
# 4 0.0000 0.0000 0.0000 19.2070 0.0000 0.0000
# 5 0.0000 0.0000 0.0000 0.0000 46.4654 0.0000
# 6 0.0000 0.0000 0.0000 0.0000 0.0000 17.0751
#
#
#
# Elastic Compliance Matrix: (Units=1/GPa)
#
#
# Indices 1 2 3 4 5 6 
#
# 1 0.095811 0.003581 0.003560 0.000000 0.000000 0.000000
# 2 0.003581 0.009170 -0.004298 0.000000 0.000000 0.000000
# 3 0.003560 -0.004298 0.010991 0.000000 0.000000 0.000000
# 4 0.000000 0.000000 0.000000 0.052064 0.000000 0.000000
# 5 0.000000 0.000000 0.000000 0.000000 0.021521 0.000000
# 6 0.000000 0.000000 0.000000 0.000000 0.000000 0.058565
#
#
# Mechanical properties :
#
#
# Convention : Reuss Voigt Hill
#
# Bulk Modulus (GPa) = 8.21982 38.89717 23.55849
# Shear Modulus (GPa) = 17.66853 31.32570 24.49712
#
# Velocity S-wave (km/s) = 3.01149 4.00989 3.54601
# Velocity P-wave (km/s) = 4.03872 6.43463 5.37195
#
# Compressibility (1/GPa) = 0.12165715
#
# Stress axis : x y z
#
# Youngs Moduli (GPa) = 10.43718 109.05700 90.98585
#
# Poissons Ratio (x) = -0.39053 -0.32393
# Poissons Ratio (y) = -0.03738 0.39109
# Poissons Ratio (z) = -0.03716 0.46877
#
# Static dielectric constant tensor:
#      x y z
#    x 1.702150 0.000000 0.000000 
#    y 0.000000 1.712500 0.000000 
#    z 0.000000 0.000000 1.313610 
# 
# From -- ./inp_files/31045.got.cif
#   From: 2010.05.17/outbox.cif.g08.bks.cpg/sg53_16_cif.got.tgz:31045.got - 2010.06.03 12:45:16.
