data_PCOD9415554
_publ_section_title
;
Structure prediction by ZEFSAII (Michael W. Deem and Ramdas Pophale) SiO2 
 PCOD9415554
Probable space group: P M N A
;
_chemical_formula_sum "Si O2"
_cell_formula_units_Z 58
_cell_length_a 24.638152
_cell_length_b 11.611593
_cell_length_c 8.359075
_cell_angle_alpha 90.000000
_cell_angle_beta 90.000000
_cell_angle_gamma 90.000000
_cell_volume 2391.432664
_symmetry_space_group_name_H-M "P M N A"
_symmetry_group_IT_number 53
_symmetry_cell_setting 'orthorhombic'
loop_
_space_group_symop_operation_xyz
x,y,z
1/2-x,-y,1/2+z
x,-y,-z
1/2-x,y,1/2-z
-x,-y,-z
1/2+x,y,1/2-z
-x,y,z
1/2+x,-y,1/2+z
loop_
_atom_site_type_symbol
_atom_site_label
_atom_site_fract_x
_atom_site_fract_y
_atom_site_fract_z
Si Si1 0.162164 0.602629 0.903867
Si Si2 0.061079 0.439446 0.328906
Si Si3 0.500000 0.000000 0.000000
Si Si4 0.943300 0.890363 0.885694
Si Si5 0.579121 0.780885 0.019583
Si Si6 0.697925 0.052432 0.680015
Si Si7 0.834990 0.178187 0.302423
Si Si8 0.603259 0.239340 0.645505
O O1 0.110824 0.555426 0.797444
O O2 0.185474 0.707508 0.791176
O O3 0.193293 0.500000 0.000000
O O4 0.139961 0.671057 0.055645
O O5 0.073152 0.500000 0.500000
O O6 0.058222 0.305085 0.383213
O O7 0.000000 0.472396 0.273783
O O8 0.547581 0.900318 0.032482
O O9 0.942347 0.790305 0.015545
O O10 0.000000 0.905947 0.791538
O O11 0.890440 0.866668 0.784752
O O12 0.939152 0.000000 0.000000
O O13 0.642963 0.793137 0.976699
O O14 0.576232 0.722629 0.191794
O O15 0.750000 0.120099 0.750000
O O16 0.643331 0.129915 0.678754
O O17 0.702183 0.000000 0.500000
O O18 0.696870 0.939841 0.794196
#
# Coordination Sequence:
#
# PCOD9415554 Si02
#       8
#     8   8   2   8   8   8   8   8
#     4  10  21  38  64  86 116 165 205 262 324 363
#     4  10  21  40  59  83 123 167 224 269 299 361
#     4  12  24  32  46  82 124 164 210 240 314 360
#     4  10  19  31  55  78 118 166 203 248 309 358
#     4  11  24  34  54  83 122 166 206 252 316 360
#     4  12  24  43  66  94 122 165 203 257 320 381
#     4  10  21  41  58  85 129 156 213 258 307 377
#     4  11  22  40  57  90 129 157 215 259 301 384
#
# _framework density 24.253243000000001
#
# number of rings (size 3 to 8) (size 9 to 14) (size 15 to 20)
#    0.000    1.379    4.828    1.655    3.862    3.586 
#    0.000    0.000    0.000    0.828    0.000    0.000 
#    0.000    0.000    0.000    0.000    0.000    0.000 
#
# Total GULP energy -322894.581531 kJ/mol
# GULP energy per Si atom -5567.147957 kJ/mol
# Density = 2.419804 g / cm^3
# Si number density = 24.253243 Si / 1000 Ang^3
#
#
#
# Elastic Constant Matrix: (Units=GPa)
#
#
# Indices 1 2 3 4 5 6 
#
# 1 82.5903 -2.5556 -3.8027 0.0000 0.0000 0.0000
# 2 -2.5556 89.7843 -9.5105 0.0000 0.0000 0.0000
# 3 -3.8027 -9.5105 70.6705 0.0000 0.0000 0.0000
# 4 0.0000 0.0000 0.0000 27.7968 0.0000 0.0000
# 5 0.0000 0.0000 0.0000 0.0000 20.2987 0.0000
# 6 0.0000 0.0000 0.0000 0.0000 0.0000 4.2373
#
#
#
# Elastic Compliance Matrix: (Units=1/GPa)
#
#
# Indices 1 2 3 4 5 6 
#
# 1 0.012154 0.000421 0.000711 0.000000 0.000000 0.000000
# 2 0.000421 0.011313 0.001545 0.000000 0.000000 0.000000
# 3 0.000711 0.001545 0.014396 0.000000 0.000000 0.000000
# 4 0.000000 0.000000 0.000000 0.035975 0.000000 0.000000
# 5 0.000000 0.000000 0.000000 0.000000 0.049264 0.000000
# 6 0.000000 0.000000 0.000000 0.000000 0.000000 0.236001
#
#
# Mechanical properties :
#
#
# Convention : Reuss Voigt Hill
#
# Bulk Modulus (GPa) = 23.13867 23.47859 23.30863
# Shear Modulus (GPa) = 13.58121 27.72748 20.65434
#
# Velocity S-wave (km/s) = 2.36895 3.38486 2.92140
# Velocity P-wave (km/s) = 4.12840 4.99780 4.58376
#
# Compressibility (1/GPa) = 0.04321770
#
# Stress axis : x y z
#
# Youngs Moduli (GPa) = 82.27935 88.39016 69.46196
#
# Poissons Ratio (x) = -0.03723 -0.04936
# Poissons Ratio (y) = -0.03466 -0.10733
# Poissons Ratio (z) = -0.05847 -0.13658
#
# Static dielectric constant tensor:
#      x y z
#    x 1.993850 0.000000 0.000000 
#    y 0.000000 1.462730 0.000000 
#    z 0.000000 0.000000 1.517980 
# 
# From -- ./inp_files/13216.got.cif
#   From: 2010.05.17/outbox.cif.g08.bks.cpg/sg53_7_cif.got.tgz:13216.got - 2010.06.03 12:45:16.
