data_PCOD9415139
_publ_section_title
;
Structure prediction by ZEFSAII (Michael W. Deem and Ramdas Pophale) SiO2 
 PCOD9415139
Probable space group: P M N A
;
_chemical_formula_sum "Si O2"
_cell_formula_units_Z 40
_cell_length_a 27.366671
_cell_length_b 17.053829
_cell_length_c 5.054400
_cell_angle_alpha 90.000000
_cell_angle_beta 90.000000
_cell_angle_gamma 90.000000
_cell_volume 2358.921473
_symmetry_space_group_name_H-M "P M N A"
_symmetry_group_IT_number 53
_symmetry_cell_setting 'orthorhombic'
loop_
_space_group_symop_operation_xyz
x,y,z
1/2-x,-y,1/2+z
x,-y,-z
1/2-x,y,1/2-z
-x,-y,-z
1/2+x,y,1/2-z
-x,y,z
1/2+x,-y,1/2+z
loop_
_atom_site_type_symbol
_atom_site_label
_atom_site_fract_x
_atom_site_fract_y
_atom_site_fract_z
Si Si1 0.557551 0.579519 0.148387
Si Si2 0.193843 0.556912 0.750384
Si Si3 0.399333 0.345249 0.339654
Si Si4 0.558162 0.912930 0.952469
Si Si5 0.058297 0.812708 0.059505
O O1 0.500000 0.574763 0.197977
O O2 0.582788 0.596545 0.426341
O O3 0.573308 0.500000 0.000000
O O4 0.569280 0.645038 0.928446
O O5 0.186546 0.500000 0.500000
O O6 0.250000 0.585251 0.750000
O O7 0.155075 0.627165 0.765254
O O8 0.187598 0.500000 0.000000
O O9 0.410142 0.260427 0.460649
O O10 0.500000 0.917633 0.007614
O O11 0.575304 0.847716 0.161252
O O12 0.563356 0.881684 0.656455
O O13 0.578467 0.000000 0.000000
O O14 0.000000 0.790260 0.069699
#
# Coordination Sequence:
#
# PCOD9415139 Si02
#       5
#     8   8   8   8   8
#     4  11  22  33  46  66  95 133 169 195 229 286
#     4  10  21  37  55  72  91 123 168 212 252 292
#     4  12  21  33  50  70  98 127 161 206 253 288
#     4   9  17  30  46  64  91 128 164 192 222 271
#     4  10  19  29  44  68  96 126 158 193 235 281
#
# _framework density 16.956903000000001
#
# number of rings (size 3 to 8) (size 9 to 14) (size 15 to 20)
#    0.000    1.600    0.000    7.200    0.000    5.600 
#    0.000    0.000    0.000    0.000    0.000    0.000 
#    0.000    3.200    0.000    0.200    0.000    0.000 
#
# Total GULP energy -223329.173258 kJ/mol
# GULP energy per Si atom -5583.229331 kJ/mol
# Density = 1.691831 g / cm^3
# Si number density = 16.956903 Si / 1000 Ang^3
#
#
#
# Elastic Constant Matrix: (Units=GPa)
#
#
# Indices 1 2 3 4 5 6 
#
# 1 79.4889 18.1574 8.9986 0.0000 0.0000 0.0000
# 2 18.1574 53.6238 -8.0105 0.0000 0.0000 0.0000
# 3 8.9986 -8.0105 80.5952 0.0000 0.0000 0.0000
# 4 0.0000 0.0000 0.0000 14.1653 0.0000 0.0000
# 5 0.0000 0.0000 0.0000 0.0000 17.2423 0.0000
# 6 0.0000 0.0000 0.0000 0.0000 0.0000 11.3188
#
#
#
# Elastic Compliance Matrix: (Units=1/GPa)
#
#
# Indices 1 2 3 4 5 6 
#
# 1 0.013964 -0.005036 -0.002060 0.000000 0.000000 0.000000
# 2 -0.005036 0.020746 0.002624 0.000000 0.000000 0.000000
# 3 -0.002060 0.002624 0.012898 0.000000 0.000000 0.000000
# 4 0.000000 0.000000 0.000000 0.070595 0.000000 0.000000
# 5 0.000000 0.000000 0.000000 0.000000 0.057997 0.000000
# 6 0.000000 0.000000 0.000000 0.000000 0.000000 0.088349
#
#
# Mechanical properties :
#
#
# Convention : Reuss Voigt Hill
#
# Bulk Modulus (GPa) = 25.86298 27.99988 26.93143
# Shear Modulus (GPa) = 17.45934 21.51610 19.48772
#
# Velocity S-wave (km/s) = 3.21227 3.56598 3.39374
# Velocity P-wave (km/s) = 5.38920 5.78820 5.59226
#
# Compressibility (1/GPa) = 0.03866531
#
# Stress axis : x y z
#
# Youngs Moduli (GPa) = 71.61328 48.20284 77.52852
#
# Poissons Ratio (x) = 0.24275 0.15968
# Poissons Ratio (y) = 0.36064 -0.20345
# Poissons Ratio (z) = 0.14750 -0.12649
#
# Static dielectric constant tensor:
#      x y z
#    x 1.567490 0.000000 0.000000 
#    y 0.000000 1.609920 0.000000 
#    z 0.000000 0.000000 1.589540 
# 
# From -- ./inp_files/4374.got.cif
#   From: 2010.05.17/outbox.cif.g08.bks.cpg/sg53_3_cif.got.tgz:4374.got - 2010.06.03 12:45:16.
