data_PCOD9415502
_publ_section_title
;
Structure prediction by ZEFSAII (Michael W. Deem and Ramdas Pophale) SiO2 
 PCOD9415502
Probable space group: P M N A
;
_chemical_formula_sum "Si O2"
_cell_formula_units_Z 56
_cell_length_a 14.576965
_cell_length_b 13.308569
_cell_length_c 16.337449
_cell_angle_alpha 90.000000
_cell_angle_beta 90.000000
_cell_angle_gamma 90.000000
_cell_volume 3169.441327
_symmetry_space_group_name_H-M "P M N A"
_symmetry_group_IT_number 53
_symmetry_cell_setting 'orthorhombic'
loop_
_space_group_symop_operation_xyz
x,y,z
1/2-x,-y,1/2+z
x,-y,-z
1/2-x,y,1/2-z
-x,-y,-z
1/2+x,y,1/2-z
-x,y,z
1/2+x,-y,1/2+z
loop_
_atom_site_type_symbol
_atom_site_label
_atom_site_fract_x
_atom_site_fract_y
_atom_site_fract_z
Si Si1 0.390846 0.161374 0.219698
Si Si2 0.767514 0.296642 0.506253
Si Si3 0.890898 0.894356 0.538960
Si Si4 0.900427 0.445035 0.587591
Si Si5 0.889668 0.038839 0.126295
Si Si6 0.191113 0.623416 0.672376
Si Si7 0.109191 0.158729 0.956750
O O1 0.500000 0.172520 0.232087
O O2 0.376752 0.100505 0.136289
O O3 0.352033 0.101725 0.297481
O O4 0.352691 0.272145 0.203199
O O5 0.832145 0.198981 0.493132
O O6 0.818851 0.367157 0.571606
O O7 0.761797 0.349478 0.415984
O O8 0.670592 0.257412 0.539021
O O9 0.000000 0.876858 0.524435
O O10 0.864189 0.000000 0.500000
O O11 0.907211 0.500000 0.500000
O O12 0.877971 0.533665 0.650562
O O13 0.000000 0.397895 0.604894
O O14 0.000000 0.030213 0.136755
O O15 0.858720 0.924801 0.109410
O O16 0.876259 0.103452 0.044227
O O17 0.250000 0.589284 0.750000
O O18 0.000000 0.176694 0.947645
#
# Coordination Sequence:
#
# PCOD9415502 Si02
#       7
#     8   8   8   8   8   8   8
#     4   9  16  29  49  72 101 132 163 211 266 308
#     4  10  19  31  53  76 102 140 175 216 257 320
#     4   9  18  30  46  72 104 135 170 212 258 311
#     4   9  18  34  56  78 101 134 175 218 268 323
#     4   8  15  27  45  71 102 137 175 208 247 303
#     4  10  19  31  50  79 106 126 167 223 272 313
#     4   9  17  29  47  71 103 142 178 211 246 302
#
# _framework density 17.668728999999999
#
# number of rings (size 3 to 8) (size 9 to 14) (size 15 to 20)
#    0.000    2.857    0.000    2.571    2.000    3.429 
#    0.000    0.714    3.143    5.571    0.000    0.000 
#    0.000    0.000    0.000    0.000    0.000    0.000 
#
# Total GULP energy -311945.484269 kJ/mol
# GULP energy per Si atom -5570.455076 kJ/mol
# Density = 1.762851 g / cm^3
# Si number density = 17.668729 Si / 1000 Ang^3
#
#
#
# Elastic Constant Matrix: (Units=GPa)
#
#
# Indices 1 2 3 4 5 6 
#
# 1 68.2294 40.8051 28.0599 0.0000 0.0000 0.0000
# 2 40.8051 63.8821 34.1231 0.0000 0.0000 0.0000
# 3 28.0599 34.1231 67.2693 0.0000 0.0000 0.0000
# 4 0.0000 0.0000 0.0000 28.3800 0.0000 0.0000
# 5 0.0000 0.0000 0.0000 0.0000 5.1786 0.0000
# 6 0.0000 0.0000 0.0000 0.0000 0.0000 27.8199
#
#
#
# Elastic Compliance Matrix: (Units=1/GPa)
#
#
# Indices 1 2 3 4 5 6 
#
# 1 0.024175 -0.013793 -0.003088 0.000000 0.000000 0.000000
# 2 -0.013793 0.029341 -0.009130 0.000000 0.000000 0.000000
# 3 -0.003088 -0.009130 0.020785 0.000000 0.000000 0.000000
# 4 0.000000 0.000000 0.000000 0.035236 0.000000 0.000000
# 5 0.000000 0.000000 0.000000 0.000000 0.193101 0.000000
# 6 0.000000 0.000000 0.000000 0.000000 0.000000 0.035946
#
#
# Mechanical properties :
#
#
# Convention : Reuss Voigt Hill
#
# Bulk Modulus (GPa) = 44.88336 45.03965 44.96150
# Shear Modulus (GPa) = 12.56181 18.70188 15.63185
#
# Velocity S-wave (km/s) = 2.66928 3.25695 2.97765
# Velocity P-wave (km/s) = 5.91252 6.30001 6.10934
#
# Compressibility (1/GPa) = 0.02227997
#
# Stress axis : x y z
#
# Youngs Moduli (GPa) = 41.36494 34.08203 48.11173
#
# Poissons Ratio (x) = 0.47008 0.14855
# Poissons Ratio (y) = 0.57053 0.43927
# Poissons Ratio (z) = 0.12772 0.31118
#
# Static dielectric constant tensor:
#      x y z
#    x 1.659130 0.000000 0.000000 
#    y 0.000000 1.597300 0.000000 
#    z 0.000000 0.000000 1.613940 
# 
# From -- ./inp_files/22958.got.cif
#   From: 2010.05.17/outbox.cif.g08.bks.cpg/sg53_12_cif.got.tgz:22958.got - 2010.06.03 12:45:16.
