data_PCOD9415851
_publ_section_title
;
Structure prediction by ZEFSAII (Michael W. Deem and Ramdas Pophale) SiO2 
 PCOD9415851
Probable space group: P M N A
;
_chemical_formula_sum "Si O2"
_cell_formula_units_Z 64
_cell_length_a 8.846351
_cell_length_b 20.638255
_cell_length_c 20.225666
_cell_angle_alpha 90.000000
_cell_angle_beta 90.000000
_cell_angle_gamma 90.000000
_cell_volume 3692.665530
_symmetry_space_group_name_H-M "P M N A"
_symmetry_group_IT_number 53
_symmetry_cell_setting 'orthorhombic'
loop_
_space_group_symop_operation_xyz
x,y,z
1/2-x,-y,1/2+z
x,-y,-z
1/2-x,y,1/2-z
-x,-y,-z
1/2+x,y,1/2-z
-x,y,z
1/2+x,-y,1/2+z
loop_
_atom_site_type_symbol
_atom_site_label
_atom_site_fract_x
_atom_site_fract_y
_atom_site_fract_z
Si Si1 0.818235 0.914276 0.177675
Si Si2 0.319564 0.160539 0.058559
Si Si3 0.182128 0.303266 0.414224
Si Si4 0.680518 0.579361 0.822171
Si Si5 0.181767 0.479057 0.925422
Si Si6 0.680830 0.198980 0.907078
Si Si7 0.180861 0.331900 0.943262
Si Si8 0.818085 0.976282 0.927472
O O1 0.750000 0.923666 0.250000
O O2 0.757209 0.847970 0.145678
O O3 0.000000 0.912616 0.180635
O O4 0.771424 0.972437 0.128277
O O5 0.500000 0.152588 0.063252
O O6 0.277177 0.227761 0.094477
O O7 0.241048 0.095973 0.083773
O O8 0.282312 0.172147 0.980918
O O9 0.221096 0.351240 0.354912
O O10 0.261299 0.327502 0.481175
O O11 0.000000 0.305646 0.424844
O O12 0.750000 0.572263 0.750000
O O13 0.500000 0.575568 0.818263
O O14 0.740602 0.524658 0.871992
O O15 0.218881 0.403261 0.916712
O O16 0.000000 0.486481 0.920470
O O17 0.225217 0.500000 0.000000
O O18 0.500000 0.198578 0.899990
O O19 0.742397 0.272154 0.905480
O O20 0.000000 0.324348 0.942309
O O21 0.000000 0.975137 0.928807
O O22 0.764965 0.000000 0.000000
#
# Coordination Sequence:
#
# PCOD9415851 Si02
#       8
#     8   8   8   8   8   8   8   8
#     4  11  23  39  58  81 113 150 188 230 282 340
#     4   9  18  32  54  82 111 140 179 228 275 324
#     4   9  19  35  53  80 112 145 184 230 280 335
#     4  11  23  38  58  81 114 154 193 236 287 344
#     4  10  20  36  57  85 117 148 188 235 283 337
#     4  10  20  35  55  82 114 145 182 228 277 333
#     4  10  19  32  56  85 113 144 181 231 280 329
#     4  10  20  35  55  82 113 144 184 233 277 328
#
# _framework density 17.331654
#
# number of rings (size 3 to 8) (size 9 to 14) (size 15 to 20)
#    0.000    2.000    2.500    2.250    0.000    5.000 
#    0.000    1.250    0.000    6.000    0.000    0.000 
#    0.000    0.000    0.000    0.000    0.000    0.000 
#
# Total GULP energy -357224.511542 kJ/mol
# GULP energy per Si atom -5581.632993 kJ/mol
# Density = 1.729221 g / cm^3
# Si number density = 17.331654 Si / 1000 Ang^3
#
#
#
# Elastic Constant Matrix: (Units=GPa)
#
#
# Indices 1 2 3 4 5 6 
#
# 1 37.1499 50.9487 46.2828 0.0000 0.0000 0.0000
# 2 50.9487 164.4413 90.4626 0.0000 0.0000 0.0000
# 3 46.2828 90.4626 128.7150 0.0000 0.0000 0.0000
# 4 0.0000 0.0000 0.0000 22.5766 0.0000 0.0000
# 5 0.0000 0.0000 0.0000 0.0000 20.3112 0.0000
# 6 0.0000 0.0000 0.0000 0.0000 0.0000 31.6069
#
#
#
# Elastic Compliance Matrix: (Units=1/GPa)
#
#
# Indices 1 2 3 4 5 6 
#
# 1 0.058331 -0.010653 -0.013487 0.000000 0.000000 0.000000
# 2 -0.010653 0.011860 -0.004505 0.000000 0.000000 0.000000
# 3 -0.013487 -0.004505 0.015785 0.000000 0.000000 0.000000
# 4 0.000000 0.000000 0.000000 0.044294 0.000000 0.000000
# 5 0.000000 0.000000 0.000000 0.000000 0.049234 0.000000
# 6 0.000000 0.000000 0.000000 0.000000 0.000000 0.031639
#
#
# Mechanical properties :
#
#
# Convention : Reuss Voigt Hill
#
# Bulk Modulus (GPa) = 34.86086 78.41049 56.63568
# Shear Modulus (GPa) = 17.98604 24.40642 21.19623
#
# Velocity S-wave (km/s) = 3.22492 3.75667 3.50090
# Velocity P-wave (km/s) = 5.83305 8.00975 7.00645
#
# Compressibility (1/GPa) = 0.02868546
#
# Stress axis : x y z
#
# Youngs Moduli (GPa) = 17.14366 84.31720 63.35192
#
# Poissons Ratio (x) = 0.89822 0.85444
# Poissons Ratio (y) = 0.18263 0.28539
# Poissons Ratio (z) = 0.23122 0.37983
#
# Static dielectric constant tensor:
#      x y z
#    x 1.579580 0.000000 0.000000 
#    y 0.000000 1.590570 0.000000 
#    z 0.000000 0.000000 1.561410 
# 
# From -- ./inp_files/26771.got.cif
#   From: 2010.05.17/outbox.cif.g08.bks.cpg/sg53_14_cif.got.tgz:26771.got - 2010.06.03 12:45:16.
