data_PCOD9415083
_publ_section_title
;
Structure prediction by ZEFSAII (Michael W. Deem and Ramdas Pophale) SiO2 
 PCOD9415083
Probable space group: P M N A
;
_chemical_formula_sum "Si O2"
_cell_formula_units_Z 64
_cell_length_a 7.496658
_cell_length_b 14.692611
_cell_length_c 30.601563
_cell_angle_alpha 90.000000
_cell_angle_beta 90.000000
_cell_angle_gamma 90.000000
_cell_volume 3370.623839
_symmetry_space_group_name_H-M "P M N A"
_symmetry_group_IT_number 53
_symmetry_cell_setting 'orthorhombic'
loop_
_space_group_symop_operation_xyz
x,y,z
1/2-x,-y,1/2+z
x,-y,-z
1/2-x,y,1/2-z
-x,-y,-z
1/2+x,y,1/2-z
-x,y,z
1/2+x,-y,1/2+z
loop_
_atom_site_type_symbol
_atom_site_label
_atom_site_fract_x
_atom_site_fract_y
_atom_site_fract_z
Si Si1 0.202441 0.795820 0.417431
Si Si2 0.214337 0.619769 0.377443
Si Si3 0.782630 0.181573 0.415034
Si Si4 0.786649 0.451905 0.067525
Si Si5 0.781842 0.988031 0.449520
Si Si6 0.793858 0.691354 0.997536
Si Si7 0.214123 0.509427 0.699973
Si Si8 0.796880 0.325496 0.350850
O O1 0.285043 0.721455 0.384812
O O2 0.283485 0.893620 0.428666
O O3 0.196360 0.740357 0.463015
O O4 0.000000 0.813687 0.402454
O O5 0.251328 0.555585 0.419476
O O6 0.280842 0.565099 0.334967
O O7 0.000000 0.626502 0.374188
O O8 0.716842 0.239553 0.456473
O O9 0.719164 0.233145 0.371203
O O10 0.000000 0.186496 0.415668
O O11 0.731185 0.077377 0.422329
O O12 0.726656 0.404088 0.022716
O O13 0.703442 0.393408 0.107144
O O14 0.000000 0.438615 0.068847
O O15 0.000000 0.983941 0.450679
O O16 0.725097 0.000000 0.500000
O O17 0.000000 0.680094 0.010768
O O18 0.250000 0.487531 0.750000
O O19 0.284810 0.609687 0.686207
O O20 0.000000 0.513357 0.694182
O O21 0.000000 0.304555 0.337837
#
# Coordination Sequence:
#
# PCOD9415083 Si02
#       8
#     8   8   8   8   8   8   8   8
#     4  10  19  31  45  60  83 116 151 187 220 249
#     4   9  19  33  46  62  86 113 144 180 215 257
#     4   9  15  27  46  63  85 117 148 182 220 253
#     4   9  17  28  42  59  84 116 148 180 215 252
#     4   9  15  25  44  68  85 106 151 196 219 243
#     4  10  19  28  39  60  87 116 150 186 219 253
#     4   9  17  30  47  69  90 108 135 170 212 264
#     4   8  15  27  44  66  90 113 140 174 210 256
#
# _framework density 18.987583000000001
#
# number of rings (size 3 to 8) (size 9 to 14) (size 15 to 20)
#    0.000    2.875    1.250    1.500    0.000    4.500 
#    0.000    3.750    0.000    0.000    0.000    0.875 
#    0.000    0.000    0.000    0.000    0.000    0.000 
#
# Total GULP energy -356653.003228 kJ/mol
# GULP energy per Si atom -5572.703175 kJ/mol
# Density = 1.894437 g / cm^3
# Si number density = 18.987583 Si / 1000 Ang^3
#
#
#
# Elastic Constant Matrix: (Units=GPa)
#
#
# Indices 1 2 3 4 5 6 
#
# 1 58.8709 3.2255 -0.6490 0.0000 0.0000 0.0000
# 2 3.2255 177.4291 55.8979 0.0000 0.0000 0.0000
# 3 -0.6490 55.8979 79.9194 0.0000 0.0000 0.0000
# 4 0.0000 0.0000 0.0000 20.7697 0.0000 0.0000
# 5 0.0000 0.0000 0.0000 0.0000 9.6714 0.0000
# 6 0.0000 0.0000 0.0000 0.0000 0.0000 -6.4145
#
#
#
# Elastic Compliance Matrix: (Units=1/GPa)
#
#
# Indices 1 2 3 4 5 6 
#
# 1 0.017016 -0.000453 0.000455 0.000000 0.000000 0.000000
# 2 -0.000453 0.007241 -0.005068 0.000000 0.000000 0.000000
# 3 0.000455 -0.005068 0.016061 0.000000 0.000000 0.000000
# 4 0.000000 0.000000 0.000000 0.048147 0.000000 0.000000
# 5 0.000000 0.000000 0.000000 0.000000 0.103398 0.000000
# 6 0.000000 0.000000 0.000000 0.000000 0.000000 -0.155896
#
#
# Mechanical properties :
#
#
# Convention : Reuss Voigt Hill
#
# Bulk Modulus (GPa) = 33.12780 48.12979 40.62879
# Shear Modulus (GPa) = 89.02990 21.98832 55.50911
#
# Velocity S-wave (km/s) = 6.85495 3.40669 5.41275
# Velocity P-wave (km/s) = 8.95202 6.39352 7.77868
#
# Compressibility (1/GPa) = 0.03018613
#
# Stress axis : x y z
#
# Youngs Moduli (GPa) = 58.76771 138.10257 62.26199
#
# Poissons Ratio (x) = 0.06251 -0.02831
# Poissons Ratio (y) = 0.02660 0.31556
# Poissons Ratio (z) = -0.02672 0.69994
#
# Static dielectric constant tensor:
#      x y z
#    x 1.743440 0.000000 0.000000 
#    y 0.000000 1.709070 0.000000 
#    z 0.000000 0.000000 1.650540 
# 
# From -- ./inp_files/38490.got.cif
#   From: 2010.05.17/outbox.cif.g08.bks.cpg/sg53_20_cif.got.tgz:38490.got - 2010.06.03 12:45:16.
