data_PCOD9415341
_publ_section_title
;
Structure prediction by ZEFSAII (Michael W. Deem and Ramdas Pophale) SiO2 
 PCOD9415341
Probable space group: P M N A
;
_chemical_formula_sum "Si O2"
_cell_formula_units_Z 64
_cell_length_a 8.967043
_cell_length_b 14.203616
_cell_length_c 32.855065
_cell_angle_alpha 90.000000
_cell_angle_beta 90.000000
_cell_angle_gamma 90.000000
_cell_volume 4184.566805
_symmetry_space_group_name_H-M "P M N A"
_symmetry_group_IT_number 53
_symmetry_cell_setting 'orthorhombic'
loop_
_space_group_symop_operation_xyz
x,y,z
1/2-x,-y,1/2+z
x,-y,-z
1/2-x,y,1/2-z
-x,-y,-z
1/2+x,y,1/2-z
-x,y,z
1/2+x,-y,1/2+z
loop_
_atom_site_type_symbol
_atom_site_label
_atom_site_fract_x
_atom_site_fract_y
_atom_site_fract_z
Si Si1 0.680416 0.001311 0.382250
Si Si2 0.828130 0.537096 0.453073
Si Si3 0.824446 0.205209 0.374144
Si Si4 0.329263 0.017764 0.708394
Si Si5 0.671805 0.277903 0.522263
Si Si6 0.679457 0.076831 0.964911
Si Si7 0.328137 0.788705 0.708902
Si Si8 0.169941 0.353586 0.070253
O O1 0.500000 0.998938 0.383513
O O2 0.728583 0.961453 0.337511
O O3 0.750088 0.951306 0.421456
O O4 0.735901 0.109253 0.383932
O O5 0.828277 0.500000 0.500000
O O6 0.755280 0.640172 0.452772
O O7 0.730899 0.459715 0.429638
O O8 0.000000 0.539081 0.439611
O O9 0.768836 0.237697 0.329954
O O10 0.778470 0.285296 0.405464
O O11 0.000000 0.186025 0.374561
O O12 0.250000 0.050032 0.750000
O O13 0.500000 0.049545 0.710139
O O14 0.328556 0.903330 0.709839
O O15 0.500000 0.266199 0.535604
O O16 0.756865 0.179053 0.523624
O O17 0.668997 0.316371 0.476095
O O18 0.500000 0.079110 0.961964
O O19 0.718538 0.000000 0.000000
O O20 0.250000 0.755599 0.750000
O O21 0.500000 0.758903 0.705490
O O22 0.000000 0.347823 0.085685
#
# Coordination Sequence:
#
# PCOD9415341 Si02
#       8
#     8   8   8   8   8   8   8   8
#     4  10  20  33  46  63  89 121 157 193 229 272
#     4   9  17  30  48  68  89 112 141 181 225 266
#     4  11  20  29  43  64  90 120 152 187 227 267
#     4   8  15  26  42  62  83 109 142 181 224 269
#     4  10  20  33  49  66  87 118 152 187 228 271
#     4  11  23  35  47  65  90 122 160 197 231 270
#     4   9  16  27  41  59  84 115 149 182 219 265
#     4  10  19  31  47  67  90 116 149 186 225 269
#
# _framework density 15.294295
#
# number of rings (size 3 to 8) (size 9 to 14) (size 15 to 20)
#    0.000    2.250    0.000    4.875    0.000    9.500 
#    0.000    0.000    0.000    0.000    0.000    0.000 
#    0.000    1.000    0.000    8.500    0.000    5.750 
#
# Total GULP energy -356654.486854 kJ/mol
# GULP energy per Si atom -5572.726357 kJ/mol
# Density = 1.525948 g / cm^3
# Si number density = 15.294295 Si / 1000 Ang^3
#
#
#
# Elastic Constant Matrix: (Units=GPa)
#
#
# Indices 1 2 3 4 5 6 
#
# 1 87.3006 30.8092 31.3391 0.0000 0.0000 0.0000
# 2 30.8092 78.6233 24.9728 0.0000 0.0000 0.0000
# 3 31.3391 24.9728 67.1691 0.0000 0.0000 0.0000
# 4 0.0000 0.0000 0.0000 6.8991 0.0000 0.0000
# 5 0.0000 0.0000 0.0000 0.0000 25.6370 0.0000
# 6 0.0000 0.0000 0.0000 0.0000 0.0000 21.0301
#
#
#
# Elastic Compliance Matrix: (Units=1/GPa)
#
#
# Indices 1 2 3 4 5 6 
#
# 1 0.014840 -0.004100 -0.005399 0.000000 0.000000 0.000000
# 2 -0.004100 0.015555 -0.003870 0.000000 0.000000 0.000000
# 3 -0.005399 -0.003870 0.018846 0.000000 0.000000 0.000000
# 4 0.000000 0.000000 0.000000 0.144947 0.000000 0.000000
# 5 0.000000 0.000000 0.000000 0.000000 0.039006 0.000000
# 6 0.000000 0.000000 0.000000 0.000000 0.000000 0.047551
#
#
# Mechanical properties :
#
#
# Convention : Reuss Voigt Hill
#
# Bulk Modulus (GPa) = 44.44213 45.25946 44.85079
# Shear Modulus (GPa) = 15.87380 20.44470 18.15925
#
# Velocity S-wave (km/s) = 3.22513 3.66013 3.44949
# Velocity P-wave (km/s) = 6.55665 6.89338 6.72712
#
# Compressibility (1/GPa) = 0.02250117
#
# Stress axis : x y z
#
# Youngs Moduli (GPa) = 67.38566 64.28890 53.06199
#
# Poissons Ratio (x) = 0.26359 0.28651
# Poissons Ratio (y) = 0.27629 0.20536
# Poissons Ratio (z) = 0.36385 0.24880
#
# Static dielectric constant tensor:
#      x y z
#    x 1.518960 0.000000 0.000000 
#    y 0.000000 1.482900 0.000000 
#    z 0.000000 0.000000 1.535380 
# 
# From -- ./inp_files/38260.got.cif
#   From: 2010.05.17/outbox.cif.g08.bks.cpg/sg53_20_cif.got.tgz:38260.got - 2010.06.03 12:45:16.
