data_PCOD9415694
_publ_section_title
;
Structure prediction by ZEFSAII (Michael W. Deem and Ramdas Pophale) SiO2 
 PCOD9415694
Probable space group: P M N A
;
_chemical_formula_sum "Si O2"
_cell_formula_units_Z 56
_cell_length_a 9.081379
_cell_length_b 19.721466
_cell_length_c 18.921798
_cell_angle_alpha 90.000000
_cell_angle_beta 90.000000
_cell_angle_gamma 90.000000
_cell_volume 3388.858206
_symmetry_space_group_name_H-M "P M N A"
_symmetry_group_IT_number 53
_symmetry_cell_setting 'orthorhombic'
loop_
_space_group_symop_operation_xyz
x,y,z
1/2-x,-y,1/2+z
x,-y,-z
1/2-x,y,1/2-z
-x,-y,-z
1/2+x,y,1/2-z
-x,y,z
1/2+x,-y,1/2+z
loop_
_atom_site_type_symbol
_atom_site_label
_atom_site_fract_x
_atom_site_fract_y
_atom_site_fract_z
Si Si1 0.330247 0.067691 0.955426
Si Si2 0.825928 0.031890 0.820762
Si Si3 0.676039 0.647499 0.953840
Si Si4 0.332530 0.193654 0.059707
Si Si5 0.827933 0.875818 0.819227
Si Si6 0.678937 0.442566 0.329590
Si Si7 0.670654 0.452222 0.930230
O O1 0.500000 0.057189 0.932889
O O2 0.225945 0.071750 0.888659
O O3 0.322877 0.137045 0.999006
O O4 0.289850 0.000000 0.000000
O O5 0.750000 0.057159 0.750000
O O6 0.000000 0.032539 0.812991
O O7 0.775773 0.953345 0.831560
O O8 0.500000 0.632052 0.944924
O O9 0.691542 0.728208 0.958299
O O10 0.760009 0.614213 0.886195
O O11 0.721468 0.616323 0.030236
O O12 0.500000 0.187816 0.088812
O O13 0.215149 0.170501 0.116489
O O14 0.750000 0.849029 0.750000
O O15 0.000000 0.878498 0.807799
O O16 0.750000 0.436452 0.250000
O O17 0.500000 0.439982 0.325312
O O18 0.734285 0.512094 0.368914
O O19 0.500000 0.446295 0.906475
O O20 0.672319 0.500000 0.000000
#
# Coordination Sequence:
#
# PCOD9415694 Si02
#       7
#     8   8   8   8   8   8   8
#     4  10  19  32  52  76 102 131 170 219 264 309
#     4  10  20  33  51  72  96 126 164 212 264 313
#     4   9  19  35  53  74 104 140 173 205 249 304
#     4  10  20  34  52  74 102 138 173 208 255 308
#     4  10  20  32  47  68  96 130 167 208 255 307
#     4  11  21  33  53  80 108 137 170 207 247 292
#     4   8  15  31  53  75 101 132 166 204 244 290
#
# _framework density 16.524739
#
# number of rings (size 3 to 8) (size 9 to 14) (size 15 to 20)
#    0.000    2.286    1.429    3.000    0.000    5.714 
#    0.000    0.000    0.000    0.857    0.000    0.000 
#    0.000    0.000    0.000    0.000    0.000    0.000 
#
# Total GULP energy -311785.901765 kJ/mol
# GULP energy per Si atom -5567.605389 kJ/mol
# Density = 1.648713 g / cm^3
# Si number density = 16.524739 Si / 1000 Ang^3
#
#
#
# Elastic Constant Matrix: (Units=GPa)
#
#
# Indices 1 2 3 4 5 6 
#
# 1 71.5432 33.5708 51.1324 0.0000 0.0000 0.0000
# 2 33.5708 57.0338 38.8997 0.0000 0.0000 0.0000
# 3 51.1324 38.8997 73.6764 0.0000 0.0000 0.0000
# 4 0.0000 0.0000 0.0000 10.8487 0.0000 0.0000
# 5 0.0000 0.0000 0.0000 0.0000 30.6473 0.0000
# 6 0.0000 0.0000 0.0000 0.0000 0.0000 19.5718
#
#
#
# Elastic Compliance Matrix: (Units=1/GPa)
#
#
# Indices 1 2 3 4 5 6 
#
# 1 0.028676 -0.005165 -0.017174 0.000000 0.000000 0.000000
# 2 -0.005165 0.028331 -0.011373 0.000000 0.000000 0.000000
# 3 -0.017174 -0.011373 0.031497 0.000000 0.000000 0.000000
# 4 0.000000 0.000000 0.000000 0.092177 0.000000 0.000000
# 5 0.000000 0.000000 0.000000 0.000000 0.032629 0.000000
# 6 0.000000 0.000000 0.000000 0.000000 0.000000 0.051094
#
#
# Mechanical properties :
#
#
# Convention : Reuss Voigt Hill
#
# Bulk Modulus (GPa) = 47.44309 49.93990 48.69149
# Shear Modulus (GPa) = 14.75553 17.45693 16.10623
#
# Velocity S-wave (km/s) = 2.99145 3.25378 3.12536
# Velocity P-wave (km/s) = 6.37999 6.66356 6.52332
#
# Compressibility (1/GPa) = 0.02107788
#
# Stress axis : x y z
#
# Youngs Moduli (GPa) = 34.87255 35.29690 31.74906
#
# Poissons Ratio (x) = 0.18232 0.54527
# Poissons Ratio (y) = 0.18013 0.36110
# Poissons Ratio (z) = 0.59891 0.40145
#
# Static dielectric constant tensor:
#      x y z
#    x 1.569570 0.000000 0.000000 
#    y 0.000000 1.603540 0.000000 
#    z 0.000000 0.000000 1.604450 
# 
# From -- ./inp_files/26705.got.cif
#   From: 2010.05.17/outbox.cif.g08.bks.cpg/sg53_14_cif.got.tgz:26705.got - 2010.06.03 12:45:16.
