data_PCOD9415363
_publ_section_title
;
Structure prediction by ZEFSAII (Michael W. Deem and Ramdas Pophale) SiO2 
 PCOD9415363
Probable space group: P M N A
;
_chemical_formula_sum "Si O2"
_cell_formula_units_Z 64
_cell_length_a 8.315230
_cell_length_b 17.314385
_cell_length_c 24.531061
_cell_angle_alpha 90.000000
_cell_angle_beta 90.000000
_cell_angle_gamma 90.000000
_cell_volume 3531.812741
_symmetry_space_group_name_H-M "P M N A"
_symmetry_group_IT_number 53
_symmetry_cell_setting 'orthorhombic'
loop_
_space_group_symop_operation_xyz
x,y,z
1/2-x,-y,1/2+z
x,-y,-z
1/2-x,y,1/2-z
-x,-y,-z
1/2+x,y,1/2-z
-x,y,z
1/2+x,-y,1/2+z
loop_
_atom_site_type_symbol
_atom_site_label
_atom_site_fract_x
_atom_site_fract_y
_atom_site_fract_z
Si Si1 0.190489 0.365392 0.088648
Si Si2 0.690211 0.688524 0.021926
Si Si3 0.806999 0.620596 0.311291
Si Si4 0.304535 0.223024 0.873307
Si Si5 0.693930 0.901737 0.812641
Si Si6 0.304945 0.070381 0.812826
Si Si7 0.191992 0.267629 0.312101
Si Si8 0.690375 0.461004 0.584406
O O1 0.254698 0.331518 0.145009
O O2 0.251336 0.452102 0.076105
O O3 0.000000 0.371649 0.093300
O O4 0.233591 0.311636 0.037542
O O5 0.500000 0.698574 0.016062
O O6 0.750937 0.750500 0.066636
O O7 0.724654 0.604950 0.048993
O O8 0.750000 0.609593 0.250000
O O9 0.763919 0.706758 0.332444
O O10 0.722878 0.562284 0.353063
O O11 0.000000 0.612273 0.315557
O O12 0.500000 0.220202 0.875506
O O13 0.247178 0.141831 0.849378
O O14 0.750000 0.902672 0.750000
O O15 0.500000 0.901651 0.815190
O O16 0.749682 0.817614 0.832746
O O17 0.747626 0.985537 0.834282
O O18 0.250000 0.079377 0.750000
O O19 0.500000 0.071815 0.812566
O O20 0.250000 0.279643 0.250000
O O21 0.000000 0.266233 0.310437
O O22 0.500000 0.457409 0.571989
#
# Coordination Sequence:
#
# PCOD9415363 Si02
#       8
#     8   8   8   8   8   8   8   8
#     4  11  23  37  54  75  96 124 163 204 246 292
#     4  10  20  35  54  75  99 128 163 202 245 289
#     4  10  19  31  47  69  99 134 168 200 242 292
#     4   8  16  29  46  70  99 130 163 199 236 280
#     4   8  15  27  46  71  98 128 159 193 235 283
#     4   9  15  26  45  71 102 131 161 196 234 279
#     4  10  20  35  54  77 103 129 159 197 244 294
#     4  10  21  36  52  71  96 126 163 206 248 291
#
# _framework density 18.121006000000001
#
# number of rings (size 3 to 8) (size 9 to 14) (size 15 to 20)
#    0.000    2.500    0.000    3.375    0.000    4.500 
#    0.000    3.125    0.000    0.750    0.000    5.250 
#    0.000    0.000    0.000    0.000    0.000    0.000 
#
# Total GULP energy -356712.439992 kJ/mol
# GULP energy per Si atom -5573.631875 kJ/mol
# Density = 1.807976 g / cm^3
# Si number density = 18.121006 Si / 1000 Ang^3
#
#
#
# Elastic Constant Matrix: (Units=GPa)
#
#
# Indices 1 2 3 4 5 6 
#
# 1 12.2004 3.4553 -1.2155 0.0000 0.0000 0.0000
# 2 3.4553 55.3362 9.9160 0.0000 0.0000 0.0000
# 3 -1.2155 9.9160 74.5348 0.0000 0.0000 0.0000
# 4 0.0000 0.0000 0.0000 15.4280 0.0000 0.0000
# 5 0.0000 0.0000 0.0000 0.0000 25.6206 0.0000
# 6 0.0000 0.0000 0.0000 0.0000 0.0000 20.9896
#
#
#
# Elastic Compliance Matrix: (Units=1/GPa)
#
#
# Indices 1 2 3 4 5 6 
#
# 1 0.083764 -0.005609 0.002112 0.000000 0.000000 0.000000
# 2 -0.005609 0.018888 -0.002604 0.000000 0.000000 0.000000
# 3 0.002112 -0.002604 0.013797 0.000000 0.000000 0.000000
# 4 0.000000 0.000000 0.000000 0.064817 0.000000 0.000000
# 5 0.000000 0.000000 0.000000 0.000000 0.039031 0.000000
# 6 0.000000 0.000000 0.000000 0.000000 0.000000 0.047643
#
#
# Mechanical properties :
#
#
# Convention : Reuss Voigt Hill
#
# Bulk Modulus (GPa) = 9.59256 18.48700 14.03978
# Shear Modulus (GPa) = 15.87849 21.06870 18.47359
#
# Velocity S-wave (km/s) = 2.96336 3.41349 3.19636
# Velocity P-wave (km/s) = 4.12477 5.07543 4.62460
#
# Compressibility (1/GPa) = 0.10424750
#
# Stress axis : x y z
#
# Youngs Moduli (GPa) = 11.93833 52.94297 72.47709
#
# Poissons Ratio (x) = 0.29695 -0.15308
# Poissons Ratio (y) = 0.06696 0.18875
# Poissons Ratio (z) = -0.02522 0.13788
#
# Static dielectric constant tensor:
#      x y z
#    x 1.621550 0.000000 0.000000 
#    y 0.000000 1.671100 0.000000 
#    z 0.000000 0.000000 1.595030 
# 
# From -- ./inp_files/34443.got.cif
#   From: 2010.05.17/outbox.cif.g08.bks.cpg/sg53_18_cif.got.tgz:34443.got - 2010.06.03 12:45:16.
