data_PCOD9415920
_publ_section_title
;
Structure prediction by ZEFSAII (Michael W. Deem and Ramdas Pophale) SiO2 
 PCOD9415920
Probable space group: P M N A
;
_chemical_formula_sum "Si O2"
_cell_formula_units_Z 56
_cell_length_a 8.769174
_cell_length_b 19.477067
_cell_length_c 18.530554
_cell_angle_alpha 90.000000
_cell_angle_beta 90.000000
_cell_angle_gamma 90.000000
_cell_volume 3164.977662
_symmetry_space_group_name_H-M "P M N A"
_symmetry_group_IT_number 53
_symmetry_cell_setting 'orthorhombic'
loop_
_space_group_symop_operation_xyz
x,y,z
1/2-x,-y,1/2+z
x,-y,-z
1/2-x,y,1/2-z
-x,-y,-z
1/2+x,y,1/2-z
-x,y,z
1/2+x,-y,1/2+z
loop_
_atom_site_type_symbol
_atom_site_label
_atom_site_fract_x
_atom_site_fract_y
_atom_site_fract_z
Si Si1 0.682369 0.782835 0.100773
Si Si2 0.681799 0.075805 0.579434
Si Si3 0.317706 0.795716 0.829523
Si Si4 0.817920 0.359576 0.672823
Si Si5 0.317133 0.427568 0.532300
Si Si6 0.817559 0.067374 0.418452
Si Si7 0.818066 0.714887 0.958686
O O1 0.500000 0.790730 0.100608
O O2 0.760428 0.855152 0.117624
O O3 0.725352 0.719133 0.152183
O O4 0.737396 0.759117 0.021398
O O5 0.500000 0.071573 0.580368
O O6 0.740188 0.079798 0.496335
O O7 0.754916 0.005599 0.608929
O O8 0.250000 0.791644 0.750000
O O9 0.500000 0.788048 0.827930
O O10 0.282689 0.869708 0.865650
O O11 0.245334 0.739332 0.882466
O O12 0.750000 0.378053 0.750000
O O13 0.757035 0.407010 0.608228
O O14 0.000000 0.362954 0.674673
O O15 0.265153 0.500000 0.500000
O O16 0.500000 0.430724 0.542468
O O17 0.286095 0.364395 0.477968
O O18 0.000000 0.063651 0.428763
O O19 0.000000 0.725936 0.962728
#
# Coordination Sequence:
#
# PCOD9415920 Si02
#       7
#     8   8   8   8   8   8   8
#     4  10  19  33  53  78 108 142 180 223 272 325
#     4  11  20  30  51  79 104 135 178 229 274 325
#     4  11  23  37  55  76 106 145 185 231 280 330
#     4  10  21  36  57  84 115 149 185 226 274 330
#     4   9  19  37  61  88 117 148 182 222 269 324
#     4  10  20  34  51  72 103 140 178 226 280 330
#     4  10  19  33  56  82 108 138 178 224 267 320
#
# _framework density 17.693649000000001
#
# number of rings (size 3 to 8) (size 9 to 14) (size 15 to 20)
#    0.000    1.857    1.429    4.286    0.000    4.286 
#    0.000    1.429    0.000    0.000    0.000    0.000 
#    0.000    0.000    0.000    0.000    0.000    0.000 
#
# Total GULP energy -312711.810294 kJ/mol
# GULP energy per Si atom -5584.139470 kJ/mol
# Density = 1.765338 g / cm^3
# Si number density = 17.693649 Si / 1000 Ang^3
#
#
#
# Elastic Constant Matrix: (Units=GPa)
#
#
# Indices 1 2 3 4 5 6 
#
# 1 66.0241 46.2146 38.7724 0.0000 0.0000 0.0000
# 2 46.2146 129.3437 55.6230 0.0000 0.0000 0.0000
# 3 38.7724 55.6230 111.0044 0.0000 0.0000 0.0000
# 4 0.0000 0.0000 0.0000 17.1421 0.0000 0.0000
# 5 0.0000 0.0000 0.0000 0.0000 21.4061 0.0000
# 6 0.0000 0.0000 0.0000 0.0000 0.0000 26.0154
#
#
#
# Elastic Compliance Matrix: (Units=1/GPa)
#
#
# Indices 1 2 3 4 5 6 
#
# 1 0.022021 -0.005813 -0.004779 0.000000 0.000000 0.000000
# 2 -0.005813 0.011389 -0.003677 0.000000 0.000000 0.000000
# 3 -0.004779 -0.003677 0.012520 0.000000 0.000000 0.000000
# 4 0.000000 0.000000 0.000000 0.058336 0.000000 0.000000
# 5 0.000000 0.000000 0.000000 0.000000 0.046716 0.000000
# 6 0.000000 0.000000 0.000000 0.000000 0.000000 0.038439
#
#
# Mechanical properties :
#
#
# Convention : Reuss Voigt Hill
#
# Bulk Modulus (GPa) = 57.49230 65.28803 61.39017
# Shear Modulus (GPa) = 22.34570 23.96353 23.15461
#
# Velocity S-wave (km/s) = 3.55762 3.68415 3.62144
# Velocity P-wave (km/s) = 7.03130 7.42136 7.22896
#
# Compressibility (1/GPa) = 0.01739363
#
# Stress axis : x y z
#
# Youngs Moduli (GPa) = 45.41049 87.80022 79.87094
#
# Poissons Ratio (x) = 0.51039 0.38169
# Poissons Ratio (y) = 0.26398 0.29366
# Poissons Ratio (z) = 0.21701 0.32281
#
# Static dielectric constant tensor:
#      x y z
#    x 1.589170 0.000000 0.000000 
#    y 0.000000 1.621990 0.000000 
#    z 0.000000 0.000000 1.576320 
# 
# From -- ./inp_files/26682.got.cif
#   From: 2010.05.17/outbox.cif.g08.bks.cpg/sg53_14_cif.got.tgz:26682.got - 2010.06.03 12:45:16.
