data_PCOD9415918
_publ_section_title
;
Structure prediction by ZEFSAII (Michael W. Deem and Ramdas Pophale) SiO2 
 PCOD9415918
Probable space group: P M N A
;
_chemical_formula_sum "Si O2"
_cell_formula_units_Z 48
_cell_length_a 8.623421
_cell_length_b 32.330849
_cell_length_c 9.210456
_cell_angle_alpha 90.000000
_cell_angle_beta 90.000000
_cell_angle_gamma 90.000000
_cell_volume 2567.898364
_symmetry_space_group_name_H-M "P M N A"
_symmetry_group_IT_number 53
_symmetry_cell_setting 'orthorhombic'
loop_
_space_group_symop_operation_xyz
x,y,z
1/2-x,-y,1/2+z
x,-y,-z
1/2-x,y,1/2-z
-x,-y,-z
1/2+x,y,1/2-z
-x,y,z
1/2+x,-y,1/2+z
loop_
_atom_site_type_symbol
_atom_site_label
_atom_site_fract_x
_atom_site_fract_y
_atom_site_fract_z
Si Si1 0.187251 0.040049 0.586959
Si Si2 0.186372 0.379830 0.913002
Si Si3 0.187112 0.297790 0.087607
Si Si4 0.186007 0.869598 0.414984
Si Si5 0.313859 0.541578 0.913024
Si Si6 0.685970 0.783823 0.414168
O O1 0.250000 0.037970 0.750000
O O2 0.229895 0.085292 0.522616
O O3 0.000000 0.038926 0.591941
O O4 0.242836 0.000000 0.500000
O O5 0.250000 0.380927 0.750000
O O6 0.000000 0.381084 0.909119
O O7 0.235507 0.337554 0.993409
O O8 0.247872 0.418812 0.003189
O O9 0.250000 0.300482 0.250000
O O10 0.000000 0.297747 0.092830
O O11 0.236541 0.255452 0.008676
O O12 0.250000 0.870466 0.250000
O O13 0.255127 0.827482 0.478583
O O14 0.000000 0.866341 0.412081
O O15 0.250000 0.540053 0.750000
O O16 0.500000 0.544172 0.908874
O O17 0.270163 0.500000 0.000000
O O18 0.750000 0.779752 0.250000
O O19 0.500000 0.784736 0.406687
#
# Coordination Sequence:
#
# PCOD9415918 Si02
#       6
#     8   8   8   8   8   8
#     4   9  18  32  49  71  99 130 167 210 255 307
#     4  11  23  40  62  88 116 148 189 233 278 327
#     4  10  23  39  56  80 110 144 180 220 267 321
#     4   9  16  28  48  72  98 130 168 210 256 305
#     4  11  24  41  62  89 121 156 193 234 280 330
#     4  10  19  33  53  78 104 132 171 215 260 311
#
# _framework density 18.692328
#
# number of rings (size 3 to 8) (size 9 to 14) (size 15 to 20)
#    0.000    2.000    0.000    4.500    0.000    7.667 
#    0.000    0.833    0.000    4.000    0.000    0.000 
#    0.000    0.000    0.000    0.000    0.000    0.000 
#
# Total GULP energy -267938.781345 kJ/mol
# GULP energy per Si atom -5582.057945 kJ/mol
# Density = 1.864978 g / cm^3
# Si number density = 18.692328 Si / 1000 Ang^3
#
#
#
# Elastic Constant Matrix: (Units=GPa)
#
#
# Indices 1 2 3 4 5 6 
#
# 1 41.7222 52.4143 30.3088 0.0000 0.0000 0.0000
# 2 52.4143 233.4271 100.8222 0.0000 0.0000 0.0000
# 3 30.3088 100.8222 126.2497 0.0000 0.0000 0.0000
# 4 0.0000 0.0000 0.0000 120.3305 0.0000 0.0000
# 5 0.0000 0.0000 0.0000 0.0000 27.7035 0.0000
# 6 0.0000 0.0000 0.0000 0.0000 0.0000 29.7891
#
#
#
# Elastic Compliance Matrix: (Units=1/GPa)
#
#
# Indices 1 2 3 4 5 6 
#
# 1 0.034198 -0.006309 -0.003172 0.000000 0.000000 0.000000
# 2 -0.006309 0.007704 -0.004637 0.000000 0.000000 0.000000
# 3 -0.003172 -0.004637 0.012386 0.000000 0.000000 0.000000
# 4 0.000000 0.000000 0.000000 0.008310 0.000000 0.000000
# 5 0.000000 0.000000 0.000000 0.000000 0.036096 0.000000
# 6 0.000000 0.000000 0.000000 0.000000 0.000000 0.033569
#
#
# Mechanical properties :
#
#
# Convention : Reuss Voigt Hill
#
# Bulk Modulus (GPa) = 38.38616 85.38776 61.88696
# Shear Modulus (GPa) = 29.55376 50.08820 39.82098
#
# Velocity S-wave (km/s) = 3.98057 5.18211 4.62057
# Velocity P-wave (km/s) = 6.45809 9.03247 7.85151
#
# Compressibility (1/GPa) = 0.02605106
#
# Stress axis : x y z
#
# Youngs Moduli (GPa) = 29.24163 129.80827 80.73838
#
# Poissons Ratio (x) = 0.81896 0.25607
# Poissons Ratio (y) = 0.18449 0.37442
# Poissons Ratio (z) = 0.09274 0.60199
#
# Static dielectric constant tensor:
#      x y z
#    x 1.633740 0.000000 0.000000 
#    y 0.000000 1.683320 0.000000 
#    z 0.000000 0.000000 1.604200 
# 
# From -- ./inp_files/6734.got.cif
#   From: 2010.05.17/outbox.cif.g08.bks.cpg/sg53_4_cif.got.tgz:6734.got - 2010.06.03 12:45:16.
