data_PCOD9415967
_publ_section_title
;
Structure prediction by ZEFSAII (Michael W. Deem and Ramdas Pophale) SiO2 
 PCOD9415967
Probable space group: P M N A
;
_chemical_formula_sum "Si O2"
_cell_formula_units_Z 40
_cell_length_a 11.306302
_cell_length_b 22.116913
_cell_length_c 7.179397
_cell_angle_alpha 90.000000
_cell_angle_beta 90.000000
_cell_angle_gamma 90.000000
_cell_volume 1795.283587
_symmetry_space_group_name_H-M "P M N A"
_symmetry_group_IT_number 53
_symmetry_cell_setting 'orthorhombic'
loop_
_space_group_symop_operation_xyz
x,y,z
1/2-x,-y,1/2+z
x,-y,-z
1/2-x,y,1/2-z
-x,-y,-z
1/2+x,y,1/2-z
-x,y,z
1/2+x,-y,1/2+z
loop_
_atom_site_type_symbol
_atom_site_label
_atom_site_fract_x
_atom_site_fract_y
_atom_site_fract_z
Si Si1 0.126817 0.428371 0.030461
Si Si2 0.372915 0.072002 0.520822
Si Si3 0.131776 0.241164 0.372837
Si Si4 0.127717 0.882592 0.447879
Si Si5 0.627827 0.617819 0.958774
O O1 0.250300 0.404070 0.953394
O O2 0.127046 0.409871 0.249082
O O3 0.000000 0.404384 0.959161
O O4 0.127630 0.500000 0.000000
O O5 0.500000 0.094571 0.444628
O O6 0.372498 0.093547 0.736591
O O7 0.245096 0.093596 0.452776
O O8 0.373255 0.000000 0.500000
O O9 0.250000 0.232555 0.250000
O O10 0.133871 0.189866 0.531779
O O11 0.134600 0.309768 0.444122
O O12 0.000000 0.234567 0.279939
O O13 0.000000 0.902427 0.526273
O O14 0.500000 0.600169 0.040590
#
# Coordination Sequence:
#
# PCOD9415967 Si02
#       5
#     8   8   8   8   8
#     4   9  16  27  46  71  99 132 173 217 259 313
#     4   9  18  36  60  82 108 142 180 224 275 333
#     4  10  19  33  54  80 110 144 185 229 276 334
#     4   9  19  35  56  83 110 140 181 227 274 329
#     4   9  17  30  48  72 100 133 174 220 271 322
#
# _framework density 22.280601999999998
#
# number of rings (size 3 to 8) (size 9 to 14) (size 15 to 20)
#    0.000    2.800    2.000    0.000    0.000    1.600 
#    3.600    0.000    0.000    4.800    0.000   25.200 
#    0.000    0.000    0.000    0.000    0.000    0.000 
#
# Total GULP energy -222702.106406 kJ/mol
# GULP energy per Si atom -5567.552660 kJ/mol
# Density = 2.222989 g / cm^3
# Si number density = 22.280602 Si / 1000 Ang^3
#
#
#
# Elastic Constant Matrix: (Units=GPa)
#
#
# Indices 1 2 3 4 5 6 
#
# 1 310.6472 53.6070 28.5076 0.0000 0.0000 0.0000
# 2 53.6070 113.4048 28.7591 0.0000 0.0000 0.0000
# 3 28.5076 28.7591 105.3000 0.0000 0.0000 0.0000
# 4 0.0000 0.0000 0.0000 29.9209 0.0000 0.0000
# 5 0.0000 0.0000 0.0000 0.0000 -21.1550 0.0000
# 6 0.0000 0.0000 0.0000 0.0000 0.0000 34.9083
#
#
#
# Elastic Compliance Matrix: (Units=1/GPa)
#
#
# Indices 1 2 3 4 5 6 
#
# 1 0.003533 -0.001534 -0.000538 0.000000 0.000000 0.000000
# 2 -0.001534 0.010140 -0.002354 0.000000 0.000000 0.000000
# 3 -0.000538 -0.002354 0.010285 0.000000 0.000000 0.000000
# 4 0.000000 0.000000 0.000000 0.033421 0.000000 0.000000
# 5 0.000000 0.000000 0.000000 0.000000 -0.047270 0.000000
# 6 0.000000 0.000000 0.000000 0.000000 0.000000 0.028646
#
#
# Mechanical properties :
#
#
# Convention : Reuss Voigt Hill
#
# Bulk Modulus (GPa) = 66.19364 83.45548 74.82456
# Shear Modulus (GPa) = 94.97963 36.63340 65.80652
#
# Velocity S-wave (km/s) = 6.53616 4.05925 5.44054
# Velocity P-wave (km/s) = 9.31319 7.71414 8.55112
#
# Compressibility (1/GPa) = 0.01510719
#
# Stress axis : x y z
#
# Youngs Moduli (GPa) = 283.03768 98.61932 97.22726
#
# Poissons Ratio (x) = 0.15126 0.05227
# Poissons Ratio (y) = 0.43412 0.22889
# Poissons Ratio (z) = 0.15216 0.23217
#
# Static dielectric constant tensor:
#      x y z
#    x 1.941610 0.000000 0.000000 
#    y 0.000000 1.768250 0.000000 
#    z 0.000000 0.000000 1.750960 
# 
# From -- ./inp_files/7419.got.cif
#   From: 2010.05.17/outbox.cif.g08.bks.cpg/sg53_4_cif.got.tgz:7419.got - 2010.06.03 12:45:16.
