data_PCOD9415747
_publ_section_title
;
Structure prediction by ZEFSAII (Michael W. Deem and Ramdas Pophale) SiO2 
 PCOD9415747
Probable space group: P M N A
;
_chemical_formula_sum "Si O2"
_cell_formula_units_Z 56
_cell_length_a 13.738005
_cell_length_b 16.805135
_cell_length_c 11.001481
_cell_angle_alpha 90.000000
_cell_angle_beta 90.000000
_cell_angle_gamma 90.000000
_cell_volume 2539.901232
_symmetry_space_group_name_H-M "P M N A"
_symmetry_group_IT_number 53
_symmetry_cell_setting 'orthorhombic'
loop_
_space_group_symop_operation_xyz
x,y,z
1/2-x,-y,1/2+z
x,-y,-z
1/2-x,y,1/2-z
-x,-y,-z
1/2+x,y,1/2-z
-x,y,z
1/2+x,-y,1/2+z
loop_
_atom_site_type_symbol
_atom_site_label
_atom_site_fract_x
_atom_site_fract_y
_atom_site_fract_z
Si Si1 0.107371 0.308128 0.690632
Si Si2 0.616730 0.765374 0.439894
Si Si3 0.299824 0.085568 0.442722
Si Si4 0.179315 0.383648 0.074316
Si Si5 0.147664 0.533246 0.188003
Si Si6 0.887143 0.860602 0.685280
Si Si7 0.616711 0.684345 0.912672
O O1 0.152501 0.270347 0.811221
O O2 0.098795 0.401773 0.725310
O O3 0.143458 0.297598 0.554477
O O4 0.000000 0.272409 0.684761
O O5 0.500000 0.773229 0.437472
O O6 0.668260 0.847899 0.462412
O O7 0.640236 0.704479 0.549901
O O8 0.187253 0.096677 0.406010
O O9 0.358383 0.108514 0.319351
O O10 0.319494 0.000000 0.500000
O O11 0.116409 0.443004 0.159085
O O12 0.292874 0.375341 0.114184
O O13 0.165305 0.424613 0.942006
O O14 0.250000 0.524474 0.250000
O O15 0.872993 0.765216 0.665102
O O16 0.000000 0.876803 0.661005
O O17 0.500000 0.660497 0.908920
#
# Coordination Sequence:
#
# PCOD9415747 Si02
#       7
#     8   8   8   8   8   8   8
#     4   9  19  36  60  89 121 163 218 274 331 393
#     4  10  21  38  62  91 122 165 218 268 323 393
#     4  11  24  45  69  98 134 175 211 263 330 392
#     4  10  20  34  54  86 117 164 212 265 319 382
#     4  10  19  32  52  79 119 160 206 264 326 375
#     4  10  23  44  70 100 133 173 221 269 325 395
#     4  10  19  38  65  91 125 171 217 271 334 398
#
# _framework density 22.048100999999999
#
# number of rings (size 3 to 8) (size 9 to 14) (size 15 to 20)
#    0.000    2.000    2.857    0.429    0.000    3.143 
#    5.143    5.000    0.000    0.000    0.000    0.000 
#    0.000    0.000    0.000    0.000    0.000    0.000 
#
# Total GULP energy -312146.781063 kJ/mol
# GULP energy per Si atom -5574.049662 kJ/mol
# Density = 2.199792 g / cm^3
# Si number density = 22.048101 Si / 1000 Ang^3
#
#
#
# Elastic Constant Matrix: (Units=GPa)
#
#
# Indices 1 2 3 4 5 6 
#
# 1 110.7421 30.6325 31.9807 0.0000 0.0000 0.0000
# 2 30.6325 118.4009 45.7544 0.0000 0.0000 0.0000
# 3 31.9807 45.7544 105.6918 0.0000 0.0000 0.0000
# 4 0.0000 0.0000 0.0000 -106.0675 0.0000 0.0000
# 5 0.0000 0.0000 0.0000 0.0000 38.7478 0.0000
# 6 0.0000 0.0000 0.0000 0.0000 0.0000 52.3141
#
#
#
# Elastic Compliance Matrix: (Units=1/GPa)
#
#
# Indices 1 2 3 4 5 6 
#
# 1 0.010183 -0.001734 -0.002331 0.000000 0.000000 0.000000
# 2 -0.001734 0.010438 -0.003994 0.000000 0.000000 0.000000
# 3 -0.002331 -0.003994 0.011896 0.000000 0.000000 0.000000
# 4 0.000000 0.000000 0.000000 -0.009428 0.000000 0.000000
# 5 0.000000 0.000000 0.000000 0.000000 0.025808 0.000000
# 6 0.000000 0.000000 0.000000 0.000000 0.000000 0.019115
#
#
# Mechanical properties :
#
#
# Convention : Reuss Voigt Hill
#
# Bulk Modulus (GPa) = 60.97746 61.28556 61.13151
# Shear Modulus (GPa) = 55.80697 12.09668 33.95183
#
# Velocity S-wave (km/s) = 5.03651 2.34487 3.92841
# Velocity P-wave (km/s) = 7.84465 5.93193 6.95436
#
# Compressibility (1/GPa) = 0.01639950
#
# Stress axis : x y z
#
# Youngs Moduli (GPa) = 98.20673 95.80496 84.06437
#
# Poissons Ratio (x) = 0.16611 0.19591
# Poissons Ratio (y) = 0.17027 0.33575
# Poissons Ratio (z) = 0.22887 0.38264
#
# Static dielectric constant tensor:
#      x y z
#    x 1.819280 0.000000 0.000000 
#    y 0.000000 1.815710 0.000000 
#    z 0.000000 0.000000 1.845070 
# 
# From -- ./inp_files/16031.got.cif
#   From: 2010.05.17/outbox.cif.g08.bks.cpg/sg53_9_cif.got.tgz:16031.got - 2010.06.03 12:45:16.
