data_PCOD9415104
_publ_section_title
;
Structure prediction by ZEFSAII (Michael W. Deem and Ramdas Pophale) SiO2 
 PCOD9415104
Probable space group: P M N A
;
_chemical_formula_sum "Si O2"
_cell_formula_units_Z 64
_cell_length_a 8.962838
_cell_length_b 27.106073
_cell_length_c 18.613121
_cell_angle_alpha 90.000000
_cell_angle_beta 90.000000
_cell_angle_gamma 90.000000
_cell_volume 4522.008257
_symmetry_space_group_name_H-M "P M N A"
_symmetry_group_IT_number 53
_symmetry_cell_setting 'orthorhombic'
loop_
_space_group_symop_operation_xyz
x,y,z
1/2-x,-y,1/2+z
x,-y,-z
1/2-x,y,1/2-z
-x,-y,-z
1/2+x,y,1/2-z
-x,y,z
1/2+x,-y,1/2+z
loop_
_atom_site_type_symbol
_atom_site_label
_atom_site_fract_x
_atom_site_fract_y
_atom_site_fract_z
Si Si1 0.319384 0.897856 0.915533
Si Si2 0.677646 0.505754 0.671816
Si Si3 0.828327 0.952143 0.447420
Si Si4 0.177696 0.395029 0.079999
Si Si5 0.327993 0.550576 0.046761
Si Si6 0.679158 0.310208 0.172173
Si Si7 0.822304 0.011503 0.171850
Si Si8 0.178749 0.803504 0.673230
O O1 0.500000 0.904305 0.910463
O O2 0.242708 0.939069 0.865692
O O3 0.279387 0.844113 0.885751
O O4 0.279926 0.908722 0.998579
O O5 0.750000 0.505219 0.750000
O O6 0.500000 0.499903 0.676483
O O7 0.707408 0.558387 0.633021
O O8 0.746679 0.463904 0.620329
O O9 0.000000 0.944554 0.424313
O O10 0.827659 0.000000 0.500000
O O11 0.727613 0.966733 0.380280
O O12 0.255407 0.347580 0.114156
O O13 0.000000 0.388615 0.075804
O O14 0.243767 0.409965 0.002728
O O15 0.500000 0.564336 0.058645
O O16 0.326425 0.500000 0.000000
O O17 0.750000 0.321840 0.250000
O O18 0.500000 0.314672 0.176164
O O19 0.718561 0.253087 0.155765
O O20 0.750000 0.006434 0.250000
O O21 0.000000 0.014591 0.176750
O O22 0.250000 0.816294 0.750000
O O23 0.000000 0.805248 0.681108
#
# Coordination Sequence:
#
# PCOD9415104 Si02
#       8
#     8   8   8   8   8   8   8   8
#     4   9  17  30  45  60  81 109 139 170 207 247
#     4  10  19  29  42  61  85 112 142 174 207 246
#     4   8  15  28  43  58  79 106 134 166 204 244
#     4  10  19  30  44  61  83 112 144 175 209 247
#     4   9  17  29  44  61  82 108 138 172 209 248
#     4  10  19  30  43  60  83 110 142 177 210 243
#     4  11  20  28  40  59  83 109 139 171 203 242
#     4   9  18  30  43  60  82 109 140 174 208 242
#
# _framework density 14.153003999999999
#
# number of rings (size 3 to 8) (size 9 to 14) (size 15 to 20)
#    0.000    2.500    0.000    4.125    0.000    8.250 
#    0.000    0.000    0.000    0.000    0.000    0.000 
#    0.000    1.000    0.000    5.000    0.000    3.750 
#
# Total GULP energy -356720.461848 kJ/mol
# GULP energy per Si atom -5573.757216 kJ/mol
# Density = 1.412079 g / cm^3
# Si number density = 14.153004 Si / 1000 Ang^3
#
#
#
# Elastic Constant Matrix: (Units=GPa)
#
#
# Indices 1 2 3 4 5 6 
#
# 1 64.7523 32.9608 51.6077 0.0000 0.0000 0.0000
# 2 32.9608 66.5459 39.5152 0.0000 0.0000 0.0000
# 3 51.6077 39.5152 90.4574 0.0000 0.0000 0.0000
# 4 0.0000 0.0000 0.0000 27.1503 0.0000 0.0000
# 5 0.0000 0.0000 0.0000 0.0000 26.0742 0.0000
# 6 0.0000 0.0000 0.0000 0.0000 0.0000 58.0079
#
#
#
# Elastic Compliance Matrix: (Units=1/GPa)
#
#
# Indices 1 2 3 4 5 6 
#
# 1 0.030205 -0.006384 -0.014444 0.000000 0.000000 0.000000
# 2 -0.006384 0.021640 -0.005811 0.000000 0.000000 0.000000
# 3 -0.014444 -0.005811 0.021834 0.000000 0.000000 0.000000
# 4 0.000000 0.000000 0.000000 0.036832 0.000000 0.000000
# 5 0.000000 0.000000 0.000000 0.000000 0.038352 0.000000
# 6 0.000000 0.000000 0.000000 0.000000 0.000000 0.017239
#
#
# Mechanical properties :
#
#
# Convention : Reuss Voigt Hill
#
# Bulk Modulus (GPa) = 49.01666 52.21367 50.61517
# Shear Modulus (GPa) = 22.10640 28.75794 25.43217
#
# Velocity S-wave (km/s) = 3.95645 4.51259 4.24364
# Velocity P-wave (km/s) = 7.45519 8.00772 7.73639
#
# Compressibility (1/GPa) = 0.02040123
#
# Stress axis : x y z
#
# Youngs Moduli (GPa) = 33.10738 46.21108 45.80073
#
# Poissons Ratio (x) = 0.29501 0.66153
# Poissons Ratio (y) = 0.21136 0.26614
# Poissons Ratio (z) = 0.47819 0.26853
#
# Static dielectric constant tensor:
#      x y z
#    x 1.471740 0.000000 0.000000 
#    y 0.000000 1.464120 0.000000 
#    z 0.000000 0.000000 1.453610 
# 
# From -- ./inp_files/27091.got.cif
#   From: 2010.05.17/outbox.cif.g08.bks.cpg/sg53_14_cif.got.tgz:27091.got - 2010.06.03 12:45:16.
