data_PCOD9415785
_publ_section_title
;
Structure prediction by ZEFSAII (Michael W. Deem and Ramdas Pophale) SiO2 
 PCOD9415785
Probable space group: P M N A
;
_chemical_formula_sum "Si O2"
_cell_formula_units_Z 64
_cell_length_a 8.440439
_cell_length_b 11.114207
_cell_length_c 34.864655
_cell_angle_alpha 90.000000
_cell_angle_beta 90.000000
_cell_angle_gamma 90.000000
_cell_volume 3270.610967
_symmetry_space_group_name_H-M "P M N A"
_symmetry_group_IT_number 53
_symmetry_cell_setting 'orthorhombic'
loop_
_space_group_symop_operation_xyz
x,y,z
1/2-x,-y,1/2+z
x,-y,-z
1/2-x,y,1/2-z
-x,-y,-z
1/2+x,y,1/2-z
-x,y,z
1/2+x,-y,1/2+z
loop_
_atom_site_type_symbol
_atom_site_label
_atom_site_fract_x
_atom_site_fract_y
_atom_site_fract_z
Si Si1 0.810907 0.926856 0.406403
Si Si2 0.688500 0.827925 0.629726
Si Si3 0.187549 0.432058 0.554662
Si Si4 0.190687 0.681404 0.366328
Si Si5 0.807991 0.694006 0.944695
Si Si6 0.808268 0.451005 0.708451
Si Si7 0.685572 0.810862 0.480684
Si Si8 0.188865 0.271130 0.291589
O O1 0.753166 0.809772 0.382284
O O2 0.770097 0.898575 0.450748
O O3 0.000000 0.935348 0.402943
O O4 0.734228 0.044527 0.388515
O O5 0.500000 0.819154 0.632394
O O6 0.743361 0.730403 0.598005
O O7 0.757860 0.804285 0.671647
O O8 0.219154 0.414730 0.600008
O O9 0.236151 0.565962 0.543707
O O10 0.283986 0.324594 0.535027
O O11 0.000000 0.411973 0.547775
O O12 0.251457 0.632469 0.326044
O O13 0.000000 0.692363 0.362992
O O14 0.000000 0.685451 0.945946
O O15 0.761099 0.797495 0.975225
O O16 0.750000 0.410531 0.750000
O O17 0.755750 0.589926 0.703134
O O18 0.000000 0.450669 0.707942
O O19 0.500000 0.839844 0.480011
O O20 0.250000 0.229179 0.250000
O O21 0.000000 0.271913 0.290238
#
# Coordination Sequence:
#
# PCOD9415785 Si02
#       8
#     8   8   8   8   8   8   8   8
#     4  10  21  38  57  77 103 140 187 233 276 322
#     4  11  23  39  57  79 108 144 188 231 272 323
#     4  10  19  32  53  80 107 137 178 226 274 328
#     4   8  16  32  52  73 101 136 170 210 263 318
#     4  10  22  36  52  77 110 146 181 222 275 334
#     4   9  17  31  52  79 109 136 163 202 256 316
#     4  10  20  36  55  76 107 145 181 221 276 335
#     4  10  20  36  59  86 114 143 174 214 267 324
#
# _framework density 19.568207999999998
#
# number of rings (size 3 to 8) (size 9 to 14) (size 15 to 20)
#    0.000    2.250    0.000    3.750    0.000    5.500 
#    0.000    6.875    0.000    1.500    0.000    0.000 
#    0.000    0.000    0.000    0.000    0.000    0.000 
#
# Total GULP energy -357237.244221 kJ/mol
# GULP energy per Si atom -5581.831941 kJ/mol
# Density = 1.952367 g / cm^3
# Si number density = 19.568208 Si / 1000 Ang^3
#
#
#
# Elastic Constant Matrix: (Units=GPa)
#
#
# Indices 1 2 3 4 5 6 
#
# 1 18.8203 -0.1976 14.9826 0.0000 0.0000 0.0000
# 2 -0.1976 48.8937 13.0103 0.0000 0.0000 0.0000
# 3 14.9826 13.0103 100.5736 0.0000 0.0000 0.0000
# 4 0.0000 0.0000 0.0000 21.1949 0.0000 0.0000
# 5 0.0000 0.0000 0.0000 0.0000 27.9000 0.0000
# 6 0.0000 0.0000 0.0000 0.0000 0.0000 19.4715
#
#
#
# Elastic Compliance Matrix: (Units=1/GPa)
#
#
# Indices 1 2 3 4 5 6 
#
# 1 0.060636 0.002743 -0.009388 0.000000 0.000000 0.000000
# 2 0.002743 0.021306 -0.003165 0.000000 0.000000 0.000000
# 3 -0.009388 -0.003165 0.011751 0.000000 0.000000 0.000000
# 4 0.000000 0.000000 0.000000 0.047181 0.000000 0.000000
# 5 0.000000 0.000000 0.000000 0.000000 0.035842 0.000000
# 6 0.000000 0.000000 0.000000 0.000000 0.000000 0.051357
#
#
# Mechanical properties :
#
#
# Convention : Reuss Voigt Hill
#
# Bulk Modulus (GPa) = 13.50003 24.87535 19.18769
# Shear Modulus (GPa) = 18.35643 23.07945 20.71794
#
# Velocity S-wave (km/s) = 3.06612 3.43802 3.25738
# Velocity P-wave (km/s) = 4.41007 5.33851 4.89635
#
# Compressibility (1/GPa) = 0.07407392
#
# Stress axis : x y z
#
# Youngs Moduli (GPa) = 16.49172 46.93568 85.09989
#
# Poissons Ratio (x) = -0.12875 0.79891
# Poissons Ratio (y) = -0.04524 0.26932
# Poissons Ratio (z) = 0.15482 0.14854
#
# Static dielectric constant tensor:
#      x y z
#    x 1.664400 0.000000 0.000000 
#    y 0.000000 1.676330 0.000000 
#    z 0.000000 0.000000 1.704070 
# 
# From -- ./inp_files/38256.got.cif
#   From: 2010.05.17/outbox.cif.g08.bks.cpg/sg53_20_cif.got.tgz:38256.got - 2010.06.03 12:45:16.
