data_PCOD9415040
_publ_section_title
;
Structure prediction by ZEFSAII (Michael W. Deem and Ramdas Pophale) SiO2 
 PCOD9415040
Probable space group: P M N A
;
_chemical_formula_sum "Si O2"
_cell_formula_units_Z 64
_cell_length_a 8.651163
_cell_length_b 20.201618
_cell_length_c 21.174339
_cell_angle_alpha 90.000000
_cell_angle_beta 90.000000
_cell_angle_gamma 90.000000
_cell_volume 3700.586083
_symmetry_space_group_name_H-M "P M N A"
_symmetry_group_IT_number 53
_symmetry_cell_setting 'orthorhombic'
loop_
_space_group_symop_operation_xyz
x,y,z
1/2-x,-y,1/2+z
x,-y,-z
1/2-x,y,1/2-z
-x,-y,-z
1/2+x,y,1/2-z
-x,y,z
1/2+x,-y,1/2+z
loop_
_atom_site_type_symbol
_atom_site_label
_atom_site_fract_x
_atom_site_fract_y
_atom_site_fract_z
Si Si1 0.687168 0.176299 0.513982
Si Si2 0.814599 0.177452 0.133837
Si Si3 0.816509 0.957943 0.683413
Si Si4 0.186204 0.459861 0.316952
Si Si5 0.185600 0.680803 0.630884
Si Si6 0.314304 0.676577 0.489009
Si Si7 0.686560 0.961641 0.434721
Si Si8 0.186740 0.543581 0.438831
O O1 0.500000 0.173759 0.514522
O O2 0.731543 0.168841 0.440202
O O3 0.732406 0.250096 0.534686
O O4 0.740125 0.113963 0.554723
O O5 0.745005 0.116468 0.171649
O O6 0.755854 0.249819 0.153787
O O7 0.000000 0.175436 0.137316
O O8 0.750000 0.982346 0.750000
O O9 0.000000 0.957186 0.685701
O O10 0.759549 0.002127 0.624865
O O11 0.250000 0.482374 0.250000
O O12 0.234884 0.384025 0.330488
O O13 0.235690 0.505545 0.375566
O O14 0.000000 0.460577 0.315853
O O15 0.242180 0.669904 0.558930
O O16 0.000000 0.685039 0.631378
O O17 0.500000 0.675098 0.494770
O O18 0.256557 0.616187 0.446980
O O19 0.500000 0.963315 0.427339
O O20 0.721610 0.000000 0.500000
O O21 0.231504 0.500000 0.500000
O O22 0.000000 0.548280 0.439105
#
# Coordination Sequence:
#
# PCOD9415040 Si02
#       8
#     8   8   8   8   8   8   8   8
#     4   8  16  31  53  81 112 141 172 214 273 327
#     4  10  19  35  55  80 111 147 186 226 269 323
#     4  12  25  39  55  80 112 149 190 233 278 330
#     4  10  22  37  54  75 106 144 180 221 273 326
#     4  10  19  34  52  76 110 150 184 219 268 324
#     4  10  19  31  52  84 112 140 180 227 270 319
#     4  10  18  35  61  83 109 147 182 223 280 331
#     4  10  19  36  56  76 106 143 180 225 279 327
#
# _framework density 17.294557999999999
#
# number of rings (size 3 to 8) (size 9 to 14) (size 15 to 20)
#    0.000    2.000    2.500    3.000    0.000    2.500 
#    0.000    2.500    0.000    0.750    0.000    1.750 
#    0.000    0.000    0.000    0.000    0.000    0.000 
#
# Total GULP energy -357228.274916 kJ/mol
# GULP energy per Si atom -5581.691796 kJ/mol
# Density = 1.725520 g / cm^3
# Si number density = 17.294558 Si / 1000 Ang^3
#
#
#
# Elastic Constant Matrix: (Units=GPa)
#
#
# Indices 1 2 3 4 5 6 
#
# 1 49.4016 33.6697 35.6477 0.0000 0.0000 0.0000
# 2 33.6697 120.7185 63.9462 0.0000 0.0000 0.0000
# 3 35.6477 63.9462 111.3176 0.0000 0.0000 0.0000
# 4 0.0000 0.0000 0.0000 20.6409 0.0000 0.0000
# 5 0.0000 0.0000 0.0000 0.0000 24.3472 0.0000
# 6 0.0000 0.0000 0.0000 0.0000 0.0000 26.5457
#
#
#
# Elastic Compliance Matrix: (Units=1/GPa)
#
#
# Indices 1 2 3 4 5 6 
#
# 1 0.027844 -0.004374 -0.006404 0.000000 0.000000 0.000000
# 2 -0.004374 0.012594 -0.005834 0.000000 0.000000 0.000000
# 3 -0.006404 -0.005834 0.014385 0.000000 0.000000 0.000000
# 4 0.000000 0.000000 0.000000 0.048448 0.000000 0.000000
# 5 0.000000 0.000000 0.000000 0.000000 0.041072 0.000000
# 6 0.000000 0.000000 0.000000 0.000000 0.000000 0.037671
#
#
# Mechanical properties :
#
#
# Convention : Reuss Voigt Hill
#
# Bulk Modulus (GPa) = 46.29630 60.88497 53.59064
# Shear Modulus (GPa) = 22.47812 24.18503 23.33158
#
# Velocity S-wave (km/s) = 3.60908 3.74360 3.67695
# Velocity P-wave (km/s) = 6.64791 7.34624 7.00578
#
# Compressibility (1/GPa) = 0.02160000
#
# Stress axis : x y z
#
# Youngs Moduli (GPa) = 35.91386 79.40340 69.51454
#
# Poissons Ratio (x) = 0.34728 0.44519
# Poissons Ratio (y) = 0.15708 0.40554
# Poissons Ratio (z) = 0.23000 0.46324
#
# Static dielectric constant tensor:
#      x y z
#    x 1.585060 0.000000 0.000000 
#    y 0.000000 1.600910 0.000000 
#    z 0.000000 0.000000 1.570310 
# 
# From -- ./inp_files/26896.got.cif
#   From: 2010.05.17/outbox.cif.g08.bks.cpg/sg53_14_cif.got.tgz:26896.got - 2010.06.03 12:45:16.
