data_PCOD9415684
_publ_section_title
;
Structure prediction by ZEFSAII (Michael W. Deem and Ramdas Pophale) SiO2 
 PCOD9415684
Probable space group: P M N A
;
_chemical_formula_sum "Si O2"
_cell_formula_units_Z 40
_cell_length_a 7.493386
_cell_length_b 8.624720
_cell_length_c 25.353229
_cell_angle_alpha 90.000000
_cell_angle_beta 90.000000
_cell_angle_gamma 90.000000
_cell_volume 1638.537512
_symmetry_space_group_name_H-M "P M N A"
_symmetry_group_IT_number 53
_symmetry_cell_setting 'orthorhombic'
loop_
_space_group_symop_operation_xyz
x,y,z
1/2-x,-y,1/2+z
x,-y,-z
1/2-x,y,1/2-z
-x,-y,-z
1/2+x,y,1/2-z
-x,y,z
1/2+x,-y,1/2+z
loop_
_atom_site_type_symbol
_atom_site_label
_atom_site_fract_x
_atom_site_fract_y
_atom_site_fract_z
Si Si1 0.703142 0.171375 0.519884
Si Si2 0.701192 0.488602 0.834820
Si Si3 0.712890 0.166102 0.189723
Si Si4 0.793122 0.592187 0.945562
Si Si5 0.291521 0.154908 0.858538
O O1 0.500000 0.234508 0.525803
O O2 0.787540 0.250891 0.468217
O O3 0.780350 0.177389 0.578291
O O4 0.689969 0.000000 0.500000
O O5 0.500000 0.481903 0.812277
O O6 0.782429 0.655603 0.817344
O O7 0.694200 0.514812 0.897783
O O8 0.781842 0.313899 0.830816
O O9 0.750000 0.124149 0.250000
O O10 0.500000 0.178221 0.179166
O O11 0.781510 0.016660 0.156438
O O12 0.000000 0.609791 0.928659
O O13 0.785355 0.500000 0.000000
O O14 0.500000 0.151771 0.843755
#
# Coordination Sequence:
#
# PCOD9415684 Si02
#       5
#     8   8   8   8   8
#     4  10  20  33  51  78 113 150 186 223 265 316
#     4  10  21  37  58  83 112 147 186 226 274 330
#     4  10  23  42  60  82 110 139 181 235 284 333
#     4  10  19  32  51  79 115 148 182 223 263 315
#     4  10  21  37  57  81 110 143 181 226 272 324
#
# _framework density 24.412015
#
# number of rings (size 3 to 8) (size 9 to 14) (size 15 to 20)
#    0.000    2.000    2.000    1.200    0.000    4.000 
#    0.000    0.000    0.000    0.000    0.000    0.000 
#    0.000    0.000    0.000    0.000    0.000    0.000 
#
# Total GULP energy -222694.587843 kJ/mol
# GULP energy per Si atom -5567.364696 kJ/mol
# Density = 2.435645 g / cm^3
# Si number density = 24.412015 Si / 1000 Ang^3
#
#
#
# Elastic Constant Matrix: (Units=GPa)
#
#
# Indices 1 2 3 4 5 6 
#
# 1 70.6628 6.6492 -10.3442 0.0000 0.0000 0.0000
# 2 6.6492 176.4156 11.4119 0.0000 0.0000 0.0000
# 3 -10.3442 11.4119 49.3842 0.0000 0.0000 0.0000
# 4 0.0000 0.0000 0.0000 28.1018 0.0000 0.0000
# 5 0.0000 0.0000 0.0000 0.0000 17.5092 0.0000
# 6 0.0000 0.0000 0.0000 0.0000 0.0000 6.4501
#
#
#
# Elastic Compliance Matrix: (Units=1/GPa)
#
#
# Indices 1 2 3 4 5 6 
#
# 1 0.014700 -0.000765 0.003256 0.000000 0.000000 0.000000
# 2 -0.000765 0.005794 -0.001499 0.000000 0.000000 0.000000
# 3 0.003256 -0.001499 0.021278 0.000000 0.000000 0.000000
# 4 0.000000 0.000000 0.000000 0.035585 0.000000 0.000000
# 5 0.000000 0.000000 0.000000 0.000000 0.057113 0.000000
# 6 0.000000 0.000000 0.000000 0.000000 0.000000 0.155036
#
#
# Mechanical properties :
#
#
# Convention : Reuss Voigt Hill
#
# Bulk Modulus (GPa) = 22.85378 34.65518 28.75448
# Shear Modulus (GPa) = 16.55039 29.66193 23.10616
#
# Velocity S-wave (km/s) = 2.60659 3.48954 3.07987
# Velocity P-wave (km/s) = 4.29431 5.51930 4.94489
#
# Compressibility (1/GPa) = 0.04375644
#
# Stress axis : x y z
#
# Youngs Moduli (GPa) = 68.02585 172.58551 46.99736
#
# Poissons Ratio (x) = 0.13197 -0.15302
# Poissons Ratio (y) = 0.05202 0.07046
# Poissons Ratio (z) = -0.22148 0.25873
#
# Static dielectric constant tensor:
#      x y z
#    x 2.023660 0.000000 0.000000 
#    y 0.000000 0.448910 0.000000 
#    z 0.000000 0.000000 1.848370 
# 
# From -- ./inp_files/33635.got.cif
#   From: 2010.05.17/outbox.cif.g08.bks.cpg/sg53_17_cif.got.tgz:33635.got - 2010.06.03 12:45:16.
