data_PCOD9415937
_publ_section_title
;
Structure prediction by ZEFSAII (Michael W. Deem and Ramdas Pophale) SiO2 
 PCOD9415937
Probable space group: P M N A
;
_chemical_formula_sum "Si O2"
_cell_formula_units_Z 52
_cell_length_a 7.604388
_cell_length_b 13.716268
_cell_length_c 28.308657
_cell_angle_alpha 90.000000
_cell_angle_beta 90.000000
_cell_angle_gamma 90.000000
_cell_volume 2952.701171
_symmetry_space_group_name_H-M "P M N A"
_symmetry_group_IT_number 53
_symmetry_cell_setting 'orthorhombic'
loop_
_space_group_symop_operation_xyz
x,y,z
1/2-x,-y,1/2+z
x,-y,-z
1/2-x,y,1/2-z
-x,-y,-z
1/2+x,y,1/2-z
-x,y,z
1/2+x,-y,1/2+z
loop_
_atom_site_type_symbol
_atom_site_label
_atom_site_fract_x
_atom_site_fract_y
_atom_site_fract_z
Si Si1 0.000000 0.628059 0.871705
Si Si2 0.297613 0.627872 0.051439
Si Si3 0.000000 0.629742 0.979026
Si Si4 0.710588 0.977682 0.944430
Si Si5 0.710545 0.711273 0.196250
Si Si6 0.500000 0.180101 0.424550
Si Si7 0.286750 0.176410 0.894178
Si Si8 0.704496 0.512474 0.149951
O O1 0.000000 0.744355 0.880252
O O2 0.171229 0.581116 0.847937
O O3 0.000000 0.589102 0.926118
O O4 0.500000 0.631101 0.035580
O O5 0.243918 0.734540 0.070945
O O6 0.289265 0.557735 0.096949
O O7 0.169343 0.603416 0.009200
O O8 0.000000 0.745773 0.968791
O O9 0.500000 0.961323 0.938474
O O10 0.828321 0.887153 0.928117
O O11 0.767750 0.072709 0.914512
O O12 0.740044 0.000000 0.000000
O O13 0.750000 0.735783 0.250000
O O14 0.500000 0.707097 0.190299
O O15 0.776128 0.788896 0.157470
O O16 0.771113 0.602084 0.182512
O O17 0.500000 0.172921 0.892824
O O18 0.500000 0.491163 0.160541
#
# Coordination Sequence:
#
# PCOD9415937 Si02
#       8
#     4   8   4   8   8   4   8   8
#     4  10  23  35  47  69 104 142 182 228 260 288
#     4   9  17  31  49  69  99 140 172 212 264 313
#     4  10  21  31  44  68 100 134 183 231 244 294
#     4  10  19  33  54  74 101 143 186 222 265 314
#     4   9  18  33  54  84 114 130 162 208 268 339
#     4  10  23  34  44  71 102 132 185 236 250 289
#     4   8  16  31  50  75 108 139 167 213 269 328
#     4   9  19  35  52  71 102 139 171 209 262 322
#
# _framework density 17.610993000000001
#
# number of rings (size 3 to 8) (size 9 to 14) (size 15 to 20)
#    0.462    2.308    0.000    3.462    1.077    4.923 
#    2.769    1.538    0.000    0.000    0.000    1.077 
#    0.000    0.000    0.000    0.000    0.000    0.000 
#
# Total GULP energy -289843.534296 kJ/mol
# GULP energy per Si atom -5573.914121 kJ/mol
# Density = 1.757091 g / cm^3
# Si number density = 17.610993 Si / 1000 Ang^3
#
#
#
# Elastic Constant Matrix: (Units=GPa)
#
#
# Indices 1 2 3 4 5 6 
#
# 1 71.8167 49.1210 20.0714 0.0000 0.0000 0.0000
# 2 49.1210 133.6898 34.6750 0.0000 0.0000 0.0000
# 3 20.0714 34.6750 73.5719 0.0000 0.0000 0.0000
# 4 0.0000 0.0000 0.0000 15.4533 0.0000 0.0000
# 5 0.0000 0.0000 0.0000 0.0000 18.1977 0.0000
# 6 0.0000 0.0000 0.0000 0.0000 0.0000 39.5122
#
#
#
# Elastic Compliance Matrix: (Units=1/GPa)
#
#
# Indices 1 2 3 4 5 6 
#
# 1 0.018891 -0.006385 -0.002144 0.000000 0.000000 0.000000
# 2 -0.006385 0.010680 -0.003292 0.000000 0.000000 0.000000
# 3 -0.002144 -0.003292 0.015729 0.000000 0.000000 0.000000
# 4 0.000000 0.000000 0.000000 0.064711 0.000000 0.000000
# 5 0.000000 0.000000 0.000000 0.000000 0.054952 0.000000
# 6 0.000000 0.000000 0.000000 0.000000 0.000000 0.025309
#
#
# Mechanical properties :
#
#
# Convention : Reuss Voigt Hill
#
# Bulk Modulus (GPa) = 46.17368 54.09035 50.13201
# Shear Modulus (GPa) = 22.61103 26.31337 24.46220
#
# Velocity S-wave (km/s) = 3.58706 3.86961 3.73101
# Velocity P-wave (km/s) = 6.59027 7.12361 6.86212
#
# Compressibility (1/GPa) = 0.02165736
#
# Stress axis : x y z
#
# Youngs Moduli (GPa) = 52.93620 93.63623 63.57874
#
# Poissons Ratio (x) = 0.59784 0.13634
# Poissons Ratio (y) = 0.33798 0.20927
# Poissons Ratio (z) = 0.11352 0.30821
#
# Static dielectric constant tensor:
#      x y z
#    x 1.618650 0.000000 0.000000 
#    y 0.000000 1.617240 0.000000 
#    z 0.000000 0.000000 1.598150 
# 
# From -- ./inp_files/38009.got.cif
#   From: 2010.05.17/outbox.cif.g08.bks.cpg/sg53_20_cif.got.tgz:38009.got - 2010.06.03 12:45:16.
