data_PCOD9415249
_publ_section_title
;
Structure prediction by ZEFSAII (Michael W. Deem and Ramdas Pophale) SiO2 
 PCOD9415249
Probable space group: P M N A
;
_chemical_formula_sum "Si O2"
_cell_formula_units_Z 64
_cell_length_a 8.559560
_cell_length_b 22.265001
_cell_length_c 19.545207
_cell_angle_alpha 90.000000
_cell_angle_beta 90.000000
_cell_angle_gamma 90.000000
_cell_volume 3724.898421
_symmetry_space_group_name_H-M "P M N A"
_symmetry_group_IT_number 53
_symmetry_cell_setting 'orthorhombic'
loop_
_space_group_symop_operation_xyz
x,y,z
1/2-x,-y,1/2+z
x,-y,-z
1/2-x,y,1/2-z
-x,-y,-z
1/2+x,y,1/2-z
-x,y,z
1/2+x,-y,1/2+z
loop_
_atom_site_type_symbol
_atom_site_label
_atom_site_fract_x
_atom_site_fract_y
_atom_site_fract_z
Si Si1 0.812610 0.402416 0.325927
Si Si2 0.189616 0.062554 0.969665
Si Si3 0.314205 0.533900 0.326166
Si Si4 0.188653 0.353649 0.593921
Si Si5 0.315662 0.895561 0.320686
Si Si6 0.183361 0.772670 0.361863
Si Si7 0.311328 0.691839 0.942338
Si Si8 0.686401 0.807826 0.507686
O O1 0.750000 0.389115 0.250000
O O2 0.750128 0.468269 0.345734
O O3 0.766252 0.352339 0.381036
O O4 0.000000 0.405134 0.323651
O O5 0.245064 0.076193 0.892046
O O6 0.222394 0.121540 0.015795
O O7 0.000000 0.058685 0.966080
O O8 0.248530 0.000000 0.000000
O O9 0.250000 0.547169 0.250000
O O10 0.500000 0.531585 0.323126
O O11 0.259161 0.585425 0.377640
O O12 0.234178 0.296708 0.641907
O O13 0.233888 0.337865 0.515651
O O14 0.000000 0.357056 0.595447
O O15 0.250000 0.920834 0.250000
O O16 0.500000 0.902690 0.320354
O O17 0.276153 0.824615 0.323772
O O18 0.214225 0.788517 0.441335
O O19 0.000000 0.777410 0.345709
O O20 0.500000 0.698271 0.942605
O O21 0.234139 0.757709 0.937619
O O22 0.500000 0.803194 0.493301
#
# Coordination Sequence:
#
# PCOD9415249 Si02
#       8
#     8   8   8   8   8   8   8   8
#     4  10  20  36  55  73  94 124 162 203 250 302
#     4   8  15  29  49  73  99 130 166 199 236 284
#     4  11  22  35  50  68  93 126 161 202 247 293
#     4   9  18  33  50  70  96 128 162 195 237 289
#     4  10  19  30  47  70  97 129 165 206 246 286
#     4   9  17  30  47  66  94 128 159 193 235 284
#     4   9  19  34  53  74  99 130 159 197 249 297
#     4   9  16  27  48  75  99 123 155 196 237 280
#
# _framework density 17.181676
#
# number of rings (size 3 to 8) (size 9 to 14) (size 15 to 20)
#    0.000    2.625    0.000    4.875    0.000    4.500 
#    0.000    2.500    0.000   14.250    0.000    3.500 
#    0.000    0.000    0.000    0.000    0.000    0.000 
#
# Total GULP energy -356532.879743 kJ/mol
# GULP energy per Si atom -5570.826246 kJ/mol
# Density = 1.714257 g / cm^3
# Si number density = 17.181676 Si / 1000 Ang^3
#
#
#
# Elastic Constant Matrix: (Units=GPa)
#
#
# Indices 1 2 3 4 5 6 
#
# 1 32.5877 29.6546 20.9232 0.0000 0.0000 0.0000
# 2 29.6546 150.6851 76.8308 0.0000 0.0000 0.0000
# 3 20.9232 76.8308 74.0917 0.0000 0.0000 0.0000
# 4 0.0000 0.0000 0.0000 15.0550 0.0000 0.0000
# 5 0.0000 0.0000 0.0000 0.0000 25.7317 0.0000
# 6 0.0000 0.0000 0.0000 0.0000 0.0000 9.4382
#
#
#
# Elastic Compliance Matrix: (Units=1/GPa)
#
#
# Indices 1 2 3 4 5 6 
#
# 1 0.038779 -0.004346 -0.006445 0.000000 0.000000 0.000000
# 2 -0.004346 0.014569 -0.013880 0.000000 0.000000 0.000000
# 3 -0.006445 -0.013880 0.029710 0.000000 0.000000 0.000000
# 4 0.000000 0.000000 0.000000 0.066423 0.000000 0.000000
# 5 0.000000 0.000000 0.000000 0.000000 0.038863 0.000000
# 6 0.000000 0.000000 0.000000 0.000000 0.000000 0.105952
#
#
# Mechanical properties :
#
#
# Convention : Reuss Voigt Hill
#
# Bulk Modulus (GPa) = 29.65900 56.90909 43.28404
# Shear Modulus (GPa) = 14.08947 18.70872 16.39910
#
# Velocity S-wave (km/s) = 2.86672 3.30339 3.09277
# Velocity P-wave (km/s) = 5.31572 6.90968 6.16444
#
# Compressibility (1/GPa) = 0.03371658
#
# Stress axis : x y z
#
# Youngs Moduli (GPa) = 25.78729 68.64015 33.65862
#
# Poissons Ratio (x) = 0.29828 0.21692
# Poissons Ratio (y) = 0.11206 0.46719
# Poissons Ratio (z) = 0.16619 0.95274
#
# Static dielectric constant tensor:
#      x y z
#    x 1.586510 0.000000 0.000000 
#    y 0.000000 1.599740 0.000000 
#    z 0.000000 0.000000 1.600690 
# 
# From -- ./inp_files/31375.got.cif
#   From: 2010.05.17/outbox.cif.g08.bks.cpg/sg53_16_cif.got.tgz:31375.got - 2010.06.03 12:45:16.
