data_PCOD9415183
_publ_section_title
;
Structure prediction by ZEFSAII (Michael W. Deem and Ramdas Pophale) SiO2 
 PCOD9415183
Probable space group: P M N A
;
_chemical_formula_sum "Si O2"
_cell_formula_units_Z 64
_cell_length_a 9.120187
_cell_length_b 21.062298
_cell_length_c 20.994715
_cell_angle_alpha 90.000000
_cell_angle_beta 90.000000
_cell_angle_gamma 90.000000
_cell_volume 4032.918818
_symmetry_space_group_name_H-M "P M N A"
_symmetry_group_IT_number 53
_symmetry_cell_setting 'orthorhombic'
loop_
_space_group_symop_operation_xyz
x,y,z
1/2-x,-y,1/2+z
x,-y,-z
1/2-x,y,1/2-z
-x,-y,-z
1/2+x,y,1/2-z
-x,y,z
1/2+x,-y,1/2+z
loop_
_atom_site_type_symbol
_atom_site_label
_atom_site_fract_x
_atom_site_fract_y
_atom_site_fract_z
Si Si1 0.333944 0.290214 0.334791
Si Si2 0.833291 0.310892 0.013097
Si Si3 0.176624 0.560890 0.541352
Si Si4 0.826209 0.582034 0.686485
Si Si5 0.674727 0.020236 0.186584
Si Si6 0.175460 0.149167 0.147039
Si Si7 0.823415 0.828080 0.001995
Si Si8 0.676020 0.049857 0.944869
O O1 0.500000 0.303310 0.310907
O O2 0.342302 0.295293 0.411503
O O3 0.219972 0.343763 0.315192
O O4 0.292257 0.217637 0.322054
O O5 0.739828 0.374798 0.010347
O O6 0.000000 0.322412 0.990680
O O7 0.775837 0.244608 0.983984
O O8 0.221668 0.500000 0.500000
O O9 0.221851 0.557001 0.616297
O O10 0.000000 0.564631 0.541275
O O11 0.750000 0.554626 0.750000
O O12 0.000000 0.574761 0.691563
O O13 0.750000 0.994062 0.250000
O O14 0.500000 0.022171 0.193827
O O15 0.736268 0.091013 0.175566
O O16 0.710972 0.980112 0.123537
O O17 0.000000 0.138716 0.152877
O O18 0.210932 0.155090 0.071776
O O19 0.751114 0.882647 0.043753
O O20 0.000000 0.828997 0.007666
O O21 0.500000 0.056859 0.949827
O O22 0.722263 0.000000 0.000000
#
# Coordination Sequence:
#
# PCOD9415183 Si02
#       8
#     8   8   8   8   8   8   8   8
#     4   8  15  28  44  62  89 122 156 192 223 262
#     4   8  15  28  45  70  99 123 153 191 232 276
#     4   9  18  32  49  71  98 128 161 195 233 278
#     4  10  19  30  45  65  91 124 159 194 229 269
#     4  11  23  36  48  64  91 123 156 198 244 292
#     4   9  17  30  47  67  91 122 158 193 232 275
#     4   9  17  29  49  74  97 122 155 198 239 281
#     4  10  20  34  50  71  95 120 156 202 246 286
#
# _framework density 15.869400000000001
#
# number of rings (size 3 to 8) (size 9 to 14) (size 15 to 20)
#    0.000    2.750    1.250    2.250    0.000    3.500 
#    0.000    2.500    0.000    0.000    0.000    0.875 
#    0.000    2.000    0.000    0.000    0.000    0.000 
#
# Total GULP energy -356547.724814 kJ/mol
# GULP energy per Si atom -5571.058200 kJ/mol
# Density = 1.583328 g / cm^3
# Si number density = 15.869400 Si / 1000 Ang^3
#
#
#
# Elastic Constant Matrix: (Units=GPa)
#
#
# Indices 1 2 3 4 5 6 
#
# 1 27.4244 35.2492 37.8740 0.0000 0.0000 0.0000
# 2 35.2492 111.9780 56.8689 0.0000 0.0000 0.0000
# 3 37.8740 56.8689 91.7202 0.0000 0.0000 0.0000
# 4 0.0000 0.0000 0.0000 10.8496 0.0000 0.0000
# 5 0.0000 0.0000 0.0000 0.0000 25.6055 0.0000
# 6 0.0000 0.0000 0.0000 0.0000 0.0000 20.4067
#
#
#
# Elastic Compliance Matrix: (Units=1/GPa)
#
#
# Indices 1 2 3 4 5 6 
#
# 1 0.100196 -0.015367 -0.031846 0.000000 0.000000 0.000000
# 2 -0.015367 0.015392 -0.003198 0.000000 0.000000 0.000000
# 3 -0.031846 -0.003198 0.026035 0.000000 0.000000 0.000000
# 4 0.000000 0.000000 0.000000 0.092169 0.000000 0.000000
# 5 0.000000 0.000000 0.000000 0.000000 0.039054 0.000000
# 6 0.000000 0.000000 0.000000 0.000000 0.000000 0.049004
#
#
# Mechanical properties :
#
#
# Convention : Reuss Voigt Hill
#
# Bulk Modulus (GPa) = 24.50875 54.56745 39.53810
# Shear Modulus (GPa) = 11.46072 18.11438 14.78755
#
# Velocity S-wave (km/s) = 2.69027 3.38222 3.05590
# Velocity P-wave (km/s) = 5.01275 7.05071 6.11720
#
# Compressibility (1/GPa) = 0.04080176
#
# Stress axis : x y z
#
# Youngs Moduli (GPa) = 9.98040 64.97011 38.40911
#
# Poissons Ratio (x) = 0.99841 1.22318
# Poissons Ratio (y) = 0.15337 0.12282
# Poissons Ratio (z) = 0.31784 0.20775
#
# Static dielectric constant tensor:
#      x y z
#    x 1.537690 0.000000 0.000000 
#    y 0.000000 1.525310 0.000000 
#    z 0.000000 0.000000 1.557430 
# 
# From -- ./inp_files/31368.got.cif
#   From: 2010.05.17/outbox.cif.g08.bks.cpg/sg53_16_cif.got.tgz:31368.got - 2010.06.03 12:45:16.
