data_PCOD9415225
_publ_section_title
;
Structure prediction by ZEFSAII (Michael W. Deem and Ramdas Pophale) SiO2 
 PCOD9415225
Probable space group: P M N A
;
_chemical_formula_sum "Si O2"
_cell_formula_units_Z 48
_cell_length_a 17.362827
_cell_length_b 12.862500
_cell_length_c 12.457779
_cell_angle_alpha 90.000000
_cell_angle_beta 90.000000
_cell_angle_gamma 90.000000
_cell_volume 2782.187840
_symmetry_space_group_name_H-M "P M N A"
_symmetry_group_IT_number 53
_symmetry_cell_setting 'orthorhombic'
loop_
_space_group_symop_operation_xyz
x,y,z
1/2-x,-y,1/2+z
x,-y,-z
1/2-x,y,1/2-z
-x,-y,-z
1/2+x,y,1/2-z
-x,y,z
1/2+x,-y,1/2+z
loop_
_atom_site_type_symbol
_atom_site_label
_atom_site_fract_x
_atom_site_fract_y
_atom_site_fract_z
Si Si1 0.908841 0.124221 0.992249
Si Si2 0.769355 0.387630 0.458873
Si Si3 0.086523 0.385236 0.316011
Si Si4 0.323199 0.232506 0.311326
Si Si5 0.296077 0.737093 0.358602
Si Si6 0.414461 0.451167 0.620359
O O1 0.853041 0.171953 0.900029
O O2 0.000000 0.154548 0.983265
O O3 0.868653 0.169188 0.099367
O O4 0.906168 0.000000 0.000000
O O5 0.742813 0.500000 0.500000
O O6 0.851131 0.410518 0.405597
O O7 0.715080 0.334002 0.369317
O O8 0.766080 0.301441 0.552358
O O9 0.114233 0.273949 0.272072
O O10 0.089735 0.462828 0.214028
O O11 0.000000 0.384747 0.356849
O O12 0.250000 0.182088 0.250000
O O13 0.250000 0.758578 0.250000
O O14 0.351537 0.636005 0.354869
O O15 0.410816 0.500000 0.500000
O O16 0.500000 0.403168 0.626472
#
# Coordination Sequence:
#
# PCOD9415225 Si02
#       6
#     8   8   8   8   8   8
#     4  10  21  37  56  76  97 123 160 210 264 314
#     4  10  19  31  47  70 100 133 168 200 235 284
#     4  10  19  30  46  70 101 136 168 197 235 284
#     4   9  18  32  52  75  97 125 160 200 245 294
#     4  11  21  34  52  73 100 133 169 211 258 306
#     4  10  19  30  48  75 106 140 175 210 246 289
#
# _framework density 17.252610000000001
#
# number of rings (size 3 to 8) (size 9 to 14) (size 15 to 20)
#    0.000    2.000    0.000    5.500    0.000    3.667 
#    0.000    1.667    0.000    0.500    0.000    0.000 
#    0.000   18.667    0.000    0.000    0.000    0.000 
#
# Total GULP energy -267355.382478 kJ/mol
# GULP energy per Si atom -5569.903802 kJ/mol
# Density = 1.721334 g / cm^3
# Si number density = 17.252610 Si / 1000 Ang^3
#
#
#
# Elastic Constant Matrix: (Units=GPa)
#
#
# Indices 1 2 3 4 5 6 
#
# 1 144.3193 50.2805 61.1733 0.0000 0.0000 0.0000
# 2 50.2805 59.2835 23.6386 0.0000 0.0000 0.0000
# 3 61.1733 23.6386 83.3933 0.0000 0.0000 0.0000
# 4 0.0000 0.0000 0.0000 7.0336 0.0000 0.0000
# 5 0.0000 0.0000 0.0000 0.0000 25.8512 0.0000
# 6 0.0000 0.0000 0.0000 0.0000 0.0000 -17.1236
#
#
#
# Elastic Compliance Matrix: (Units=1/GPa)
#
#
# Indices 1 2 3 4 5 6 
#
# 1 0.012689 -0.007949 -0.007055 0.000000 0.000000 0.000000
# 2 -0.007949 0.023997 -0.000971 0.000000 0.000000 0.000000
# 3 -0.007055 -0.000971 0.017442 0.000000 0.000000 0.000000
# 4 0.000000 0.000000 0.000000 0.142175 0.000000 0.000000
# 5 0.000000 0.000000 0.000000 0.000000 0.038683 0.000000
# 6 0.000000 0.000000 0.000000 0.000000 0.000000 -0.058399
#
#
# Mechanical properties :
#
#
# Convention : Reuss Voigt Hill
#
# Bulk Modulus (GPa) = 45.09002 61.90898 53.49950
# Shear Modulus (GPa) = 23.15574 13.27914 18.21744
#
# Velocity S-wave (km/s) = 3.66752 2.77734 3.25302
# Velocity P-wave (km/s) = 6.64276 6.80048 6.72208
#
# Compressibility (1/GPa) = 0.02217786
#
# Stress axis : x y z
#
# Youngs Moduli (GPa) = 78.81014 41.67173 57.33394
#
# Poissons Ratio (x) = 0.33124 0.40447
# Poissons Ratio (y) = 0.62645 0.05569
# Poissons Ratio (z) = 0.55598 0.04048
#
# Static dielectric constant tensor:
#      x y z
#    x 1.625760 0.000000 0.000000 
#    y 0.000000 1.573150 0.000000 
#    z 0.000000 0.000000 1.630500 
# 
# From -- ./inp_files/16961.got.cif
#   From: 2010.05.17/outbox.cif.g08.bks.cpg/sg53_9_cif.got.tgz:16961.got - 2010.06.03 12:45:16.
