data_PCOD9415776
_publ_section_title
;
Structure prediction by ZEFSAII (Michael W. Deem and Ramdas Pophale) SiO2 
 PCOD9415776
Probable space group: P M N A
;
_chemical_formula_sum "Si O2"
_cell_formula_units_Z 64
_cell_length_a 9.659630
_cell_length_b 17.716279
_cell_length_c 22.368181
_cell_angle_alpha 90.000000
_cell_angle_beta 90.000000
_cell_angle_gamma 90.000000
_cell_volume 3827.927211
_symmetry_space_group_name_H-M "P M N A"
_symmetry_group_IT_number 53
_symmetry_cell_setting 'orthorhombic'
loop_
_space_group_symop_operation_xyz
x,y,z
1/2-x,-y,1/2+z
x,-y,-z
1/2-x,y,1/2-z
-x,-y,-z
1/2+x,y,1/2-z
-x,y,z
1/2+x,-y,1/2+z
loop_
_atom_site_type_symbol
_atom_site_label
_atom_site_fract_x
_atom_site_fract_y
_atom_site_fract_z
Si Si1 0.249089 0.328436 0.000431
Si Si2 0.661783 0.088794 0.506720
Si Si3 0.840125 0.198891 0.585692
Si Si4 0.154185 0.208069 0.093694
Si Si5 0.157192 0.570848 0.607560
Si Si6 0.165477 0.713921 0.689001
Si Si7 0.155620 0.424317 0.890235
Si Si8 0.667139 0.278628 0.688221
O O1 0.160379 0.274608 0.043877
O O2 0.328250 0.384513 0.044884
O O3 0.336948 0.269364 0.961022
O O4 0.168266 0.378712 0.952496
O O5 0.766404 0.129324 0.552131
O O6 0.677526 0.131709 0.443377
O O7 0.000000 0.899108 0.024931
O O8 0.685463 0.000000 0.500000
O O9 0.742198 0.223791 0.640547
O O10 0.000000 0.184608 0.602387
O O11 0.270960 0.226544 0.141898
O O12 0.000000 0.207552 0.120570
O O13 0.192132 0.632272 0.658427
O O14 0.248524 0.496736 0.609113
O O15 0.000000 0.547393 0.615964
O O16 0.250000 0.719720 0.750000
O O17 0.000000 0.722601 0.696141
O O18 0.186642 0.362757 0.839088
O O19 0.000000 0.451126 0.882197
O O20 0.750000 0.272148 0.750000
O O21 0.500000 0.265758 0.692784
#
# Coordination Sequence:
#
# PCOD9415776 Si02
#       8
#     8   8   8   8   8   8   8   8
#     4   9  18  31  49  71  98 130 166 205 248 301
#     4   9  18  33  54  82 115 144 165 192 236 289
#     4  10  19  32  53  79 105 134 169 207 247 294
#     4   9  17  31  53  77 101 131 166 202 241 287
#     4  10  21  33  46  67  95 127 163 207 257 304
#     4  10  21  36  52  70  94 127 169 212 253 297
#     4  10  21  33  47  69  96 127 164 208 256 305
#     4  10  21  37  54  72  96 129 171 214 256 301
#
# _framework density 16.719231000000001
#
# number of rings (size 3 to 8) (size 9 to 14) (size 15 to 20)
#    0.000    2.375    0.000    2.250    0.000   13.750 
#    0.000    2.500    0.000    0.750    0.000    3.500 
#    0.000    0.000    0.000    0.000    0.000    0.000 
#
# Total GULP energy -356738.743501 kJ/mol
# GULP energy per Si atom -5574.042867 kJ/mol
# Density = 1.668118 g / cm^3
# Si number density = 16.719231 Si / 1000 Ang^3
#
#
#
# Elastic Constant Matrix: (Units=GPa)
#
#
# Indices 1 2 3 4 5 6 
#
# 1 108.2803 69.3075 61.8930 0.0000 0.0000 0.0000
# 2 69.3075 104.3834 40.4514 0.0000 0.0000 0.0000
# 3 61.8930 40.4514 102.8590 0.0000 0.0000 0.0000
# 4 0.0000 0.0000 0.0000 2.3932 0.0000 0.0000
# 5 0.0000 0.0000 0.0000 0.0000 20.3296 0.0000
# 6 0.0000 0.0000 0.0000 0.0000 0.0000 5.8389
#
#
#
# Elastic Compliance Matrix: (Units=1/GPa)
#
#
# Indices 1 2 3 4 5 6 
#
# 1 0.020754 -0.010548 -0.008340 0.000000 0.000000 0.000000
# 2 -0.010548 0.016664 -0.000206 0.000000 0.000000 0.000000
# 3 -0.008340 -0.000206 0.014822 0.000000 0.000000 0.000000
# 4 0.000000 0.000000 0.000000 0.417854 0.000000 0.000000
# 5 0.000000 0.000000 0.000000 0.000000 0.049189 0.000000
# 6 0.000000 0.000000 0.000000 0.000000 0.000000 0.171265
#
#
# Mechanical properties :
#
#
# Convention : Reuss Voigt Hill
#
# Bulk Modulus (GPa) = 71.17167 73.20295 72.18731
# Shear Modulus (GPa) = 6.81738 15.30372 11.06055
#
# Velocity S-wave (km/s) = 2.02149 3.02873 2.57485
# Velocity P-wave (km/s) = 6.93612 7.49064 7.21871
#
# Compressibility (1/GPa) = 0.01405053
#
# Stress axis : x y z
#
# Youngs Moduli (GPa) = 48.18359 60.01105 67.46938
#
# Poissons Ratio (x) = 0.63300 0.56269
# Poissons Ratio (y) = 0.50824 0.01392
# Poissons Ratio (z) = 0.40185 0.01238
#
# Static dielectric constant tensor:
#      x y z
#    x 1.569570 0.000000 0.000000 
#    y 0.000000 1.543260 0.000000 
#    z 0.000000 0.000000 1.565430 
# 
# From -- ./inp_files/31115.got.cif
#   From: 2010.05.17/outbox.cif.g08.bks.cpg/sg53_16_cif.got.tgz:31115.got - 2010.06.03 12:45:16.
