data_PCOD9415715
_publ_section_title
;
Structure prediction by ZEFSAII (Michael W. Deem and Ramdas Pophale) SiO2 
 PCOD9415715
Probable space group: P M N A
;
_chemical_formula_sum "Si O2"
_cell_formula_units_Z 56
_cell_length_a 8.056306
_cell_length_b 20.048313
_cell_length_c 18.832997
_cell_angle_alpha 90.000000
_cell_angle_beta 90.000000
_cell_angle_gamma 90.000000
_cell_volume 3041.817995
_symmetry_space_group_name_H-M "P M N A"
_symmetry_group_IT_number 53
_symmetry_cell_setting 'orthorhombic'
loop_
_space_group_symop_operation_xyz
x,y,z
1/2-x,-y,1/2+z
x,-y,-z
1/2-x,y,1/2-z
-x,-y,-z
1/2+x,y,1/2-z
-x,y,z
1/2+x,-y,1/2+z
loop_
_atom_site_type_symbol
_atom_site_label
_atom_site_fract_x
_atom_site_fract_y
_atom_site_fract_z
Si Si1 0.700011 0.443106 0.167164
Si Si2 0.200675 0.297030 0.331967
Si Si3 0.799614 0.205768 0.456710
Si Si4 0.702868 0.725587 0.102011
Si Si5 0.697067 0.861023 0.171652
Si Si6 0.299134 0.412208 0.832658
Si Si7 0.697527 0.929355 0.472473
O O1 0.750000 0.443555 0.250000
O O2 0.500000 0.443105 0.161554
O O3 0.758067 0.370529 0.141033
O O4 0.758904 0.515115 0.139106
O O5 0.250000 0.288715 0.250000
O O6 0.260524 0.238741 0.383842
O O7 0.000000 0.297398 0.334306
O O8 0.748303 0.252421 0.522951
O O9 0.744819 0.131329 0.475504
O O10 0.000000 0.205265 0.455862
O O11 0.500000 0.724366 0.103854
O O12 0.760144 0.786138 0.152957
O O13 0.761891 0.653150 0.126360
O O14 0.750000 0.882067 0.250000
O O15 0.500000 0.857322 0.170671
O O16 0.747453 0.908482 0.106633
O O17 0.250000 0.406692 0.750000
O O18 0.500000 0.412219 0.836044
O O19 0.500000 0.933765 0.470842
O O20 0.765768 0.000000 0.500000
#
# Coordination Sequence:
#
# PCOD9415715 Si02
#       7
#     8   8   8   8   8   8   8
#     4   8  14  24  39  60  86 118 155 194 236 278
#     4   9  17  30  48  69  92 120 158 201 242 284
#     4   9  18  33  51  70  94 124 156 192 238 292
#     4   8  15  27  43  65  94 126 158 193 233 278
#     4  10  19  32  52  77 105 135 167 201 236 279
#     4   9  15  24  39  60  88 121 157 195 233 273
#     4  10  21  37  56  77 101 128 159 196 239 290
#
# _framework density 18.410042000000001
#
# number of rings (size 3 to 8) (size 9 to 14) (size 15 to 20)
#    0.000    3.000    0.000    2.143    0.000    1.714 
#    0.000    4.286    0.000    6.000    0.000    0.000 
#    0.000   16.000    0.000    0.000    0.000    0.000 
#
# Total GULP energy -311848.503676 kJ/mol
# GULP energy per Si atom -5568.723280 kJ/mol
# Density = 1.836814 g / cm^3
# Si number density = 18.410042 Si / 1000 Ang^3
#
#
#
# Elastic Constant Matrix: (Units=GPa)
#
#
# Indices 1 2 3 4 5 6 
#
# 1 18.5554 16.4943 11.2191 0.0000 0.0000 0.0000
# 2 16.4943 172.4159 94.3154 0.0000 0.0000 0.0000
# 3 11.2191 94.3154 94.7540 0.0000 0.0000 0.0000
# 4 0.0000 0.0000 0.0000 22.5202 0.0000 0.0000
# 5 0.0000 0.0000 0.0000 0.0000 18.9439 0.0000
# 6 0.0000 0.0000 0.0000 0.0000 0.0000 11.9269
#
#
#
# Elastic Compliance Matrix: (Units=1/GPa)
#
#
# Indices 1 2 3 4 5 6 
#
# 1 0.059292 -0.004022 -0.003017 0.000000 0.000000 0.000000
# 2 -0.004022 0.013006 -0.012469 0.000000 0.000000 0.000000
# 3 -0.003017 -0.012469 0.023322 0.000000 0.000000 0.000000
# 4 0.000000 0.000000 0.000000 0.044405 0.000000 0.000000
# 5 0.000000 0.000000 0.000000 0.000000 0.052787 0.000000
# 6 0.000000 0.000000 0.000000 0.000000 0.000000 0.083844
#
#
# Mechanical properties :
#
#
# Convention : Reuss Voigt Hill
#
# Bulk Modulus (GPa) = 17.66669 58.86476 38.26572
# Shear Modulus (GPa) = 14.94589 21.59130 18.26859
#
# Velocity S-wave (km/s) = 2.85236 3.42833 3.15352
# Velocity P-wave (km/s) = 4.52383 6.90760 5.83866
#
# Compressibility (1/GPa) = 0.05660370
#
# Stress axis : x y z
#
# Youngs Moduli (GPa) = 16.86568 76.88971 42.87719
#
# Poissons Ratio (x) = 0.30923 0.12937
# Poissons Ratio (y) = 0.06783 0.53465
# Poissons Ratio (z) = 0.05089 0.95876
#
# Static dielectric constant tensor:
#      x y z
#    x 1.660030 0.000000 0.000000 
#    y 0.000000 1.675740 0.000000 
#    z 0.000000 0.000000 1.573710 
# 
# From -- ./inp_files/26667.got.cif
#   From: 2010.05.17/outbox.cif.g08.bks.cpg/sg53_14_cif.got.tgz:26667.got - 2010.06.03 12:45:16.
