data_PCOD9415495
_publ_section_title
;
Structure prediction by ZEFSAII (Michael W. Deem and Ramdas Pophale) SiO2 
 PCOD9415495
Probable space group: P M N A
;
_chemical_formula_sum "Si O2"
_cell_formula_units_Z 40
_cell_length_a 7.861035
_cell_length_b 14.880491
_cell_length_c 15.211125
_cell_angle_alpha 90.000000
_cell_angle_beta 90.000000
_cell_angle_gamma 90.000000
_cell_volume 1779.337479
_symmetry_space_group_name_H-M "P M N A"
_symmetry_group_IT_number 53
_symmetry_cell_setting 'orthorhombic'
loop_
_space_group_symop_operation_xyz
x,y,z
1/2-x,-y,1/2+z
x,-y,-z
1/2-x,y,1/2-z
-x,-y,-z
1/2+x,y,1/2-z
-x,y,z
1/2+x,-y,1/2+z
loop_
_atom_site_type_symbol
_atom_site_label
_atom_site_fract_x
_atom_site_fract_y
_atom_site_fract_z
Si Si1 0.794604 0.102375 0.496801
Si Si2 0.701081 0.571891 0.154518
Si Si3 0.693859 0.581576 0.559166
Si Si4 0.295278 0.236822 0.852565
Si Si5 0.797898 0.758066 0.852565
O O1 0.732195 0.161152 0.580019
O O2 0.748036 0.153003 0.406720
O O3 0.000000 0.100902 0.502251
O O4 0.733003 0.000000 0.500000
O O5 0.750000 0.605651 0.250000
O O6 0.500000 0.556222 0.146859
O O7 0.806238 0.481294 0.145283
O O8 0.752614 0.664540 0.104817
O O9 0.777396 0.500000 0.500000
O O10 0.500000 0.593569 0.528206
O O11 0.776416 0.673480 0.591730
O O12 0.250000 0.218090 0.750000
O O13 0.500000 0.238963 0.853820
O O14 0.750000 0.759518 0.750000
O O15 0.000000 0.745082 0.855549
#
# Coordination Sequence:
#
# PCOD9415495 Si02
#       5
#     8   8   8   8   8
#     4  10  22  41  63  87 116 150 194 251 309 365
#     4  10  19  31  50  76 106 141 179 219 268 328
#     4  10  21  36  55  82 116 153 194 239 287 342
#     4   9  19  35  56  84 116 149 187 236 295 358
#     4  11  24  41  62  88 122 165 208 254 307 365
#
# _framework density 22.480278999999999
#
# number of rings (size 3 to 8) (size 9 to 14) (size 15 to 20)
#    0.000    2.000    0.000    3.000    0.000    6.400 
#    0.000    2.000    0.000    0.000    0.000    0.000 
#    0.000    0.000    0.000    0.000    0.000    0.000 
#
# Total GULP energy -222754.917241 kJ/mol
# GULP energy per Si atom -5568.872931 kJ/mol
# Density = 2.242911 g / cm^3
# Si number density = 22.480279 Si / 1000 Ang^3
#
#
#
# Elastic Constant Matrix: (Units=GPa)
#
#
# Indices 1 2 3 4 5 6 
#
# 1 68.3845 14.2215 9.6471 0.0000 0.0000 0.0000
# 2 14.2215 153.3440 23.4508 0.0000 0.0000 0.0000
# 3 9.6471 23.4508 80.1132 0.0000 0.0000 0.0000
# 4 0.0000 0.0000 0.0000 33.3335 0.0000 0.0000
# 5 0.0000 0.0000 0.0000 0.0000 40.1112 0.0000
# 6 0.0000 0.0000 0.0000 0.0000 0.0000 124.2273
#
#
#
# Elastic Compliance Matrix: (Units=1/GPa)
#
#
# Indices 1 2 3 4 5 6 
#
# 1 0.015075 -0.001173 -0.001472 0.000000 0.000000 0.000000
# 2 -0.001173 0.006918 -0.001884 0.000000 0.000000 0.000000
# 3 -0.001472 -0.001884 0.013211 0.000000 0.000000 0.000000
# 4 0.000000 0.000000 0.000000 0.030000 0.000000 0.000000
# 5 0.000000 0.000000 0.000000 0.000000 0.024931 0.000000
# 6 0.000000 0.000000 0.000000 0.000000 0.000000 0.008050
#
#
# Mechanical properties :
#
#
# Convention : Reuss Voigt Hill
#
# Bulk Modulus (GPa) = 38.24606 44.05340 41.14973
# Shear Modulus (GPa) = 43.11936 56.50257 49.81096
#
# Velocity S-wave (km/s) = 4.38436 5.01885 4.71230
# Velocity P-wave (km/s) = 6.53301 7.29549 6.92475
#
# Compressibility (1/GPa) = 0.02614649
#
# Stress axis : x y z
#
# Youngs Moduli (GPa) = 66.33595 144.54695 75.69436
#
# Poissons Ratio (x) = 0.16955 0.11142
# Poissons Ratio (y) = 0.07781 0.14260
# Poissons Ratio (z) = 0.09764 0.27230
#
# Static dielectric constant tensor:
#      x y z
#    x 1.794000 0.000000 0.000000 
#    y 0.000000 2.440620 0.000000 
#    z 0.000000 0.000000 -1.134480 
# 
# From -- ./inp_files/19845.got.cif
#   From: 2010.05.17/outbox.cif.g08.bks.cpg/sg53_10_cif.got.tgz:19845.got - 2010.06.03 12:45:16.
