data_PCOD9415571
_publ_section_title
;
Structure prediction by ZEFSAII (Michael W. Deem and Ramdas Pophale) SiO2 
 PCOD9415571
Probable space group: P M N A
;
_chemical_formula_sum "Si O2"
_cell_formula_units_Z 64
_cell_length_a 8.811567
_cell_length_b 17.399430
_cell_length_c 26.226374
_cell_angle_alpha 90.000000
_cell_angle_beta 90.000000
_cell_angle_gamma 90.000000
_cell_volume 4020.929135
_symmetry_space_group_name_H-M "P M N A"
_symmetry_group_IT_number 53
_symmetry_cell_setting 'orthorhombic'
loop_
_space_group_symop_operation_xyz
x,y,z
1/2-x,-y,1/2+z
x,-y,-z
1/2-x,y,1/2-z
-x,-y,-z
1/2+x,y,1/2-z
-x,y,z
1/2+x,-y,1/2+z
loop_
_atom_site_type_symbol
_atom_site_label
_atom_site_fract_x
_atom_site_fract_y
_atom_site_fract_z
Si Si1 0.182150 0.182450 0.402882
Si Si2 0.825104 0.493981 0.938183
Si Si3 0.680094 0.664578 0.055800
Si Si4 0.182349 0.914703 0.695421
Si Si5 0.682244 0.093313 0.805126
Si Si6 0.182710 0.336117 0.058058
Si Si7 0.318194 0.184133 0.600277
Si Si8 0.317794 0.090004 0.497620
O O1 0.230098 0.139077 0.351252
O O2 0.255788 0.266113 0.408872
O O3 0.235832 0.132300 0.451176
O O4 0.000000 0.188789 0.403560
O O5 0.725932 0.420269 0.924773
O O6 0.775263 0.579016 0.921281
O O7 0.000000 0.480708 0.922927
O O8 0.823699 0.500000 0.000000
O O9 0.500000 0.672422 0.052990
O O10 0.751255 0.731797 0.089634
O O11 0.749566 0.672673 0.998851
O O12 0.250000 0.892266 0.750000
O O13 0.000000 0.912069 0.698689
O O14 0.225001 0.003750 0.685301
O O15 0.750000 0.114162 0.750000
O O16 0.500000 0.098583 0.804003
O O17 0.748808 0.145256 0.849824
O O18 0.000000 0.333637 0.054005
O O19 0.500000 0.187798 0.604242
O O20 0.280361 0.132102 0.550682
O O21 0.500000 0.096344 0.490093
O O22 0.278422 0.000000 0.500000
#
# Coordination Sequence:
#
# PCOD9415571 Si02
#       8
#     8   8   8   8   8   8   8   8
#     4  11  21  32  49  74 102 131 166 209 255 297
#     4   8  16  30  47  66  94 131 167 201 242 293
#     4  11  20  30  47  72 101 132 166 205 248 295
#     4   9  20  36  53  74  98 129 168 214 258 298
#     4  10  20  36  55  74  98 128 169 215 259 299
#     4  10  19  32  48  69  99 135 169 202 244 299
#     4  11  21  33  50  72 102 135 169 206 248 299
#     4  10  21  34  48  68  97 135 172 202 242 301
#
# _framework density 15.916719000000001
#
# number of rings (size 3 to 8) (size 9 to 14) (size 15 to 20)
#    0.000    2.000    1.250    4.125    0.000    5.000 
#    0.000    0.000    0.000    0.000    0.000    0.875 
#    0.000    4.000    0.000    0.000    0.000    0.000 
#
# Total GULP energy -357169.604507 kJ/mol
# GULP energy per Si atom -5580.775070 kJ/mol
# Density = 1.588049 g / cm^3
# Si number density = 15.916719 Si / 1000 Ang^3
#
#
#
# Elastic Constant Matrix: (Units=GPa)
#
#
# Indices 1 2 3 4 5 6 
#
# 1 62.9983 56.6000 48.1321 0.0000 0.0000 0.0000
# 2 56.6000 144.2544 79.2376 0.0000 0.0000 0.0000
# 3 48.1321 79.2376 108.6593 0.0000 0.0000 0.0000
# 4 0.0000 0.0000 0.0000 16.3827 0.0000 0.0000
# 5 0.0000 0.0000 0.0000 0.0000 24.4896 0.0000
# 6 0.0000 0.0000 0.0000 0.0000 0.0000 39.9933
#
#
#
# Elastic Compliance Matrix: (Units=1/GPa)
#
#
# Indices 1 2 3 4 5 6 
#
# 1 0.027524 -0.006844 -0.007202 0.000000 0.000000 0.000000
# 2 -0.006844 0.013266 -0.006643 0.000000 0.000000 0.000000
# 3 -0.007202 -0.006643 0.017237 0.000000 0.000000 0.000000
# 4 0.000000 0.000000 0.000000 0.061040 0.000000 0.000000
# 5 0.000000 0.000000 0.000000 0.000000 0.040834 0.000000
# 6 0.000000 0.000000 0.000000 0.000000 0.000000 0.025004
#
#
# Mechanical properties :
#
#
# Convention : Reuss Voigt Hill
#
# Bulk Modulus (GPa) = 60.05380 75.98348 68.01864
# Shear Modulus (GPa) = 21.56739 24.96928 23.26833
#
# Velocity S-wave (km/s) = 3.68505 3.96504 3.82760
# Velocity P-wave (km/s) = 7.47783 8.29481 7.89689
#
# Compressibility (1/GPa) = 0.01665174
#
# Stress axis : x y z
#
# Youngs Moduli (GPa) = 36.33160 75.38020 58.01466
#
# Poissons Ratio (x) = 0.51588 0.41780
# Poissons Ratio (y) = 0.24864 0.38536
# Poissons Ratio (z) = 0.26165 0.50071
#
# Static dielectric constant tensor:
#      x y z
#    x 1.529680 0.000000 0.000000 
#    y 0.000000 1.547810 0.000000 
#    z 0.000000 0.000000 1.497380 
# 
# From -- ./inp_files/31197.got.cif
#   From: 2010.05.17/outbox.cif.g08.bks.cpg/sg53_16_cif.got.tgz:31197.got - 2010.06.03 12:45:16.
