data_PCOD9415395
_publ_section_title
;
Structure prediction by ZEFSAII (Michael W. Deem and Ramdas Pophale) SiO2 
 PCOD9415395
Probable space group: P M N A
;
_chemical_formula_sum "Si O2"
_cell_formula_units_Z 64
_cell_length_a 8.741699
_cell_length_b 15.341529
_cell_length_c 30.520022
_cell_angle_alpha 90.000000
_cell_angle_beta 90.000000
_cell_angle_gamma 90.000000
_cell_volume 4093.071547
_symmetry_space_group_name_H-M "P M N A"
_symmetry_group_IT_number 53
_symmetry_cell_setting 'orthorhombic'
loop_
_space_group_symop_operation_xyz
x,y,z
1/2-x,-y,1/2+z
x,-y,-z
1/2-x,y,1/2-z
-x,-y,-z
1/2+x,y,1/2-z
-x,y,z
1/2+x,-y,1/2+z
loop_
_atom_site_type_symbol
_atom_site_label
_atom_site_fract_x
_atom_site_fract_y
_atom_site_fract_z
Si Si1 0.684672 0.320541 0.460469
Si Si2 0.814081 0.366242 0.942292
Si Si3 0.316916 0.493537 0.797036
Si Si4 0.315869 0.870359 0.969044
Si Si5 0.815947 0.946247 0.435235
Si Si6 0.817165 0.795617 0.117942
Si Si7 0.317299 0.288902 0.796459
Si Si8 0.314686 0.461256 0.388960
O O1 0.500000 0.319514 0.461281
O O2 0.735967 0.361768 0.507124
O O3 0.743395 0.221971 0.457960
O O4 0.731491 0.380462 0.419679
O O5 0.766780 0.278145 0.917305
O O6 0.764920 0.450593 0.914630
O O7 0.000000 0.368604 0.942734
O O8 0.250000 0.522330 0.750000
O O9 0.500000 0.499952 0.795771
O O10 0.274105 0.390988 0.802351
O O11 0.252276 0.540254 0.840152
O O12 0.500000 0.863148 0.967416
O O13 0.270196 0.952496 0.938812
O O14 0.275024 0.900272 0.018459
O O15 0.741262 0.889054 0.397664
O O16 0.000000 0.943280 0.431665
O O17 0.750295 0.766306 0.164105
O O18 0.000000 0.794367 0.119399
O O19 0.250000 0.260555 0.750000
O O20 0.500000 0.283685 0.796036
O O21 0.500000 0.463068 0.386055
#
# Coordination Sequence:
#
# PCOD9415395 Si02
#       8
#     8   8   8   8   8   8   8   8
#     4  10  19  31  48  70  96 131 170 206 242 281
#     4   9  17  29  44  66  97 132 167 197 231 279
#     4  10  20  33  50  70  94 123 161 203 245 287
#     4   9  18  32  48  66  93 127 162 203 246 285
#     4   9  18  32  48  67  93 127 162 198 245 291
#     4  11  19  29  49  73  97 129 165 201 240 287
#     4  10  20  33  49  70  97 128 161 200 243 290
#     4  10  19  32  49  68  97 133 166 200 241 288
#
# _framework density 15.636179
#
# number of rings (size 3 to 8) (size 9 to 14) (size 15 to 20)
#    0.000    2.250    2.500    2.250    0.000    3.500 
#    0.000    1.875    0.000    1.500    0.000    0.875 
#    0.000    2.000    0.000    0.000    0.000    0.000 
#
# Total GULP energy -356938.320868 kJ/mol
# GULP energy per Si atom -5577.161264 kJ/mol
# Density = 1.560059 g / cm^3
# Si number density = 15.636179 Si / 1000 Ang^3
#
#
#
# Elastic Constant Matrix: (Units=GPa)
#
#
# Indices 1 2 3 4 5 6 
#
# 1 17.8387 19.4131 33.2749 0.0000 0.0000 0.0000
# 2 19.4131 83.4075 60.5707 0.0000 0.0000 0.0000
# 3 33.2749 60.5707 144.2463 0.0000 0.0000 0.0000
# 4 0.0000 0.0000 0.0000 19.5655 0.0000 0.0000
# 5 0.0000 0.0000 0.0000 0.0000 22.4719 0.0000
# 6 0.0000 0.0000 0.0000 0.0000 0.0000 21.6393
#
#
#
# Elastic Compliance Matrix: (Units=1/GPa)
#
#
# Indices 1 2 3 4 5 6 
#
# 1 0.103603 -0.009723 -0.019816 0.000000 0.000000 0.000000
# 2 -0.009723 0.018162 -0.005384 0.000000 0.000000 0.000000
# 3 -0.019816 -0.005384 0.013764 0.000000 0.000000 0.000000
# 4 0.000000 0.000000 0.000000 0.051110 0.000000 0.000000
# 5 0.000000 0.000000 0.000000 0.000000 0.044500 0.000000
# 6 0.000000 0.000000 0.000000 0.000000 0.000000 0.046212
#
#
# Mechanical properties :
#
#
# Convention : Reuss Voigt Hill
#
# Bulk Modulus (GPa) = 15.22454 52.44555 33.83505
# Shear Modulus (GPa) = 13.54678 21.55092 17.54885
#
# Velocity S-wave (km/s) = 2.94662 3.71654 3.35374
# Velocity P-wave (km/s) = 4.61894 7.21324 6.05663
#
# Compressibility (1/GPa) = 0.06568344
#
# Stress axis : x y z
#
# Youngs Moduli (GPa) = 9.65227 55.06063 72.65081
#
# Poissons Ratio (x) = 0.53534 1.43968
# Poissons Ratio (y) = 0.09385 0.39112
# Poissons Ratio (z) = 0.19127 0.29642
#
# Static dielectric constant tensor:
#      x y z
#    x 1.525470 0.000000 0.000000 
#    y 0.000000 1.509040 0.000000 
#    z 0.000000 0.000000 1.550720 
# 
# From -- ./inp_files/38493.got.cif
#   From: 2010.05.17/outbox.cif.g08.bks.cpg/sg53_20_cif.got.tgz:38493.got - 2010.06.03 12:45:16.
