data_PCOD9415163
_publ_section_title
;
Structure prediction by ZEFSAII (Michael W. Deem and Ramdas Pophale) SiO2 
 PCOD9415163
Probable space group: P M N A
;
_chemical_formula_sum "Si O2"
_cell_formula_units_Z 64
_cell_length_a 9.293972
_cell_length_b 14.083558
_cell_length_c 28.592263
_cell_angle_alpha 90.000000
_cell_angle_beta 90.000000
_cell_angle_gamma 90.000000
_cell_volume 3742.504027
_symmetry_space_group_name_H-M "P M N A"
_symmetry_group_IT_number 53
_symmetry_cell_setting 'orthorhombic'
loop_
_space_group_symop_operation_xyz
x,y,z
1/2-x,-y,1/2+z
x,-y,-z
1/2-x,y,1/2-z
-x,-y,-z
1/2+x,y,1/2-z
-x,y,z
1/2+x,-y,1/2+z
loop_
_atom_site_type_symbol
_atom_site_label
_atom_site_fract_x
_atom_site_fract_y
_atom_site_fract_z
Si Si1 0.326043 0.893538 0.019397
Si Si2 0.673137 0.529132 0.298715
Si Si3 0.337045 0.225905 0.292042
Si Si4 0.333113 0.760310 0.934339
Si Si5 0.826756 0.893417 0.117952
Si Si6 0.829215 0.246985 0.797640
Si Si7 0.336954 0.380781 0.374233
Si Si8 0.167944 0.083686 0.351131
O O1 0.500000 0.890377 0.025877
O O2 0.244387 0.875223 0.067631
O O3 0.284045 0.814439 0.981075
O O4 0.293700 0.000000 0.000000
O O5 0.750000 0.501908 0.250000
O O6 0.500000 0.513516 0.294169
O O7 0.700029 0.641211 0.305478
O O8 0.721949 0.469608 0.344255
O O9 0.250000 0.272282 0.250000
O O10 0.500000 0.201804 0.278765
O O11 0.342981 0.298257 0.335000
O O12 0.245273 0.135553 0.308185
O O13 0.500000 0.735045 0.940152
O O14 0.249210 0.667770 0.916388
O O15 0.326045 0.841215 0.894001
O O16 0.790685 0.814315 0.156916
O O17 0.000000 0.900240 0.114149
O O18 0.757484 0.991647 0.135253
O O19 0.750000 0.217014 0.750000
O O20 0.000000 0.236661 0.790273
O O21 0.500000 0.403079 0.389187
O O22 0.000000 0.062506 0.342514
#
# Coordination Sequence:
#
# PCOD9415163 Si02
#       8
#     8   8   8   8   8   8   8   8
#     4  10  19  35  55  76 102 135 176 214 254 304
#     4   9  17  32  53  76 101 132 168 212 258 305
#     4  10  19  30  43  66  97 129 164 204 246 300
#     4   9  18  32  50  72 100 131 165 205 250 301
#     4  11  22  34  51  78 105 132 170 216 258 303
#     4   9  20  37  55  76 104 134 171 213 256 304
#     4   9  18  30  48  73 101 129 163 205 253 304
#     4  10  19  33  49  66  93 132 168 205 251 300
#
# _framework density 17.100850000000001
#
# number of rings (size 3 to 8) (size 9 to 14) (size 15 to 20)
#    0.000    2.375    1.250    1.500    0.000    3.750 
#    0.000    1.250    0.000    0.750    0.000    5.250 
#    0.000    0.000    0.000    0.000    0.000    0.000 
#
# Total GULP energy -356685.956711 kJ/mol
# GULP energy per Si atom -5573.218074 kJ/mol
# Density = 1.706193 g / cm^3
# Si number density = 17.100850 Si / 1000 Ang^3
#
#
#
# Elastic Constant Matrix: (Units=GPa)
#
#
# Indices 1 2 3 4 5 6 
#
# 1 59.3268 31.2177 48.2261 0.0000 0.0000 0.0000
# 2 31.2177 51.9514 43.5141 0.0000 0.0000 0.0000
# 3 48.2261 43.5141 93.3508 0.0000 0.0000 0.0000
# 4 0.0000 0.0000 0.0000 23.8571 0.0000 0.0000
# 5 0.0000 0.0000 0.0000 0.0000 30.8975 0.0000
# 6 0.0000 0.0000 0.0000 0.0000 0.0000 18.1298
#
#
#
# Elastic Compliance Matrix: (Units=1/GPa)
#
#
# Indices 1 2 3 4 5 6 
#
# 1 0.031248 -0.008622 -0.012124 0.000000 0.000000 0.000000
# 2 -0.008622 0.033957 -0.011374 0.000000 0.000000 0.000000
# 3 -0.012124 -0.011374 0.022278 0.000000 0.000000 0.000000
# 4 0.000000 0.000000 0.000000 0.041916 0.000000 0.000000
# 5 0.000000 0.000000 0.000000 0.000000 0.032365 0.000000
# 6 0.000000 0.000000 0.000000 0.000000 0.000000 0.055158
#
#
# Mechanical properties :
#
#
# Convention : Reuss Voigt Hill
#
# Bulk Modulus (GPa) = 43.02578 50.06053 46.54315
# Shear Modulus (GPa) = 17.30645 20.02163 18.66404
#
# Velocity S-wave (km/s) = 3.18468 3.42540 3.30723
# Velocity P-wave (km/s) = 6.22395 6.70685 6.46991
#
# Compressibility (1/GPa) = 0.02324188
#
# Stress axis : x y z
#
# Youngs Moduli (GPa) = 32.00179 29.44926 44.88805
#
# Poissons Ratio (x) = 0.25391 0.54423
# Poissons Ratio (y) = 0.27592 0.51056
# Poissons Ratio (z) = 0.38799 0.33496
#
# Static dielectric constant tensor:
#      x y z
#    x 1.583160 0.000000 0.000000 
#    y 0.000000 1.584010 0.000000 
#    z 0.000000 0.000000 1.586260 
# 
# From -- ./inp_files/34247.got.cif
#   From: 2010.05.17/outbox.cif.g08.bks.cpg/sg53_18_cif.got.tgz:34247.got - 2010.06.03 12:45:16.
