data_PCOD9415318
_publ_section_title
;
Structure prediction by ZEFSAII (Michael W. Deem and Ramdas Pophale) SiO2 
 PCOD9415318
Probable space group: P M N A
;
_chemical_formula_sum "Si O2"
_cell_formula_units_Z 52
_cell_length_a 14.869891
_cell_length_b 19.646062
_cell_length_c 7.205960
_cell_angle_alpha 90.000000
_cell_angle_beta 90.000000
_cell_angle_gamma 90.000000
_cell_volume 2105.111687
_symmetry_space_group_name_H-M "P M N A"
_symmetry_group_IT_number 53
_symmetry_cell_setting 'orthorhombic'
loop_
_space_group_symop_operation_xyz
x,y,z
1/2-x,-y,1/2+z
x,-y,-z
1/2-x,y,1/2-z
-x,-y,-z
1/2+x,y,1/2-z
-x,y,z
1/2+x,-y,1/2+z
loop_
_atom_site_type_symbol
_atom_site_label
_atom_site_fract_x
_atom_site_fract_y
_atom_site_fract_z
Si Si1 0.399664 0.686605 0.074960
Si Si2 0.250000 0.928773 0.250000
Si Si3 0.104307 0.330921 0.025191
Si Si4 0.105155 0.840751 0.370345
Si Si5 0.258856 0.578273 0.029369
Si Si6 0.600370 0.964378 0.701980
Si Si7 0.394182 0.817825 0.576196
O O1 0.500000 0.668304 0.019168
O O2 0.394711 0.679627 0.300010
O O3 0.386340 0.766405 0.041241
O O4 0.331859 0.635161 0.980940
O O5 0.201925 0.877379 0.399221
O O6 0.328883 0.984460 0.216773
O O7 0.166013 0.396236 0.060931
O O8 0.142107 0.258587 0.100665
O O9 0.000000 0.340038 0.076947
O O10 0.107638 0.836017 0.144040
O O11 0.000000 0.863750 0.408701
O O12 0.250000 0.584247 0.250000
O O13 0.281984 0.500000 0.000000
O O14 0.500000 0.965743 0.782227
O O15 0.632797 0.886688 0.682023
O O16 0.592614 0.000000 0.500000
O O17 0.500000 0.811114 0.621785
#
# Coordination Sequence:
#
# PCOD9415318 Si02
#       7
#     8   4   8   8   8   8   8
#     4   8  16  29  46  71 101 130 165 206 252 302
#     4  12  20  24  48  76 102 130 166 206 264 310
#     4   8  15  28  49  74  96 124 162 208 258 299
#     4   9  17  28  45  73 101 125 160 211 258 299
#     4  10  20  32  51  77 110 135 164 208 258 306
#     4  10  19  31  45  68 101 130 164 211 257 307
#     4   8  14  28  48  67  92 124 163 209 252 293
#
# _framework density 24.701779999999999
#
# number of rings (size 3 to 8) (size 9 to 14) (size 15 to 20)
#    0.000    2.923    1.538    2.308    5.385    0.615 
#    0.000    0.000    1.692    1.846    0.000    2.154 
#    0.000    0.000    0.000    0.000    0.000    0.000 
#
# Total GULP energy -289650.465060 kJ/mol
# GULP energy per Si atom -5570.201251 kJ/mol
# Density = 2.464556 g / cm^3
# Si number density = 24.701780 Si / 1000 Ang^3
#
#
#
# Elastic Constant Matrix: (Units=GPa)
#
#
# Indices 1 2 3 4 5 6 
#
# 1 142.5784 80.1607 11.6036 0.0000 0.0000 0.0000
# 2 80.1607 152.3618 8.8739 0.0000 0.0000 0.0000
# 3 11.6036 8.8739 70.6854 0.0000 0.0000 0.0000
# 4 0.0000 0.0000 0.0000 20.5214 0.0000 0.0000
# 5 0.0000 0.0000 0.0000 0.0000 -2.8879 0.0000
# 6 0.0000 0.0000 0.0000 0.0000 0.0000 29.5259
#
#
#
# Elastic Compliance Matrix: (Units=1/GPa)
#
#
# Indices 1 2 3 4 5 6 
#
# 1 0.010028 -0.005218 -0.000991 0.000000 0.000000 0.000000
# 2 -0.005218 0.009327 -0.000314 0.000000 0.000000 0.000000
# 3 -0.000991 -0.000314 0.014349 0.000000 0.000000 0.000000
# 4 0.000000 0.000000 0.000000 0.048730 0.000000 0.000000
# 5 0.000000 0.000000 0.000000 0.000000 -0.346278 0.000000
# 6 0.000000 0.000000 0.000000 0.000000 0.000000 0.033869
#
#
# Mechanical properties :
#
#
# Convention : Reuss Voigt Hill
#
# Bulk Modulus (GPa) = 48.40930 62.98914 55.69922
# Shear Modulus (GPa) = -23.80476 27.09771 1.64647
#
# Velocity S-wave (km/s) = -3.10770 3.31568 0.81731
# Velocity P-wave (km/s) = 2.60058 6.34141 4.84647
#
# Compressibility (1/GPa) = 0.02065719
#
# Stress axis : x y z
#
# Youngs Moduli (GPa) = 99.71876 107.21444 69.68960
#
# Poissons Ratio (x) = 0.55948 0.06907
# Poissons Ratio (y) = 0.52036 0.02190
# Poissons Ratio (z) = 0.09883 0.03370
#
# Static dielectric constant tensor:
#      x y z
#    x 2.008750 0.000000 0.000000 
#    y 0.000000 1.952510 0.000000 
#    z 0.000000 0.000000 2.098800 
# 
# From -- ./inp_files/16154.got.cif
#   From: 2010.05.17/outbox.cif.g08.bks.cpg/sg53_9_cif.got.tgz:16154.got - 2010.06.03 12:45:16.
