data_PCOD9415100
_publ_section_title
;
Structure prediction by ZEFSAII (Michael W. Deem and Ramdas Pophale) SiO2 
 PCOD9415100
Probable space group: P M N A
;
_chemical_formula_sum "Si O2"
_cell_formula_units_Z 64
_cell_length_a 7.634990
_cell_length_b 24.247481
_cell_length_c 17.961225
_cell_angle_alpha 90.000000
_cell_angle_beta 90.000000
_cell_angle_gamma 90.000000
_cell_volume 3325.148562
_symmetry_space_group_name_H-M "P M N A"
_symmetry_group_IT_number 53
_symmetry_cell_setting 'orthorhombic'
loop_
_space_group_symop_operation_xyz
x,y,z
1/2-x,-y,1/2+z
x,-y,-z
1/2-x,y,1/2-z
-x,-y,-z
1/2+x,y,1/2-z
-x,y,z
1/2+x,-y,1/2+z
loop_
_atom_site_type_symbol
_atom_site_label
_atom_site_fract_x
_atom_site_fract_y
_atom_site_fract_z
Si Si1 0.292543 0.258891 0.028308
Si Si2 0.701829 0.037810 0.925347
Si Si3 0.291330 0.328873 0.167606
Si Si4 0.288238 0.634080 0.447390
Si Si5 0.289521 0.545336 0.336465
Si Si6 0.796549 0.564597 0.911522
Si Si7 0.715613 0.134560 0.023157
Si Si8 0.710501 0.062653 0.164295
O O1 0.500000 0.252570 0.039754
O O2 0.222351 0.288518 0.103023
O O3 0.224237 0.197444 0.016344
O O4 0.267170 0.303505 0.963131
O O5 0.500000 0.049017 0.903754
O O6 0.779319 0.997564 0.862530
O O7 0.777847 0.095042 0.955845
O O8 0.698516 0.000000 0.000000
O O9 0.250000 0.308972 0.250000
O O10 0.500000 0.333781 0.159481
O O11 0.214531 0.389584 0.153081
O O12 0.500000 0.634635 0.449969
O O13 0.230090 0.602630 0.373296
O O14 0.222705 0.595747 0.516146
O O15 0.250000 0.540181 0.250000
O O16 0.500000 0.543852 0.343412
O O17 0.220074 0.492878 0.383212
O O18 0.000000 0.554006 0.929480
O O19 0.500000 0.132997 0.021324
O O20 0.768543 0.107342 0.102410
O O21 0.750000 0.075052 0.250000
O O22 0.500000 0.060358 0.157293
#
# Coordination Sequence:
#
# PCOD9415100 Si02
#       8
#     8   8   8   8   8   8   8   8
#     4   9  18  31  47  66  86 113 153 193 220 250
#     4   7  11  22  42  64  83 109 146 179 205 241
#     4  10  19  29  41  61  90 120 148 179 217 262
#     4   9  18  33  50  67  90 119 148 181 224 271
#     4  10  20  32  48  70  92 114 143 181 226 274
#     4   9  17  31  50  68  87 114 147 181 220 268
#     4   8  14  27  46  65  85 114 153 187 212 249
#     4   9  16  26  43  68  95 119 143 176 218 261
#
# _framework density 19.247261000000002
#
# number of rings (size 3 to 8) (size 9 to 14) (size 15 to 20)
#    0.000    3.125    0.000    2.625    0.000    4.500 
#    0.000    0.625    0.000    8.625    0.000    3.500 
#    0.000    0.000    0.000    0.000    0.000    0.000 
#
# Total GULP energy -356515.892355 kJ/mol
# GULP energy per Si atom -5570.560818 kJ/mol
# Density = 1.920345 g / cm^3
# Si number density = 19.247261 Si / 1000 Ang^3
#
#
#
# Elastic Constant Matrix: (Units=GPa)
#
#
# Indices 1 2 3 4 5 6 
#
# 1 35.6135 2.7634 -1.8204 0.0000 0.0000 0.0000
# 2 2.7634 165.1332 42.9667 0.0000 0.0000 0.0000
# 3 -1.8204 42.9667 39.8237 0.0000 0.0000 0.0000
# 4 0.0000 0.0000 0.0000 13.6849 0.0000 0.0000
# 5 0.0000 0.0000 0.0000 0.0000 80.8245 0.0000
# 6 0.0000 0.0000 0.0000 0.0000 0.0000 40.3831
#
#
#
# Elastic Compliance Matrix: (Units=1/GPa)
#
#
# Indices 1 2 3 4 5 6 
#
# 1 0.028295 -0.001126 0.002508 0.000000 0.000000 0.000000
# 2 -0.001126 0.008464 -0.009184 0.000000 0.000000 0.000000
# 3 0.002508 -0.009184 0.035134 0.000000 0.000000 0.000000
# 4 0.000000 0.000000 0.000000 0.073073 0.000000 0.000000
# 5 0.000000 0.000000 0.000000 0.000000 0.012372 0.000000
# 6 0.000000 0.000000 0.000000 0.000000 0.000000 0.024763
#
#
# Mechanical properties :
#
#
# Convention : Reuss Voigt Hill
#
# Bulk Modulus (GPa) = 17.76510 36.48774 27.12642
# Shear Modulus (GPa) = 23.09821 40.08923 31.59372
#
# Velocity S-wave (km/s) = 3.46797 4.56878 4.05590
# Velocity P-wave (km/s) = 5.02849 6.84326 6.00483
#
# Compressibility (1/GPa) = 0.05629014
#
# Stress axis : x y z
#
# Youngs Moduli (GPa) = 35.34211 118.14647 28.46268
#
# Poissons Ratio (x) = 0.13306 -0.07140
# Poissons Ratio (y) = 0.03980 0.26139
# Poissons Ratio (z) = -0.08866 1.08501
#
# Static dielectric constant tensor:
#      x y z
#    x 1.739770 0.000000 0.000000 
#    y 0.000000 1.696050 0.000000 
#    z 0.000000 0.000000 1.665130 
# 
# From -- ./inp_files/27048.got.cif
#   From: 2010.05.17/outbox.cif.g08.bks.cpg/sg53_14_cif.got.tgz:27048.got - 2010.06.03 12:45:16.
