data_PCOD9415254
_publ_section_title
;
Structure prediction by ZEFSAII (Michael W. Deem and Ramdas Pophale) SiO2 
 PCOD9415254
Probable space group: P M N A
;
_chemical_formula_sum "Si O2"
_cell_formula_units_Z 64
_cell_length_a 18.208612
_cell_length_b 22.202338
_cell_length_c 7.752990
_cell_angle_alpha 90.000000
_cell_angle_beta 90.000000
_cell_angle_gamma 90.000000
_cell_volume 3134.330404
_symmetry_space_group_name_H-M "P M N A"
_symmetry_group_IT_number 53
_symmetry_cell_setting 'orthorhombic'
loop_
_space_group_symop_operation_xyz
x,y,z
1/2-x,-y,1/2+z
x,-y,-z
1/2-x,y,1/2-z
-x,-y,-z
1/2+x,y,1/2-z
-x,y,z
1/2+x,-y,1/2+z
loop_
_atom_site_type_symbol
_atom_site_label
_atom_site_fract_x
_atom_site_fract_y
_atom_site_fract_z
Si Si1 0.419260 0.507358 0.200991
Si Si2 0.584505 0.880638 0.703220
Si Si3 0.336643 0.628187 0.279480
Si Si4 0.837585 0.758697 0.221299
Si Si5 0.165146 0.000509 0.207312
Si Si6 0.588063 0.621086 0.646348
Si Si7 0.915185 0.880035 0.219491
Si Si8 0.911851 0.751620 0.845819
O O1 0.500000 0.519205 0.281311
O O2 0.370073 0.565921 0.216619
O O3 0.392105 0.442877 0.270134
O O4 0.428323 0.500000 0.000000
O O5 0.500000 0.892599 0.749252
O O6 0.588127 0.879364 0.492023
O O7 0.604961 0.812656 0.757817
O O8 0.633739 0.935335 0.767844
O O9 0.250000 0.626704 0.250000
O O10 0.362253 0.693259 0.205582
O O11 0.363134 0.627221 0.476810
O O12 0.750000 0.763344 0.250000
O O13 0.875286 0.819850 0.284986
O O14 0.862993 0.754691 0.019871
O O15 0.250000 0.994998 0.250000
O O16 0.122330 0.942176 0.275762
O O17 0.156045 0.000000 0.000000
O O18 0.500000 0.618478 0.610346
O O19 0.599064 0.685919 0.739432
O O20 0.000000 0.878911 0.268535
O O21 0.000000 0.755724 0.891116
#
# Coordination Sequence:
#
# PCOD9415254 Si02
#       8
#     8   8   8   8   8   8   8   8
#     4  10  21  35  51  73 101 132 168 211 252 291
#     4   8  14  26  46  71  95 121 161 209 244 277
#     4  10  20  32  49  74 101 130 164 202 247 301
#     4   9  16  26  42  68 100 126 153 197 249 295
#     4  10  19  30  47  71  99 130 161 197 242 290
#     4   9  17  32  55  77  97 128 168 206 248 299
#     4   9  16  27  46  71  95 123 164 208 243 279
#     4   8  14  26  47  73  96 121 161 209 247 282
#
# _framework density 20.419035000000001
#
# number of rings (size 3 to 8) (size 9 to 14) (size 15 to 20)
#    0.000    2.875    0.000    2.625    0.000    5.000 
#    0.000    0.000    0.000   14.250    0.000    1.750 
#    0.000    0.000    0.000    0.000    0.000    0.000 
#
# Total GULP energy -356303.879003 kJ/mol
# GULP energy per Si atom -5567.248109 kJ/mol
# Density = 2.037256 g / cm^3
# Si number density = 20.419035 Si / 1000 Ang^3
#
#
#
# Elastic Constant Matrix: (Units=GPa)
#
#
# Indices 1 2 3 4 5 6 
#
# 1 89.3986 98.0456 9.3406 0.0000 0.0000 0.0000
# 2 98.0456 259.7090 22.0636 0.0000 0.0000 0.0000
# 3 9.3406 22.0636 25.6235 0.0000 0.0000 0.0000
# 4 0.0000 0.0000 0.0000 -22.2124 0.0000 0.0000
# 5 0.0000 0.0000 0.0000 0.0000 5.6039 0.0000
# 6 0.0000 0.0000 0.0000 0.0000 0.0000 69.8452
#
#
#
# Elastic Compliance Matrix: (Units=1/GPa)
#
#
# Indices 1 2 3 4 5 6 
#
# 1 0.019105 -0.007144 -0.000813 0.000000 0.000000 0.000000
# 2 -0.007144 0.006825 -0.003273 0.000000 0.000000 0.000000
# 3 -0.000813 -0.003273 0.042142 0.000000 0.000000 0.000000
# 4 0.000000 0.000000 0.000000 -0.045020 0.000000 0.000000
# 5 0.000000 0.000000 0.000000 0.000000 0.178446 0.000000
# 6 0.000000 0.000000 0.000000 0.000000 0.000000 0.014317
#
#
# Mechanical properties :
#
#
# Convention : Reuss Voigt Hill
#
# Bulk Modulus (GPa) = 21.92397 70.40341 46.16369
# Shear Modulus (GPa) = 19.72541 26.99944 23.36243
#
# Velocity S-wave (km/s) = 3.11147 3.64025 3.38620
# Velocity P-wave (km/s) = 4.86505 7.22653 6.16001
#
# Compressibility (1/GPa) = 0.04561217
#
# Stress axis : x y z
#
# Youngs Moduli (GPa) = 52.34131 146.51212 23.72958
#
# Poissons Ratio (x) = 1.04662 0.01930
# Poissons Ratio (y) = 0.37390 0.07767
# Poissons Ratio (z) = 0.04258 0.47954
#
# Static dielectric constant tensor:
#      x y z
#    x 1.703290 0.000000 0.000000 
#    y 0.000000 1.831160 0.000000 
#    z 0.000000 0.000000 1.526260 
# 
# From -- ./inp_files/10254.got.cif
#   From: 2010.05.17/outbox.cif.g08.bks.cpg/sg53_6_cif.got.tgz:10254.got - 2010.06.03 12:45:16.
