data_PCOD9415036
_publ_section_title
;
Structure prediction by ZEFSAII (Michael W. Deem and Ramdas Pophale) SiO2 
 PCOD9415036
Probable space group: P M N A
;
_chemical_formula_sum "Si O2"
_cell_formula_units_Z 56
_cell_length_a 7.753099
_cell_length_b 19.676726
_cell_length_c 16.404104
_cell_angle_alpha 90.000000
_cell_angle_beta 90.000000
_cell_angle_gamma 90.000000
_cell_volume 2502.538005
_symmetry_space_group_name_H-M "P M N A"
_symmetry_group_IT_number 53
_symmetry_cell_setting 'orthorhombic'
loop_
_space_group_symop_operation_xyz
x,y,z
1/2-x,-y,1/2+z
x,-y,-z
1/2-x,y,1/2-z
-x,-y,-z
1/2+x,y,1/2-z
-x,y,z
1/2+x,-y,1/2+z
loop_
_atom_site_type_symbol
_atom_site_label
_atom_site_fract_x
_atom_site_fract_y
_atom_site_fract_z
Si Si1 0.211077 0.078444 0.501066
Si Si2 0.207857 0.837513 0.340013
Si Si3 0.298894 0.702718 0.910030
Si Si4 0.803283 0.549071 0.430504
Si Si5 0.702320 0.301896 0.901782
Si Si6 0.292472 0.159453 0.159254
Si Si7 0.694619 0.568660 0.664112
O O1 0.267996 0.117277 0.583333
O O2 0.267874 0.114716 0.417270
O O3 0.000000 0.080039 0.501399
O O4 0.264100 0.000000 0.500000
O O5 0.250000 0.864117 0.250000
O O6 0.276444 0.759954 0.349548
O O7 0.000000 0.834144 0.346942
O O8 0.500000 0.692064 0.889629
O O9 0.227008 0.763568 0.855512
O O10 0.212897 0.630002 0.899011
O O11 0.290548 0.723484 0.004514
O O12 0.721549 0.500000 0.500000
O O13 0.725144 0.621351 0.405000
O O14 0.806943 0.496919 0.355959
O O15 0.000000 0.564342 0.459545
O O16 0.500000 0.309528 0.878467
O O17 0.250000 0.135148 0.250000
O O18 0.500000 0.162751 0.152887
O O19 0.750000 0.599150 0.750000
O O20 0.500000 0.544916 0.666650
#
# Coordination Sequence:
#
# PCOD9415036 Si02
#       7
#     8   8   8   8   8   8   8
#     4   9  18  35  60  87 116 154 194 228 273 341
#     4  10  20  37  60  86 116 152 196 240 282 335
#     4  10  18  35  59  81 107 145 190 232 283 342
#     4  10  19  35  59  80 103 142 187 232 288 347
#     4   9  17  33  59  83 106 144 191 233 281 343
#     4  10  20  34  57  86 116 149 189 235 281 337
#     4  12  25  38  53  78 112 145 183 232 285 340
#
# _framework density 22.377282000000001
#
# number of rings (size 3 to 8) (size 9 to 14) (size 15 to 20)
#    0.000    2.000    2.857    1.714    0.000    3.143 
#    0.000    3.571    0.000    0.857    0.000    0.000 
#    0.000    0.000    0.000    0.000    0.000    0.000 
#
# Total GULP energy -312486.587149 kJ/mol
# GULP energy per Si atom -5580.117628 kJ/mol
# Density = 2.232635 g / cm^3
# Si number density = 22.377282 Si / 1000 Ang^3
#
#
#
# Elastic Constant Matrix: (Units=GPa)
#
#
# Indices 1 2 3 4 5 6 
#
# 1 43.7338 8.4531 2.7586 0.0000 0.0000 0.0000
# 2 8.4531 157.5482 70.2518 0.0000 0.0000 0.0000
# 3 2.7586 70.2518 121.1162 0.0000 0.0000 0.0000
# 4 0.0000 0.0000 0.0000 17.9318 0.0000 0.0000
# 5 0.0000 0.0000 0.0000 0.0000 18.5532 0.0000
# 6 0.0000 0.0000 0.0000 0.0000 0.0000 0.3372
#
#
#
# Elastic Compliance Matrix: (Units=1/GPa)
#
#
# Indices 1 2 3 4 5 6 
#
# 1 0.023111 -0.001356 0.000260 0.000000 0.000000 0.000000
# 2 -0.001356 0.008641 -0.004981 0.000000 0.000000 0.000000
# 3 0.000260 -0.004981 0.011140 0.000000 0.000000 0.000000
# 4 0.000000 0.000000 0.000000 0.055767 0.000000 0.000000
# 5 0.000000 0.000000 0.000000 0.000000 0.053899 0.000000
# 6 0.000000 0.000000 0.000000 0.000000 0.000000 2.965506
#
#
# Mechanical properties :
#
#
# Convention : Reuss Voigt Hill
#
# Bulk Modulus (GPa) = 32.53296 53.92501 43.22898
# Shear Modulus (GPa) = 1.59212 23.42676 12.50944
#
# Velocity S-wave (km/s) = 0.84441 3.23909 2.36693
# Velocity P-wave (km/s) = 3.93963 6.17571 5.17977
#
# Compressibility (1/GPa) = 0.03073806
#
# Stress axis : x y z
#
# Youngs Moduli (GPa) = 43.26893 115.72420 89.76682
#
# Poissons Ratio (x) = 0.15692 -0.02335
# Poissons Ratio (y) = 0.05867 0.44716
# Poissons Ratio (z) = -0.01126 0.57646
#
# Static dielectric constant tensor:
#      x y z
#    x 1.861950 0.000000 0.000000 
#    y 0.000000 1.835960 0.000000 
#    z 0.000000 0.000000 1.873990 
# 
# From -- ./inp_files/20566.got.cif
#   From: 2010.05.17/outbox.cif.g08.bks.cpg/sg53_11_cif.got.tgz:20566.got - 2010.06.03 12:45:16.
