data_PCOD9415865
_publ_section_title
;
Structure prediction by ZEFSAII (Michael W. Deem and Ramdas Pophale) SiO2 
 PCOD9415865
Probable space group: P M N A
;
_chemical_formula_sum "Si O2"
_cell_formula_units_Z 48
_cell_length_a 8.481519
_cell_length_b 16.943343
_cell_length_c 19.035777
_cell_angle_alpha 90.000000
_cell_angle_beta 90.000000
_cell_angle_gamma 90.000000
_cell_volume 2735.541770
_symmetry_space_group_name_H-M "P M N A"
_symmetry_group_IT_number 53
_symmetry_cell_setting 'orthorhombic'
loop_
_space_group_symop_operation_xyz
x,y,z
1/2-x,-y,1/2+z
x,-y,-z
1/2-x,y,1/2-z
-x,-y,-z
1/2+x,y,1/2-z
-x,y,z
1/2+x,-y,1/2+z
loop_
_atom_site_type_symbol
_atom_site_label
_atom_site_fract_x
_atom_site_fract_y
_atom_site_fract_z
Si Si1 0.186942 0.983021 0.171259
Si Si2 0.308214 0.255796 0.042660
Si Si3 0.807277 0.415756 0.529019
Si Si4 0.188754 0.154221 0.328704
Si Si5 0.689942 0.664553 0.172846
Si Si6 0.190270 0.827263 0.399003
O O1 0.250000 0.968164 0.250000
O O2 0.236592 0.909316 0.124231
O O3 0.000000 0.990510 0.174026
O O4 0.258283 0.066782 0.148018
O O5 0.500000 0.257582 0.044481
O O6 0.253295 0.219118 0.115715
O O7 0.257093 0.343705 0.021470
O O8 0.265617 0.199203 0.977578
O O9 0.753716 0.500000 0.500000
O O10 0.759048 0.392153 0.608437
O O11 0.000000 0.416467 0.529328
O O12 0.250000 0.167032 0.250000
O O13 0.000000 0.155660 0.327037
O O14 0.750000 0.643851 0.250000
O O15 0.500000 0.663497 0.173662
O O16 0.737931 0.753909 0.151168
O O17 0.000000 0.833475 0.395622
#
# Coordination Sequence:
#
# PCOD9415865 Si02
#       6
#     8   8   8   8   8   8
#     4  11  21  32  46  67  94 125 161 196 234 275
#     4   8  16  30  49  70  91 121 158 192 231 281
#     4   8  14  28  50  73  95 121 156 194 228 269
#     4  10  19  33  50  67  91 124 161 198 235 273
#     4   9  17  28  46  71  97 124 153 188 229 276
#     4   9  17  31  48  68  94 123 157 193 232 278
#
# _framework density 17.546797999999999
#
# number of rings (size 3 to 8) (size 9 to 14) (size 15 to 20)
#    0.000    2.833    0.000    5.500    0.000    2.667 
#    0.000    5.833    0.000    2.500    0.000    0.000 
#    0.000    0.000    0.000    0.000    0.000    0.000 
#
# Total GULP energy -267573.530369 kJ/mol
# GULP energy per Si atom -5574.448549 kJ/mol
# Density = 1.750686 g / cm^3
# Si number density = 17.546798 Si / 1000 Ang^3
#
#
#
# Elastic Constant Matrix: (Units=GPa)
#
#
# Indices 1 2 3 4 5 6 
#
# 1 31.6176 21.5625 20.5580 0.0000 0.0000 0.0000
# 2 21.5625 144.1648 105.7677 0.0000 0.0000 0.0000
# 3 20.5580 105.7677 121.5630 0.0000 0.0000 0.0000
# 4 0.0000 0.0000 0.0000 21.9236 0.0000 0.0000
# 5 0.0000 0.0000 0.0000 0.0000 22.2821 0.0000
# 6 0.0000 0.0000 0.0000 0.0000 0.0000 11.4727
#
#
#
# Elastic Compliance Matrix: (Units=1/GPa)
#
#
# Indices 1 2 3 4 5 6 
#
# 1 0.035866 -0.002528 -0.003866 0.000000 0.000000 0.000000
# 2 -0.002528 0.019357 -0.016415 0.000000 0.000000 0.000000
# 3 -0.003866 -0.016415 0.023162 0.000000 0.000000 0.000000
# 4 0.000000 0.000000 0.000000 0.045613 0.000000 0.000000
# 5 0.000000 0.000000 0.000000 0.000000 0.044879 0.000000
# 6 0.000000 0.000000 0.000000 0.000000 0.000000 0.087164
#
#
# Mechanical properties :
#
#
# Convention : Reuss Voigt Hill
#
# Bulk Modulus (GPa) = 30.51786 65.90242 48.21014
# Shear Modulus (GPa) = 15.99590 21.09948 18.54769
#
# Velocity S-wave (km/s) = 3.02257 3.47143 3.25474
# Velocity P-wave (km/s) = 5.44162 7.32853 6.45440
#
# Compressibility (1/GPa) = 0.03276770
#
# Stress axis : x y z
#
# Youngs Moduli (GPa) = 27.88183 51.65987 43.17480
#
# Poissons Ratio (x) = 0.13062 0.16689
# Poissons Ratio (y) = 0.07050 0.70870
# Poissons Ratio (z) = 0.10778 0.84798
#
# Static dielectric constant tensor:
#      x y z
#    x 1.605110 0.000000 0.000000 
#    y 0.000000 1.588040 0.000000 
#    z 0.000000 0.000000 1.596740 
# 
# From -- ./inp_files/26421.got.cif
#   From: 2010.05.17/outbox.cif.g08.bks.cpg/sg53_14_cif.got.tgz:26421.got - 2010.06.03 12:45:16.
