data_PCOD9415370
_publ_section_title
;
Structure prediction by ZEFSAII (Michael W. Deem and Ramdas Pophale) SiO2 
 PCOD9415370
Probable space group: P M N A
;
_chemical_formula_sum "Si O2"
_cell_formula_units_Z 64
_cell_length_a 8.367959
_cell_length_b 21.424315
_cell_length_c 19.440211
_cell_angle_alpha 90.000000
_cell_angle_beta 90.000000
_cell_angle_gamma 90.000000
_cell_volume 3485.198056
_symmetry_space_group_name_H-M "P M N A"
_symmetry_group_IT_number 53
_symmetry_cell_setting 'orthorhombic'
loop_
_space_group_symop_operation_xyz
x,y,z
1/2-x,-y,1/2+z
x,-y,-z
1/2-x,y,1/2-z
-x,-y,-z
1/2+x,y,1/2-z
-x,y,z
1/2+x,-y,1/2+z
loop_
_atom_site_type_symbol
_atom_site_label
_atom_site_fract_x
_atom_site_fract_y
_atom_site_fract_z
Si Si1 0.308357 0.048521 0.329330
Si Si2 0.806534 0.777394 0.171365
Si Si3 0.807151 0.086010 0.829147
Si Si4 0.306961 0.470210 0.572637
Si Si5 0.193495 0.301848 0.412691
Si Si6 0.306806 0.672394 0.434303
Si Si7 0.308919 0.576354 0.827825
Si Si8 0.809122 0.819221 0.671253
O O1 0.250000 0.048210 0.250000
O O2 0.500000 0.051016 0.330042
O O3 0.244562 0.113660 0.358230
O O4 0.255448 0.981170 0.359474
O O5 0.750000 0.770599 0.250000
O O6 0.754822 0.846164 0.143863
O O7 0.749860 0.721393 0.122991
O O8 0.000000 0.776698 0.171825
O O9 0.750000 0.085832 0.750000
O O10 0.000000 0.085537 0.830159
O O11 0.253122 0.500000 0.500000
O O12 0.500000 0.470204 0.572458
O O13 0.251708 0.398684 0.578163
O O14 0.249544 0.514472 0.633594
O O15 0.253998 0.306574 0.490185
O O16 0.247785 0.363023 0.370575
O O17 0.247763 0.239176 0.373867
O O18 0.000000 0.301830 0.413332
O O19 0.500000 0.671850 0.432416
O O20 0.250000 0.579260 0.750000
O O21 0.500000 0.577033 0.828057
O O22 0.750000 0.813277 0.750000
O O23 0.000000 0.818395 0.673284
#
# Coordination Sequence:
#
# PCOD9415370 Si02
#       8
#     8   8   8   8   8   8   8   8
#     4   9  15  24  41  67  96 129 166 205 252 302
#     4   9  18  33  52  77 105 133 168 210 258 306
#     4   8  14  25  43  67  97 128 162 206 251 300
#     4  10  20  37  58  80 107 138 173 214 261 313
#     4  10  22  37  53  75 104 138 176 214 256 306
#     4  10  21  36  57  80 104 137 174 211 255 309
#     4  11  23  38  58  83 109 139 176 218 262 310
#     4  10  19  31  47  71 102 134 169 214 259 303
#
# _framework density 18.363375000000001
#
# number of rings (size 3 to 8) (size 9 to 14) (size 15 to 20)
#    0.000    2.375    1.250    2.250    0.000    3.750 
#    0.000    1.250    0.000    0.750    0.000    5.250 
#    0.000    0.000    0.000    0.000    0.000    0.000 
#
# Total GULP energy -356757.802985 kJ/mol
# GULP energy per Si atom -5574.340672 kJ/mol
# Density = 1.832158 g / cm^3
# Si number density = 18.363375 Si / 1000 Ang^3
#
#
#
# Elastic Constant Matrix: (Units=GPa)
#
#
# Indices 1 2 3 4 5 6 
#
# 1 13.2761 25.0607 7.9972 0.0000 0.0000 0.0000
# 2 25.0607 226.2856 82.5381 0.0000 0.0000 0.0000
# 3 7.9972 82.5381 91.8000 0.0000 0.0000 0.0000
# 4 0.0000 0.0000 0.0000 -163.0659 0.0000 0.0000
# 5 0.0000 0.0000 0.0000 0.0000 20.9688 0.0000
# 6 0.0000 0.0000 0.0000 0.0000 0.0000 14.4130
#
#
#
# Elastic Compliance Matrix: (Units=1/GPa)
#
#
# Indices 1 2 3 4 5 6 
#
# 1 0.095424 -0.011213 0.001769 0.000000 0.000000 0.000000
# 2 -0.011213 0.007893 -0.006120 0.000000 0.000000 0.000000
# 3 0.001769 -0.006120 0.016242 0.000000 0.000000 0.000000
# 4 0.000000 0.000000 0.000000 -0.006132 0.000000 0.000000
# 5 0.000000 0.000000 0.000000 0.000000 0.047690 0.000000
# 6 0.000000 0.000000 0.000000 0.000000 0.000000 0.069382
#
#
# Mechanical properties :
#
#
# Convention : Reuss Voigt Hill
#
# Bulk Modulus (GPa) = 11.30830 62.50598 36.90714
# Shear Modulus (GPa) = 17.17597 -11.15244 3.01177
#
# Velocity S-wave (km/s) = 3.06165 -2.46706 1.28205
# Velocity P-wave (km/s) = 4.32084 5.09874 4.72582
#
# Compressibility (1/GPa) = 0.08843059
#
# Stress axis : x y z
#
# Youngs Moduli (GPa) = 10.47951 126.68849 61.56957
#
# Poissons Ratio (x) = 1.42060 -0.10892
# Poissons Ratio (y) = 0.11751 0.37681
# Poissons Ratio (z) = -0.01854 0.77535
#
# Static dielectric constant tensor:
#      x y z
#    x 1.629900 0.000000 0.000000 
#    y 0.000000 1.689460 0.000000 
#    z 0.000000 0.000000 1.609240 
# 
# From -- ./inp_files/31405.got.cif
#   From: 2010.05.17/outbox.cif.g08.bks.cpg/sg53_16_cif.got.tgz:31405.got - 2010.06.03 12:45:16.
