data_PCOD9415941
_publ_section_title
;
Structure prediction by ZEFSAII (Michael W. Deem and Ramdas Pophale) SiO2 
 PCOD9415941
Probable space group: P M N A
;
_chemical_formula_sum "Si O2"
_cell_formula_units_Z 64
_cell_length_a 7.899687
_cell_length_b 22.464412
_cell_length_c 18.515981
_cell_angle_alpha 90.000000
_cell_angle_beta 90.000000
_cell_angle_gamma 90.000000
_cell_volume 3285.879751
_symmetry_space_group_name_H-M "P M N A"
_symmetry_group_IT_number 53
_symmetry_cell_setting 'orthorhombic'
loop_
_space_group_symop_operation_xyz
x,y,z
1/2-x,-y,1/2+z
x,-y,-z
1/2-x,y,1/2-z
-x,-y,-z
1/2+x,y,1/2-z
-x,y,z
1/2+x,-y,1/2+z
loop_
_atom_site_type_symbol
_atom_site_label
_atom_site_fract_x
_atom_site_fract_y
_atom_site_fract_z
Si Si1 0.796032 0.002459 0.833199
Si Si2 0.200172 0.226993 0.166745
Si Si3 0.296911 0.626774 0.169859
Si Si4 0.796820 0.313890 0.453703
Si Si5 0.297249 0.879563 0.411640
Si Si6 0.707840 0.112868 0.422550
Si Si7 0.792742 0.564863 0.475857
Si Si8 0.795914 0.252308 0.600329
O O1 0.750000 0.993635 0.750000
O O2 0.738164 0.947661 0.883010
O O3 0.000000 0.002998 0.837443
O O4 0.732103 0.065517 0.864094
O O5 0.250000 0.227982 0.250000
O O6 0.248008 0.285647 0.122021
O O7 0.269299 0.169628 0.123384
O O8 0.000000 0.221551 0.164240
O O9 0.250000 0.608151 0.250000
O O10 0.500000 0.628114 0.165292
O O11 0.238676 0.584317 0.104679
O O12 0.236724 0.694094 0.152064
O O13 0.739507 0.380823 0.471933
O O14 0.736994 0.271327 0.519592
O O15 0.000000 0.314570 0.457705
O O16 0.500000 0.885326 0.414731
O O17 0.234899 0.883600 0.494456
O O18 0.259020 0.814079 0.381790
O O19 0.500000 0.113441 0.423260
O O20 0.733852 0.500000 0.500000
O O21 0.000000 0.563755 0.476314
O O22 0.000000 0.252842 0.600124
#
# Coordination Sequence:
#
# PCOD9415941 Si02
#       8
#     8   8   8   8   8   8   8   8
#     4  10  21  36  52  70  98 131 165 210 257 306
#     4  11  21  33  52  77 104 133 169 211 258 308
#     4   9  18  32  51  77 106 137 172 210 253 299
#     4   9  17  32  53  76 102 132 168 208 250 298
#     4  10  19  33  54  76  96 127 170 211 254 302
#     4   9  18  34  54  74  95 127 170 211 253 303
#     4   8  15  31  56  80 103 138 178 211 250 302
#     4   9  18  32  50  73 102 132 164 205 252 301
#
# _framework density 19.47728
#
# number of rings (size 3 to 8) (size 9 to 14) (size 15 to 20)
#    0.000    2.625    1.250    2.625    0.000    3.000 
#    0.000    6.250    0.000    4.500    0.000    0.000 
#    0.000    0.000    0.000    0.000    0.000    0.000 
#
# Total GULP energy -357057.762934 kJ/mol
# GULP energy per Si atom -5579.027546 kJ/mol
# Density = 1.943295 g / cm^3
# Si number density = 19.477280 Si / 1000 Ang^3
#
#
#
# Elastic Constant Matrix: (Units=GPa)
#
#
# Indices 1 2 3 4 5 6 
#
# 1 15.9754 7.8794 4.5226 0.0000 0.0000 0.0000
# 2 7.8794 143.2274 42.3960 0.0000 0.0000 0.0000
# 3 4.5226 42.3960 67.0579 0.0000 0.0000 0.0000
# 4 0.0000 0.0000 0.0000 23.1509 0.0000 0.0000
# 5 0.0000 0.0000 0.0000 0.0000 11.6503 0.0000
# 6 0.0000 0.0000 0.0000 0.0000 0.0000 13.7354
#
#
#
# Elastic Compliance Matrix: (Units=1/GPa)
#
#
# Indices 1 2 3 4 5 6 
#
# 1 0.064708 -0.002790 -0.002600 0.000000 0.000000 0.000000
# 2 -0.002790 0.008710 -0.005318 0.000000 0.000000 0.000000
# 3 -0.002600 -0.005318 0.018450 0.000000 0.000000 0.000000
# 4 0.000000 0.000000 0.000000 0.043195 0.000000 0.000000
# 5 0.000000 0.000000 0.000000 0.000000 0.085834 0.000000
# 6 0.000000 0.000000 0.000000 0.000000 0.000000 0.072805
#
#
# Mechanical properties :
#
#
# Convention : Reuss Voigt Hill
#
# Bulk Modulus (GPa) = 14.19423 37.31740 25.75581
# Shear Modulus (GPa) = 14.76655 21.13819 17.95237
#
# Velocity S-wave (km/s) = 2.75643 3.29792 3.03926
# Velocity P-wave (km/s) = 4.17539 5.80541 5.05652
#
# Compressibility (1/GPa) = 0.07045116
#
# Stress axis : x y z
#
# Youngs Moduli (GPa) = 15.45392 114.81526 54.19985
#
# Poissons Ratio (x) = 0.32035 0.14093
# Poissons Ratio (y) = 0.04312 0.28825
# Poissons Ratio (z) = 0.04018 0.61062
#
# Static dielectric constant tensor:
#      x y z
#    x 1.716660 0.000000 0.000000 
#    y 0.000000 1.681760 0.000000 
#    z 0.000000 0.000000 1.635210 
# 
# From -- ./inp_files/26965.got.cif
#   From: 2010.05.17/outbox.cif.g08.bks.cpg/sg53_14_cif.got.tgz:26965.got - 2010.06.03 12:45:16.
