data_PCOD9415611
_publ_section_title
;
Structure prediction by ZEFSAII (Michael W. Deem and Ramdas Pophale) SiO2 
 PCOD9415611
Probable space group: P M N A
;
_chemical_formula_sum "Si O2"
_cell_formula_units_Z 64
_cell_length_a 8.636522
_cell_length_b 15.166877
_cell_length_c 30.340325
_cell_angle_alpha 90.000000
_cell_angle_beta 90.000000
_cell_angle_gamma 90.000000
_cell_volume 3974.250861
_symmetry_space_group_name_H-M "P M N A"
_symmetry_group_IT_number 53
_symmetry_cell_setting 'orthorhombic'
loop_
_space_group_symop_operation_xyz
x,y,z
1/2-x,-y,1/2+z
x,-y,-z
1/2-x,y,1/2-z
-x,-y,-z
1/2+x,y,1/2-z
-x,y,z
1/2+x,-y,1/2+z
loop_
_atom_site_type_symbol
_atom_site_label
_atom_site_fract_x
_atom_site_fract_y
_atom_site_fract_z
Si Si1 0.686317 0.317508 0.461176
Si Si2 0.813750 0.358832 0.939268
Si Si3 0.315173 0.490735 0.797066
Si Si4 0.316419 0.875242 0.973298
Si Si5 0.683932 0.954076 0.436385
Si Si6 0.684187 0.800210 0.117712
Si Si7 0.185131 0.292228 0.796928
Si Si8 0.312982 0.460775 0.388728
O O1 0.500000 0.305951 0.459624
O O2 0.721349 0.361623 0.508713
O O3 0.764866 0.222184 0.459907
O O4 0.731429 0.381238 0.421174
O O5 0.732593 0.274713 0.917604
O O6 0.770131 0.447472 0.913155
O O7 0.000000 0.347816 0.934630
O O8 0.250000 0.523530 0.750000
O O9 0.500000 0.486214 0.794756
O O10 0.247591 0.391882 0.803028
O O11 0.261160 0.542690 0.840426
O O12 0.500000 0.879267 0.980302
O O13 0.264348 0.950727 0.939157
O O14 0.232471 0.902971 0.018761
O O15 0.500000 0.964183 0.435498
O O16 0.743022 0.892286 0.397383
O O17 0.500000 0.806600 0.119365
O O18 0.752234 0.766992 0.163737
O O19 0.250000 0.261414 0.750000
O O20 0.000000 0.294676 0.796872
O O21 0.500000 0.460892 0.384315
#
# Coordination Sequence:
#
# PCOD9415611 Si02
#       8
#     8   8   8   8   8   8   8   8
#     4  10  20  34  52  74 104 143 182 217 259 310
#     4  10  19  32  50  72 103 143 181 214 250 302
#     4  11  21  34  52  74 101 133 172 219 266 311
#     4  11  21  34  51  75 104 133 170 220 263 302
#     4  11  21  35  54  74  99 135 174 213 258 312
#     4  12  22  33  51  78 107 138 173 215 261 311
#     4  11  21  35  53  75 103 137 173 214 260 312
#     4  10  20  34  52  75 104 140 180 218 258 310
#
# _framework density 16.103663000000001
#
# number of rings (size 3 to 8) (size 9 to 14) (size 15 to 20)
#    0.000    1.250    2.500    7.500    0.000    2.000 
#    0.000    0.000    0.000    2.250    0.000    0.875 
#    0.000    4.000    0.000    0.000    0.000    0.000 
#
# Total GULP energy -357569.725420 kJ/mol
# GULP energy per Si atom -5587.026960 kJ/mol
# Density = 1.606701 g / cm^3
# Si number density = 16.103663 Si / 1000 Ang^3
#
#
#
# Elastic Constant Matrix: (Units=GPa)
#
#
# Indices 1 2 3 4 5 6 
#
# 1 72.9346 18.5013 30.8042 0.0000 0.0000 0.0000
# 2 18.5013 62.0156 35.8885 0.0000 0.0000 0.0000
# 3 30.8042 35.8885 117.0184 0.0000 0.0000 0.0000
# 4 0.0000 0.0000 0.0000 24.8686 0.0000 0.0000
# 5 0.0000 0.0000 0.0000 0.0000 66.5415 0.0000
# 6 0.0000 0.0000 0.0000 0.0000 0.0000 23.3372
#
#
#
# Elastic Compliance Matrix: (Units=1/GPa)
#
#
# Indices 1 2 3 4 5 6 
#
# 1 0.015818 -0.002808 -0.003303 0.000000 0.000000 0.000000
# 2 -0.002808 0.020103 -0.005426 0.000000 0.000000 0.000000
# 3 -0.003303 -0.005426 0.011079 0.000000 0.000000 0.000000
# 4 0.000000 0.000000 0.000000 0.040211 0.000000 0.000000
# 5 0.000000 0.000000 0.000000 0.000000 0.015028 0.000000
# 6 0.000000 0.000000 0.000000 0.000000 0.000000 0.042850
#
#
# Mechanical properties :
#
#
# Convention : Reuss Voigt Hill
#
# Bulk Modulus (GPa) = 41.79455 46.92852 44.36153
# Shear Modulus (GPa) = 28.38668 34.06777 31.22722
#
# Velocity S-wave (km/s) = 4.20306 4.60448 4.40834
# Velocity P-wave (km/s) = 7.04018 7.58110 7.31564
#
# Compressibility (1/GPa) = 0.02392657
#
# Stress axis : x y z
#
# Youngs Moduli (GPa) = 63.21858 49.74436 90.25826
#
# Poissons Ratio (x) = 0.13967 0.29812
# Poissons Ratio (y) = 0.17750 0.48976
# Poissons Ratio (z) = 0.20881 0.26993
#
# Static dielectric constant tensor:
#      x y z
#    x 1.537320 0.000000 0.000000 
#    y 0.000000 1.524410 0.000000 
#    z 0.000000 0.000000 1.524380 
# 
# From -- ./inp_files/38494.got.cif
#   From: 2010.05.17/outbox.cif.g08.bks.cpg/sg53_20_cif.got.tgz:38494.got - 2010.06.03 12:45:16.
