data_PCOD9415668
_publ_section_title
;
Structure prediction by ZEFSAII (Michael W. Deem and Ramdas Pophale) SiO2 
 PCOD9415668
Probable space group: P M N A
;
_chemical_formula_sum "Si O2"
_cell_formula_units_Z 64
_cell_length_a 9.433246
_cell_length_b 24.105826
_cell_length_c 14.705397
_cell_angle_alpha 90.000000
_cell_angle_beta 90.000000
_cell_angle_gamma 90.000000
_cell_volume 3343.951202
_symmetry_space_group_name_H-M "P M N A"
_symmetry_group_IT_number 53
_symmetry_cell_setting 'orthorhombic'
loop_
_space_group_symop_operation_xyz
x,y,z
1/2-x,-y,1/2+z
x,-y,-z
1/2-x,y,1/2-z
-x,-y,-z
1/2+x,y,1/2-z
-x,y,z
1/2+x,-y,1/2+z
loop_
_atom_site_type_symbol
_atom_site_label
_atom_site_fract_x
_atom_site_fract_y
_atom_site_fract_z
Si Si1 0.165263 0.377966 0.956792
Si Si2 0.838997 0.520857 0.395576
Si Si3 0.160787 0.758063 0.663175
Si Si4 0.659545 0.108310 0.164809
Si Si5 0.167210 0.253054 0.977967
Si Si6 0.331179 0.151395 0.655598
Si Si7 0.334411 0.065970 0.503963
Si Si8 0.668376 0.584873 0.663430
O O1 0.266623 0.419088 0.901855
O O2 0.184094 0.313578 0.933449
O O3 0.000000 0.393725 0.942780
O O4 0.191774 0.385361 0.065809
O O5 0.847520 0.500000 0.500000
O O6 0.736493 0.476219 0.349176
O O7 0.000000 0.521365 0.358900
O O8 0.250000 0.738464 0.750000
O O9 0.152957 0.825022 0.670892
O O10 0.241221 0.747202 0.569309
O O11 0.000000 0.736168 0.663304
O O12 0.750000 0.087380 0.250000
O O13 0.500000 0.086439 0.167363
O O14 0.737590 0.092638 0.072705
O O15 0.206015 0.202833 0.910982
O O16 0.000000 0.246644 0.001753
O O17 0.250000 0.154121 0.750000
O O18 0.500000 0.154277 0.671671
O O19 0.300741 0.094929 0.599883
O O20 0.500000 0.079101 0.484790
O O21 0.317523 0.000000 0.500000
O O22 0.750000 0.609876 0.750000
O O23 0.500000 0.583004 0.679429
#
# Coordination Sequence:
#
# PCOD9415668 Si02
#       8
#     8   8   8   8   8   8   8   8
#     4   9  19  34  53  77 106 141 181 227 280 334
#     4   9  17  31  51  74 101 136 178 220 266 322
#     4  10  20  33  53  81 111 146 186 230 279 339
#     4  10  20  34  55  82 113 148 184 226 277 336
#     4  10  20  37  59  82 111 151 195 240 290 341
#     4  10  22  40  62  84 112 150 191 238 285 337
#     4  10  21  38  60  87 117 149 188 235 289 344
#     4  10  19  32  51  76 107 141 177 221 274 333
#
# _framework density 19.139033999999999
#
# number of rings (size 3 to 8) (size 9 to 14) (size 15 to 20)
#    0.000    2.250    1.250    1.500    0.000    5.750 
#    0.000    3.125    0.000    1.500    0.000    0.000 
#    0.000    0.000    0.000    0.000    0.000    0.000 
#
# Total GULP energy -357227.533126 kJ/mol
# GULP energy per Si atom -5581.680205 kJ/mol
# Density = 1.909547 g / cm^3
# Si number density = 19.139034 Si / 1000 Ang^3
#
#
#
# Elastic Constant Matrix: (Units=GPa)
#
#
# Indices 1 2 3 4 5 6 
#
# 1 96.2422 49.2009 54.1874 0.0000 0.0000 0.0000
# 2 49.2009 88.7972 34.1259 0.0000 0.0000 0.0000
# 3 54.1874 34.1259 86.5691 0.0000 0.0000 0.0000
# 4 0.0000 0.0000 0.0000 4.6904 0.0000 0.0000
# 5 0.0000 0.0000 0.0000 0.0000 33.1364 0.0000
# 6 0.0000 0.0000 0.0000 0.0000 0.0000 22.8257
#
#
#
# Elastic Compliance Matrix: (Units=1/GPa)
#
#
# Indices 1 2 3 4 5 6 
#
# 1 0.019217 -0.007101 -0.009230 0.000000 0.000000 0.000000
# 2 -0.007101 0.015896 -0.001822 0.000000 0.000000 0.000000
# 3 -0.009230 -0.001822 0.018047 0.000000 0.000000 0.000000
# 4 0.000000 0.000000 0.000000 0.213202 0.000000 0.000000
# 5 0.000000 0.000000 0.000000 0.000000 0.030178 0.000000
# 6 0.000000 0.000000 0.000000 0.000000 0.000000 0.043810
#
#
# Mechanical properties :
#
#
# Convention : Reuss Voigt Hill
#
# Bulk Modulus (GPa) = 59.32647 60.73744 60.03196
# Shear Modulus (GPa) = 13.07966 21.07012 17.07489
#
# Velocity S-wave (km/s) = 2.61703 3.32158 2.99013
# Velocity P-wave (km/s) = 6.34009 6.82014 6.58449
#
# Compressibility (1/GPa) = 0.01685588
#
# Stress axis : x y z
#
# Youngs Moduli (GPa) = 52.03691 62.90856 55.41137
#
# Poissons Ratio (x) = 0.44670 0.51143
# Poissons Ratio (y) = 0.36950 0.10094
# Poissons Ratio (z) = 0.48029 0.11459
#
# Static dielectric constant tensor:
#      x y z
#    x 1.654970 0.000000 0.000000 
#    y 0.000000 1.673810 0.000000 
#    z 0.000000 0.000000 1.649100 
# 
# From -- ./inp_files/20959.got.cif
#   From: 2010.05.17/outbox.cif.g08.bks.cpg/sg53_11_cif.got.tgz:20959.got - 2010.06.03 12:45:16.
