data_PCOD9415546
_publ_section_title
;
Structure prediction by ZEFSAII (Michael W. Deem and Ramdas Pophale) SiO2 
 PCOD9415546
Probable space group: P M N A
;
_chemical_formula_sum "Si O2"
_cell_formula_units_Z 56
_cell_length_a 14.127508
_cell_length_b 13.980119
_cell_length_c 11.577425
_cell_angle_alpha 90.000000
_cell_angle_beta 90.000000
_cell_angle_gamma 90.000000
_cell_volume 2286.590561
_symmetry_space_group_name_H-M "P M N A"
_symmetry_group_IT_number 53
_symmetry_cell_setting 'orthorhombic'
loop_
_space_group_symop_operation_xyz
x,y,z
1/2-x,-y,1/2+z
x,-y,-z
1/2-x,y,1/2-z
-x,-y,-z
1/2+x,y,1/2-z
-x,y,z
1/2+x,-y,1/2+z
loop_
_atom_site_type_symbol
_atom_site_label
_atom_site_fract_x
_atom_site_fract_y
_atom_site_fract_z
Si Si1 0.884529 0.056091 0.161574
Si Si2 0.643827 0.463756 0.375040
Si Si3 0.114550 0.745064 0.950785
Si Si4 0.114373 0.757752 0.404290
Si Si5 0.615381 0.910180 0.923268
Si Si6 0.115772 0.843946 0.167454
Si Si7 0.141985 0.535371 0.375045
O O1 0.855041 0.152987 0.099739
O O2 0.856170 0.070734 0.293725
O O3 0.000000 0.054920 0.152764
O O4 0.854420 0.949406 0.126119
O O5 0.602861 0.500000 0.500000
O O6 0.647034 0.349026 0.385564
O O7 0.603282 0.498489 0.250236
O O8 0.750359 0.501004 0.374907
O O9 0.000000 0.740804 0.945738
O O10 0.143546 0.756147 0.084789
O O11 0.145883 0.809806 0.521156
O O12 0.145599 0.823535 0.297535
O O13 0.141047 0.649493 0.381952
O O14 0.000000 0.759002 0.404973
O O15 0.500000 0.909977 0.923289
O O16 0.644968 0.000000 0.000000
O O17 0.000000 0.845575 0.166614
O O18 0.101960 0.500000 0.500000
#
# Coordination Sequence:
#
# PCOD9415546 Si02
#       7
#     8   8   8   8   8   8   8
#     4   9  16  27  45  77 120 149 170 207 267 335
#     4  10  22  42  59  75 104 148 196 236 282 337
#     4  10  20  31  53  84 112 144 183 230 276 321
#     4  10  19  31  53  83 114 145 183 228 273 326
#     4   9  15  26  45  74 114 151 172 204 264 333
#     4   9  16  29  49  80 118 150 176 212 268 338
#     4  10  23  40  58  79 103 145 195 239 286 330
#
# _framework density 24.490611000000001
#
# number of rings (size 3 to 8) (size 9 to 14) (size 15 to 20)
#    0.000    2.429    1.429    1.286    2.000    2.857 
#    0.000    0.000    0.000    0.000    0.000   36.000 
#    0.000    0.000    0.000    0.000    0.000    1.000 
#
# Total GULP energy -313008.596176 kJ/mol
# GULP energy per Si atom -5589.439217 kJ/mol
# Density = 2.443487 g / cm^3
# Si number density = 24.490611 Si / 1000 Ang^3
#
#
#
# Elastic Constant Matrix: (Units=GPa)
#
#
# Indices 1 2 3 4 5 6 
#
# 1 95.0815 16.1917 18.0568 0.0000 0.0000 0.0000
# 2 16.1917 190.7779 67.4664 0.0000 0.0000 0.0000
# 3 18.0568 67.4664 153.3623 0.0000 0.0000 0.0000
# 4 0.0000 0.0000 0.0000 45.9798 0.0000 0.0000
# 5 0.0000 0.0000 0.0000 0.0000 0.6898 0.0000
# 6 0.0000 0.0000 0.0000 0.0000 0.0000 39.6238
#
#
#
# Elastic Compliance Matrix: (Units=1/GPa)
#
#
# Indices 1 2 3 4 5 6 
#
# 1 0.010807 -0.000553 -0.001029 0.000000 0.000000 0.000000
# 2 -0.000553 0.006236 -0.002678 0.000000 0.000000 0.000000
# 3 -0.001029 -0.002678 0.007820 0.000000 0.000000 0.000000
# 4 0.000000 0.000000 0.000000 0.021749 0.000000 0.000000
# 5 0.000000 0.000000 0.000000 0.000000 1.449719 0.000000
# 6 0.000000 0.000000 0.000000 0.000000 0.000000 0.025237
#
#
# Mechanical properties :
#
#
# Convention : Reuss Voigt Hill
#
# Bulk Modulus (GPa) = 61.19303 71.40571 66.29937
# Shear Modulus (GPa) = 3.25619 39.75914 21.50767
#
# Velocity S-wave (km/s) = 1.15432 4.03357 2.96666
# Velocity P-wave (km/s) = 5.17853 7.13530 6.23417
#
# Compressibility (1/GPa) = 0.01634173
#
# Stress axis : x y z
#
# Youngs Moduli (GPa) = 92.53321 160.36651 127.88105
#
# Poissons Ratio (x) = 0.08873 0.13159
# Poissons Ratio (y) = 0.05120 0.34247
# Poissons Ratio (z) = 0.09522 0.42947
#
# Static dielectric constant tensor:
#      x y z
#    x 1.982640 0.000000 0.000000 
#    y 0.000000 1.859340 0.000000 
#    z 0.000000 0.000000 1.971620 
# 
# From -- ./inp_files/17878.got.cif
#   From: 2010.05.17/outbox.cif.g08.bks.cpg/sg53_9_cif.got.tgz:17878.got - 2010.06.03 12:45:16.
