data_PCOD9415704
_publ_section_title
;
Structure prediction by ZEFSAII (Michael W. Deem and Ramdas Pophale) SiO2 
 PCOD9415704
Probable space group: P M N A
;
_chemical_formula_sum "Si O2"
_cell_formula_units_Z 64
_cell_length_a 9.212350
_cell_length_b 22.535759
_cell_length_c 16.178439
_cell_angle_alpha 90.000000
_cell_angle_beta 90.000000
_cell_angle_gamma 90.000000
_cell_volume 3358.762030
_symmetry_space_group_name_H-M "P M N A"
_symmetry_group_IT_number 53
_symmetry_cell_setting 'orthorhombic'
loop_
_space_group_symop_operation_xyz
x,y,z
1/2-x,-y,1/2+z
x,-y,-z
1/2-x,y,1/2-z
-x,-y,-z
1/2+x,y,1/2-z
-x,y,z
1/2+x,-y,1/2+z
loop_
_atom_site_type_symbol
_atom_site_label
_atom_site_fract_x
_atom_site_fract_y
_atom_site_fract_z
Si Si1 0.164306 0.773261 0.828528
Si Si2 0.828958 0.588329 0.836476
Si Si3 0.673196 0.618221 0.010517
Si Si4 0.170809 0.752841 0.501576
Si Si5 0.669604 0.120189 0.957805
Si Si6 0.331330 0.038454 0.668515
Si Si7 0.170412 0.555134 0.164106
Si Si8 0.163129 0.903839 0.882044
O O1 0.250000 0.750399 0.750000
O O2 0.162249 0.845331 0.826144
O O3 0.000000 0.752244 0.827638
O O4 0.239472 0.756537 0.914034
O O5 0.750000 0.605964 0.750000
O O6 0.823731 0.516470 0.839444
O O7 0.000000 0.605435 0.836593
O O8 0.747219 0.609597 0.920107
O O9 0.500000 0.605008 0.005025
O O10 0.690089 0.687612 0.034619
O O11 0.749925 0.580256 0.082479
O O12 0.209771 0.810294 0.446587
O O13 0.000000 0.760101 0.521851
O O14 0.500000 0.112351 0.941401
O O15 0.760956 0.073775 0.906107
O O16 0.710814 0.106433 0.052146
O O17 0.250000 0.058172 0.750000
O O18 0.500000 0.051783 0.673689
O O19 0.315927 0.967494 0.658729
O O20 0.250000 0.573187 0.250000
O O21 0.000000 0.572486 0.165045
O O22 0.000000 0.905148 0.921497
#
# Coordination Sequence:
#
# PCOD9415704 Si02
#       8
#     8   8   8   8   8   8   8   8
#     4  10  19  32  52  76 104 139 176 216 265 319
#     4  10  21  37  58  87 122 156 188 225 272 328
#     4  11  22  37  59  85 114 150 191 234 280 328
#     4   9  21  39  55  74 103 140 182 224 263 312
#     4  10  20  36  56  75  99 133 172 212 257 309
#     4  11  22  35  52  76 105 132 164 209 260 314
#     4  10  21  38  60  87 118 150 187 231 279 330
#     4   9  19  34  52  76 104 133 166 207 257 315
#
# _framework density 19.054639000000002
#
# number of rings (size 3 to 8) (size 9 to 14) (size 15 to 20)
#    0.000    2.000    0.000    3.375    0.000    8.000 
#    0.000    0.625    0.000    0.000    0.000    0.000 
#    0.000    0.000    0.000    0.000    0.000    0.000 
#
# Total GULP energy -357094.682011 kJ/mol
# GULP energy per Si atom -5579.604406 kJ/mol
# Density = 1.901127 g / cm^3
# Si number density = 19.054639 Si / 1000 Ang^3
#
#
#
# Elastic Constant Matrix: (Units=GPa)
#
#
# Indices 1 2 3 4 5 6 
#
# 1 99.4512 50.3158 44.5534 0.0000 0.0000 0.0000
# 2 50.3158 63.7062 19.1545 0.0000 0.0000 0.0000
# 3 44.5534 19.1545 64.8105 0.0000 0.0000 0.0000
# 4 0.0000 0.0000 0.0000 -6.3044 0.0000 0.0000
# 5 0.0000 0.0000 0.0000 0.0000 36.6101 0.0000
# 6 0.0000 0.0000 0.0000 0.0000 0.0000 14.3216
#
#
#
# Elastic Compliance Matrix: (Units=1/GPa)
#
#
# Indices 1 2 3 4 5 6 
#
# 1 0.022198 -0.014206 -0.011061 0.000000 0.000000 0.000000
# 2 -0.014206 0.026320 0.001987 0.000000 0.000000 0.000000
# 3 -0.011061 0.001987 0.022446 0.000000 0.000000 0.000000
# 4 0.000000 0.000000 0.000000 -0.158619 0.000000 0.000000
# 5 0.000000 0.000000 0.000000 0.000000 0.027315 0.000000
# 6 0.000000 0.000000 0.000000 0.000000 0.000000 0.069825
#
#
# Mechanical properties :
#
#
# Convention : Reuss Voigt Hill
#
# Bulk Modulus (GPa) = 40.97766 50.66837 45.82301
# Shear Modulus (GPa) = 77.90583 16.52174 47.21379
#
# Velocity S-wave (km/s) = 6.40111 2.94780 4.98316
# Velocity P-wave (km/s) = 8.72837 6.18344 7.56370
#
# Compressibility (1/GPa) = 0.02440354
#
# Stress axis : x y z
#
# Youngs Moduli (GPa) = 45.04901 37.99406 44.55100
#
# Poissons Ratio (x) = 0.53976 0.49279
# Poissons Ratio (y) = 0.63999 -0.08854
# Poissons Ratio (z) = 0.49830 -0.07551
#
# Static dielectric constant tensor:
#      x y z
#    x 1.655550 0.000000 0.000000 
#    y 0.000000 1.686520 0.000000 
#    z 0.000000 0.000000 1.682570 
# 
# From -- ./inp_files/20933.got.cif
#   From: 2010.05.17/outbox.cif.g08.bks.cpg/sg53_11_cif.got.tgz:20933.got - 2010.06.03 12:45:16.
