data_PCOD9415985
_publ_section_title
;
Structure prediction by ZEFSAII (Michael W. Deem and Ramdas Pophale) SiO2 
 PCOD9415985
Probable space group: P M N A
;
_chemical_formula_sum "Si O2"
_cell_formula_units_Z 64
_cell_length_a 8.235322
_cell_length_b 28.829263
_cell_length_c 12.708365
_cell_angle_alpha 90.000000
_cell_angle_beta 90.000000
_cell_angle_gamma 90.000000
_cell_volume 3017.197954
_symmetry_space_group_name_H-M "P M N A"
_symmetry_group_IT_number 53
_symmetry_cell_setting 'orthorhombic'
loop_
_space_group_symop_operation_xyz
x,y,z
1/2-x,-y,1/2+z
x,-y,-z
1/2-x,y,1/2-z
-x,-y,-z
1/2+x,y,1/2-z
-x,y,z
1/2+x,-y,1/2+z
loop_
_atom_site_type_symbol
_atom_site_label
_atom_site_fract_x
_atom_site_fract_y
_atom_site_fract_z
Si Si1 0.186300 0.992837 0.628129
Si Si2 0.695190 0.863800 0.137131
Si Si3 0.308604 0.103731 0.417706
Si Si4 0.815887 0.492922 0.354071
Si Si5 0.805169 0.659880 0.364189
Si Si6 0.808905 0.238731 0.582354
Si Si7 0.193418 0.790608 0.863227
Si Si8 0.815749 0.427812 0.975344
O O1 0.250000 0.007265 0.750000
O O2 0.205223 0.937252 0.631429
O O3 0.000000 0.009084 0.624762
O O4 0.248042 0.000000 0.500000
O O5 0.750000 0.881219 0.250000
O O6 0.500000 0.864418 0.126601
O O7 0.756518 0.810207 0.126197
O O8 0.772252 0.892479 0.042305
O O9 0.500000 0.095204 0.400300
O O10 0.264931 0.154717 0.374785
O O11 0.750000 0.469842 0.250000
O O12 0.704218 0.537610 0.376386
O O13 0.798365 0.454470 0.443565
O O14 0.000000 0.508554 0.346130
O O15 0.750000 0.643371 0.250000
O O16 0.741206 0.712579 0.377513
O O17 0.735327 0.623795 0.447597
O O18 0.000000 0.660115 0.371658
O O19 0.780742 0.235537 0.457892
O O20 0.000000 0.238625 0.606594
O O21 0.250000 0.774109 0.750000
O O22 0.000000 0.786520 0.875824
O O23 0.000000 0.429666 0.013195
#
# Coordination Sequence:
#
# PCOD9415985 Si02
#       8
#     8   8   8   8   8   8   8   8
#     4  11  25  44  66  93 125 163 207 255 308 367
#     4  10  19  33  54  82 116 154 195 243 295 350
#     4  10  21  37  59  87 117 153 195 243 296 351
#     4  11  21  37  59  83 110 141 176 221 273 324
#     4  11  22  37  56  80 109 144 182 223 270 323
#     4   9  20  36  54  77 109 146 186 230 278 332
#     4  10  20  34  56  83 111 143 183 229 279 333
#     4  11  22  37  56  82 111 142 181 224 268 321
#
# _framework density 21.211732999999999
#
# number of rings (size 3 to 8) (size 9 to 14) (size 15 to 20)
#    0.000    1.625    0.000    6.000    0.000    5.500 
#    0.000    1.875    0.000    3.000    0.000    0.000 
#    0.000    0.000    0.000    0.000    0.000    0.000 
#
# Total GULP energy -356952.829864 kJ/mol
# GULP energy per Si atom -5577.387967 kJ/mol
# Density = 2.116345 g / cm^3
# Si number density = 21.211733 Si / 1000 Ang^3
#
#
#
# Elastic Constant Matrix: (Units=GPa)
#
#
# Indices 1 2 3 4 5 6 
#
# 1 39.6743 3.5938 -7.9653 0.0000 0.0000 0.0000
# 2 3.5938 80.6455 7.7018 0.0000 0.0000 0.0000
# 3 -7.9653 7.7018 106.2303 0.0000 0.0000 0.0000
# 4 0.0000 0.0000 0.0000 10.9653 0.0000 0.0000
# 5 0.0000 0.0000 0.0000 0.0000 27.1667 0.0000
# 6 0.0000 0.0000 0.0000 0.0000 0.0000 18.0557
#
#
#
# Elastic Compliance Matrix: (Units=1/GPa)
#
#
# Indices 1 2 3 4 5 6 
#
# 1 0.025734 -0.001340 0.002027 0.000000 0.000000 0.000000
# 2 -0.001340 0.012556 -0.001011 0.000000 0.000000 0.000000
# 3 0.002027 -0.001011 0.009639 0.000000 0.000000 0.000000
# 4 0.000000 0.000000 0.000000 0.091197 0.000000 0.000000
# 5 0.000000 0.000000 0.000000 0.000000 0.036810 0.000000
# 6 0.000000 0.000000 0.000000 0.000000 0.000000 0.055384
#
#
# Mechanical properties :
#
#
# Convention : Reuss Voigt Hill
#
# Bulk Modulus (GPa) = 21.15074 25.91228 23.53151
# Shear Modulus (GPa) = 20.18341 26.11887 23.15114
#
# Velocity S-wave (km/s) = 3.08802 3.51285 3.30727
# Velocity P-wave (km/s) = 4.76523 5.35687 5.06969
#
# Compressibility (1/GPa) = 0.04727967
#
# Stress axis : x y z
#
# Youngs Moduli (GPa) = 38.85979 79.64183 103.74778
#
# Poissons Ratio (x) = 0.10674 -0.21027
# Poissons Ratio (y) = 0.05208 0.10487
# Poissons Ratio (z) = -0.07876 0.08050
#
# Static dielectric constant tensor:
#      x y z
#    x 1.736260 0.000000 0.000000 
#    y 0.000000 1.757880 0.000000 
#    z 0.000000 0.000000 2.021210 
# 
# From -- ./inp_files/14248.got.cif
#   From: 2010.05.17/outbox.cif.g08.bks.cpg/sg53_8_cif.got.tgz:14248.got - 2010.06.03 12:45:16.
