data_PCOD9415717
_publ_section_title
;
Structure prediction by ZEFSAII (Michael W. Deem and Ramdas Pophale) SiO2 
 PCOD9415717
Probable space group: P M N A
;
_chemical_formula_sum "Si O2"
_cell_formula_units_Z 48
_cell_length_a 8.992714
_cell_length_b 16.734572
_cell_length_c 18.535914
_cell_angle_alpha 90.000000
_cell_angle_beta 90.000000
_cell_angle_gamma 90.000000
_cell_volume 2789.455238
_symmetry_space_group_name_H-M "P M N A"
_symmetry_group_IT_number 53
_symmetry_cell_setting 'orthorhombic'
loop_
_space_group_symop_operation_xyz
x,y,z
1/2-x,-y,1/2+z
x,-y,-z
1/2-x,y,1/2-z
-x,-y,-z
1/2+x,y,1/2-z
-x,y,z
1/2+x,-y,1/2+z
loop_
_atom_site_type_symbol
_atom_site_label
_atom_site_fract_x
_atom_site_fract_y
_atom_site_fract_z
Si Si1 0.821483 0.410819 0.523210
Si Si2 0.321885 0.331222 0.825223
Si Si3 0.174714 0.740127 0.951923
Si Si4 0.822358 0.973733 0.328733
Si Si5 0.824616 0.176859 0.894264
Si Si6 0.822913 0.842337 0.671853
O O1 0.778886 0.500000 0.500000
O O2 0.786394 0.388438 0.606510
O O3 0.743224 0.344992 0.473558
O O4 0.000000 0.403057 0.515422
O O5 0.250000 0.357812 0.750000
O O6 0.500000 0.325847 0.818474
O O7 0.254913 0.244610 0.845957
O O8 0.256894 0.781787 0.885923
O O9 0.000000 0.732563 0.936802
O O10 0.192598 0.794765 0.023354
O O11 0.750000 0.961904 0.250000
O O12 0.750355 0.908061 0.380165
O O13 0.000000 0.963117 0.324586
O O14 0.791431 0.065479 0.350360
O O15 0.000000 0.174320 0.876937
O O16 0.750000 0.830273 0.750000
O O17 0.000000 0.833589 0.677313
#
# Coordination Sequence:
#
# PCOD9415717 Si02
#       6
#     8   8   8   8   8   8
#     4   9  19  37  59  80 104 137 174 213 260 313
#     4  10  19  32  52  77 106 137 170 210 256 308
#     4  10  21  36  55  79 105 135 171 212 261 313
#     4  10  20  33  50  73 102 138 178 218 260 303
#     4  10  20  33  50  74 105 139 174 212 255 306
#     4  10  21  37  56  76 102 137 177 220 261 305
#
# _framework density 17.207660000000001
#
# number of rings (size 3 to 8) (size 9 to 14) (size 15 to 20)
#    0.000    2.167    0.000    3.000    0.000    5.667 
#    0.000    4.167    0.000    2.000    0.000    0.000 
#    0.000    0.000    0.000    0.000    0.000    0.000 
#
# Total GULP energy -267976.113658 kJ/mol
# GULP energy per Si atom -5582.835701 kJ/mol
# Density = 1.716849 g / cm^3
# Si number density = 17.207660 Si / 1000 Ang^3
#
#
#
# Elastic Constant Matrix: (Units=GPa)
#
#
# Indices 1 2 3 4 5 6 
#
# 1 90.6648 82.9905 67.9589 0.0000 0.0000 0.0000
# 2 82.9905 146.9662 91.9000 0.0000 0.0000 0.0000
# 3 67.9589 91.9000 92.3024 0.0000 0.0000 0.0000
# 4 0.0000 0.0000 0.0000 18.0050 0.0000 0.0000
# 5 0.0000 0.0000 0.0000 0.0000 30.5966 0.0000
# 6 0.0000 0.0000 0.0000 0.0000 0.0000 24.8705
#
#
#
# Elastic Compliance Matrix: (Units=1/GPa)
#
#
# Indices 1 2 3 4 5 6 
#
# 1 0.027478 -0.007593 -0.012671 0.000000 0.000000 0.000000
# 2 -0.007593 0.020127 -0.014449 0.000000 0.000000 0.000000
# 3 -0.012671 -0.014449 0.034549 0.000000 0.000000 0.000000
# 4 0.000000 0.000000 0.000000 0.055540 0.000000 0.000000
# 5 0.000000 0.000000 0.000000 0.000000 0.032683 0.000000
# 6 0.000000 0.000000 0.000000 0.000000 0.000000 0.040208
#
#
# Mechanical properties :
#
#
# Convention : Reuss Voigt Hill
#
# Bulk Modulus (GPa) = 78.56619 90.62581 84.59600
# Shear Modulus (GPa) = 17.58999 20.50004 19.04501
#
# Velocity S-wave (km/s) = 3.20068 3.45531 3.33043
# Velocity P-wave (km/s) = 7.70818 8.28850 8.00360
#
# Compressibility (1/GPa) = 0.01272812
#
# Stress axis : x y z
#
# Youngs Moduli (GPa) = 36.39340 49.68429 28.94477
#
# Poissons Ratio (x) = 0.37726 0.36675
# Poissons Ratio (y) = 0.27634 0.41821
# Poissons Ratio (z) = 0.46113 0.71787
#
# Static dielectric constant tensor:
#      x y z
#    x 1.569840 0.000000 0.000000 
#    y 0.000000 1.560230 0.000000 
#    z 0.000000 0.000000 1.568060 
# 
# From -- ./inp_files/20141.got.cif
#   From: 2010.05.17/outbox.cif.g08.bks.cpg/sg53_11_cif.got.tgz:20141.got - 2010.06.03 12:45:16.
