data_PCOD9415567
_publ_section_title
;
Structure prediction by ZEFSAII (Michael W. Deem and Ramdas Pophale) SiO2 
 PCOD9415567
Probable space group: P M N A
;
_chemical_formula_sum "Si O2"
_cell_formula_units_Z 56
_cell_length_a 8.596891
_cell_length_b 20.884108
_cell_length_c 13.681456
_cell_angle_alpha 90.000000
_cell_angle_beta 90.000000
_cell_angle_gamma 90.000000
_cell_volume 2456.346721
_symmetry_space_group_name_H-M "P M N A"
_symmetry_group_IT_number 53
_symmetry_cell_setting 'orthorhombic'
loop_
_space_group_symop_operation_xyz
x,y,z
1/2-x,-y,1/2+z
x,-y,-z
1/2-x,y,1/2-z
-x,-y,-z
1/2+x,y,1/2-z
-x,y,z
1/2+x,-y,1/2+z
loop_
_atom_site_type_symbol
_atom_site_label
_atom_site_fract_x
_atom_site_fract_y
_atom_site_fract_z
Si Si1 0.180929 0.059065 0.376411
Si Si2 0.813104 0.648380 0.069777
Si Si3 0.319731 0.192332 0.351688
Si Si4 0.812935 0.783337 0.433430
Si Si5 0.680862 0.383523 0.350487
Si Si6 0.177695 0.920069 0.389802
Si Si7 0.674697 0.484128 0.884707
O O1 0.294129 0.115731 0.345936
O O2 0.170235 0.068970 0.493421
O O3 0.000000 0.066207 0.342632
O O4 0.244384 0.987907 0.354784
O O5 0.756035 0.717211 0.106122
O O6 0.759389 0.641691 0.955325
O O7 0.000000 0.644281 0.072200
O O8 0.741219 0.587153 0.124382
O O9 0.250000 0.217361 0.250000
O O10 0.500000 0.208959 0.360024
O O11 0.234776 0.212497 0.451769
O O12 0.753516 0.848788 0.380765
O O13 0.000000 0.783270 0.427658
O O14 0.750000 0.357817 0.250000
O O15 0.500000 0.370556 0.349559
O O16 0.713368 0.459636 0.349612
O O17 0.000000 0.917852 0.352574
O O18 0.500000 0.489522 0.843812
O O19 0.663851 0.500000 0.000000
#
# Coordination Sequence:
#
# PCOD9415567 Si02
#       7
#     8   8   8   8   8   8   8
#     4   8  13  26  45  63  83 110 144 183 224 265
#     4  10  20  33  48  70 100 132 164 199 240 285
#     4  11  21  32  44  62  89 122 157 192 231 276
#     4  10  19  32  48  67  92 124 158 190 227 275
#     4  10  20  33  50  72  99 128 160 199 241 285
#     4   7  12  24  44  65  85 110 142 180 223 267
#     4   9  17  31  51  72  94 123 160 200 241 284
#
# _framework density 22.798086000000001
#
# number of rings (size 3 to 8) (size 9 to 14) (size 15 to 20)
#    0.000    2.714    0.000    4.714    0.000    4.000 
#    0.000    7.857    0.000    0.000    0.000    1.000 
#    0.000    2.286    0.000    0.000    0.000    0.000 
#
# Total GULP energy -312385.467598 kJ/mol
# GULP energy per Si atom -5578.311921 kJ/mol
# Density = 2.274620 g / cm^3
# Si number density = 22.798086 Si / 1000 Ang^3
#
#
#
# Elastic Constant Matrix: (Units=GPa)
#
#
# Indices 1 2 3 4 5 6 
#
# 1 51.3593 17.7421 0.8151 0.0000 0.0000 0.0000
# 2 17.7421 207.7865 -8.7177 0.0000 0.0000 0.0000
# 3 0.8151 -8.7177 38.6108 0.0000 0.0000 0.0000
# 4 0.0000 0.0000 0.0000 -16.4481 0.0000 0.0000
# 5 0.0000 0.0000 0.0000 0.0000 11.2224 0.0000
# 6 0.0000 0.0000 0.0000 0.0000 0.0000 8.8826
#
#
#
# Elastic Compliance Matrix: (Units=1/GPa)
#
#
# Indices 1 2 3 4 5 6 
#
# 1 0.020088 -0.001750 -0.000819 0.000000 0.000000 0.000000
# 2 -0.001750 0.005011 0.001168 0.000000 0.000000 0.000000
# 3 -0.000819 0.001168 0.026181 0.000000 0.000000 0.000000
# 4 0.000000 0.000000 0.000000 -0.060797 0.000000 0.000000
# 5 0.000000 0.000000 0.000000 0.000000 0.089107 0.000000
# 6 0.000000 0.000000 0.000000 0.000000 0.000000 0.112580
#
#
# Mechanical properties :
#
#
# Convention : Reuss Voigt Hill
#
# Bulk Modulus (GPa) = 20.62754 35.27065 27.94909
# Shear Modulus (GPa) = 23.68205 19.92584 21.80395
#
# Velocity S-wave (km/s) = 3.22650 2.95958 3.09592
# Velocity P-wave (km/s) = 4.79040 5.21376 5.00656
#
# Compressibility (1/GPa) = 0.04847889
#
# Stress axis : x y z
#
# Youngs Moduli (GPa) = 49.78081 199.55928 38.19627
#
# Poissons Ratio (x) = 0.34915 0.03129
# Poissons Ratio (y) = 0.08710 -0.04463
# Poissons Ratio (z) = 0.04078 -0.23315
#
# Static dielectric constant tensor:
#      x y z
#    x 1.781970 0.000000 0.000000 
#    y 0.000000 1.899880 0.000000 
#    z 0.000000 0.000000 1.920020 
# 
# From -- ./inp_files/26649.got.cif
#   From: 2010.05.17/outbox.cif.g08.bks.cpg/sg53_14_cif.got.tgz:26649.got - 2010.06.03 12:45:16.
