data_PCOD9415752
_publ_section_title
;
Structure prediction by ZEFSAII (Michael W. Deem and Ramdas Pophale) SiO2 
 PCOD9415752
Probable space group: P M N A
;
_chemical_formula_sum "Si O2"
_cell_formula_units_Z 56
_cell_length_a 14.922320
_cell_length_b 8.754385
_cell_length_c 22.665698
_cell_angle_alpha 90.000000
_cell_angle_beta 90.000000
_cell_angle_gamma 90.000000
_cell_volume 2960.950103
_symmetry_space_group_name_H-M "P M N A"
_symmetry_group_IT_number 53
_symmetry_cell_setting 'orthorhombic'
loop_
_space_group_symop_operation_xyz
x,y,z
1/2-x,-y,1/2+z
x,-y,-z
1/2-x,y,1/2-z
-x,-y,-z
1/2+x,y,1/2-z
-x,y,z
1/2+x,-y,1/2+z
loop_
_atom_site_type_symbol
_atom_site_label
_atom_site_fract_x
_atom_site_fract_y
_atom_site_fract_z
Si Si1 0.288992 0.317178 0.389401
Si Si2 0.792428 0.317820 0.889331
Si Si3 0.103946 0.182975 0.000800
Si Si4 0.850097 0.845541 0.227793
Si Si5 0.901786 0.680616 0.346564
Si Si6 0.899900 0.188614 0.216529
Si Si7 0.899502 0.686590 0.652027
O O1 0.296424 0.499601 0.394046
O O2 0.346267 0.241007 0.440781
O O3 0.328840 0.263751 0.326884
O O4 0.183808 0.273432 0.389636
O O5 0.841952 0.244574 0.944611
O O6 0.839771 0.260755 0.829326
O O7 0.686939 0.273748 0.882959
O O8 0.000000 0.234162 0.999573
O O9 0.104540 0.000000 0.000000
O O10 0.750000 0.883381 0.250000
O O11 0.894947 0.758630 0.282456
O O12 0.894793 0.005783 0.212193
O O13 0.896624 0.497011 0.339233
O O14 0.000000 0.717170 0.372345
O O15 0.885781 0.235819 0.284365
O O16 0.000000 0.240491 0.199578
O O17 0.000000 0.726324 0.631060
#
# Coordination Sequence:
#
# PCOD9415752 Si02
#       7
#     8   8   8   8   8   8   8
#     4  11  21  37  58  80 108 141 181 225 268 315
#     4  10  22  37  57  82 107 141 182 224 268 316
#     4  11  25  43  60  78 104 140 180 222 268 318
#     4  10  19  32  52  80 114 148 180 217 264 316
#     4   9  18  35  57  82 112 143 177 218 265 318
#     4  11  21  32  51  81 114 148 182 218 267 319
#     4   9  19  35  56  82 111 143 178 218 265 318
#
# _framework density 18.912849999999999
#
# number of rings (size 3 to 8) (size 9 to 14) (size 15 to 20)
#    0.000    1.857    0.000    4.286    0.000    7.429 
#    0.000    0.714    0.000    4.286    0.000    0.000 
#    0.000    0.000    0.000    0.000    0.000    0.000 
#
# Total GULP energy -312676.879900 kJ/mol
# GULP energy per Si atom -5583.515713 kJ/mol
# Density = 1.886980 g / cm^3
# Si number density = 18.912850 Si / 1000 Ang^3
#
#
#
# Elastic Constant Matrix: (Units=GPa)
#
#
# Indices 1 2 3 4 5 6 
#
# 1 166.5896 44.5745 62.1220 0.0000 0.0000 0.0000
# 2 44.5745 44.8146 22.9059 0.0000 0.0000 0.0000
# 3 62.1220 22.9059 56.7059 0.0000 0.0000 0.0000
# 4 0.0000 0.0000 0.0000 34.6028 0.0000 0.0000
# 5 0.0000 0.0000 0.0000 0.0000 20.2643 0.0000
# 6 0.0000 0.0000 0.0000 0.0000 0.0000 25.8837
#
#
#
# Elastic Compliance Matrix: (Units=1/GPa)
#
#
# Indices 1 2 3 4 5 6 
#
# 1 0.011381 -0.006235 -0.009950 0.000000 0.000000 0.000000
# 2 -0.006235 0.031535 -0.005908 0.000000 0.000000 0.000000
# 3 -0.009950 -0.005908 0.030922 0.000000 0.000000 0.000000
# 4 0.000000 0.000000 0.000000 0.028899 0.000000 0.000000
# 5 0.000000 0.000000 0.000000 0.000000 0.049348 0.000000
# 6 0.000000 0.000000 0.000000 0.000000 0.000000 0.038634
#
#
# Mechanical properties :
#
#
# Convention : Reuss Voigt Hill
#
# Bulk Modulus (GPa) = 33.72382 58.59053 46.15717
# Shear Modulus (GPa) = 20.42566 25.38401 22.90483
#
# Velocity S-wave (km/s) = 3.28988 3.66752 3.48382
# Velocity P-wave (km/s) = 5.68340 6.99862 6.37502
#
# Compressibility (1/GPa) = 0.02965264
#
# Stress axis : x y z
#
# Youngs Moduli (GPa) = 87.86258 31.71047 32.33969
#
# Poissons Ratio (x) = 0.19771 0.32178
# Poissons Ratio (y) = 0.54780 0.19107
# Poissons Ratio (z) = 0.87423 0.18735
#
# Static dielectric constant tensor:
#      x y z
#    x 1.693480 0.000000 0.000000 
#    y 0.000000 1.633290 0.000000 
#    z 0.000000 0.000000 1.610640 
# 
# From -- ./inp_files/32414.got.cif
#   From: 2010.05.17/outbox.cif.g08.bks.cpg/sg53_17_cif.got.tgz:32414.got - 2010.06.03 12:45:16.
