data_PCOD9415488
_publ_section_title
;
Structure prediction by ZEFSAII (Michael W. Deem and Ramdas Pophale) SiO2 
 PCOD9415488
Probable space group: P M N A
;
_chemical_formula_sum "Si O2"
_cell_formula_units_Z 48
_cell_length_a 8.689873
_cell_length_b 16.377384
_cell_length_c 19.293696
_cell_angle_alpha 90.000000
_cell_angle_beta 90.000000
_cell_angle_gamma 90.000000
_cell_volume 2745.828401
_symmetry_space_group_name_H-M "P M N A"
_symmetry_group_IT_number 53
_symmetry_cell_setting 'orthorhombic'
loop_
_space_group_symop_operation_xyz
x,y,z
1/2-x,-y,1/2+z
x,-y,-z
1/2-x,y,1/2-z
-x,-y,-z
1/2+x,y,1/2-z
-x,y,z
1/2+x,-y,1/2+z
loop_
_atom_site_type_symbol
_atom_site_label
_atom_site_fract_x
_atom_site_fract_y
_atom_site_fract_z
Si Si1 0.686119 0.822685 0.827849
Si Si2 0.185036 0.325558 0.919759
Si Si3 0.814774 0.001021 0.672070
Si Si4 0.185217 0.179737 0.671875
Si Si5 0.316384 0.325192 0.074448
Si Si6 0.321895 0.494944 0.415812
O O1 0.750000 0.815170 0.750000
O O2 0.500000 0.820540 0.824298
O O3 0.736607 0.747994 0.875843
O O4 0.731861 0.912508 0.857301
O O5 0.249151 0.252665 0.873746
O O6 0.234987 0.415751 0.892882
O O7 0.000000 0.325666 0.919501
O O8 0.242326 0.316645 0.998584
O O9 0.750000 0.000879 0.750000
O O10 0.769513 0.089543 0.642481
O O11 0.000000 0.001177 0.674569
O O12 0.250000 0.185363 0.750000
O O13 0.000000 0.184420 0.673873
O O14 0.500000 0.320822 0.067123
O O15 0.270836 0.414268 0.103597
O O16 0.318503 0.500000 0.500000
O O17 0.500000 0.484471 0.395270
#
# Coordination Sequence:
#
# PCOD9415488 Si02
#       6
#     8   8   8   8   8   8
#     4   9  18  32  50  73  99 127 160 196 237 285
#     4  10  20  34  51  71  97 129 163 199 240 287
#     4   8  15  29  48  69  94 125 159 193 232 282
#     4  10  19  32  52  75  98 126 160 199 241 284
#     4  10  19  31  50  75  99 125 160 201 242 286
#     4   8  16  31  49  68  92 125 161 196 238 287
#
# _framework density 17.481062999999999
#
# number of rings (size 3 to 8) (size 9 to 14) (size 15 to 20)
#    0.000    2.833    0.000    2.500    0.000    5.667 
#    0.000    1.667    0.000    7.000    0.000    0.000 
#    0.000    0.000    0.000    0.000    0.000    0.000 
#
# Total GULP energy -267230.901597 kJ/mol
# GULP energy per Si atom -5567.310450 kJ/mol
# Density = 1.744128 g / cm^3
# Si number density = 17.481063 Si / 1000 Ang^3
#
#
#
# Elastic Constant Matrix: (Units=GPa)
#
#
# Indices 1 2 3 4 5 6 
#
# 1 34.1741 45.8831 18.0718 0.0000 0.0000 0.0000
# 2 45.8831 221.8186 67.8279 0.0000 0.0000 0.0000
# 3 18.0718 67.8279 43.9421 0.0000 0.0000 0.0000
# 4 0.0000 0.0000 0.0000 33.6312 0.0000 0.0000
# 5 0.0000 0.0000 0.0000 0.0000 18.6490 0.0000
# 6 0.0000 0.0000 0.0000 0.0000 0.0000 27.3797
#
#
#
# Elastic Compliance Matrix: (Units=1/GPa)
#
#
# Indices 1 2 3 4 5 6 
#
# 1 0.041703 -0.006405 -0.007264 0.000000 0.000000 0.000000
# 2 -0.006405 0.009522 -0.012064 0.000000 0.000000 0.000000
# 3 -0.007264 -0.012064 0.044366 0.000000 0.000000 0.000000
# 4 0.000000 0.000000 0.000000 0.029734 0.000000 0.000000
# 5 0.000000 0.000000 0.000000 0.000000 0.053622 0.000000
# 6 0.000000 0.000000 0.000000 0.000000 0.000000 0.036523
#
#
# Mechanical properties :
#
#
# Convention : Reuss Voigt Hill
#
# Bulk Modulus (GPa) = 22.66303 62.61114 42.63708
# Shear Modulus (GPa) = 17.75289 27.14212 22.44751
#
# Velocity S-wave (km/s) = 3.19023 3.94465 3.58733
# Velocity P-wave (km/s) = 5.15389 7.52605 6.44996
#
# Compressibility (1/GPa) = 0.04412473
#
# Stress axis : x y z
#
# Youngs Moduli (GPa) = 23.97923 105.02162 22.53987
#
# Poissons Ratio (x) = 0.67265 0.16374
# Poissons Ratio (y) = 0.15358 0.27191
# Poissons Ratio (z) = 0.17419 1.26694
#
# Static dielectric constant tensor:
#      x y z
#    x 1.590480 0.000000 0.000000 
#    y 0.000000 1.660150 0.000000 
#    z 0.000000 0.000000 1.550380 
# 
# From -- ./inp_files/30532.got.cif
#   From: 2010.05.17/outbox.cif.g08.bks.cpg/sg53_16_cif.got.tgz:30532.got - 2010.06.03 12:45:16.
