data_PCOD9415427
_publ_section_title
;
Structure prediction by ZEFSAII (Michael W. Deem and Ramdas Pophale) SiO2 
 PCOD9415427
Probable space group: P M N A
;
_chemical_formula_sum "Si O2"
_cell_formula_units_Z 64
_cell_length_a 8.133728
_cell_length_b 21.447218
_cell_length_c 19.461719
_cell_angle_alpha 90.000000
_cell_angle_beta 90.000000
_cell_angle_gamma 90.000000
_cell_volume 3395.015871
_symmetry_space_group_name_H-M "P M N A"
_symmetry_group_IT_number 53
_symmetry_cell_setting 'orthorhombic'
loop_
_space_group_symop_operation_xyz
x,y,z
1/2-x,-y,1/2+z
x,-y,-z
1/2-x,y,1/2-z
-x,-y,-z
1/2+x,y,1/2-z
-x,y,z
1/2+x,-y,1/2+z
loop_
_atom_site_type_symbol
_atom_site_label
_atom_site_fract_x
_atom_site_fract_y
_atom_site_fract_z
Si Si1 0.199211 0.278098 0.829475
Si Si2 0.698341 0.077717 0.171491
Si Si3 0.698497 0.414438 0.669926
Si Si4 0.198415 0.548279 0.829990
Si Si5 0.302466 0.029126 0.928081
Si Si6 0.194295 0.171133 0.930539
Si Si7 0.697740 0.685105 0.670161
Si Si8 0.304505 0.803440 0.916854
O O1 0.250000 0.271304 0.750000
O O2 0.255149 0.346719 0.856068
O O3 0.261358 0.221608 0.876271
O O4 0.000000 0.278135 0.831715
O O5 0.750000 0.081475 0.250000
O O6 0.500000 0.078336 0.169640
O O7 0.755868 0.137574 0.127975
O O8 0.756940 0.014830 0.133769
O O9 0.750000 0.414660 0.750000
O O10 0.500000 0.414764 0.666109
O O11 0.756387 0.481401 0.640391
O O12 0.250000 0.547838 0.750000
O O13 0.253887 0.616237 0.855526
O O14 0.000000 0.548389 0.833685
O O15 0.500000 0.024267 0.929596
O O16 0.261366 0.101472 0.921859
O O17 0.240723 0.000000 0.000000
O O18 0.000000 0.167459 0.920144
O O19 0.228425 0.194034 0.007708
O O20 0.750000 0.692221 0.750000
O O21 0.500000 0.687327 0.667766
O O22 0.766545 0.740574 0.624264
O O23 0.500000 0.810211 0.925094
#
# Coordination Sequence:
#
# PCOD9415427 Si02
#       8
#     8   8   8   8   8   8   8   8
#     4   9  19  34  53  79 110 138 173 218 266 316
#     4  10  22  38  58  82 107 135 172 216 260 307
#     4   8  13  25  45  69  98 134 170 211 259 311
#     4   8  14  24  42  68  99 133 172 213 260 310
#     4  10  20  40  61  77 103 139 176 212 254 313
#     4  11  23  37  56  83 109 137 175 221 265 315
#     4  10  19  31  48  76 109 140 176 223 268 313
#     4  11  22  38  56  75 103 145 185 219 264 320
#
# _framework density 18.851164000000001
#
# number of rings (size 3 to 8) (size 9 to 14) (size 15 to 20)
#    0.000    2.375    1.250    1.500    0.000    4.750 
#    0.000    2.500    0.000    0.750    0.000    5.250 
#    0.000    0.000    0.000    0.000    0.000    0.000 
#
# Total GULP energy -356687.359166 kJ/mol
# GULP energy per Si atom -5573.239987 kJ/mol
# Density = 1.880826 g / cm^3
# Si number density = 18.851164 Si / 1000 Ang^3
#
#
#
# Elastic Constant Matrix: (Units=GPa)
#
#
# Indices 1 2 3 4 5 6 
#
# 1 6.3909 -5.2293 -6.7851 0.0000 0.0000 0.0000
# 2 -5.2293 188.3107 58.7635 0.0000 0.0000 0.0000
# 3 -6.7851 58.7635 73.5633 0.0000 0.0000 0.0000
# 4 0.0000 0.0000 0.0000 8.3743 0.0000 0.0000
# 5 0.0000 0.0000 0.0000 0.0000 18.3874 0.0000
# 6 0.0000 0.0000 0.0000 0.0000 0.0000 14.8574
#
#
#
# Elastic Compliance Matrix: (Units=1/GPa)
#
#
# Indices 1 2 3 4 5 6 
#
# 1 0.173466 -0.000234 0.016187 0.000000 0.000000 0.000000
# 2 -0.000234 0.007074 -0.005672 0.000000 0.000000 0.000000
# 3 0.016187 -0.005672 0.019618 0.000000 0.000000 0.000000
# 4 0.000000 0.000000 0.000000 0.119413 0.000000 0.000000
# 5 0.000000 0.000000 0.000000 0.000000 0.054385 0.000000
# 6 0.000000 0.000000 0.000000 0.000000 0.000000 0.067306
#
#
# Mechanical properties :
#
#
# Convention : Reuss Voigt Hill
#
# Bulk Modulus (GPa) = 4.53067 40.19590 22.36328
# Shear Modulus (GPa) = 10.11585 23.09156 16.60370
#
# Velocity S-wave (km/s) = 2.31901 3.50371 2.97101
# Velocity P-wave (km/s) = 3.09500 6.14305 4.86395
#
# Compressibility (1/GPa) = 0.22071789
#
# Stress axis : x y z
#
# Youngs Moduli (GPa) = 5.76482 141.36329 50.97392
#
# Poissons Ratio (x) = 0.03308 -0.82509
# Poissons Ratio (y) = 0.00135 0.28914
# Poissons Ratio (z) = -0.09331 0.80187
#
# Static dielectric constant tensor:
#      x y z
#    x 1.671450 0.000000 0.000000 
#    y 0.000000 1.710890 0.000000 
#    z 0.000000 0.000000 1.584460 
# 
# From -- ./inp_files/26810.got.cif
#   From: 2010.05.17/outbox.cif.g08.bks.cpg/sg53_14_cif.got.tgz:26810.got - 2010.06.03 12:45:16.
