data_PCOD9415327
_publ_section_title
;
Structure prediction by ZEFSAII (Michael W. Deem and Ramdas Pophale) SiO2 
 PCOD9415327
Probable space group: P M N A
;
_chemical_formula_sum "Si O2"
_cell_formula_units_Z 56
_cell_length_a 9.079848
_cell_length_b 12.820281
_cell_length_c 31.138811
_cell_angle_alpha 90.000000
_cell_angle_beta 90.000000
_cell_angle_gamma 90.000000
_cell_volume 3624.750748
_symmetry_space_group_name_H-M "P M N A"
_symmetry_group_IT_number 53
_symmetry_cell_setting 'orthorhombic'
loop_
_space_group_symop_operation_xyz
x,y,z
1/2-x,-y,1/2+z
x,-y,-z
1/2-x,y,1/2-z
-x,-y,-z
1/2+x,y,1/2-z
-x,y,z
1/2+x,-y,1/2+z
loop_
_atom_site_type_symbol
_atom_site_label
_atom_site_fract_x
_atom_site_fract_y
_atom_site_fract_z
Si Si1 0.323844 0.608598 0.118091
Si Si2 0.670136 0.620865 0.293390
Si Si3 0.832019 0.632981 0.792617
Si Si4 0.831328 0.005363 0.052085
Si Si5 0.678356 0.616827 0.612310
Si Si6 0.825293 0.793147 0.448169
Si Si7 0.324312 0.780404 0.950687
O O1 0.500000 0.593044 0.121556
O O2 0.258903 0.647281 0.163564
O O3 0.245520 0.498838 0.107750
O O4 0.294246 0.693875 0.081478
O O5 0.750000 0.657282 0.250000
O O6 0.500000 0.654362 0.295445
O O7 0.669258 0.493872 0.291771
O O8 0.750000 0.669683 0.750000
O O9 0.774674 0.658453 0.840250
O O10 0.000000 0.668034 0.790003
O O11 0.762793 0.895637 0.066271
O O12 0.000000 0.018084 0.066265
O O13 0.734594 0.105995 0.063449
O O14 0.830827 0.000000 0.000000
O O15 0.500000 0.611282 0.611789
O O16 0.740657 0.692284 0.576023
O O17 0.792358 0.770498 0.498277
O O18 0.000000 0.815972 0.445774
O O19 0.500000 0.772494 0.944841
#
# Coordination Sequence:
#
# PCOD9415327 Si02
#       7
#     8   8   8   8   8   8   8
#     4  10  19  31  46  66  94 126 157 189 228 275
#     4   9  16  27  43  64  89 118 152 189 228 269
#     4   8  15  26  41  60  84 113 145 183 222 262
#     4   9  17  30  49  70  89 112 148 194 237 272
#     4  10  20  32  44  65  96 125 155 190 229 276
#     4   9  19  33  48  67  92 122 156 192 229 272
#     4  10  19  32  49  67  90 122 157 192 230 272
#
# _framework density 15.449337999999999
#
# number of rings (size 3 to 8) (size 9 to 14) (size 15 to 20)
#    0.000    2.714    0.000    3.000    0.000    8.000 
#    0.000    2.857    0.000    0.000    0.000    1.000 
#    0.000    2.286    0.000    0.000    0.000    0.000 
#
# Total GULP energy -311928.284423 kJ/mol
# GULP energy per Si atom -5570.147936 kJ/mol
# Density = 1.541417 g / cm^3
# Si number density = 15.449338 Si / 1000 Ang^3
#
#
#
# Elastic Constant Matrix: (Units=GPa)
#
#
# Indices 1 2 3 4 5 6 
#
# 1 85.6712 51.2629 58.3894 0.0000 0.0000 0.0000
# 2 51.2629 73.5273 54.2783 0.0000 0.0000 0.0000
# 3 58.3894 54.2783 92.7875 0.0000 0.0000 0.0000
# 4 0.0000 0.0000 0.0000 -1.8592 0.0000 0.0000
# 5 0.0000 0.0000 0.0000 0.0000 26.2882 0.0000
# 6 0.0000 0.0000 0.0000 0.0000 0.0000 15.0343
#
#
#
# Elastic Compliance Matrix: (Units=1/GPa)
#
#
# Indices 1 2 3 4 5 6 
#
# 1 0.023853 -0.009768 -0.009297 0.000000 0.000000 0.000000
# 2 -0.009768 0.027937 -0.010196 0.000000 0.000000 0.000000
# 3 -0.009297 -0.010196 0.022592 0.000000 0.000000 0.000000
# 4 0.000000 0.000000 0.000000 -0.537871 0.000000 0.000000
# 5 0.000000 0.000000 0.000000 0.000000 0.038040 0.000000
# 6 0.000000 0.000000 0.000000 0.000000 0.000000 0.066514
#
#
# Mechanical properties :
#
#
# Convention : Reuss Voigt Hill
#
# Bulk Modulus (GPa) = 63.04402 64.42747 63.73575
# Shear Modulus (GPa) = -16.94182 13.76303 -1.58940
#
# Velocity S-wave (km/s) = -3.31510 2.98795 -1.01539
# Velocity P-wave (km/s) = 5.12273 7.32780 6.32215
#
# Compressibility (1/GPa) = 0.01586193
#
# Stress axis : x y z
#
# Youngs Moduli (GPa) = 41.92301 35.79498 44.26389
#
# Poissons Ratio (x) = 0.34963 0.41151
# Poissons Ratio (y) = 0.40948 0.45131
# Poissons Ratio (z) = 0.38974 0.36496
#
# Static dielectric constant tensor:
#      x y z
#    x 1.523090 0.000000 0.000000 
#    y 0.000000 1.485540 0.000000 
#    z 0.000000 0.000000 1.520590 
# 
# From -- ./inp_files/38350.got.cif
#   From: 2010.05.17/outbox.cif.g08.bks.cpg/sg53_20_cif.got.tgz:38350.got - 2010.06.03 12:45:16.
