data_PCOD9415999
_publ_section_title
;
Structure prediction by ZEFSAII (Michael W. Deem and Ramdas Pophale) SiO2 
 PCOD9415999
Probable space group: P M N A
;
_chemical_formula_sum "Si O2"
_cell_formula_units_Z 48
_cell_length_a 15.584770
_cell_length_b 8.777022
_cell_length_c 18.466250
_cell_angle_alpha 90.000000
_cell_angle_beta 90.000000
_cell_angle_gamma 90.000000
_cell_volume 2525.958989
_symmetry_space_group_name_H-M "P M N A"
_symmetry_group_IT_number 53
_symmetry_cell_setting 'orthorhombic'
loop_
_space_group_symop_operation_xyz
x,y,z
1/2-x,-y,1/2+z
x,-y,-z
1/2-x,y,1/2-z
-x,-y,-z
1/2+x,y,1/2-z
-x,y,z
1/2+x,-y,1/2+z
loop_
_atom_site_type_symbol
_atom_site_label
_atom_site_fract_x
_atom_site_fract_y
_atom_site_fract_z
Si Si1 0.844146 0.095947 0.216454
Si Si2 0.597634 0.564555 0.695281
Si Si3 0.095888 0.434115 0.643640
Si Si4 0.726002 0.567772 0.423103
Si Si5 0.274901 0.932979 0.423041
Si Si6 0.905999 0.067056 0.641367
O O1 0.750000 0.129811 0.250000
O O2 0.889253 0.254365 0.198968
O O3 0.829223 0.998217 0.144051
O O4 0.892754 0.003401 0.279021
O O5 0.500000 0.528063 0.673489
O O6 0.610508 0.499272 0.776070
O O7 0.665623 0.494047 0.640347
O O8 0.175762 0.480479 0.594155
O O9 0.096732 0.250336 0.647535
O O10 0.000000 0.481949 0.619558
O O11 0.699688 0.500000 0.500000
O O12 0.721248 0.750530 0.424360
O O13 0.175736 0.979457 0.406513
O O14 0.301829 0.000000 0.500000
O O15 0.000000 0.022033 0.613157
#
# Coordination Sequence:
#
# PCOD9415999 Si02
#       6
#     8   8   8   8   8   8
#     4  10  19  33  55  80 107 139 178 223 268 317
#     4  11  22  36  57  82 108 140 182 228 270 317
#     4   9  19  36  58  84 111 142 179 218 266 322
#     4  11  22  37  57  79 111 148 180 221 269 320
#     4  10  21  36  54  78 107 143 180 216 266 319
#     4   9  18  34  56  81 109 139 173 215 264 320
#
# _framework density 19.002683000000001
#
# number of rings (size 3 to 8) (size 9 to 14) (size 15 to 20)
#    0.000    2.000    0.000    4.000    0.000    5.000 
#    0.000    0.833    0.000    3.500    0.000    0.000 
#    0.000    0.000    0.000    0.000    0.000    0.000 
#
# Total GULP energy -268030.456806 kJ/mol
# GULP energy per Si atom -5583.967850 kJ/mol
# Density = 1.895943 g / cm^3
# Si number density = 19.002683 Si / 1000 Ang^3
#
#
#
# Elastic Constant Matrix: (Units=GPa)
#
#
# Indices 1 2 3 4 5 6 
#
# 1 40.2306 0.1930 -0.4664 0.0000 0.0000 0.0000
# 2 0.1930 20.1122 8.3628 0.0000 0.0000 0.0000
# 3 -0.4664 8.3628 57.6008 0.0000 0.0000 0.0000
# 4 0.0000 0.0000 0.0000 30.0339 0.0000 0.0000
# 5 0.0000 0.0000 0.0000 0.0000 6.4569 0.0000
# 6 0.0000 0.0000 0.0000 0.0000 0.0000 22.8892
#
#
#
# Elastic Compliance Matrix: (Units=1/GPa)
#
#
# Indices 1 2 3 4 5 6 
#
# 1 0.024861 -0.000343 0.000251 0.000000 0.000000 0.000000
# 2 -0.000343 0.052920 -0.007686 0.000000 0.000000 0.000000
# 3 0.000251 -0.007686 0.018479 0.000000 0.000000 0.000000
# 4 0.000000 0.000000 0.000000 0.033296 0.000000 0.000000
# 5 0.000000 0.000000 0.000000 0.000000 0.154874 0.000000
# 6 0.000000 0.000000 0.000000 0.000000 0.000000 0.043689
#
#
# Mechanical properties :
#
#
# Convention : Reuss Voigt Hill
#
# Bulk Modulus (GPa) = 12.39087 14.90249 13.64668
# Shear Modulus (GPa) = 13.49252 19.19961 16.34606
#
# Velocity S-wave (km/s) = 2.66753 3.18207 2.93609
# Velocity P-wave (km/s) = 4.00280 4.62170 4.32334
#
# Compressibility (1/GPa) = 0.08070458
#
# Stress axis : x y z
#
# Youngs Moduli (GPa) = 40.22326 18.89635 54.11609
#
# Poissons Ratio (x) = 0.00648 -0.01359
# Poissons Ratio (y) = 0.01379 0.41594
# Poissons Ratio (z) = -0.01010 0.14524
#
# Static dielectric constant tensor:
#      x y z
#    x 1.685150 0.000000 0.000000 
#    y 0.000000 1.632560 0.000000 
#    z 0.000000 0.000000 1.609100 
# 
# From -- ./inp_files/28262.got.cif
#   From: 2010.05.17/outbox.cif.g08.bks.cpg/sg53_15_cif.got.tgz:28262.got - 2010.06.03 12:45:16.
