data_PCOD9415804
_publ_section_title
;
Structure prediction by ZEFSAII (Michael W. Deem and Ramdas Pophale) SiO2 
 PCOD9415804
Probable space group: P M N A
;
_chemical_formula_sum "Si O2"
_cell_formula_units_Z 64
_cell_length_a 8.676293
_cell_length_b 15.593385
_cell_length_c 23.189946
_cell_angle_alpha 90.000000
_cell_angle_beta 90.000000
_cell_angle_gamma 90.000000
_cell_volume 3137.432196
_symmetry_space_group_name_H-M "P M N A"
_symmetry_group_IT_number 53
_symmetry_cell_setting 'orthorhombic'
loop_
_space_group_symop_operation_xyz
x,y,z
1/2-x,-y,1/2+z
x,-y,-z
1/2-x,y,1/2-z
-x,-y,-z
1/2+x,y,1/2-z
-x,y,z
1/2+x,-y,1/2+z
loop_
_atom_site_type_symbol
_atom_site_label
_atom_site_fract_x
_atom_site_fract_y
_atom_site_fract_z
Si Si1 0.682892 0.168968 0.489254
Si Si2 0.684981 0.795467 0.639696
Si Si3 0.184753 0.423636 0.632918
Si Si4 0.817613 0.958774 0.690685
Si Si5 0.813255 0.094045 0.895699
Si Si6 0.317439 0.349489 0.990472
Si Si7 0.184620 0.611624 0.622730
Si Si8 0.184116 0.251608 0.813001
O O1 0.500000 0.155758 0.484796
O O2 0.742195 0.173241 0.423978
O O3 0.740555 0.104171 0.538154
O O4 0.718021 0.263487 0.513813
O O5 0.500000 0.800866 0.641766
O O6 0.758578 0.861845 0.683545
O O7 0.736111 0.697124 0.646444
O O8 0.213739 0.407820 0.564757
O O9 0.236546 0.520101 0.647684
O O10 0.259342 0.345215 0.666955
O O11 0.000000 0.419663 0.641223
O O12 0.750000 0.995602 0.750000
O O13 0.000000 0.961931 0.692236
O O14 0.753312 0.013281 0.637477
O O15 0.768330 0.178856 0.859178
O O16 0.000000 0.088579 0.895679
O O17 0.500000 0.327333 0.988987
O O18 0.287253 0.388930 0.053406
O O19 0.000000 0.618966 0.630489
O O20 0.250000 0.231802 0.750000
O O21 0.000000 0.251264 0.810533
#
# Coordination Sequence:
#
# PCOD9415804 Si02
#       8
#     8   8   8   8   8   8   8   8
#     4   9  18  34  57  87 123 159 191 229 285 346
#     4  10  21  39  62  88 121 157 194 239 291 346
#     4  10  19  32  53  81 115 154 195 237 285 338
#     4  12  26  44  66  89 114 147 193 244 293 349
#     4  10  21  39  62  89 120 153 191 236 288 347
#     4   9  16  28  50  81 117 155 192 232 279 335
#     4   9  18  33  54  83 118 154 194 238 285 337
#     4  11  23  38  57  80 114 154 197 244 291 346
#
# _framework density 20.398848000000001
#
# number of rings (size 3 to 8) (size 9 to 14) (size 15 to 20)
#    0.000    2.000    1.250    2.625    0.000    5.500 
#    0.000    3.125    0.000    6.750    0.000    0.000 
#    0.000    0.000    0.000    0.000    0.000    0.000 
#
# Total GULP energy -357377.671359 kJ/mol
# GULP energy per Si atom -5584.026115 kJ/mol
# Density = 2.035242 g / cm^3
# Si number density = 20.398848 Si / 1000 Ang^3
#
#
#
# Elastic Constant Matrix: (Units=GPa)
#
#
# Indices 1 2 3 4 5 6 
#
# 1 13.7596 11.9378 9.8598 0.0000 0.0000 0.0000
# 2 11.9378 84.6690 28.3365 0.0000 0.0000 0.0000
# 3 9.8598 28.3365 26.6029 0.0000 0.0000 0.0000
# 4 0.0000 0.0000 0.0000 10.3250 0.0000 0.0000
# 5 0.0000 0.0000 0.0000 0.0000 59.5287 0.0000
# 6 0.0000 0.0000 0.0000 0.0000 0.0000 14.9241
#
#
#
# Elastic Compliance Matrix: (Units=1/GPa)
#
#
# Indices 1 2 3 4 5 6 
#
# 1 0.099330 -0.002617 -0.034027 0.000000 0.000000 0.000000
# 2 -0.002617 0.018422 -0.018653 0.000000 0.000000 0.000000
# 3 -0.034027 -0.018653 0.070070 0.000000 0.000000 0.000000
# 4 0.000000 0.000000 0.000000 0.096852 0.000000 0.000000
# 5 0.000000 0.000000 0.000000 0.000000 0.016799 0.000000
# 6 0.000000 0.000000 0.000000 0.000000 0.000000 0.067006
#
#
# Mechanical properties :
#
#
# Convention : Reuss Voigt Hill
#
# Bulk Modulus (GPa) = 12.94864 25.03329 18.99097
# Shear Modulus (GPa) = 9.90461 21.94874 15.92667
#
# Velocity S-wave (km/s) = 2.20590 3.28377 2.79725
# Velocity P-wave (km/s) = 3.58462 5.16489 4.44554
#
# Compressibility (1/GPa) = 0.07722816
#
# Stress axis : x y z
#
# Youngs Moduli (GPa) = 10.06742 54.28211 14.27148
#
# Poissons Ratio (x) = 0.14205 0.48562
# Poissons Ratio (y) = 0.02634 0.26620
# Poissons Ratio (z) = 0.34257 1.01252
#
# Static dielectric constant tensor:
#      x y z
#    x 1.686980 0.000000 0.000000 
#    y 0.000000 1.728160 0.000000 
#    z 0.000000 0.000000 1.742390 
# 
# From -- ./inp_files/34157.got.cif
#   From: 2010.05.17/outbox.cif.g08.bks.cpg/sg53_18_cif.got.tgz:34157.got - 2010.06.03 12:45:16.
