data_PCOD9415990
_publ_section_title
;
Structure prediction by ZEFSAII (Michael W. Deem and Ramdas Pophale) SiO2 
 PCOD9415990
Probable space group: P M N A
;
_chemical_formula_sum "Si O2"
_cell_formula_units_Z 64
_cell_length_a 29.193607
_cell_length_b 9.003946
_cell_length_c 12.012646
_cell_angle_alpha 90.000000
_cell_angle_beta 90.000000
_cell_angle_gamma 90.000000
_cell_volume 3157.616030
_symmetry_space_group_name_H-M "P M N A"
_symmetry_group_IT_number 53
_symmetry_cell_setting 'orthorhombic'
loop_
_space_group_symop_operation_xyz
x,y,z
1/2-x,-y,1/2+z
x,-y,-z
1/2-x,y,1/2-z
-x,-y,-z
1/2+x,y,1/2-z
-x,y,z
1/2+x,-y,1/2+z
loop_
_atom_site_type_symbol
_atom_site_label
_atom_site_fract_x
_atom_site_fract_y
_atom_site_fract_z
Si Si1 0.950845 0.011426 0.631600
Si Si2 0.173184 0.668071 0.442754
Si Si3 0.371750 0.199268 0.147996
Si Si4 0.551693 0.560033 0.875009
Si Si5 0.550340 0.282363 0.720263
Si Si6 0.279545 0.324275 0.522895
Si Si7 0.150511 0.210486 0.801113
Si Si8 0.201408 0.111452 0.189272
O O1 0.903052 0.943739 0.670428
O O2 0.000000 0.948160 0.673270
O O3 0.950863 0.000000 0.500000
O O4 0.951327 0.178978 0.670656
O O5 0.167568 0.500000 0.500000
O O6 0.149585 0.785130 0.525959
O O7 0.227246 0.700787 0.439196
O O8 0.154021 0.708665 0.320394
O O9 0.409726 0.324476 0.153444
O O10 0.330301 0.214018 0.232673
O O11 0.500000 0.620170 0.881199
O O12 0.553207 0.443069 0.774798
O O13 0.560886 0.500000 0.000000
O O14 0.500000 0.265580 0.663447
O O15 0.597156 0.229337 0.661899
O O16 0.281648 0.500000 0.500000
O O17 0.316558 0.299469 0.617558
O O18 0.289838 0.205304 0.423603
O O19 0.173044 0.044486 0.812446
O O20 0.250000 0.084190 0.250000
#
# Coordination Sequence:
#
# PCOD9415990 Si02
#       8
#     8   8   8   8   8   8   8   8
#     4  10  19  33  54  88 130 169 207 252 322 399
#     4  11  24  41  66 100 135 178 216 271 329 400
#     4  12  22  36  63  93 135 167 218 258 329 388
#     4  10  20  35  57  90 132 172 211 257 317 392
#     4  10  21  37  58  89 126 165 211 270 327 387
#     4  11  27  45  68  93 128 175 230 280 328 388
#     4  12  24  44  70  96 132 178 222 267 337 400
#     4  12  26  45  65  97 135 176 218 284 330 391
#
# _framework density 20.268457000000001
#
# number of rings (size 3 to 8) (size 9 to 14) (size 15 to 20)
#    0.000    1.000    2.500    5.250    3.500    2.000 
#    0.000    0.000    0.000    3.375    0.000    0.000 
#    0.000    0.000    0.000    0.000    0.000    0.000 
#
# Total GULP energy -356703.340827 kJ/mol
# GULP energy per Si atom -5573.489700 kJ/mol
# Density = 2.022233 g / cm^3
# Si number density = 20.268457 Si / 1000 Ang^3
#
#
#
# Elastic Constant Matrix: (Units=GPa)
#
#
# Indices 1 2 3 4 5 6 
#
# 1 190.7360 25.9221 25.4811 0.0000 0.0000 0.0000
# 2 25.9221 49.9349 2.1509 0.0000 0.0000 0.0000
# 3 25.4811 2.1509 32.4403 0.0000 0.0000 0.0000
# 4 0.0000 0.0000 0.0000 20.9503 0.0000 0.0000
# 5 0.0000 0.0000 0.0000 0.0000 33.0898 0.0000
# 6 0.0000 0.0000 0.0000 0.0000 0.0000 5.9790
#
#
#
# Elastic Compliance Matrix: (Units=1/GPa)
#
#
# Indices 1 2 3 4 5 6 
#
# 1 0.006292 -0.003062 -0.004739 0.000000 0.000000 0.000000
# 2 -0.003062 0.021574 0.000975 0.000000 0.000000 0.000000
# 3 -0.004739 0.000975 0.034484 0.000000 0.000000 0.000000
# 4 0.000000 0.000000 0.000000 0.047732 0.000000 0.000000
# 5 0.000000 0.000000 0.000000 0.000000 0.030221 0.000000
# 6 0.000000 0.000000 0.000000 0.000000 0.000000 0.167252
#
#
# Mechanical properties :
#
#
# Convention : Reuss Voigt Hill
#
# Bulk Modulus (GPa) = 20.53536 42.24658 31.39097
# Shear Modulus (GPa) = 14.81743 26.64095 20.72919
#
# Velocity S-wave (km/s) = 2.70674 3.62940 3.20149
# Velocity P-wave (km/s) = 4.46344 6.20098 5.40252
#
# Compressibility (1/GPa) = 0.04869650
#
# Stress axis : x y z
#
# Youngs Moduli (GPa) = 158.92787 46.35262 28.99909
#
# Poissons Ratio (x) = 0.14194 0.13744
# Poissons Ratio (y) = 0.48667 -0.02827
# Poissons Ratio (z) = 0.75321 -0.04519
#
# Static dielectric constant tensor:
#      x y z
#    x 1.776600 0.000000 0.000000 
#    y 0.000000 1.858710 0.000000 
#    z 0.000000 0.000000 1.691210 
# 
# From -- ./inp_files/19046.got.cif
#   From: 2010.05.17/outbox.cif.g08.bks.cpg/sg53_10_cif.got.tgz:19046.got - 2010.06.03 12:45:16.
