data_PCOD9415769
_publ_section_title
;
Structure prediction by ZEFSAII (Michael W. Deem and Ramdas Pophale) SiO2 
 PCOD9415769
Probable space group: P M N A
;
_chemical_formula_sum "Si O2"
_cell_formula_units_Z 44
_cell_length_a 16.655553
_cell_length_b 15.637221
_cell_length_c 8.391997
_cell_angle_alpha 90.000000
_cell_angle_beta 90.000000
_cell_angle_gamma 90.000000
_cell_volume 2185.666777
_symmetry_space_group_name_H-M "P M N A"
_symmetry_group_IT_number 53
_symmetry_cell_setting 'orthorhombic'
loop_
_space_group_symop_operation_xyz
x,y,z
1/2-x,-y,1/2+z
x,-y,-z
1/2-x,y,1/2-z
-x,-y,-z
1/2+x,y,1/2-z
-x,y,z
1/2+x,-y,1/2+z
loop_
_atom_site_type_symbol
_atom_site_label
_atom_site_fract_x
_atom_site_fract_y
_atom_site_fract_z
Si Si1 0.907763 0.775666 0.040038
Si Si2 0.826256 0.806710 0.356629
Si Si3 0.775122 0.500000 0.000000
Si Si4 0.909567 0.401564 0.132458
Si Si5 0.314886 0.660882 0.893686
Si Si6 0.278081 0.912205 0.567824
O O1 0.896303 0.799508 0.226879
O O2 0.000000 0.791383 0.991865
O O3 0.892090 0.675323 0.994915
O O4 0.842977 0.835785 0.951487
O O5 0.750000 0.780028 0.250000
O O6 0.831611 0.740919 0.498715
O O7 0.796318 0.892363 0.446125
O O8 0.841700 0.524285 0.866972
O O9 0.720117 0.583378 0.999824
O O10 0.896633 0.361321 0.304439
O O11 0.000000 0.430514 0.109904
O O12 0.250000 0.676611 0.750000
O O13 0.250000 0.917923 0.750000
O O14 0.314532 0.000000 0.500000
#
# Coordination Sequence:
#
# PCOD9415769 Si02
#       6
#     8   8   4   8   8   8
#     4  10  22  38  57  83 115 148 180 223 279 331
#     4  10  19  34  56  82 110 142 183 226 270 326
#     4  10  19  32  53  78 104 140 182 226 271 320
#     4  10  21  37  55  77 108 145 183 226 278 328
#     4  10  20  34  55  80 106 141 189 233 271 323
#     4  11  21  37  61  86 112 146 186 227 269 320
#
# _framework density 20.131156000000001
#
# number of rings (size 3 to 8) (size 9 to 14) (size 15 to 20)
#    0.000    1.818    0.000    7.909    0.000    7.636 
#    0.000    1.364    0.000    2.182    0.000    0.000 
#    0.000    0.000    0.000    0.000    0.000    0.000 
#
# Total GULP energy -244950.194056 kJ/mol
# GULP energy per Si atom -5567.049865 kJ/mol
# Density = 2.008534 g / cm^3
# Si number density = 20.131156 Si / 1000 Ang^3
#
#
#
# Elastic Constant Matrix: (Units=GPa)
#
#
# Indices 1 2 3 4 5 6 
#
# 1 72.4217 23.1933 21.0311 0.0000 0.0000 0.0000
# 2 23.1933 61.1933 23.9927 0.0000 0.0000 0.0000
# 3 21.0311 23.9927 95.8893 0.0000 0.0000 0.0000
# 4 0.0000 0.0000 0.0000 27.4933 0.0000 0.0000
# 5 0.0000 0.0000 0.0000 0.0000 16.3665 0.0000
# 6 0.0000 0.0000 0.0000 0.0000 0.0000 2.0150
#
#
#
# Elastic Compliance Matrix: (Units=1/GPa)
#
#
# Indices 1 2 3 4 5 6 
#
# 1 0.016133 -0.005242 -0.002227 0.000000 0.000000 0.000000
# 2 -0.005242 0.019822 -0.003810 0.000000 0.000000 0.000000
# 3 -0.002227 -0.003810 0.011870 0.000000 0.000000 0.000000
# 4 0.000000 0.000000 0.000000 0.036372 0.000000 0.000000
# 5 0.000000 0.000000 0.000000 0.000000 0.061100 0.000000
# 6 0.000000 0.000000 0.000000 0.000000 0.000000 0.496277
#
#
# Mechanical properties :
#
#
# Convention : Reuss Voigt Hill
#
# Bulk Modulus (GPa) = 39.57489 40.65984 40.11736
# Shear Modulus (GPa) = 7.43432 19.92745 13.68089
#
# Velocity S-wave (km/s) = 1.92379 3.14965 2.60972
# Velocity P-wave (km/s) = 4.96345 5.78519 5.39000
#
# Compressibility (1/GPa) = 0.02526855
#
# Stress axis : x y z
#
# Youngs Moduli (GPa) = 61.98329 50.44850 84.24268
#
# Poissons Ratio (x) = 0.26443 0.18761
# Poissons Ratio (y) = 0.32490 0.32097
# Poissons Ratio (z) = 0.13803 0.19221
#
# Static dielectric constant tensor:
#      x y z
#    x 1.746830 0.000000 0.000000 
#    y 0.000000 1.804380 0.000000 
#    z 0.000000 0.000000 1.794230 
# 
# From -- ./inp_files/9832.got.cif
#   From: 2010.05.17/outbox.cif.g08.bks.cpg/sg53_5_cif.got.tgz:9832.got - 2010.06.03 12:45:16.
