data_PCOD9415997
_publ_section_title
;
Structure prediction by ZEFSAII (Michael W. Deem and Ramdas Pophale) SiO2 
 PCOD9415997
Probable space group: P M N A
;
_chemical_formula_sum "Si O2"
_cell_formula_units_Z 48
_cell_length_a 8.539773
_cell_length_b 32.446371
_cell_length_c 9.220545
_cell_angle_alpha 90.000000
_cell_angle_beta 90.000000
_cell_angle_gamma 90.000000
_cell_volume 2554.871420
_symmetry_space_group_name_H-M "P M N A"
_symmetry_group_IT_number 53
_symmetry_cell_setting 'orthorhombic'
loop_
_space_group_symop_operation_xyz
x,y,z
1/2-x,-y,1/2+z
x,-y,-z
1/2-x,y,1/2-z
-x,-y,-z
1/2+x,y,1/2-z
-x,y,z
1/2+x,-y,1/2+z
loop_
_atom_site_type_symbol
_atom_site_label
_atom_site_fract_x
_atom_site_fract_y
_atom_site_fract_z
Si Si1 0.187697 0.201898 0.087121
Si Si2 0.688384 0.719670 0.084792
Si Si3 0.188728 0.370591 0.584991
Si Si4 0.189602 0.540093 0.414163
Si Si5 0.812010 0.879853 0.086473
Si Si6 0.312031 0.958824 0.913632
O O1 0.250000 0.198468 0.250000
O O2 0.000000 0.202458 0.089964
O O3 0.247555 0.243414 0.011531
O O4 0.238605 0.162272 0.993095
O O5 0.750000 0.723591 0.250000
O O6 0.500000 0.721490 0.087977
O O7 0.737607 0.674177 0.026073
O O8 0.250000 0.370875 0.750000
O O9 0.238466 0.415023 0.522098
O O10 0.000000 0.370516 0.586740
O O11 0.245824 0.500000 0.500000
O O12 0.250000 0.537979 0.250000
O O13 0.000000 0.539215 0.412393
O O14 0.750000 0.881022 0.250000
O O15 0.000000 0.880914 0.088926
O O16 0.750763 0.918864 0.996888
O O17 0.250000 0.959902 0.750000
O O18 0.500000 0.957373 0.910994
O O19 0.263306 0.000000 0.000000
#
# Coordination Sequence:
#
# PCOD9415997 Si02
#       6
#     8   8   8   8   8   8
#     4  11  24  40  58  82 112 146 183 224 273 327
#     4  10  19  33  55  80 106 137 176 222 269 320
#     4   8  15  28  47  71  98 130 169 212 258 309
#     4   9  17  30  48  70  98 131 168 211 258 310
#     4  11  24  41  63  89 117 150 189 233 278 327
#     4  11  24  41  63  91 123 158 195 236 281 330
#
# _framework density 18.787638999999999
#
# number of rings (size 3 to 8) (size 9 to 14) (size 15 to 20)
#    0.000    2.000    0.000    3.500    0.000    9.000 
#    0.000    0.833    0.000    2.000    0.000    0.000 
#    0.000    0.000    0.000    0.000    0.000    0.000 
#
# Total GULP energy -267863.862123 kJ/mol
# GULP energy per Si atom -5580.497128 kJ/mol
# Density = 1.874488 g / cm^3
# Si number density = 18.787639 Si / 1000 Ang^3
#
#
#
# Elastic Constant Matrix: (Units=GPa)
#
#
# Indices 1 2 3 4 5 6 
#
# 1 32.5380 43.9864 28.1424 0.0000 0.0000 0.0000
# 2 43.9864 237.5031 102.9794 0.0000 0.0000 0.0000
# 3 28.1424 102.9794 128.7029 0.0000 0.0000 0.0000
# 4 0.0000 0.0000 0.0000 35.1415 0.0000 0.0000
# 5 0.0000 0.0000 0.0000 0.0000 31.7264 0.0000
# 6 0.0000 0.0000 0.0000 0.0000 0.0000 30.2235
#
#
#
# Elastic Compliance Matrix: (Units=1/GPa)
#
#
# Indices 1 2 3 4 5 6 
#
# 1 0.042712 -0.005912 -0.004609 0.000000 0.000000 0.000000
# 2 -0.005912 0.007265 -0.004521 0.000000 0.000000 0.000000
# 3 -0.004609 -0.004521 0.012395 0.000000 0.000000 0.000000
# 4 0.000000 0.000000 0.000000 0.028456 0.000000 0.000000
# 5 0.000000 0.000000 0.000000 0.000000 0.031519 0.000000
# 6 0.000000 0.000000 0.000000 0.000000 0.000000 0.033087
#
#
# Mechanical properties :
#
#
# Convention : Reuss Voigt Hill
#
# Bulk Modulus (GPa) = 30.97065 83.21782 57.09423
# Shear Modulus (GPa) = 25.47371 34.32735 29.90053
#
# Velocity S-wave (km/s) = 3.68622 4.27912 3.99369
# Velocity P-wave (km/s) = 5.88540 8.29486 7.19175
#
# Compressibility (1/GPa) = 0.03228864
#
# Stress axis : x y z
#
# Youngs Moduli (GPa) = 23.41282 137.63707 80.67898
#
# Poissons Ratio (x) = 0.81369 0.37186
# Poissons Ratio (y) = 0.13841 0.36472
# Poissons Ratio (z) = 0.10791 0.62221
#
# Static dielectric constant tensor:
#      x y z
#    x 1.635970 0.000000 0.000000 
#    y 0.000000 1.691350 0.000000 
#    z 0.000000 0.000000 1.613100 
# 
# From -- ./inp_files/6574.got.cif
#   From: 2010.05.17/outbox.cif.g08.bks.cpg/sg53_4_cif.got.tgz:6574.got - 2010.06.03 12:45:16.
