data_PCOD9415756
_publ_section_title
;
Structure prediction by ZEFSAII (Michael W. Deem and Ramdas Pophale) SiO2 
 PCOD9415756
Probable space group: P M N A
;
_chemical_formula_sum "Si O2"
_cell_formula_units_Z 56
_cell_length_a 9.138156
_cell_length_b 21.069168
_cell_length_c 15.492236
_cell_angle_alpha 90.000000
_cell_angle_beta 90.000000
_cell_angle_gamma 90.000000
_cell_volume 2982.772003
_symmetry_space_group_name_H-M "P M N A"
_symmetry_group_IT_number 53
_symmetry_cell_setting 'orthorhombic'
loop_
_space_group_symop_operation_xyz
x,y,z
1/2-x,-y,1/2+z
x,-y,-z
1/2-x,y,1/2-z
-x,-y,-z
1/2+x,y,1/2-z
-x,y,z
1/2+x,-y,1/2+z
loop_
_atom_site_type_symbol
_atom_site_label
_atom_site_fract_x
_atom_site_fract_y
_atom_site_fract_z
Si Si1 0.674890 0.792838 0.520123
Si Si2 0.828582 0.004570 0.896285
Si Si3 0.673409 0.354778 0.475721
Si Si4 0.173971 0.591538 0.164625
Si Si5 0.825529 0.148205 0.839263
Si Si6 0.333434 0.528877 0.902896
Si Si7 0.326007 0.120489 0.161943
O O1 0.500000 0.806065 0.529145
O O2 0.700612 0.719128 0.539861
O O3 0.714726 0.808859 0.421307
O O4 0.763903 0.837823 0.583585
O O5 0.727074 0.951458 0.854694
O O6 0.000000 0.991909 0.875074
O O7 0.791247 0.075172 0.864671
O O8 0.815432 0.000000 0.000000
O O9 0.500000 0.367608 0.464995
O O10 0.708181 0.371066 0.576004
O O11 0.763029 0.402082 0.414702
O O12 0.250000 0.618603 0.250000
O O13 0.236040 0.520555 0.150099
O O14 0.000000 0.590621 0.175487
O O15 0.750000 0.165492 0.750000
O O16 0.000000 0.152396 0.828548
O O17 0.500000 0.531062 0.870565
O O18 0.336460 0.500000 0.000000
O O19 0.250000 0.142818 0.250000
O O20 0.500000 0.124065 0.167739
#
# Coordination Sequence:
#
# PCOD9415756 Si02
#       7
#     8   8   8   8   8   8   8
#     4  10  21  41  61  81 114 157 197 236 287 343
#     4  10  19  37  62  86 114 150 188 236 295 346
#     4   9  19  35  57  79 106 146 187 226 273 333
#     4  10  19  32  52  82 114 145 183 225 273 326
#     4  10  21  36  57  83 115 152 190 233 285 342
#     4   9  17  31  52  77 105 137 173 217 267 316
#     4  12  25  40  61  87 114 148 192 242 295 349
#
# _framework density 18.774481000000002
#
# number of rings (size 3 to 8) (size 9 to 14) (size 15 to 20)
#    0.000    2.000    1.429    2.571    0.000    6.000 
#    0.000    0.714    0.000    3.429    0.000    0.000 
#    0.000    0.000    0.000    0.000    0.000    0.000 
#
# Total GULP energy -312761.036633 kJ/mol
# GULP energy per Si atom -5585.018511 kJ/mol
# Density = 1.873175 g / cm^3
# Si number density = 18.774481 Si / 1000 Ang^3
#
#
#
# Elastic Constant Matrix: (Units=GPa)
#
#
# Indices 1 2 3 4 5 6 
#
# 1 59.1249 25.3293 16.6869 0.0000 0.0000 0.0000
# 2 25.3293 54.2681 -5.7498 0.0000 0.0000 0.0000
# 3 16.6869 -5.7498 49.4139 0.0000 0.0000 0.0000
# 4 0.0000 0.0000 0.0000 5.6144 0.0000 0.0000
# 5 0.0000 0.0000 0.0000 0.0000 31.1436 0.0000
# 6 0.0000 0.0000 0.0000 0.0000 0.0000 -26.3264
#
#
#
# Elastic Compliance Matrix: (Units=1/GPa)
#
#
# Indices 1 2 3 4 5 6 
#
# 1 0.025243 -0.012844 -0.010019 0.000000 0.000000 0.000000
# 2 -0.012844 0.025192 0.007269 0.000000 0.000000 0.000000
# 3 -0.010019 0.007269 0.024466 0.000000 0.000000 0.000000
# 4 0.000000 0.000000 0.000000 0.178114 0.000000 0.000000
# 5 0.000000 0.000000 0.000000 0.000000 0.032109 0.000000
# 6 0.000000 0.000000 0.000000 0.000000 0.000000 -0.037985
#
#
# Mechanical properties :
#
#
# Convention : Reuss Voigt Hill
#
# Bulk Modulus (GPa) = 22.87636 26.14885 24.51261
# Shear Modulus (GPa) = 17.07070 10.52236 13.79653
#
# Velocity S-wave (km/s) = 3.01865 2.36997 2.71376
# Velocity P-wave (km/s) = 4.93568 4.63111 4.78582
#
# Compressibility (1/GPa) = 0.04371324
#
# Stress axis : x y z
#
# Youngs Moduli (GPa) = 39.61443 39.69537 40.87237
#
# Poissons Ratio (x) = 0.50984 0.40950
# Poissons Ratio (y) = 0.50880 -0.29708
# Poissons Ratio (z) = 0.39690 -0.28853
#
# Static dielectric constant tensor:
#      x y z
#    x 1.629110 0.000000 0.000000 
#    y 0.000000 1.632670 0.000000 
#    z 0.000000 0.000000 1.656180 
# 
# From -- ./inp_files/20493.got.cif
#   From: 2010.05.17/outbox.cif.g08.bks.cpg/sg53_11_cif.got.tgz:20493.got - 2010.06.03 12:45:16.
