data_PCOD9415322
_publ_section_title
;
Structure prediction by ZEFSAII (Michael W. Deem and Ramdas Pophale) SiO2 
 PCOD9415322
Probable space group: P M N A
;
_chemical_formula_sum "Si O2"
_cell_formula_units_Z 36
_cell_length_a 13.545190
_cell_length_b 22.936741
_cell_length_c 5.260290
_cell_angle_alpha 90.000000
_cell_angle_beta 90.000000
_cell_angle_gamma 90.000000
_cell_volume 1634.280126
_symmetry_space_group_name_H-M "P M N A"
_symmetry_group_IT_number 53
_symmetry_cell_setting 'orthorhombic'
loop_
_space_group_symop_operation_xyz
x,y,z
1/2-x,-y,1/2+z
x,-y,-z
1/2-x,y,1/2-z
-x,-y,-z
1/2+x,y,1/2-z
-x,y,z
1/2+x,-y,1/2+z
loop_
_atom_site_type_symbol
_atom_site_label
_atom_site_fract_x
_atom_site_fract_y
_atom_site_fract_z
Si Si1 0.319552 0.374424 0.499827
Si Si2 0.180292 0.500000 0.000000
Si Si3 0.817926 0.248414 0.000356
Si Si4 0.614894 0.122127 0.604397
Si Si5 0.120815 0.063364 0.398129
O O1 0.250000 0.374340 0.250000
O O2 0.373574 0.437190 0.500114
O O3 0.372156 0.311436 0.496196
O O4 0.250000 0.374470 0.750000
O O5 0.250000 0.500058 0.750000
O O6 0.750000 0.248780 0.750000
O O7 0.877636 0.188873 0.981320
O O8 0.750000 0.245464 0.250000
O O9 0.500000 0.106863 0.623190
O O10 0.655373 0.080638 0.382525
O O11 0.652678 0.110352 0.888548
O O12 0.000000 0.063615 0.382607
O O13 0.149171 0.000000 0.500000
#
# Coordination Sequence:
#
# PCOD9415322 Si02
#       5
#     8   4   8   8   8
#     4   8  14  23  37  57  81 110 141 174 211 249
#     4   8  12  20  34  54  79 104 137 178 210 238
#     4  10  19  31  46  65  92 122 147 175 219 266
#     4  10  19  31  49  70  89 113 147 183 218 259
#     4   9  17  30  49  70  88 109 144 187 222 254
#
# _framework density 22.028047999999998
#
# number of rings (size 3 to 8) (size 9 to 14) (size 15 to 20)
#    0.000    2.889    0.000    2.000    0.000    2.667 
#    0.000    0.000    0.000   13.333    0.000    0.778 
#    0.000    0.000    0.000   59.778    0.000    2.222 
#
# Total GULP energy -200653.782598 kJ/mol
# GULP energy per Si atom -5573.716183 kJ/mol
# Density = 2.197791 g / cm^3
# Si number density = 22.028048 Si / 1000 Ang^3
#
#
#
# Elastic Constant Matrix: (Units=GPa)
#
#
# Indices 1 2 3 4 5 6 
#
# 1 41.4911 -5.5330 22.5176 0.0000 0.0000 0.0000
# 2 -5.5330 145.2881 25.6617 0.0000 0.0000 0.0000
# 3 22.5176 25.6617 163.5088 0.0000 0.0000 0.0000
# 4 0.0000 0.0000 0.0000 38.6936 0.0000 0.0000
# 5 0.0000 0.0000 0.0000 0.0000 18.4651 0.0000
# 6 0.0000 0.0000 0.0000 0.0000 0.0000 -10.6841
#
#
#
# Elastic Compliance Matrix: (Units=1/GPa)
#
#
# Indices 1 2 3 4 5 6 
#
# 1 0.026449 0.001698 -0.003909 0.000000 0.000000 0.000000
# 2 0.001698 0.007188 -0.001362 0.000000 0.000000 0.000000
# 3 -0.003909 -0.001362 0.006868 0.000000 0.000000 0.000000
# 4 0.000000 0.000000 0.000000 0.025844 0.000000 0.000000
# 5 0.000000 0.000000 0.000000 0.000000 0.054156 0.000000
# 6 0.000000 0.000000 0.000000 0.000000 0.000000 -0.093597
#
#
# Mechanical properties :
#
#
# Convention : Reuss Voigt Hill
#
# Bulk Modulus (GPa) = 29.97683 48.39783 39.18733
# Shear Modulus (GPa) = 110.68206 29.80438 70.24322
#
# Velocity S-wave (km/s) = 7.09613 3.68233 5.65308
# Velocity P-wave (km/s) = 8.98766 6.33231 7.77420
#
# Compressibility (1/GPa) = 0.03335910
#
# Stress axis : x y z
#
# Youngs Moduli (GPa) = 37.80808 139.11923 145.60405
#
# Poissons Ratio (x) = -0.23618 0.56915
# Poissons Ratio (y) = -0.06419 0.19830
# Poissons Ratio (z) = 0.14779 0.18947
#
# Static dielectric constant tensor:
#      x y z
#    x 1.817590 0.000000 0.000000 
#    y 0.000000 1.880650 0.000000 
#    z 0.000000 0.000000 1.783420 
# 
# From -- ./inp_files/1359.got.cif
#   From: 2010.05.17/outbox.cif.g08.bks.cpg/sg53_1_cif.got.tgz:1359.got - 2010.06.03 12:45:16.
