data_PCOD9415196
_publ_section_title
;
Structure prediction by ZEFSAII (Michael W. Deem and Ramdas Pophale) SiO2 
 PCOD9415196
Probable space group: P M N A
;
_chemical_formula_sum "Si O2"
_cell_formula_units_Z 64
_cell_length_a 7.702411
_cell_length_b 20.729368
_cell_length_c 20.438530
_cell_angle_alpha 90.000000
_cell_angle_beta 90.000000
_cell_angle_gamma 90.000000
_cell_volume 3263.340622
_symmetry_space_group_name_H-M "P M N A"
_symmetry_group_IT_number 53
_symmetry_cell_setting 'orthorhombic'
loop_
_space_group_symop_operation_xyz
x,y,z
1/2-x,-y,1/2+z
x,-y,-z
1/2-x,y,1/2-z
-x,-y,-z
1/2+x,y,1/2-z
-x,y,z
1/2+x,-y,1/2+z
loop_
_atom_site_type_symbol
_atom_site_label
_atom_site_fract_x
_atom_site_fract_y
_atom_site_fract_z
Si Si1 0.714227 0.199896 0.057032
Si Si2 0.293165 0.257385 0.674862
Si Si3 0.702098 0.345258 0.048478
Si Si4 0.294289 0.618743 0.401292
Si Si5 0.201533 0.143432 0.579481
Si Si6 0.790680 0.518391 0.573416
Si Si7 0.290600 0.964348 0.176110
Si Si8 0.708184 0.888542 0.823470
O O1 0.500000 0.201469 0.054929
O O2 0.776223 0.274069 0.058824
O O3 0.769353 0.159263 0.120080
O O4 0.774654 0.164983 0.990430
O O5 0.250000 0.245654 0.750000
O O6 0.500000 0.252239 0.666557
O O7 0.237274 0.328780 0.651825
O O8 0.210324 0.204834 0.627255
O O9 0.500000 0.340973 0.067105
O O10 0.774818 0.408865 0.085107
O O11 0.711305 0.362239 0.971131
O O12 0.500000 0.625138 0.410318
O O13 0.257267 0.544163 0.384683
O O14 0.277945 0.083770 0.620502
O O15 0.000000 0.127073 0.567121
O O16 0.729880 0.500000 0.500000
O O17 0.000000 0.521290 0.572025
O O18 0.250000 0.941865 0.250000
O O19 0.500000 0.965270 0.171347
O O20 0.225868 0.037851 0.169111
O O21 0.750000 0.866741 0.750000
O O22 0.500000 0.891655 0.829188
#
# Coordination Sequence:
#
# PCOD9415196 Si02
#       8
#     8   8   8   8   8   8   8   8
#     4   9  17  30  52  76 100 130 163 204 250 294
#     4  11  23  35  48  69  98 135 173 208 248 297
#     4   9  16  29  48  71  97 126 159 195 240 293
#     4  10  19  30  45  68  96 124 159 204 246 284
#     4  10  19  32  51  74  99 130 165 206 253 296
#     4   8  15  26  44  68  92 122 158 192 232 285
#     4   9  18  31  49  72  98 130 168 205 243 289
#     4   9  18  34  53  74  99 128 164 204 246 299
#
# _framework density 19.611805
#
# number of rings (size 3 to 8) (size 9 to 14) (size 15 to 20)
#    0.000    2.625    1.250    1.875    0.000    5.750 
#    0.000    3.750    0.000    0.750    0.000    7.875 
#    0.000    0.000    0.000    0.000    0.000    0.000 
#
# Total GULP energy -356751.347087 kJ/mol
# GULP energy per Si atom -5574.239798 kJ/mol
# Density = 1.956717 g / cm^3
# Si number density = 19.611805 Si / 1000 Ang^3
#
#
#
# Elastic Constant Matrix: (Units=GPa)
#
#
# Indices 1 2 3 4 5 6 
#
# 1 30.2615 3.0367 -7.5540 0.0000 0.0000 0.0000
# 2 3.0367 148.5385 86.7388 0.0000 0.0000 0.0000
# 3 -7.5540 86.7388 109.5744 0.0000 0.0000 0.0000
# 4 0.0000 0.0000 0.0000 20.0670 0.0000 0.0000
# 5 0.0000 0.0000 0.0000 0.0000 14.2121 0.0000
# 6 0.0000 0.0000 0.0000 0.0000 0.0000 4.4180
#
#
#
# Elastic Compliance Matrix: (Units=1/GPa)
#
#
# Indices 1 2 3 4 5 6 
#
# 1 0.034815 -0.003930 0.005511 0.000000 0.000000 0.000000
# 2 -0.003930 0.012963 -0.010532 0.000000 0.000000 0.000000
# 3 0.005511 -0.010532 0.017844 0.000000 0.000000 0.000000
# 4 0.000000 0.000000 0.000000 0.049833 0.000000 0.000000
# 5 0.000000 0.000000 0.000000 0.000000 0.070363 0.000000
# 6 0.000000 0.000000 0.000000 0.000000 0.000000 0.226346
#
#
# Mechanical properties :
#
#
# Convention : Reuss Voigt Hill
#
# Bulk Modulus (GPa) = 20.95585 50.31304 35.63445
# Shear Modulus (GPa) = 11.21144 21.48295 16.34719
#
# Velocity S-wave (km/s) = 2.39355 3.31329 2.89024
# Velocity P-wave (km/s) = 4.28338 6.35195 5.41732
#
# Compressibility (1/GPa) = 0.04771937
#
# Stress axis : x y z
#
# Youngs Moduli (GPa) = 28.72298 77.14277 56.04263
#
# Poissons Ratio (x) = 0.30317 -0.30885
# Poissons Ratio (y) = 0.11288 0.59026
# Poissons Ratio (z) = -0.15829 0.81250
#
# Static dielectric constant tensor:
#      x y z
#    x 1.747560 0.000000 0.000000 
#    y 0.000000 1.737990 0.000000 
#    z 0.000000 0.000000 1.649140 
# 
# From -- ./inp_files/27046.got.cif
#   From: 2010.05.17/outbox.cif.g08.bks.cpg/sg53_14_cif.got.tgz:27046.got - 2010.06.03 12:45:16.
