data_PCOD9415329
_publ_section_title
;
Structure prediction by ZEFSAII (Michael W. Deem and Ramdas Pophale) SiO2 
 PCOD9415329
Probable space group: P M N A
;
_chemical_formula_sum "Si O2"
_cell_formula_units_Z 64
_cell_length_a 8.524852
_cell_length_b 32.916155
_cell_length_c 14.356531
_cell_angle_alpha 90.000000
_cell_angle_beta 90.000000
_cell_angle_gamma 90.000000
_cell_volume 4028.519403
_symmetry_space_group_name_H-M "P M N A"
_symmetry_group_IT_number 53
_symmetry_cell_setting 'orthorhombic'
loop_
_space_group_symop_operation_xyz
x,y,z
1/2-x,-y,1/2+z
x,-y,-z
1/2-x,y,1/2-z
-x,-y,-z
1/2+x,y,1/2-z
-x,y,z
1/2+x,-y,1/2+z
loop_
_atom_site_type_symbol
_atom_site_label
_atom_site_fract_x
_atom_site_fract_y
_atom_site_fract_z
Si Si1 0.191100 0.937669 0.539698
Si Si2 0.690197 0.142753 0.143853
Si Si3 0.812082 0.603523 0.972291
Si Si4 0.186250 0.437071 0.645843
Si Si5 0.188929 0.768420 0.644309
Si Si6 0.311338 0.320792 0.143835
Si Si7 0.810777 0.980759 0.353508
Si Si8 0.688290 0.475215 0.354812
O O1 0.244764 0.894753 0.580687
O O2 0.240261 0.949425 0.434769
O O3 0.000000 0.937347 0.538974
O O4 0.237659 0.974698 0.608020
O O5 0.750000 0.138254 0.250000
O O6 0.500000 0.141747 0.146798
O O7 0.738859 0.187476 0.106270
O O8 0.752900 0.643358 0.919892
O O9 0.760881 0.563491 0.914491
O O10 0.000000 0.603784 0.975229
O O11 0.745348 0.597031 0.075194
O O12 0.250000 0.431073 0.750000
O O13 0.249807 0.481067 0.612474
O O14 0.000000 0.438591 0.648226
O O15 0.250000 0.768605 0.750000
O O16 0.237868 0.724183 0.607065
O O17 0.000000 0.768347 0.644491
O O18 0.250000 0.325269 0.250000
O O19 0.500000 0.322712 0.146259
O O20 0.750000 0.973094 0.250000
O O21 0.000000 0.980262 0.350977
O O22 0.750000 0.469877 0.250000
O O23 0.500000 0.476930 0.354591
#
# Coordination Sequence:
#
# PCOD9415329 Si02
#       8
#     8   8   8   8   8   8   8   8
#     4   8  15  26  40  57  81 112 144 175 215 263
#     4   9  15  25  41  61  84 112 143 176 213 255
#     4  11  22  34  49  70  94 121 153 186 220 260
#     4  11  22  36  53  70  91 119 151 187 224 261
#     4   8  15  26  41  61  86 113 142 174 212 259
#     4  10  19  31  46  67  94 121 147 178 218 266
#     4   9  16  27  40  56  80 112 145 178 215 256
#     4  10  20  33  49  69  95 123 151 183 217 256
#
# _framework density 15.88673
#
# number of rings (size 3 to 8) (size 9 to 14) (size 15 to 20)
#    0.000    2.500    0.000    4.875    0.000    5.000 
#    0.000    1.875    0.000    0.000    0.000    0.875 
#    0.000    2.000    0.000    0.000    0.000    0.000 
#
# Total GULP energy -356655.708360 kJ/mol
# GULP energy per Si atom -5572.745443 kJ/mol
# Density = 1.585057 g / cm^3
# Si number density = 15.886730 Si / 1000 Ang^3
#
#
#
# Elastic Constant Matrix: (Units=GPa)
#
#
# Indices 1 2 3 4 5 6 
#
# 1 30.8837 27.9616 17.7509 0.0000 0.0000 0.0000
# 2 27.9616 150.8617 76.8634 0.0000 0.0000 0.0000
# 3 17.7509 76.8634 92.1825 0.0000 0.0000 0.0000
# 4 0.0000 0.0000 0.0000 23.1748 0.0000 0.0000
# 5 0.0000 0.0000 0.0000 0.0000 20.0697 0.0000
# 6 0.0000 0.0000 0.0000 0.0000 0.0000 14.0301
#
#
#
# Elastic Compliance Matrix: (Units=1/GPa)
#
#
# Indices 1 2 3 4 5 6 
#
# 1 0.039263 -0.005955 -0.002595 0.000000 0.000000 0.000000
# 2 -0.005955 0.012428 -0.009216 0.000000 0.000000 0.000000
# 3 -0.002595 -0.009216 0.019032 0.000000 0.000000 0.000000
# 4 0.000000 0.000000 0.000000 0.043150 0.000000 0.000000
# 5 0.000000 0.000000 0.000000 0.000000 0.049826 0.000000
# 6 0.000000 0.000000 0.000000 0.000000 0.000000 0.071275
#
#
# Mechanical properties :
#
#
# Convention : Reuss Voigt Hill
#
# Bulk Modulus (GPa) = 28.41663 57.67552 43.04608
# Shear Modulus (GPa) = 17.71565 21.54506 19.63035
#
# Velocity S-wave (km/s) = 3.34297 3.68661 3.51899
# Velocity P-wave (km/s) = 5.72944 7.38272 6.60799
#
# Compressibility (1/GPa) = 0.03519066
#
# Stress axis : x y z
#
# Youngs Moduli (GPa) = 25.46951 80.46548 52.54297
#
# Poissons Ratio (x) = 0.47917 0.13636
# Poissons Ratio (y) = 0.15167 0.48422
# Poissons Ratio (z) = 0.06610 0.74155
#
# Static dielectric constant tensor:
#      x y z
#    x 1.537250 0.000000 0.000000 
#    y 0.000000 1.562910 0.000000 
#    z 0.000000 0.000000 1.511500 
# 
# From -- ./inp_files/21070.got.cif
#   From: 2010.05.17/outbox.cif.g08.bks.cpg/sg53_11_cif.got.tgz:21070.got - 2010.06.03 12:45:16.
