data_PCOD9415214
_publ_section_title
;
Structure prediction by ZEFSAII (Michael W. Deem and Ramdas Pophale) SiO2 
 PCOD9415214
Probable space group: P M N A
;
_chemical_formula_sum "Si O2"
_cell_formula_units_Z 48
_cell_length_a 18.212200
_cell_length_b 16.448583
_cell_length_c 7.234120
_cell_angle_alpha 90.000000
_cell_angle_beta 90.000000
_cell_angle_gamma 90.000000
_cell_volume 2167.088314
_symmetry_space_group_name_H-M "P M N A"
_symmetry_group_IT_number 53
_symmetry_cell_setting 'orthorhombic'
loop_
_space_group_symop_operation_xyz
x,y,z
1/2-x,-y,1/2+z
x,-y,-z
1/2-x,y,1/2-z
-x,-y,-z
1/2+x,y,1/2-z
-x,y,z
1/2+x,-y,1/2+z
loop_
_atom_site_type_symbol
_atom_site_label
_atom_site_fract_x
_atom_site_fract_y
_atom_site_fract_z
Si Si1 0.837382 0.827391 0.273056
Si Si2 0.163337 0.007285 0.279523
Si Si3 0.584586 0.663653 0.237837
Si Si4 0.335846 0.501236 0.219431
Si Si5 0.587481 0.164690 0.174699
Si Si6 0.916256 0.342588 0.286691
O O1 0.750000 0.818820 0.250000
O O2 0.875441 0.745931 0.199332
O O3 0.864753 0.830625 0.486452
O O4 0.855283 0.918230 0.199195
O O5 0.250000 0.022801 0.250000
O O6 0.115117 0.084313 0.222107
O O7 0.151708 0.000000 0.500000
O O8 0.500000 0.665942 0.292744
O O9 0.621993 0.579457 0.296600
O O10 0.587118 0.662435 0.011844
O O11 0.250000 0.510977 0.250000
O O12 0.363650 0.413226 0.283349
O O13 0.350116 0.500000 0.000000
O O14 0.500000 0.159678 0.132201
O O15 0.599736 0.250691 0.275088
O O16 0.000000 0.364316 0.240422
#
# Coordination Sequence:
#
# PCOD9415214 Si02
#       6
#     8   8   8   8   8   8
#     4   9  16  26  41  66  97 121 146 189 236 274
#     4   9  18  30  46  69  96 125 155 193 237 280
#     4   9  16  27  45  66  89 118 152 189 226 267
#     4  10  19  30  46  69  92 116 148 186 226 271
#     4   9  17  29  47  70  93 119 158 202 234 271
#     4   8  15  28  45  66  89 114 149 191 228 262
#
# _framework density 22.149536000000001
#
# number of rings (size 3 to 8) (size 9 to 14) (size 15 to 20)
#    0.000    3.000    0.000    2.500    0.000    6.333 
#    0.000    0.000    0.000    2.500    0.000   14.000 
#    0.000    0.000    0.000    0.000    0.000    0.000 
#
# Total GULP energy -267796.334419 kJ/mol
# GULP energy per Si atom -5579.090300 kJ/mol
# Density = 2.209912 g / cm^3
# Si number density = 22.149536 Si / 1000 Ang^3
#
#
#
# Elastic Constant Matrix: (Units=GPa)
#
#
# Indices 1 2 3 4 5 6 
#
# 1 138.2481 136.4038 13.5206 0.0000 0.0000 0.0000
# 2 136.4038 238.5243 1.1640 0.0000 0.0000 0.0000
# 3 13.5206 1.1640 89.6932 0.0000 0.0000 0.0000
# 4 0.0000 0.0000 0.0000 -17.6164 0.0000 0.0000
# 5 0.0000 0.0000 0.0000 0.0000 -81.1836 0.0000
# 6 0.0000 0.0000 0.0000 0.0000 0.0000 52.7333
#
#
#
# Elastic Compliance Matrix: (Units=1/GPa)
#
#
# Indices 1 2 3 4 5 6 
#
# 1 0.017123 -0.009780 -0.002454 0.000000 0.000000 0.000000
# 2 -0.009780 0.009779 0.001347 0.000000 0.000000 0.000000
# 3 -0.002454 0.001347 0.011502 0.000000 0.000000 0.000000
# 4 0.000000 0.000000 0.000000 -0.056765 0.000000 0.000000
# 5 0.000000 0.000000 0.000000 0.000000 -0.012318 0.000000
# 6 0.000000 0.000000 0.000000 0.000000 0.000000 0.018963
#
#
# Mechanical properties :
#
#
# Convention : Reuss Voigt Hill
#
# Bulk Modulus (GPa) = 60.13429 85.40472 72.76951
# Shear Modulus (GPa) = 320.50026 11.81180 166.15603
#
# Velocity S-wave (km/s) = 12.04212 2.31178 8.67055
# Velocity P-wave (km/s) = 14.85120 6.76518 11.53963
#
# Compressibility (1/GPa) = 0.01662945
#
# Stress axis : x y z
#
# Youngs Moduli (GPa) = 58.40099 102.26250 86.94451
#
# Poissons Ratio (x) = 1.00013 0.21338
# Poissons Ratio (y) = 0.57117 -0.11715
# Poissons Ratio (z) = 0.14333 -0.13779
#
# Static dielectric constant tensor:
#      x y z
#    x 1.504520 0.000000 0.000000 
#    y 0.000000 1.856180 0.000000 
#    z 0.000000 0.000000 1.840810 
# 
# From -- ./inp_files/16133.got.cif
#   From: 2010.05.17/outbox.cif.g08.bks.cpg/sg53_9_cif.got.tgz:16133.got - 2010.06.03 12:45:16.
