data_PCOD9415475
_publ_section_title
;
Structure prediction by ZEFSAII (Michael W. Deem and Ramdas Pophale) SiO2 
 PCOD9415475
Probable space group: P M N A
;
_chemical_formula_sum "Si O2"
_cell_formula_units_Z 40
_cell_length_a 8.564709
_cell_length_b 11.960579
_cell_length_c 22.218206
_cell_angle_alpha 90.000000
_cell_angle_beta 90.000000
_cell_angle_gamma 90.000000
_cell_volume 2276.008107
_symmetry_space_group_name_H-M "P M N A"
_symmetry_group_IT_number 53
_symmetry_cell_setting 'orthorhombic'
loop_
_space_group_symop_operation_xyz
x,y,z
1/2-x,-y,1/2+z
x,-y,-z
1/2-x,y,1/2-z
-x,-y,-z
1/2+x,y,1/2-z
-x,y,z
1/2+x,-y,1/2+z
loop_
_atom_site_type_symbol
_atom_site_label
_atom_site_fract_x
_atom_site_fract_y
_atom_site_fract_z
Si Si1 0.315824 0.823199 0.989101
Si Si2 0.312546 0.414142 0.446295
Si Si3 0.812808 0.637075 0.681258
Si Si4 0.313618 0.895832 0.816362
Si Si5 0.817026 0.035308 0.916888
O O1 0.500000 0.827988 0.977187
O O2 0.248644 0.705288 0.969713
O O3 0.231830 0.923031 0.953119
O O4 0.277937 0.859860 0.057274
O O5 0.266406 0.500000 0.500000
O O6 0.500000 0.414007 0.442595
O O7 0.249146 0.430306 0.377557
O O8 0.750000 0.614387 0.750000
O O9 0.773702 0.767393 0.665523
O O10 0.000000 0.627202 0.683831
O O11 0.250000 0.902573 0.750000
O O12 0.500000 0.906202 0.821294
O O13 0.231730 0.995651 0.851539
O O14 0.000000 0.056060 0.923264
#
# Coordination Sequence:
#
# PCOD9415475 Si02
#       5
#     8   8   8   8   8
#     4  11  21  34  52  76 106 140 178 219 266 321
#     4  11  23  38  57  82 113 147 187 234 281 332
#     4  10  20  34  55  80 111 145 181 228 278 332
#     4  10  19  31  49  77 109 143 178 220 269 324
#     4  11  20  32  52  76 107 142 174 216 265 321
#
# _framework density 17.574629000000002
#
# number of rings (size 3 to 8) (size 9 to 14) (size 15 to 20)
#    0.000    1.400    2.000    6.600    0.000    3.200 
#    0.000    0.000    0.000    1.200    0.000    2.800 
#    0.000    0.000    0.000    0.000    0.000    0.000 
#
# Total GULP energy -222903.194398 kJ/mol
# GULP energy per Si atom -5572.579860 kJ/mol
# Density = 1.753463 g / cm^3
# Si number density = 17.574629 Si / 1000 Ang^3
#
#
#
# Elastic Constant Matrix: (Units=GPa)
#
#
# Indices 1 2 3 4 5 6 
#
# 1 58.5990 13.9437 29.2243 0.0000 0.0000 0.0000
# 2 13.9437 49.1020 42.5013 0.0000 0.0000 0.0000
# 3 29.2243 42.5013 119.3225 0.0000 0.0000 0.0000
# 4 0.0000 0.0000 0.0000 31.7928 0.0000 0.0000
# 5 0.0000 0.0000 0.0000 0.0000 30.2886 0.0000
# 6 0.0000 0.0000 0.0000 0.0000 0.0000 22.6987
#
#
#
# Elastic Compliance Matrix: (Units=1/GPa)
#
#
# Indices 1 2 3 4 5 6 
#
# 1 0.019580 -0.002038 -0.004070 0.000000 0.000000 0.000000
# 2 -0.002038 0.029655 -0.010064 0.000000 0.000000 0.000000
# 3 -0.004070 -0.010064 0.012962 0.000000 0.000000 0.000000
# 4 0.000000 0.000000 0.000000 0.031454 0.000000 0.000000
# 5 0.000000 0.000000 0.000000 0.000000 0.033016 0.000000
# 6 0.000000 0.000000 0.000000 0.000000 0.000000 0.044055
#
#
# Mechanical properties :
#
#
# Convention : Reuss Voigt Hill
#
# Bulk Modulus (GPa) = 33.49536 44.26246 38.87891
# Shear Modulus (GPa) = 23.47248 26.37963 24.92606
#
# Velocity S-wave (km/s) = 3.65854 3.87849 3.77011
# Velocity P-wave (km/s) = 6.07839 6.73030 6.41264
#
# Compressibility (1/GPa) = 0.02985488
#
# Stress axis : x y z
#
# Youngs Moduli (GPa) = 51.07360 33.72071 77.14845
#
# Poissons Ratio (x) = 0.06871 0.31397
# Poissons Ratio (y) = 0.10406 0.77641
# Poissons Ratio (z) = 0.20785 0.33936
#
# Static dielectric constant tensor:
#      x y z
#    x 1.593130 0.000000 0.000000 
#    y 0.000000 1.588070 0.000000 
#    z 0.000000 0.000000 1.709880 
# 
# From -- ./inp_files/30353.got.cif
#   From: 2010.05.17/outbox.cif.g08.bks.cpg/sg53_16_cif.got.tgz:30353.got - 2010.06.03 12:45:16.
