data_PCOD9415232
_publ_section_title
;
Structure prediction by ZEFSAII (Michael W. Deem and Ramdas Pophale) SiO2 
 PCOD9415232
Probable space group: P M N A
;
_chemical_formula_sum "Si O2"
_cell_formula_units_Z 64
_cell_length_a 8.275675
_cell_length_b 18.969541
_cell_length_c 23.959091
_cell_angle_alpha 90.000000
_cell_angle_beta 90.000000
_cell_angle_gamma 90.000000
_cell_volume 3761.236019
_symmetry_space_group_name_H-M "P M N A"
_symmetry_group_IT_number 53
_symmetry_cell_setting 'orthorhombic'
loop_
_space_group_symop_operation_xyz
x,y,z
1/2-x,-y,1/2+z
x,-y,-z
1/2-x,y,1/2-z
-x,-y,-z
1/2+x,y,1/2-z
-x,y,z
1/2+x,-y,1/2+z
loop_
_atom_site_type_symbol
_atom_site_label
_atom_site_fract_x
_atom_site_fract_y
_atom_site_fract_z
Si Si1 0.804873 0.581909 0.685497
Si Si2 0.192958 0.867776 0.611804
Si Si3 0.804735 0.430526 0.685444
Si Si4 0.305353 0.081106 0.505537
Si Si5 0.306603 0.723623 0.185797
Si Si6 0.193658 0.996947 0.812707
Si Si7 0.305006 0.137020 0.625074
Si Si8 0.695732 0.736691 0.814301
O O1 0.750000 0.581418 0.750000
O O2 0.749273 0.506256 0.661006
O O3 0.750788 0.658852 0.664693
O O4 0.000000 0.581871 0.683492
O O5 0.258265 0.876207 0.549454
O O6 0.241602 0.937146 0.646207
O O7 0.253422 0.799654 0.646083
O O8 0.000000 0.863622 0.609206
O O9 0.750000 0.430967 0.750000
O O10 0.749740 0.353793 0.664343
O O11 0.000000 0.430718 0.683451
O O12 0.500000 0.077723 0.508343
O O13 0.248005 0.116832 0.562890
O O14 0.246666 0.000000 0.500000
O O15 0.250000 0.732625 0.250000
O O16 0.500000 0.723361 0.186512
O O17 0.249474 0.788087 0.148237
O O18 0.250000 0.983806 0.750000
O O19 0.000000 0.995059 0.814888
O O20 0.248570 0.073729 0.834052
O O21 0.500000 0.136609 0.624589
O O22 0.750000 0.746322 0.750000
O O23 0.500000 0.737798 0.813968
#
# Coordination Sequence:
#
# PCOD9415232 Si02
#       8
#     8   8   8   8   8   8   8   8
#     4   8  13  24  41  61  90 126 158 187 222 268
#     4  11  22  34  50  74  98 124 158 197 242 285
#     4   8  14  24  40  63  91 125 158 187 223 270
#     4  10  20  39  58  71  88 118 159 204 246 287
#     4  10  19  30  46  71 102 129 157 193 234 281
#     4  11  22  36  51  70  96 127 160 194 233 285
#     4  10  21  36  53  70  91 121 158 197 241 285
#     4   9  18  30  45  69 100 129 158 192 231 278
#
# _framework density 17.015682999999999
#
# number of rings (size 3 to 8) (size 9 to 14) (size 15 to 20)
#    0.000    2.375    1.250    1.875    0.000    5.250 
#    0.000    0.000    0.000    0.000    0.000    0.875 
#    0.000    7.000    0.000    0.000    0.000    0.000 
#
# Total GULP energy -356550.035050 kJ/mol
# GULP energy per Si atom -5571.094298 kJ/mol
# Density = 1.697695 g / cm^3
# Si number density = 17.015683 Si / 1000 Ang^3
#
#
#
# Elastic Constant Matrix: (Units=GPa)
#
#
# Indices 1 2 3 4 5 6 
#
# 1 9.3741 9.7192 5.4650 0.0000 0.0000 0.0000
# 2 9.7192 140.5898 22.5469 0.0000 0.0000 0.0000
# 3 5.4650 22.5469 57.5831 0.0000 0.0000 0.0000
# 4 0.0000 0.0000 0.0000 4.6958 0.0000 0.0000
# 5 0.0000 0.0000 0.0000 0.0000 21.4197 0.0000
# 6 0.0000 0.0000 0.0000 0.0000 0.0000 5.5574
#
#
#
# Elastic Compliance Matrix: (Units=1/GPa)
#
#
# Indices 1 2 3 4 5 6 
#
# 1 0.118773 -0.006832 -0.008597 0.000000 0.000000 0.000000
# 2 -0.006832 0.007982 -0.002477 0.000000 0.000000 0.000000
# 3 -0.008597 -0.002477 0.019152 0.000000 0.000000 0.000000
# 4 0.000000 0.000000 0.000000 0.212958 0.000000 0.000000
# 5 0.000000 0.000000 0.000000 0.000000 0.046686 0.000000
# 6 0.000000 0.000000 0.000000 0.000000 0.000000 0.179939
#
#
# Mechanical properties :
#
#
# Convention : Reuss Voigt Hill
#
# Bulk Modulus (GPa) = 9.08309 31.44546 20.26427
# Shear Modulus (GPa) = 7.59876 17.65565 12.62721
#
# Velocity S-wave (km/s) = 2.11552 3.22469 2.72709
# Velocity P-wave (km/s) = 3.36406 5.69080 4.67451
#
# Compressibility (1/GPa) = 0.11009470
#
# Stress axis : x y z
#
# Youngs Moduli (GPa) = 8.41942 125.27431 52.21375
#
# Poissons Ratio (x) = 0.85590 0.44888
# Poissons Ratio (y) = 0.05752 0.12934
# Poissons Ratio (z) = 0.07238 0.31032
#
# Static dielectric constant tensor:
#      x y z
#    x 1.593380 0.000000 0.000000 
#    y 0.000000 1.638220 0.000000 
#    z 0.000000 0.000000 1.541270 
# 
# From -- ./inp_files/34428.got.cif
#   From: 2010.05.17/outbox.cif.g08.bks.cpg/sg53_18_cif.got.tgz:34428.got - 2010.06.03 12:45:16.
