data_PCOD9415246
_publ_section_title
;
Structure prediction by ZEFSAII (Michael W. Deem and Ramdas Pophale) SiO2 
 PCOD9415246
Probable space group: P M N A
;
_chemical_formula_sum "Si O2"
_cell_formula_units_Z 56
_cell_length_a 7.373780
_cell_length_b 18.784502
_cell_length_c 19.445954
_cell_angle_alpha 90.000000
_cell_angle_beta 90.000000
_cell_angle_gamma 90.000000
_cell_volume 2693.513249
_symmetry_space_group_name_H-M "P M N A"
_symmetry_group_IT_number 53
_symmetry_cell_setting 'orthorhombic'
loop_
_space_group_symop_operation_xyz
x,y,z
1/2-x,-y,1/2+z
x,-y,-z
1/2-x,y,1/2-z
-x,-y,-z
1/2+x,y,1/2-z
-x,y,z
1/2+x,-y,1/2+z
loop_
_atom_site_type_symbol
_atom_site_label
_atom_site_fract_x
_atom_site_fract_y
_atom_site_fract_z
Si Si1 0.716241 0.525472 0.831977
Si Si2 0.721125 0.965197 0.927245
Si Si3 0.217076 0.680761 0.668575
Si Si4 0.778213 0.769537 0.410738
Si Si5 0.778493 0.802619 0.566347
Si Si6 0.716168 0.090047 0.830688
Si Si7 0.717129 0.629662 0.168266
O O1 0.750000 0.525409 0.750000
O O2 0.500000 0.525404 0.843997
O O3 0.786317 0.602689 0.855132
O O4 0.786557 0.448269 0.855200
O O5 0.500000 0.963415 0.926763
O O6 0.781283 0.883725 0.921310
O O7 0.783148 0.018376 0.867430
O O8 0.773681 0.000000 0.000000
O O9 0.250000 0.689547 0.750000
O O10 0.284129 0.746393 0.623351
O O11 0.000000 0.678740 0.660172
O O12 0.725267 0.777952 0.489996
O O13 0.716584 0.838765 0.368285
O O14 0.715588 0.697078 0.374459
O O15 0.000000 0.769028 0.409155
O O16 0.000000 0.803473 0.567609
O O17 0.750000 0.091654 0.750000
O O18 0.500000 0.090291 0.840970
O O19 0.750000 0.638630 0.250000
O O20 0.500000 0.627931 0.160003
#
# Coordination Sequence:
#
# PCOD9415246 Si02
#       7
#     8   8   8   8   8   8   8
#     4   8  14  25  40  60  85 113 143 174 214 259
#     4   9  15  27  46  66  86 113 150 183 209 251
#     4   9  17  29  46  66  88 113 144 183 221 257
#     4   9  16  27  43  65  90 115 145 180 215 255
#     4   9  16  27  45  67  88 113 147 182 216 256
#     4  10  19  30  47  70  92 114 144 183 221 256
#     4   9  16  26  42  63  87 115 146 179 214 255
#
# _framework density 20.790689
#
# number of rings (size 3 to 8) (size 9 to 14) (size 15 to 20)
#    0.000    3.000    1.429    0.429    0.000    0.571 
#    0.000    0.714    0.000    6.429    0.000    0.000 
#    0.000   11.429    0.000    0.000    0.000    0.000 
#
# Total GULP energy -312355.333012 kJ/mol
# GULP energy per Si atom -5577.773804 kJ/mol
# Density = 2.074337 g / cm^3
# Si number density = 20.790689 Si / 1000 Ang^3
#
#
#
# Elastic Constant Matrix: (Units=GPa)
#
#
# Indices 1 2 3 4 5 6 
#
# 1 75.9449 12.4350 -1.5366 0.0000 0.0000 0.0000
# 2 12.4350 280.2197 121.1209 0.0000 0.0000 0.0000
# 3 -1.5366 121.1209 126.7002 0.0000 0.0000 0.0000
# 4 0.0000 0.0000 0.0000 26.1008 0.0000 0.0000
# 5 0.0000 0.0000 0.0000 0.0000 11.8378 0.0000
# 6 0.0000 0.0000 0.0000 0.0000 0.0000 -8.5049
#
#
#
# Elastic Compliance Matrix: (Units=1/GPa)
#
#
# Indices 1 2 3 4 5 6 
#
# 1 0.013378 -0.001131 0.001244 0.000000 0.000000 0.000000
# 2 -0.001131 0.006177 -0.005919 0.000000 0.000000 0.000000
# 3 0.001244 -0.005919 0.013566 0.000000 0.000000 0.000000
# 4 0.000000 0.000000 0.000000 0.038313 0.000000 0.000000
# 5 0.000000 0.000000 0.000000 0.000000 0.084475 0.000000
# 6 0.000000 0.000000 0.000000 0.000000 0.000000 -0.117579
#
#
# Mechanical properties :
#
#
# Convention : Reuss Voigt Hill
#
# Bulk Modulus (GPa) = 46.49420 82.98927 64.74173
# Shear Modulus (GPa) = 87.54776 29.27645 58.41211
#
# Velocity S-wave (km/s) = 6.49619 3.75661 5.30625
# Velocity P-wave (km/s) = 8.87011 7.66938 8.29151
#
# Compressibility (1/GPa) = 0.02150806
#
# Stress axis : x y z
#
# Youngs Moduli (GPa) = 74.75062 161.88624 73.71388
#
# Poissons Ratio (x) = 0.18312 -0.09167
# Poissons Ratio (y) = 0.08456 0.43630
# Poissons Ratio (z) = -0.09296 0.95819
#
# Static dielectric constant tensor:
#      x y z
#    x 1.779780 0.000000 0.000000 
#    y 0.000000 1.767030 0.000000 
#    z 0.000000 0.000000 1.688880 
# 
# From -- ./inp_files/26666.got.cif
#   From: 2010.05.17/outbox.cif.g08.bks.cpg/sg53_14_cif.got.tgz:26666.got - 2010.06.03 12:45:16.
