data_PCOD9415273
_publ_section_title
;
Structure prediction by ZEFSAII (Michael W. Deem and Ramdas Pophale) SiO2 
 PCOD9415273
Probable space group: P M N A
;
_chemical_formula_sum "Si O2"
_cell_formula_units_Z 40
_cell_length_a 7.360275
_cell_length_b 13.073621
_cell_length_c 19.196017
_cell_angle_alpha 90.000000
_cell_angle_beta 90.000000
_cell_angle_gamma 90.000000
_cell_volume 1847.145294
_symmetry_space_group_name_H-M "P M N A"
_symmetry_group_IT_number 53
_symmetry_cell_setting 'orthorhombic'
loop_
_space_group_symop_operation_xyz
x,y,z
1/2-x,-y,1/2+z
x,-y,-z
1/2-x,y,1/2-z
-x,-y,-z
1/2+x,y,1/2-z
-x,y,z
1/2+x,-y,1/2+z
loop_
_atom_site_type_symbol
_atom_site_label
_atom_site_fract_x
_atom_site_fract_y
_atom_site_fract_z
Si Si1 0.721770 0.213544 0.068786
Si Si2 0.216841 0.034264 0.332218
Si Si3 0.277904 0.831330 0.088475
Si Si4 0.716467 0.371503 0.831694
Si Si5 0.221455 0.552433 0.572929
O O1 0.500000 0.215325 0.069546
O O2 0.783588 0.135760 0.128489
O O3 0.782372 0.330560 0.078030
O O4 0.775076 0.173196 0.992343
O O5 0.250000 0.033208 0.250000
O O6 0.000000 0.033585 0.341416
O O7 0.284357 0.931933 0.370597
O O8 0.500000 0.831528 0.089620
O O9 0.216036 0.728476 0.127539
O O10 0.750000 0.364528 0.750000
O O11 0.500000 0.371535 0.842165
O O12 0.783162 0.476766 0.865917
O O13 0.273926 0.500000 0.500000
O O14 0.000000 0.555591 0.573275
#
# Coordination Sequence:
#
# PCOD9415273 Si02
#       5
#     8   8   8   8   8
#     4   9  16  28  49  73  93 119 162 205 234 268
#     4  10  20  32  48  71  99 127 155 193 240 284
#     4   9  16  29  49  72  94 120 160 204 235 268
#     4  10  19  30  48  73  98 124 155 194 240 283
#     4   9  15  27  47  71  95 120 155 199 236 269
#
# _framework density 21.655035999999999
#
# number of rings (size 3 to 8) (size 9 to 14) (size 15 to 20)
#    0.000    2.600    2.000    1.200    0.000    3.200 
#    0.000    0.000    0.000    4.200    0.000    0.000 
#    0.000    0.000    0.000    0.000    0.000    0.000 
#
# Total GULP energy -223496.075113 kJ/mol
# GULP energy per Si atom -5587.401878 kJ/mol
# Density = 2.160575 g / cm^3
# Si number density = 21.655036 Si / 1000 Ang^3
#
#
#
# Elastic Constant Matrix: (Units=GPa)
#
#
# Indices 1 2 3 4 5 6 
#
# 1 78.1150 11.6051 0.3533 0.0000 0.0000 0.0000
# 2 11.6051 226.9510 100.2842 0.0000 0.0000 0.0000
# 3 0.3533 100.2842 105.3358 0.0000 0.0000 0.0000
# 4 0.0000 0.0000 0.0000 35.7240 0.0000 0.0000
# 5 0.0000 0.0000 0.0000 0.0000 18.0156 0.0000
# 6 0.0000 0.0000 0.0000 0.0000 0.0000 -15.4950
#
#
#
# Elastic Compliance Matrix: (Units=1/GPa)
#
#
# Indices 1 2 3 4 5 6 
#
# 1 0.012962 -0.001111 0.001014 0.000000 0.000000 0.000000
# 2 -0.001111 0.007701 -0.007328 0.000000 0.000000 0.000000
# 3 0.001014 -0.007328 0.016467 0.000000 0.000000 0.000000
# 4 0.000000 0.000000 0.000000 0.027992 0.000000 0.000000
# 5 0.000000 0.000000 0.000000 0.000000 0.055507 0.000000
# 6 0.000000 0.000000 0.000000 0.000000 0.000000 -0.064537
#
#
# Mechanical properties :
#
#
# Convention : Reuss Voigt Hill
#
# Bulk Modulus (GPa) = 44.88276 70.54299 57.71288
# Shear Modulus (GPa) = 63.80055 27.52621 45.66338
#
# Velocity S-wave (km/s) = 5.43380 3.56915 4.59701
# Velocity P-wave (km/s) = 7.75497 7.04497 7.40848
#
# Compressibility (1/GPa) = 0.02228027
#
# Stress axis : x y z
#
# Youngs Moduli (GPa) = 77.14798 129.85042 60.72846
#
# Poissons Ratio (x) = 0.14426 -0.06159
# Poissons Ratio (y) = 0.08571 0.44503
# Poissons Ratio (z) = -0.07825 0.95156
#
# Static dielectric constant tensor:
#      x y z
#    x 1.875070 0.000000 0.000000 
#    y 0.000000 1.762380 0.000000 
#    z 0.000000 0.000000 1.732930 
# 
# From -- ./inp_files/14803.got.cif
#   From: 2010.05.17/outbox.cif.g08.bks.cpg/sg53_8_cif.got.tgz:14803.got - 2010.06.03 12:45:16.
