data_PCOD9415456
_publ_section_title
;
Structure prediction by ZEFSAII (Michael W. Deem and Ramdas Pophale) SiO2 
 PCOD9415456
Probable space group: P M N A
;
_chemical_formula_sum "Si O2"
_cell_formula_units_Z 48
_cell_length_a 8.811606
_cell_length_b 16.305450
_cell_length_c 19.264168
_cell_angle_alpha 90.000000
_cell_angle_beta 90.000000
_cell_angle_gamma 90.000000
_cell_volume 2767.821739
_symmetry_space_group_name_H-M "P M N A"
_symmetry_group_IT_number 53
_symmetry_cell_setting 'orthorhombic'
loop_
_space_group_symop_operation_xyz
x,y,z
1/2-x,-y,1/2+z
x,-y,-z
1/2-x,y,1/2-z
-x,-y,-z
1/2+x,y,1/2-z
-x,y,z
1/2+x,-y,1/2+z
loop_
_atom_site_type_symbol
_atom_site_label
_atom_site_fract_x
_atom_site_fract_y
_atom_site_fract_z
Si Si1 0.181285 0.175195 0.924901
Si Si2 0.675319 0.005649 0.915641
Si Si3 0.682010 0.495252 0.327840
Si Si4 0.816557 0.826339 0.578466
Si Si5 0.182082 0.328386 0.327323
Si Si6 0.817200 0.323687 0.827115
O O1 0.232283 0.086378 0.896410
O O2 0.233527 0.249521 0.875938
O O3 0.000000 0.177412 0.929626
O O4 0.249686 0.184454 0.001768
O O5 0.500000 0.016600 0.894800
O O6 0.731542 0.915893 0.892630
O O7 0.678507 0.000000 0.000000
O O8 0.750000 0.497375 0.250000
O O9 0.500000 0.486782 0.325253
O O10 0.753534 0.413128 0.359390
O O11 0.720157 0.585480 0.356868
O O12 0.775699 0.750588 0.627290
O O13 0.000000 0.829803 0.572658
O O14 0.250000 0.320147 0.250000
O O15 0.000000 0.333718 0.322806
O O16 0.750000 0.316263 0.750000
O O17 0.000000 0.320455 0.821414
#
# Coordination Sequence:
#
# PCOD9415456 Si02
#       6
#     8   8   8   8   8   8
#     4  10  19  31  49  74  98 120 155 199 236 273
#     4   8  15  30  49  67  91 125 159 188 227 280
#     4   9  16  29  48  68  92 123 157 190 229 277
#     4   9  19  34  50  69  95 127 159 190 230 283
#     4  10  19  32  50  72  96 122 157 196 233 277
#     4   9  19  33  49  71  97 125 157 193 233 279
#
# _framework density 17.342157
#
# number of rings (size 3 to 8) (size 9 to 14) (size 15 to 20)
#    0.000    2.833    0.000    3.500    0.000    6.333 
#    0.000    1.667    0.000    9.000    0.000    0.000 
#    0.000    0.000    0.000    0.000    0.000    0.000 
#
# Total GULP energy -267316.081928 kJ/mol
# GULP energy per Si atom -5569.085040 kJ/mol
# Density = 1.730269 g / cm^3
# Si number density = 17.342157 Si / 1000 Ang^3
#
#
#
# Elastic Constant Matrix: (Units=GPa)
#
#
# Indices 1 2 3 4 5 6 
#
# 1 33.8785 48.1832 18.6723 0.0000 0.0000 0.0000
# 2 48.1832 214.1123 64.7378 0.0000 0.0000 0.0000
# 3 18.6723 64.7378 41.9816 0.0000 0.0000 0.0000
# 4 0.0000 0.0000 0.0000 32.3696 0.0000 0.0000
# 5 0.0000 0.0000 0.0000 0.0000 7.2813 0.0000
# 6 0.0000 0.0000 0.0000 0.0000 0.0000 37.5682
#
#
#
# Elastic Compliance Matrix: (Units=1/GPa)
#
#
# Indices 1 2 3 4 5 6 
#
# 1 0.044876 -0.007614 -0.008219 0.000000 0.000000 0.000000
# 2 -0.007614 0.010042 -0.012099 0.000000 0.000000 0.000000
# 3 -0.008219 -0.012099 0.046133 0.000000 0.000000 0.000000
# 4 0.000000 0.000000 0.000000 0.030893 0.000000 0.000000
# 5 0.000000 0.000000 0.000000 0.000000 0.137338 0.000000
# 6 0.000000 0.000000 0.000000 0.000000 0.000000 0.026618
#
#
# Mechanical properties :
#
#
# Convention : Reuss Voigt Hill
#
# Bulk Modulus (GPa) = 22.13008 61.46212 41.79610
# Shear Modulus (GPa) = 13.63050 26.00242 19.81646
#
# Velocity S-wave (km/s) = 2.80657 3.87638 3.38402
# Velocity P-wave (km/s) = 4.82607 7.45338 6.27869
#
# Compressibility (1/GPa) = 0.04518736
#
# Stress axis : x y z
#
# Youngs Moduli (GPa) = 22.28386 99.58234 21.67663
#
# Poissons Ratio (x) = 0.75818 0.17816
# Poissons Ratio (y) = 0.16966 0.26226
# Poissons Ratio (z) = 0.18315 1.20483
#
# Static dielectric constant tensor:
#      x y z
#    x 1.581960 0.000000 0.000000 
#    y 0.000000 1.653210 0.000000 
#    z 0.000000 0.000000 1.557450 
# 
# From -- ./inp_files/30513.got.cif
#   From: 2010.05.17/outbox.cif.g08.bks.cpg/sg53_16_cif.got.tgz:30513.got - 2010.06.03 12:45:16.
