data_PCOD9415194
_publ_section_title
;
Structure prediction by ZEFSAII (Michael W. Deem and Ramdas Pophale) SiO2 
 PCOD9415194
Probable space group: P M N A
;
_chemical_formula_sum "Si O2"
_cell_formula_units_Z 64
_cell_length_a 7.915988
_cell_length_b 14.979871
_cell_length_c 28.212192
_cell_angle_alpha 90.000000
_cell_angle_beta 90.000000
_cell_angle_gamma 90.000000
_cell_volume 3345.415243
_symmetry_space_group_name_H-M "P M N A"
_symmetry_group_IT_number 53
_symmetry_cell_setting 'orthorhombic'
loop_
_space_group_symop_operation_xyz
x,y,z
1/2-x,-y,1/2+z
x,-y,-z
1/2-x,y,1/2-z
-x,-y,-z
1/2+x,y,1/2-z
-x,y,z
1/2+x,-y,1/2+z
loop_
_atom_site_type_symbol
_atom_site_label
_atom_site_fract_x
_atom_site_fract_y
_atom_site_fract_z
Si Si1 0.696905 0.521783 0.055369
Si Si2 0.797517 0.966341 0.948262
Si Si3 0.297267 0.232790 0.429914
Si Si4 0.806851 0.610644 0.869122
Si Si5 0.204369 0.285276 0.534836
Si Si6 0.295456 0.863833 0.108520
Si Si7 0.298537 0.545161 0.304753
Si Si8 0.700309 0.254992 0.805197
O O1 0.500000 0.515458 0.070970
O O2 0.804272 0.452080 0.084546
O O3 0.759236 0.622932 0.059244
O O4 0.699680 0.500000 0.000000
O O5 0.760453 0.038405 0.907564
O O6 0.000000 0.958480 0.953113
O O7 0.731519 0.868329 0.934271
O O8 0.732684 0.000000 0.000000
O O9 0.500000 0.229374 0.423638
O O10 0.229458 0.296419 0.387820
O O11 0.262845 0.276886 0.480968
O O12 0.727662 0.542615 0.831023
O O13 0.000000 0.629129 0.854093
O O14 0.260361 0.201678 0.565959
O O15 0.000000 0.287738 0.534054
O O16 0.500000 0.863521 0.109443
O O17 0.233803 0.819297 0.157734
O O18 0.250000 0.540738 0.250000
O O19 0.500000 0.543097 0.309951
O O20 0.243349 0.643859 0.321367
O O21 0.750000 0.243881 0.750000
O O22 0.500000 0.248660 0.806433
#
# Coordination Sequence:
#
# PCOD9415194 Si02
#       8
#     8   8   8   8   8   8   8   8
#     4  10  19  30  45  68 100 135 169 202 241 296
#     4  10  20  34  52  75 101 135 179 219 259 306
#     4  10  20  34  49  69 100 135 171 214 254 297
#     4  10  21  34  50  72 101 136 172 209 256 305
#     4  10  19  31  46  69 100 135 170 204 247 299
#     4  10  21  34  52  76 104 136 170 212 262 312
#     4  10  20  35  55  80 105 135 173 212 257 309
#     4  10  20  36  57  82 109 137 169 211 262 313
#
# _framework density 19.130659000000001
#
# number of rings (size 3 to 8) (size 9 to 14) (size 15 to 20)
#    0.000    2.000    2.500    2.250    0.000    4.500 
#    0.000    0.000    0.000    0.750    0.000    3.500 
#    0.000    0.000    0.000    0.000    0.000    0.000 
#
# Total GULP energy -356927.706155 kJ/mol
# GULP energy per Si atom -5576.995409 kJ/mol
# Density = 1.908712 g / cm^3
# Si number density = 19.130659 Si / 1000 Ang^3
#
#
#
# Elastic Constant Matrix: (Units=GPa)
#
#
# Indices 1 2 3 4 5 6 
#
# 1 21.5779 2.6181 -0.1649 0.0000 0.0000 0.0000
# 2 2.6181 148.6226 54.6027 0.0000 0.0000 0.0000
# 3 -0.1649 54.6027 86.0054 0.0000 0.0000 0.0000
# 4 0.0000 0.0000 0.0000 32.5295 0.0000 0.0000
# 5 0.0000 0.0000 0.0000 0.0000 74.4849 0.0000
# 6 0.0000 0.0000 0.0000 0.0000 0.0000 7.7972
#
#
#
# Elastic Compliance Matrix: (Units=1/GPa)
#
#
# Indices 1 2 3 4 5 6 
#
# 1 0.046485 -0.001111 0.000794 0.000000 0.000000 0.000000
# 2 -0.001111 0.008802 -0.005590 0.000000 0.000000 0.000000
# 3 0.000794 -0.005590 0.015178 0.000000 0.000000 0.000000
# 4 0.000000 0.000000 0.000000 0.030741 0.000000 0.000000
# 5 0.000000 0.000000 0.000000 0.000000 0.013426 0.000000
# 6 0.000000 0.000000 0.000000 0.000000 0.000000 0.128251
#
#
# Mechanical properties :
#
#
# Convention : Reuss Voigt Hill
#
# Bulk Modulus (GPa) = 17.05004 41.14641 29.09822
# Shear Modulus (GPa) = 18.23185 36.23899 27.23542
#
# Velocity S-wave (km/s) = 3.09045 4.35706 3.77723
# Velocity P-wave (km/s) = 4.65470 6.84593 5.85376
#
# Compressibility (1/GPa) = 0.05865090
#
# Stress axis : x y z
#
# Youngs Moduli (GPa) = 21.51254 113.61315 65.88586
#
# Poissons Ratio (x) = 0.12619 -0.05233
# Poissons Ratio (y) = 0.02389 0.36831
# Poissons Ratio (z) = -0.01709 0.63512
#
# Static dielectric constant tensor:
#      x y z
#    x 1.693620 0.000000 0.000000 
#    y 0.000000 1.706980 0.000000 
#    z 0.000000 0.000000 1.676490 
# 
# From -- ./inp_files/38466.got.cif
#   From: 2010.05.17/outbox.cif.g08.bks.cpg/sg53_20_cif.got.tgz:38466.got - 2010.06.03 12:45:16.
