data_PCOD9415227
_publ_section_title
;
Structure prediction by ZEFSAII (Michael W. Deem and Ramdas Pophale) SiO2 
 PCOD9415227
Probable space group: P M N A
;
_chemical_formula_sum "Si O2"
_cell_formula_units_Z 48
_cell_length_a 8.842633
_cell_length_b 12.169600
_cell_length_c 26.813517
_cell_angle_alpha 90.000000
_cell_angle_beta 90.000000
_cell_angle_gamma 90.000000
_cell_volume 2885.437598
_symmetry_space_group_name_H-M "P M N A"
_symmetry_group_IT_number 53
_symmetry_cell_setting 'orthorhombic'
loop_
_space_group_symop_operation_xyz
x,y,z
1/2-x,-y,1/2+z
x,-y,-z
1/2-x,y,1/2-z
-x,-y,-z
1/2+x,y,1/2-z
-x,y,z
1/2+x,-y,1/2+z
loop_
_atom_site_type_symbol
_atom_site_label
_atom_site_fract_x
_atom_site_fract_y
_atom_site_fract_z
Si Si1 0.679287 0.004404 0.622750
Si Si2 0.681841 0.538534 0.444716
Si Si3 0.823690 0.857861 0.538973
Si Si4 0.318264 0.830035 0.804801
Si Si5 0.317537 0.208956 0.564602
Si Si6 0.823576 0.344507 0.386697
O O1 0.500000 0.995007 0.630768
O O2 0.718211 0.131495 0.611826
O O3 0.726188 0.940712 0.572200
O O4 0.764067 0.939810 0.666541
O O5 0.735339 0.500000 0.500000
O O6 0.500000 0.536069 0.445939
O O7 0.728255 0.663530 0.432924
O O8 0.737486 0.452941 0.403394
O O9 0.761161 0.842163 0.483940
O O10 0.812794 0.741397 0.567496
O O11 0.000000 0.891055 0.539381
O O12 0.250000 0.824322 0.750000
O O13 0.500000 0.829652 0.803448
O O14 0.269286 0.725767 0.838966
O O15 0.500000 0.204628 0.557720
O O16 0.000000 0.370514 0.379095
#
# Coordination Sequence:
#
# PCOD9415227 Si02
#       6
#     8   8   8   8   8   8
#     4  10  20  33  50  72 102 135 169 211 257 305
#     4  10  19  31  49  72 102 141 181 214 245 295
#     4  10  19  30  46  70 102 137 174 213 251 298
#     4  10  21  38  59  82 103 126 164 212 265 315
#     4  10  20  32  46  70 103 140 177 209 249 300
#     4   9  19  33  49  74 104 133 169 212 254 301
#
# _framework density 16.635258
#
# number of rings (size 3 to 8) (size 9 to 14) (size 15 to 20)
#    0.000    2.167    1.667    3.000    0.000    7.667 
#    0.000    0.000    0.000    1.000    0.000    2.333 
#    0.000    0.000    0.000    0.000    0.000    0.000 
#
# Total GULP energy -267689.182186 kJ/mol
# GULP energy per Si atom -5576.857962 kJ/mol
# Density = 1.659739 g / cm^3
# Si number density = 16.635258 Si / 1000 Ang^3
#
#
#
# Elastic Constant Matrix: (Units=GPa)
#
#
# Indices 1 2 3 4 5 6 
#
# 1 25.6381 21.1622 26.4475 0.0000 0.0000 0.0000
# 2 21.1622 90.2033 49.6521 0.0000 0.0000 0.0000
# 3 26.4475 49.6521 109.4037 0.0000 0.0000 0.0000
# 4 0.0000 0.0000 0.0000 9.1439 0.0000 0.0000
# 5 0.0000 0.0000 0.0000 0.0000 23.9927 0.0000
# 6 0.0000 0.0000 0.0000 0.0000 0.0000 18.6230
#
#
#
# Elastic Compliance Matrix: (Units=1/GPa)
#
#
# Indices 1 2 3 4 5 6 
#
# 1 0.055540 -0.007518 -0.010015 0.000000 0.000000 0.000000
# 2 -0.007518 0.015795 -0.005351 0.000000 0.000000 0.000000
# 3 -0.010015 -0.005351 0.013990 0.000000 0.000000 0.000000
# 4 0.000000 0.000000 0.000000 0.109363 0.000000 0.000000
# 5 0.000000 0.000000 0.000000 0.000000 0.041679 0.000000
# 6 0.000000 0.000000 0.000000 0.000000 0.000000 0.053697
#
#
# Mechanical properties :
#
#
# Convention : Reuss Voigt Hill
#
# Bulk Modulus (GPa) = 25.27882 46.64097 35.95989
# Shear Modulus (GPa) = 14.32590 18.88414 16.60502
#
# Velocity S-wave (km/s) = 2.93777 3.37291 3.16283
# Velocity P-wave (km/s) = 5.17071 6.57776 5.91621
#
# Compressibility (1/GPa) = 0.03955881
#
# Stress axis : x y z
#
# Youngs Moduli (GPa) = 18.00489 63.30982 71.47936
#
# Poissons Ratio (x) = 0.47594 0.71584
# Poissons Ratio (y) = 0.13535 0.38251
# Poissons Ratio (z) = 0.18031 0.33879
#
# Static dielectric constant tensor:
#      x y z
#    x 1.557830 0.000000 0.000000 
#    y 0.000000 1.583550 0.000000 
#    z 0.000000 0.000000 1.535750 
# 
# From -- ./inp_files/33876.got.cif
#   From: 2010.05.17/outbox.cif.g08.bks.cpg/sg53_17_cif.got.tgz:33876.got - 2010.06.03 12:45:16.
