data_PCOD9415636
_publ_section_title
;
Structure prediction by ZEFSAII (Michael W. Deem and Ramdas Pophale) SiO2 
 PCOD9415636
Probable space group: P M N A
;
_chemical_formula_sum "Si O2"
_cell_formula_units_Z 44
_cell_length_a 27.484167
_cell_length_b 5.437607
_cell_length_c 15.352314
_cell_angle_alpha 90.000000
_cell_angle_beta 90.000000
_cell_angle_gamma 90.000000
_cell_volume 2294.374141
_symmetry_space_group_name_H-M "P M N A"
_symmetry_group_IT_number 53
_symmetry_cell_setting 'orthorhombic'
loop_
_space_group_symop_operation_xyz
x,y,z
1/2-x,-y,1/2+z
x,-y,-z
1/2-x,y,1/2-z
-x,-y,-z
1/2+x,y,1/2-z
-x,y,z
1/2+x,-y,1/2+z
loop_
_atom_site_type_symbol
_atom_site_label
_atom_site_fract_x
_atom_site_fract_y
_atom_site_fract_z
Si Si1 0.115207 0.993116 0.768428
Si Si2 0.212063 0.019786 0.333921
Si Si3 0.250590 0.479078 0.643871
Si Si4 0.084611 0.500000 0.000000
Si Si5 0.555992 0.502572 0.302256
Si Si6 0.332326 0.823548 0.434476
O O1 0.084438 0.249389 0.771370
O O2 0.149044 0.018029 0.853782
O O3 0.156155 0.967095 0.694712
O O4 0.082473 0.748621 0.772248
O O5 0.250000 0.008330 0.250000
O O6 0.228468 0.263492 0.383702
O O7 0.219656 0.760127 0.379902
O O8 0.250000 0.490506 0.750000
O O9 0.303046 0.407868 0.604982
O O10 0.056981 0.510570 0.908431
O O11 0.120961 0.272897 0.986223
O O12 0.500000 0.511731 0.273733
O O13 0.304061 0.000000 0.500000
#
# Coordination Sequence:
#
# PCOD9415636 Si02
#       6
#     8   8   8   4   8   8
#     4  11  21  36  53  73  96 134 178 231 266 305
#     4  10  19  32  51  73  95 121 167 226 258 320
#     4  10  20  30  50  70 101 122 172 218 258 314
#     4  10  23  32  50  66 102 138 190 226 263 296
#     4  11  23  37  51  70  98 137 185 233 270 298
#     4  11  21  33  48  76 101 141 175 230 263 309
#
# _framework density 19.177343
#
# number of rings (size 3 to 8) (size 9 to 14) (size 15 to 20)
#    0.000    1.455    5.455    1.909   10.182    0.000 
#    0.000    2.727    0.000    0.000    0.000    0.000 
#    0.000    0.000    0.000    0.000    0.000   63.636 
#
# Total GULP energy -245314.790899 kJ/mol
# GULP energy per Si atom -5575.336157 kJ/mol
# Density = 1.913369 g / cm^3
# Si number density = 19.177343 Si / 1000 Ang^3
#
#
#
# Elastic Constant Matrix: (Units=GPa)
#
#
# Indices 1 2 3 4 5 6 
#
# 1 127.8826 61.5384 23.5904 0.0000 0.0000 0.0000
# 2 61.5384 167.0037 19.9108 0.0000 0.0000 0.0000
# 3 23.5904 19.9108 16.2925 0.0000 0.0000 0.0000
# 4 0.0000 0.0000 0.0000 62.8556 0.0000 0.0000
# 5 0.0000 0.0000 0.0000 0.0000 21.0291 0.0000
# 6 0.0000 0.0000 0.0000 0.0000 0.0000 14.7505
#
#
#
# Elastic Compliance Matrix: (Units=1/GPa)
#
#
# Indices 1 2 3 4 5 6 
#
# 1 0.011597 -0.002659 -0.013543 0.000000 0.000000 0.000000
# 2 -0.002659 0.007619 -0.005461 0.000000 0.000000 0.000000
# 3 -0.013543 -0.005461 0.087661 0.000000 0.000000 0.000000
# 4 0.000000 0.000000 0.000000 0.015909 0.000000 0.000000
# 5 0.000000 0.000000 0.000000 0.000000 0.047553 0.000000
# 6 0.000000 0.000000 0.000000 0.000000 0.000000 0.067794
#
#
# Mechanical properties :
#
#
# Convention : Reuss Voigt Hill
#
# Bulk Modulus (GPa) = 15.73520 57.91755 36.82637
# Shear Modulus (GPa) = 16.52110 33.46965 24.99538
#
# Velocity S-wave (km/s) = 2.93830 4.18218 3.61415
# Velocity P-wave (km/s) = 4.44234 7.32034 6.05482
#
# Compressibility (1/GPa) = 0.06355179
#
# Stress axis : x y z
#
# Youngs Moduli (GPa) = 86.22644 131.25598 11.40759
#
# Poissons Ratio (x) = 0.34899 0.15449
# Poissons Ratio (y) = 0.22926 0.06230
# Poissons Ratio (z) = 1.16775 0.71678
#
# Static dielectric constant tensor:
#      x y z
#    x 1.585270 0.000000 0.000000 
#    y 0.000000 1.733420 0.000000 
#    z 0.000000 0.000000 1.699210 
# 
# From -- ./inp_files/32933.got.cif
#   From: 2010.05.17/outbox.cif.g08.bks.cpg/sg53_17_cif.got.tgz:32933.got - 2010.06.03 12:45:16.
