data_PCOD9415542
_publ_section_title
;
Structure prediction by ZEFSAII (Michael W. Deem and Ramdas Pophale) SiO2 
 PCOD9415542
Probable space group: P M N A
;
_chemical_formula_sum "Si O2"
_cell_formula_units_Z 64
_cell_length_a 25.916784
_cell_length_b 14.862386
_cell_length_c 8.828217
_cell_angle_alpha 90.000000
_cell_angle_beta 90.000000
_cell_angle_gamma 90.000000
_cell_volume 3400.498952
_symmetry_space_group_name_H-M "P M N A"
_symmetry_group_IT_number 53
_symmetry_cell_setting 'orthorhombic'
loop_
_space_group_symop_operation_xyz
x,y,z
1/2-x,-y,1/2+z
x,-y,-z
1/2-x,y,1/2-z
-x,-y,-z
1/2+x,y,1/2-z
-x,y,z
1/2+x,-y,1/2+z
loop_
_atom_site_type_symbol
_atom_site_label
_atom_site_fract_x
_atom_site_fract_y
_atom_site_fract_z
Si Si1 0.651023 0.904642 0.584105
Si Si2 0.908975 0.293407 0.803054
Si Si3 0.059283 0.824657 0.717910
Si Si4 0.938523 0.519662 0.332492
Si Si5 0.060020 0.640134 0.868363
Si Si6 0.165967 0.976120 0.333752
Si Si7 0.803539 0.792702 0.189510
Si Si8 0.559042 0.884592 0.130880
O O1 0.599699 0.863667 0.660382
O O2 0.681663 0.835229 0.476564
O O3 0.638897 0.000000 0.500000
O O4 0.682445 0.943237 0.725593
O O5 0.929868 0.377471 0.710194
O O6 0.848833 0.276683 0.776634
O O7 0.934826 0.200293 0.745009
O O8 0.916691 0.318870 0.978685
O O9 0.062486 0.716874 0.739358
O O10 0.069047 0.852073 0.542832
O O11 0.000000 0.850589 0.754000
O O12 0.917701 0.500000 0.500000
O O13 0.918104 0.451664 0.202801
O O14 0.000000 0.502247 0.336821
O O15 0.000000 0.624524 0.908077
O O16 0.190043 0.882169 0.289257
O O17 0.103716 0.956155 0.329484
O O18 0.181214 0.000000 0.500000
O O19 0.750000 0.753946 0.250000
O O20 0.500000 0.918212 0.139282
#
# Coordination Sequence:
#
# PCOD9415542 Si02
#       8
#     8   8   8   8   8   8   8   8
#     4  10  20  37  54  79 111 144 189 243 286 341
#     4  11  20  35  57  79 109 146 188 239 286 337
#     4  10  19  32  51  79 121 162 189 222 271 339
#     4  10  20  34  55  86 120 152 184 217 266 338
#     4  10  19  31  52  85 119 153 191 227 269 327
#     4  10  20  34  57  81 111 144 189 237 282 339
#     4  10  23  41  59  78 103 140 188 247 306 344
#     4  10  20  32  50  79 119 162 192 219 273 343
#
# _framework density 18.820768999999999
#
# number of rings (size 3 to 8) (size 9 to 14) (size 15 to 20)
#    0.000    1.875    2.500    2.250    0.000    5.500 
#    0.000    0.000    0.000    1.500    0.000    0.000 
#    0.000    0.000    0.000    0.000    0.000    0.000 
#
# Total GULP energy -356766.609773 kJ/mol
# GULP energy per Si atom -5574.478278 kJ/mol
# Density = 1.877793 g / cm^3
# Si number density = 18.820769 Si / 1000 Ang^3
#
#
#
# Elastic Constant Matrix: (Units=GPa)
#
#
# Indices 1 2 3 4 5 6 
#
# 1 64.9061 -8.7484 9.4144 0.0000 0.0000 0.0000
# 2 -8.7484 43.0251 15.9090 0.0000 0.0000 0.0000
# 3 9.4144 15.9090 97.9035 0.0000 0.0000 0.0000
# 4 0.0000 0.0000 0.0000 17.5505 0.0000 0.0000
# 5 0.0000 0.0000 0.0000 0.0000 9.9174 0.0000
# 6 0.0000 0.0000 0.0000 0.0000 0.0000 219.2126
#
#
#
# Elastic Compliance Matrix: (Units=1/GPa)
#
#
# Indices 1 2 3 4 5 6 
#
# 1 0.016290 0.004140 -0.002239 0.000000 0.000000 0.000000
# 2 0.004140 0.025780 -0.004587 0.000000 0.000000 0.000000
# 3 -0.002239 -0.004587 0.011175 0.000000 0.000000 0.000000
# 4 0.000000 0.000000 0.000000 0.056979 0.000000 0.000000
# 5 0.000000 0.000000 0.000000 0.000000 0.100833 0.000000
# 6 0.000000 0.000000 0.000000 0.000000 0.000000 0.004562
#
#
# Mechanical properties :
#
#
# Convention : Reuss Voigt Hill
#
# Bulk Modulus (GPa) = 20.88896 26.55385 23.72140
# Shear Modulus (GPa) = 21.10163 61.95339 41.52751
#
# Velocity S-wave (km/s) = 3.35205 5.74361 4.70241
# Velocity P-wave (km/s) = 5.10927 7.62396 6.48958
#
# Compressibility (1/GPa) = 0.04787219
#
# Stress axis : x y z
#
# Youngs Moduli (GPa) = 61.38851 38.78932 89.48631
#
# Poissons Ratio (x) = -0.16059 0.20038
# Poissons Ratio (y) = -0.25416 0.41050
# Poissons Ratio (z) = 0.13746 0.17794
#
# Static dielectric constant tensor:
#      x y z
#    x 1.686100 0.000000 0.000000 
#    y 0.000000 1.661640 0.000000 
#    z 0.000000 0.000000 1.740880 
# 
# From -- ./inp_files/11919.got.cif
#   From: 2010.05.17/outbox.cif.g08.bks.cpg/sg53_6_cif.got.tgz:11919.got - 2010.06.03 12:45:16.
