data_PCOD9415835
_publ_section_title
;
Structure prediction by ZEFSAII (Michael W. Deem and Ramdas Pophale) SiO2 
 PCOD9415835
Probable space group: P M N A
;
_chemical_formula_sum "Si O2"
_cell_formula_units_Z 64
_cell_length_a 20.135665
_cell_length_b 10.077896
_cell_length_c 17.177855
_cell_angle_alpha 90.000000
_cell_angle_beta 90.000000
_cell_angle_gamma 90.000000
_cell_volume 3485.818592
_symmetry_space_group_name_H-M "P M N A"
_symmetry_group_IT_number 53
_symmetry_cell_setting 'orthorhombic'
loop_
_space_group_symop_operation_xyz
x,y,z
1/2-x,-y,1/2+z
x,-y,-z
1/2-x,y,1/2-z
-x,-y,-z
1/2+x,y,1/2-z
-x,y,z
1/2+x,-y,1/2+z
loop_
_atom_site_type_symbol
_atom_site_label
_atom_site_fract_x
_atom_site_fract_y
_atom_site_fract_z
Si Si1 0.362651 0.236610 0.564325
Si Si2 0.204711 0.777028 0.615420
Si Si3 0.651803 0.459167 0.685136
Si Si4 0.422926 0.013970 0.659726
Si Si5 0.636132 0.264074 0.385920
Si Si6 0.180138 0.965186 0.293369
Si Si7 0.203296 0.785631 0.439662
Si Si8 0.690475 0.473701 0.854560
O O1 0.377589 0.346245 0.629904
O O2 0.400861 0.103408 0.586573
O O3 0.377020 0.286686 0.477525
O O4 0.283561 0.208191 0.566907
O O5 0.285154 0.770671 0.621288
O O6 0.187113 0.822988 0.528072
O O7 0.178620 0.627703 0.627024
O O8 0.180561 0.881824 0.678860
O O9 0.623814 0.602774 0.662407
O O10 0.650417 0.433808 0.777076
O O11 0.730656 0.465236 0.664643
O O12 0.500000 0.030177 0.675393
O O13 0.377778 0.059209 0.732118
O O14 0.404690 0.861909 0.642393
O O15 0.250000 0.936309 0.250000
O O16 0.176085 0.877115 0.370895
O O17 0.181231 0.634307 0.421940
#
# Coordination Sequence:
#
# PCOD9415835 Si02
#       8
#     8   8   8   8   8   8   8   8
#     4  10  19  33  52  78 111 146 181 218 263 318
#     4  10  19  32  54  84 112 140 175 221 274 328
#     4   9  17  29  50  78 108 146 180 218 259 317
#     4  12  25  38  53  76 107 146 188 227 271 319
#     4  10  19  33  52  78 111 146 181 218 263 318
#     4  12  21  35  57  79 107 140 182 232 272 317
#     4  10  19  32  54  84 112 140 175 221 274 328
#     4   9  17  27  49  79 119 141 169 216 278 319
#
# _framework density 18.360105000000001
#
# number of rings (size 3 to 8) (size 9 to 14) (size 15 to 20)
#    0.000    1.750    2.500    3.000    3.500    6.000 
#    0.000    0.625    0.000    3.000    0.000    0.000 
#    0.000    4.000    0.000    0.000    0.000    0.000 
#
# Total GULP energy -357361.806160 kJ/mol
# GULP energy per Si atom -5583.778221 kJ/mol
# Density = 1.831832 g / cm^3
# Si number density = 18.360105 Si / 1000 Ang^3
#
#
#
# Elastic Constant Matrix: (Units=GPa)
#
#
# Indices 1 2 3 4 5 6 
#
# 1 43.6076 9.0385 19.5868 0.0000 0.0000 0.0000
# 2 9.0385 51.3606 -6.9193 0.0000 0.0000 0.0000
# 3 19.5868 -6.9193 64.0944 0.0000 0.0000 0.0000
# 4 0.0000 0.0000 0.0000 38.8835 0.0000 0.0000
# 5 0.0000 0.0000 0.0000 0.0000 -15.7170 0.0000
# 6 0.0000 0.0000 0.0000 0.0000 0.0000 3.5583
#
#
#
# Elastic Compliance Matrix: (Units=1/GPa)
#
#
# Indices 1 2 3 4 5 6 
#
# 1 0.028438 -0.006266 -0.009367 0.000000 0.000000 0.000000
# 2 -0.006266 0.021138 0.004197 0.000000 0.000000 0.000000
# 3 -0.009367 0.004197 0.018918 0.000000 0.000000 0.000000
# 4 0.000000 0.000000 0.000000 0.025718 0.000000 0.000000
# 5 0.000000 0.000000 0.000000 0.000000 -0.063625 0.000000
# 6 0.000000 0.000000 0.000000 0.000000 0.000000 0.281031
#
#
# Mechanical properties :
#
#
# Convention : Reuss Voigt Hill
#
# Bulk Modulus (GPa) = 21.91970 22.49715 22.20842
# Shear Modulus (GPa) = 14.29810 14.50206 14.40008
#
# Velocity S-wave (km/s) = 2.79365 2.81351 2.80360
# Velocity P-wave (km/s) = 4.72976 4.77853 4.75421
#
# Compressibility (1/GPa) = 0.04562107
#
# Stress axis : x y z
#
# Youngs Moduli (GPa) = 35.16435 47.30727 52.86097
#
# Poissons Ratio (x) = 0.29645 0.49514
# Poissons Ratio (y) = 0.22036 -0.22186
# Poissons Ratio (z) = 0.32938 -0.19855
#
# Static dielectric constant tensor:
#      x y z
#    x 1.592060 0.000000 0.000000 
#    y 0.000000 1.663690 0.000000 
#    z 0.000000 0.000000 1.635950 
# 
# From -- ./inp_files/29407.got.cif
#   From: 2010.05.17/outbox.cif.g08.bks.cpg/sg53_15_cif.got.tgz:29407.got - 2010.06.03 12:45:16.
