data_PCOD9415915
_publ_section_title
;
Structure prediction by ZEFSAII (Michael W. Deem and Ramdas Pophale) SiO2 
 PCOD9415915
Probable space group: P M N A
;
_chemical_formula_sum "Si O2"
_cell_formula_units_Z 48
_cell_length_a 9.032064
_cell_length_b 9.847468
_cell_length_c 31.162532
_cell_angle_alpha 90.000000
_cell_angle_beta 90.000000
_cell_angle_gamma 90.000000
_cell_volume 2771.687875
_symmetry_space_group_name_H-M "P M N A"
_symmetry_group_IT_number 53
_symmetry_cell_setting 'orthorhombic'
loop_
_space_group_symop_operation_xyz
x,y,z
1/2-x,-y,1/2+z
x,-y,-z
1/2-x,y,1/2-z
-x,-y,-z
1/2+x,y,1/2-z
-x,y,z
1/2+x,-y,1/2+z
loop_
_atom_site_type_symbol
_atom_site_label
_atom_site_fract_x
_atom_site_fract_y
_atom_site_fract_z
Si Si1 0.322881 0.210324 0.887812
Si Si2 0.824003 0.088042 0.364745
Si Si3 0.677067 0.508384 0.366229
Si Si4 0.322531 0.846518 0.012637
Si Si5 0.823636 0.314779 0.296401
Si Si6 0.176306 0.718149 0.933851
O O1 0.500000 0.233140 0.884395
O O2 0.237038 0.340343 0.870888
O O3 0.287953 0.184358 0.937972
O O4 0.286212 0.070292 0.863427
O O5 0.796870 0.172934 0.321583
O O6 0.737116 0.163423 0.402683
O O7 0.000000 0.097412 0.374830
O O8 0.500000 0.505400 0.361056
O O9 0.753253 0.429753 0.326865
O O10 0.714401 0.421469 0.409193
O O11 0.500000 0.840540 0.007471
O O12 0.248735 0.741687 0.979904
O O13 0.275811 0.000000 0.000000
O O14 0.750000 0.315033 0.250000
O O15 0.000000 0.334347 0.293194
O O16 0.000000 0.726950 0.937228
#
# Coordination Sequence:
#
# PCOD9415915 Si02
#       6
#     8   8   8   8   8   8
#     4  10  20  35  55  79 108 145 186 227 273 322
#     4   9  18  35  57  79 106 140 179 220 266 322
#     4  10  22  38  54  78 113 148 182 223 273 326
#     4  10  19  33  53  76 106 145 190 234 271 318
#     4  10  20  37  63  87 108 137 174 218 267 326
#     4  10  20  33  51  76 107 144 185 229 272 316
#
# _framework density 17.317965999999998
#
# number of rings (size 3 to 8) (size 9 to 14) (size 15 to 20)
#    0.000    2.167    1.667    1.500    0.000    5.000 
#    0.000    4.167    0.000    2.000    0.000    0.000 
#    0.000    0.000    0.000    0.000    0.000    0.000 
#
# Total GULP energy -267911.486681 kJ/mol
# GULP energy per Si atom -5581.489306 kJ/mol
# Density = 1.727855 g / cm^3
# Si number density = 17.317966 Si / 1000 Ang^3
#
#
#
# Elastic Constant Matrix: (Units=GPa)
#
#
# Indices 1 2 3 4 5 6 
#
# 1 49.6675 56.7381 53.0053 0.0000 0.0000 0.0000
# 2 56.7381 142.6938 61.6189 0.0000 0.0000 0.0000
# 3 53.0053 61.6189 105.9871 0.0000 0.0000 0.0000
# 4 0.0000 0.0000 0.0000 13.6664 0.0000 0.0000
# 5 0.0000 0.0000 0.0000 0.0000 28.2870 0.0000
# 6 0.0000 0.0000 0.0000 0.0000 0.0000 19.0786
#
#
#
# Elastic Compliance Matrix: (Units=1/GPa)
#
#
# Indices 1 2 3 4 5 6 
#
# 1 0.059272 -0.014377 -0.021284 0.000000 0.000000 0.000000
# 2 -0.014377 0.012844 -0.000278 0.000000 0.000000 0.000000
# 3 -0.021284 -0.000278 0.020241 0.000000 0.000000 0.000000
# 4 0.000000 0.000000 0.000000 0.073172 0.000000 0.000000
# 5 0.000000 0.000000 0.000000 0.000000 0.035352 0.000000
# 6 0.000000 0.000000 0.000000 0.000000 0.000000 0.052415
#
#
# Mechanical properties :
#
#
# Convention : Reuss Voigt Hill
#
# Bulk Modulus (GPa) = 48.82741 71.23033 60.02887
# Shear Modulus (GPa) = 15.06030 20.67215 17.86622
#
# Velocity S-wave (km/s) = 2.95216 3.45872 3.21543
# Velocity P-wave (km/s) = 6.31476 7.56112 6.96587
#
# Compressibility (1/GPa) = 0.02048030
#
# Stress axis : x y z
#
# Youngs Moduli (GPa) = 16.87149 77.85547 49.40507
#
# Poissons Ratio (x) = 1.11930 1.05154
# Poissons Ratio (y) = 0.24256 0.01371
# Poissons Ratio (z) = 0.35909 0.02161
#
# Static dielectric constant tensor:
#      x y z
#    x 1.576600 0.000000 0.000000 
#    y 0.000000 1.582280 0.000000 
#    z 0.000000 0.000000 1.564320 
# 
# From -- ./inp_files/37692.got.cif
#   From: 2010.05.17/outbox.cif.g08.bks.cpg/sg53_19_cif.got.tgz:37692.got - 2010.06.03 12:45:16.
