data_PCOD9415197
_publ_section_title
;
Structure prediction by ZEFSAII (Michael W. Deem and Ramdas Pophale) SiO2 
 PCOD9415197
Probable space group: P M N A
;
_chemical_formula_sum "Si O2"
_cell_formula_units_Z 48
_cell_length_a 15.198472
_cell_length_b 12.281612
_cell_length_c 14.916928
_cell_angle_alpha 90.000000
_cell_angle_beta 90.000000
_cell_angle_gamma 90.000000
_cell_volume 2784.419678
_symmetry_space_group_name_H-M "P M N A"
_symmetry_group_IT_number 53
_symmetry_cell_setting 'orthorhombic'
loop_
_space_group_symop_operation_xyz
x,y,z
1/2-x,-y,1/2+z
x,-y,-z
1/2-x,y,1/2-z
-x,-y,-z
1/2+x,y,1/2-z
-x,y,z
1/2+x,-y,1/2+z
loop_
_atom_site_type_symbol
_atom_site_label
_atom_site_fract_x
_atom_site_fract_y
_atom_site_fract_z
Si Si1 0.402303 0.664151 0.649141
Si Si2 0.654119 0.479890 0.786490
Si Si3 0.345307 0.157270 0.209886
Si Si4 0.898368 0.709374 0.400986
Si Si5 0.103826 0.043217 0.594977
Si Si6 0.209493 0.340301 0.427291
O O1 0.500000 0.663573 0.607992
O O2 0.391154 0.558290 0.713281
O O3 0.393893 0.769613 0.714999
O O4 0.315670 0.663363 0.585530
O O5 0.750000 0.449554 0.750000
O O6 0.605263 0.371807 0.817082
O O7 0.672530 0.557128 0.872186
O O8 0.250000 0.133860 0.250000
O O9 0.330197 0.236508 0.125257
O O10 0.383184 0.045558 0.172426
O O11 0.869132 0.833535 0.382369
O O12 0.830372 0.663717 0.474430
O O13 0.000000 0.709068 0.435132
O O14 0.000000 0.051698 0.581221
O O15 0.142824 0.000000 0.500000
#
# Coordination Sequence:
#
# PCOD9415197 Si02
#       6
#     8   8   8   8   8   8
#     4   9  17  31  53  73  97 129 163 205 243 285
#     4   9  19  33  48  70 101 130 162 201 242 294
#     4   9  17  30  48  72  98 127 164 203 245 289
#     4  11  21  31  50  76 102 133 162 197 250 298
#     4  10  19  30  45  69 102 130 155 196 245 290
#     4   9  18  31  47  74 101 125 163 206 245 287
#
# _framework density 17.238779999999998
#
# number of rings (size 3 to 8) (size 9 to 14) (size 15 to 20)
#    0.000    2.500    1.667    3.500    0.000    4.667 
#    0.000    0.000    0.000    9.000    0.000   10.500 
#    0.000    0.000    0.000    0.000    0.000    0.000 
#
# Total GULP energy -267229.146990 kJ/mol
# GULP energy per Si atom -5567.273896 kJ/mol
# Density = 1.719954 g / cm^3
# Si number density = 17.238780 Si / 1000 Ang^3
#
#
#
# Elastic Constant Matrix: (Units=GPa)
#
#
# Indices 1 2 3 4 5 6 
#
# 1 72.2467 29.5263 8.6848 0.0000 0.0000 0.0000
# 2 29.5263 106.7714 31.6711 0.0000 0.0000 0.0000
# 3 8.6848 31.6711 32.3005 0.0000 0.0000 0.0000
# 4 0.0000 0.0000 0.0000 2.9101 0.0000 0.0000
# 5 0.0000 0.0000 0.0000 0.0000 5.8690 0.0000
# 6 0.0000 0.0000 0.0000 0.0000 0.0000 20.8454
#
#
#
# Elastic Compliance Matrix: (Units=1/GPa)
#
#
# Indices 1 2 3 4 5 6 
#
# 1 0.015605 -0.004330 0.000050 0.000000 0.000000 0.000000
# 2 -0.004330 0.014409 -0.012964 0.000000 0.000000 0.000000
# 3 0.000050 -0.012964 0.043657 0.000000 0.000000 0.000000
# 4 0.000000 0.000000 0.000000 0.343637 0.000000 0.000000
# 5 0.000000 0.000000 0.000000 0.000000 0.170387 0.000000
# 6 0.000000 0.000000 0.000000 0.000000 0.000000 0.047972
#
#
# Mechanical properties :
#
#
# Convention : Reuss Voigt Hill
#
# Bulk Modulus (GPa) = 25.52126 39.00921 32.26523
# Shear Modulus (GPa) = 7.31835 15.35398 11.33616
#
# Velocity S-wave (km/s) = 2.06264 2.98764 2.56715
# Velocity P-wave (km/s) = 4.52873 5.88041 5.24826
#
# Compressibility (1/GPa) = 0.03918303
#
# Stress axis : x y z
#
# Youngs Moduli (GPa) = 64.08136 69.40307 22.90596
#
# Poissons Ratio (x) = 0.30053 -0.00115
# Poissons Ratio (y) = 0.27749 0.29694
# Poissons Ratio (z) = -0.00321 0.89971
#
# Static dielectric constant tensor:
#      x y z
#    x 1.591050 0.000000 0.000000 
#    y 0.000000 1.612440 0.000000 
#    z 0.000000 0.000000 1.596570 
# 
# From -- ./inp_files/22653.got.cif
#   From: 2010.05.17/outbox.cif.g08.bks.cpg/sg53_12_cif.got.tgz:22653.got - 2010.06.03 12:45:16.
