data_PCOD9415558
_publ_section_title
;
Structure prediction by ZEFSAII (Michael W. Deem and Ramdas Pophale) SiO2 
 PCOD9415558
Probable space group: P M N A
;
_chemical_formula_sum "Si O2"
_cell_formula_units_Z 32
_cell_length_a 11.765359
_cell_length_b 7.035259
_cell_length_c 18.431971
_cell_angle_alpha 90.000000
_cell_angle_beta 90.000000
_cell_angle_gamma 90.000000
_cell_volume 1525.657514
_symmetry_space_group_name_H-M "P M N A"
_symmetry_group_IT_number 53
_symmetry_cell_setting 'orthorhombic'
loop_
_space_group_symop_operation_xyz
x,y,z
1/2-x,-y,1/2+z
x,-y,-z
1/2-x,y,1/2-z
-x,-y,-z
1/2+x,y,1/2-z
-x,y,z
1/2+x,-y,1/2+z
loop_
_atom_site_type_symbol
_atom_site_label
_atom_site_fract_x
_atom_site_fract_y
_atom_site_fract_z
Si Si1 0.629671 0.121478 0.074264
Si Si2 0.124185 0.429897 0.235734
Si Si3 0.127569 0.745308 0.356579
Si Si4 0.197135 0.470312 0.077915
O O1 0.500000 0.195899 0.077461
O O2 0.721464 0.286269 0.076646
O O3 0.646598 0.970336 0.139796
O O4 0.639517 0.000000 0.000000
O O5 0.250000 0.339267 0.250000
O O6 0.131099 0.628261 0.281288
O O7 0.122617 0.459631 0.149745
O O8 0.000000 0.344171 0.256816
O O9 0.218345 0.645721 0.407703
O O10 0.000000 0.717984 0.386022
O O11 0.140997 0.500000 0.000000
#
# Coordination Sequence:
#
# PCOD9415558 Si02
#       4
#     8   8   8   8
#     4  10  19  31  55  91 123 157 201 251 305 361
#     4   9  20  39  61  84 115 159 203 247 303 362
#     4   9  18  35  56  82 120 159 203 255 302 353
#     4  11  20  32  56  86 122 161 199 248 305 367
#
# _framework density 20.974561999999999
#
# number of rings (size 3 to 8) (size 9 to 14) (size 15 to 20)
#    0.000    2.250    2.500    0.750    0.000    2.500 
#    0.000   11.250    0.000   18.750    0.000    0.000 
#    0.000    0.000    0.000    0.000    0.000    0.000 
#
# Total GULP energy -178247.593968 kJ/mol
# GULP energy per Si atom -5570.237312 kJ/mol
# Density = 2.092682 g / cm^3
# Si number density = 20.974562 Si / 1000 Ang^3
#
#
#
# Elastic Constant Matrix: (Units=GPa)
#
#
# Indices 1 2 3 4 5 6 
#
# 1 128.7577 21.3909 16.8196 0.0000 0.0000 0.0000
# 2 21.3909 48.3243 11.7714 0.0000 0.0000 0.0000
# 3 16.8196 11.7714 142.9863 0.0000 0.0000 0.0000
# 4 0.0000 0.0000 0.0000 30.6329 0.0000 0.0000
# 5 0.0000 0.0000 0.0000 0.0000 318.2871 0.0000
# 6 0.0000 0.0000 0.0000 0.0000 0.0000 7.7663
#
#
#
# Elastic Compliance Matrix: (Units=1/GPa)
#
#
# Indices 1 2 3 4 5 6 
#
# 1 0.008451 -0.003570 -0.000700 0.000000 0.000000 0.000000
# 2 -0.003570 0.022625 -0.001443 0.000000 0.000000 0.000000
# 3 -0.000700 -0.001443 0.007195 0.000000 0.000000 0.000000
# 4 0.000000 0.000000 0.000000 0.032645 0.000000 0.000000
# 5 0.000000 0.000000 0.000000 0.000000 0.003142 0.000000
# 6 0.000000 0.000000 0.000000 0.000000 0.000000 0.128762
#
#
# Mechanical properties :
#
#
# Convention : Reuss Voigt Hill
#
# Bulk Modulus (GPa) = 37.25103 46.67024 41.96063
# Shear Modulus (GPa) = 22.40198 89.34301 55.87250
#
# Velocity S-wave (km/s) = 3.27166 6.53363 5.16682
# Velocity P-wave (km/s) = 5.66306 8.90039 7.45947
#
# Compressibility (1/GPa) = 0.02684490
#
# Stress axis : x y z
#
# Youngs Moduli (GPa) = 118.32711 44.19818 138.98913
#
# Poissons Ratio (x) = 0.15780 0.09732
# Poissons Ratio (y) = 0.42247 0.20051
# Poissons Ratio (z) = 0.08285 0.06376
#
# Static dielectric constant tensor:
#      x y z
#    x 1.753920 0.000000 0.000000 
#    y 0.000000 1.738170 0.000000 
#    z 0.000000 0.000000 1.821420 
# 
# From -- ./inp_files/31564.got.cif
#   From: 2010.05.17/outbox.cif.g08.bks.cpg/sg53_16_cif.got.tgz:31564.got - 2010.06.03 12:45:16.
