data_PCOD9415290
_publ_section_title
;
Structure prediction by ZEFSAII (Michael W. Deem and Ramdas Pophale) SiO2 
 PCOD9415290
Probable space group: P M N A
;
_chemical_formula_sum "Si O2"
_cell_formula_units_Z 48
_cell_length_a 15.896786
_cell_length_b 29.262536
_cell_length_c 5.107739
_cell_angle_alpha 90.000000
_cell_angle_beta 90.000000
_cell_angle_gamma 90.000000
_cell_volume 2376.019420
_symmetry_space_group_name_H-M "P M N A"
_symmetry_group_IT_number 53
_symmetry_cell_setting 'orthorhombic'
loop_
_space_group_symop_operation_xyz
x,y,z
1/2-x,-y,1/2+z
x,-y,-z
1/2-x,y,1/2-z
-x,-y,-z
1/2+x,y,1/2-z
-x,y,z
1/2+x,-y,1/2+z
loop_
_atom_site_type_symbol
_atom_site_label
_atom_site_fract_x
_atom_site_fract_y
_atom_site_fract_z
Si Si1 0.595835 0.468883 0.256482
Si Si2 0.310514 0.851815 0.500590
Si Si3 0.302981 0.615325 0.988079
Si Si4 0.898708 0.295362 0.637844
Si Si5 0.398738 0.241203 0.364484
Si Si6 0.688545 0.049011 0.500626
O O1 0.627441 0.500000 0.500000
O O2 0.500000 0.454023 0.327505
O O3 0.651762 0.426694 0.160870
O O4 0.590833 0.500000 0.000000
O O5 0.250000 0.846499 0.250000
O O6 0.368913 0.808407 0.545582
O O7 0.355830 0.901582 0.489217
O O8 0.250000 0.853265 0.750000
O O9 0.250000 0.636620 0.750000
O O10 0.366913 0.654048 0.081835
O O11 0.250000 0.601811 0.250000
O O12 0.869857 0.277532 0.918667
O O13 0.000000 0.295730 0.634055
O O14 0.869509 0.259146 0.417682
O O15 0.500000 0.241158 0.360232
O O16 0.750000 0.048948 0.750000
O O17 0.641545 0.000000 0.500000
O O18 0.750000 0.048900 0.250000
#
# Coordination Sequence:
#
# PCOD9415290 Si02
#       6
#     8   8   8   8   8   8
#     4  10  22  42  66  88 114 152 192 224 261 321
#     4  10  19  30  49  75 101 133 174 222 271 320
#     4  12  25  39  60  91 121 147 180 230 284 321
#     4  10  22  40  58  77 108 150 188 219 262 327
#     4  10  21  36  54  76 105 142 180 222 271 322
#     4   8  14  25  41  64  94 127 166 212 262 317
#
# _framework density 20.201854000000001
#
# number of rings (size 3 to 8) (size 9 to 14) (size 15 to 20)
#    0.000    2.000    0.000    3.500    0.000    5.333 
#    0.000    6.667    0.000    0.500    0.000    0.000 
#    0.000   17.333    0.000    0.000    0.000    2.667 
#
# Total GULP energy -267688.538438 kJ/mol
# GULP energy per Si atom -5576.844551 kJ/mol
# Density = 2.015587 g / cm^3
# Si number density = 20.201854 Si / 1000 Ang^3
#
#
#
# Elastic Constant Matrix: (Units=GPa)
#
#
# Indices 1 2 3 4 5 6 
#
# 1 16.4631 26.5180 17.6462 0.0000 0.0000 0.0000
# 2 26.5180 117.5332 11.5772 0.0000 0.0000 0.0000
# 3 17.6462 11.5772 124.6954 0.0000 0.0000 0.0000
# 4 0.0000 0.0000 0.0000 32.7125 0.0000 0.0000
# 5 0.0000 0.0000 0.0000 0.0000 25.0394 0.0000
# 6 0.0000 0.0000 0.0000 0.0000 0.0000 88.1001
#
#
#
# Elastic Compliance Matrix: (Units=1/GPa)
#
#
# Indices 1 2 3 4 5 6 
#
# 1 0.115597 -0.024696 -0.014066 0.000000 0.000000 0.000000
# 2 -0.024696 0.013863 0.002208 0.000000 0.000000 0.000000
# 3 -0.014066 0.002208 0.009805 0.000000 0.000000 0.000000
# 4 0.000000 0.000000 0.000000 0.030569 0.000000 0.000000
# 5 0.000000 0.000000 0.000000 0.000000 0.039937 0.000000
# 6 0.000000 0.000000 0.000000 0.000000 0.000000 0.011351
#
#
# Mechanical properties :
#
#
# Convention : Reuss Voigt Hill
#
# Bulk Modulus (GPa) = 15.11545 41.13048 28.12297
# Shear Modulus (GPa) = 15.80867 42.70043 29.25455
#
# Velocity S-wave (km/s) = 2.80042 4.60247 3.80954
# Velocity P-wave (km/s) = 4.23732 6.97479 5.77073
#
# Compressibility (1/GPa) = 0.06615748
#
# Stress axis : x y z
#
# Youngs Moduli (GPa) = 8.65072 72.13635 101.98795
#
# Poissons Ratio (x) = 1.78146 1.43454
# Poissons Ratio (y) = 0.21364 -0.22516
# Poissons Ratio (z) = 0.12168 -0.15926
#
# Static dielectric constant tensor:
#      x y z
#    x 1.729130 0.000000 0.000000 
#    y 0.000000 1.767130 0.000000 
#    z 0.000000 0.000000 1.689110 
# 
# From -- ./inp_files/1430.got.cif
#   From: 2010.05.17/outbox.cif.g08.bks.cpg/sg53_1_cif.got.tgz:1430.got - 2010.06.03 12:45:16.
