data_PCOD9415060
_publ_section_title
;
Structure prediction by ZEFSAII (Michael W. Deem and Ramdas Pophale) SiO2 
 PCOD9415060
Probable space group: P M N A
;
_chemical_formula_sum "Si O2"
_cell_formula_units_Z 60
_cell_length_a 28.796030
_cell_length_b 11.451356
_cell_length_c 8.157574
_cell_angle_alpha 90.000000
_cell_angle_beta 90.000000
_cell_angle_gamma 90.000000
_cell_volume 2689.989320
_symmetry_space_group_name_H-M "P M N A"
_symmetry_group_IT_number 53
_symmetry_cell_setting 'orthorhombic'
loop_
_space_group_symop_operation_xyz
x,y,z
1/2-x,-y,1/2+z
x,-y,-z
1/2-x,y,1/2-z
-x,-y,-z
1/2+x,y,1/2-z
-x,y,z
1/2+x,-y,1/2+z
loop_
_atom_site_type_symbol
_atom_site_label
_atom_site_fract_x
_atom_site_fract_y
_atom_site_fract_z
Si Si1 0.167562 0.500000 0.000000
Si Si2 0.445944 0.682429 0.243858
Si Si3 0.273736 0.703534 0.416000
Si Si4 0.324709 0.285168 0.037200
Si Si5 0.358602 0.818316 0.319464
Si Si6 0.360199 0.939117 0.830506
Si Si7 0.897610 0.571708 0.723685
Si Si8 0.550981 0.791186 0.879446
O O1 0.200708 0.419644 0.891536
O O2 0.133539 0.571462 0.885212
O O3 0.500000 0.674129 0.301035
O O4 0.408554 0.757581 0.349039
O O5 0.423845 0.552947 0.215555
O O6 0.447451 0.748846 0.068641
O O7 0.250000 0.747469 0.250000
O O8 0.229763 0.686854 0.532781
O O9 0.317615 0.786746 0.445702
O O10 0.331481 0.180709 0.168300
O O11 0.359490 0.388498 0.087997
O O12 0.342587 0.238445 0.858327
O O13 0.359610 0.957244 0.299019
O O14 0.412235 0.891919 0.850475
O O15 0.345135 0.000000 0.000000
O O16 0.934788 0.675331 0.719585
O O17 0.500000 0.831255 0.837528
#
# Coordination Sequence:
#
# PCOD9415060 Si02
#       8
#     4   8   8   8   8   8   8   8
#     4  12  26  36  61  82 116 154 193 244 296 368
#     4  11  20  32  57  92 122 157 195 243 302 359
#     4  10  23  38  60  89 115 150 199 247 300 356
#     4   9  20  36  62  84 116 158 192 243 299 353
#     4  10  18  37  58  88 122 155 190 248 297 348
#     4   9  16  32  58  84 121 152 184 238 301 342
#     4  11  22  38  54  84 123 156 192 244 304 357
#     4  10  20  33  58  90 116 153 199 242 291 356
#
# _framework density 22.304919999999999
#
# number of rings (size 3 to 8) (size 9 to 14) (size 15 to 20)
#    0.000    1.867    5.333    0.800    1.867    1.867 
#    0.000    1.333   44.000    0.000    0.000    0.933 
#    0.000    0.000    0.000    0.000    0.000    0.000 
#
# Total GULP energy -334575.204769 kJ/mol
# GULP energy per Si atom -5576.253413 kJ/mol
# Density = 2.225415 g / cm^3
# Si number density = 22.304920 Si / 1000 Ang^3
#
#
#
# Elastic Constant Matrix: (Units=GPa)
#
#
# Indices 1 2 3 4 5 6 
#
# 1 134.2911 -2.0749 19.7026 0.0000 0.0000 0.0000
# 2 -2.0749 54.4355 -0.4267 0.0000 0.0000 0.0000
# 3 19.7026 -0.4267 32.2147 0.0000 0.0000 0.0000
# 4 0.0000 0.0000 0.0000 9.4490 0.0000 0.0000
# 5 0.0000 0.0000 0.0000 0.0000 -1.0070 0.0000
# 6 0.0000 0.0000 0.0000 0.0000 0.0000 9.4831
#
#
#
# Elastic Compliance Matrix: (Units=1/GPa)
#
#
# Indices 1 2 3 4 5 6 
#
# 1 0.008185 0.000273 -0.005002 0.000000 0.000000 0.000000
# 2 0.000273 0.018381 0.000077 0.000000 0.000000 0.000000
# 3 -0.005002 0.000077 0.034102 0.000000 0.000000 0.000000
# 4 0.000000 0.000000 0.000000 0.105832 0.000000 0.000000
# 5 0.000000 0.000000 0.000000 0.000000 -0.993026 0.000000
# 6 0.000000 0.000000 0.000000 0.000000 0.000000 0.105451
#
#
# Mechanical properties :
#
#
# Convention : Reuss Voigt Hill
#
# Bulk Modulus (GPa) = 19.46941 28.37148 23.92045
# Shear Modulus (GPa) = -7.19787 17.16769 4.98491
#
# Velocity S-wave (km/s) = -1.79834 2.77732 1.49658
# Velocity P-wave (km/s) = 2.10610 4.79918 3.70593
#
# Compressibility (1/GPa) = 0.05136262
#
# Stress axis : x y z
#
# Youngs Moduli (GPa) = 122.18043 54.40290 29.32374
#
# Poissons Ratio (x) = -0.01484 0.14668
# Poissons Ratio (y) = -0.03333 -0.00225
# Poissons Ratio (z) = 0.61116 -0.00417
#
# Static dielectric constant tensor:
#      x y z
#    x 1.832460 0.000000 0.000000 
#    y 0.000000 1.824260 0.000000 
#    z 0.000000 0.000000 1.923370 
# 
# From -- ./inp_files/13204.got.cif
#   From: 2010.05.17/outbox.cif.g08.bks.cpg/sg53_7_cif.got.tgz:13204.got - 2010.06.03 12:45:16.
