data_PCOD9415905
_publ_section_title
;
Structure prediction by ZEFSAII (Michael W. Deem and Ramdas Pophale) SiO2 
 PCOD9415905
Probable space group: P M N A
;
_chemical_formula_sum "Si O2"
_cell_formula_units_Z 48
_cell_length_a 14.125605
_cell_length_b 13.570875
_cell_length_c 9.787280
_cell_angle_alpha 90.000000
_cell_angle_beta 90.000000
_cell_angle_gamma 90.000000
_cell_volume 1876.190450
_symmetry_space_group_name_H-M "P M N A"
_symmetry_group_IT_number 53
_symmetry_cell_setting 'orthorhombic'
loop_
_space_group_symop_operation_xyz
x,y,z
1/2-x,-y,1/2+z
x,-y,-z
1/2-x,y,1/2-z
-x,-y,-z
1/2+x,y,1/2-z
-x,y,z
1/2+x,-y,1/2+z
loop_
_atom_site_type_symbol
_atom_site_label
_atom_site_fract_x
_atom_site_fract_y
_atom_site_fract_z
Si Si1 0.111161 0.642165 0.206542
Si Si2 0.330855 0.448128 0.142707
Si Si3 0.390471 0.768686 0.841348
Si Si4 0.608438 0.939336 0.378059
Si Si5 0.892551 0.738233 0.954852
Si Si6 0.616009 0.168247 0.876730
O O1 0.120452 0.535868 0.271860
O O2 0.146459 0.728156 0.307421
O O3 0.000000 0.661178 0.190363
O O4 0.152283 0.655505 0.052985
O O5 0.250000 0.418694 0.250000
O O6 0.387239 0.347150 0.117615
O O7 0.306551 0.500000 0.000000
O O8 0.500000 0.801640 0.831593
O O9 0.349905 0.772287 0.688368
O O10 0.348377 0.829339 0.968222
O O11 0.500000 0.978915 0.362098
O O12 0.602242 0.831032 0.444686
O O13 0.644925 0.919552 0.225240
O O14 0.655939 0.000000 0.500000
O O15 0.000000 0.705345 0.917907
O O16 0.500000 0.167155 0.878946
#
# Coordination Sequence:
#
# PCOD9415905 Si02
#       6
#     8   8   8   8   8   8
#     4   9  17  33  54  70  91 133 182 216 250 304
#     4  12  26  37  48  70 102 134 168 224 274 318
#     4  10  19  33  53  72  96 134 180 221 254 298
#     4   8  13  24  43  69 104 137 159 192 252 314
#     4   8  16  28  46  73  99 128 168 210 249 301
#     4   8  14  26  46  70  92 126 175 211 240 294
#
# _framework density 25.583756999999999
#
# number of rings (size 3 to 8) (size 9 to 14) (size 15 to 20)
#    0.000    2.833    1.667    2.500    2.333    0.667 
#    0.000    3.333    0.000    5.000    0.000    0.000 
#    0.000    8.000    0.000    0.000    0.000    0.000 
#
# Total GULP energy -267839.355849 kJ/mol
# GULP energy per Si atom -5579.986580 kJ/mol
# Density = 2.552553 g / cm^3
# Si number density = 25.583757 Si / 1000 Ang^3
#
#
#
# Elastic Constant Matrix: (Units=GPa)
#
#
# Indices 1 2 3 4 5 6 
#
# 1 65.7641 -1.5190 19.2646 0.0000 0.0000 0.0000
# 2 -1.5190 50.8159 32.4016 0.0000 0.0000 0.0000
# 3 19.2646 32.4016 256.3116 0.0000 0.0000 0.0000
# 4 0.0000 0.0000 0.0000 56.5325 0.0000 0.0000
# 5 0.0000 0.0000 0.0000 0.0000 4.9530 0.0000
# 6 0.0000 0.0000 0.0000 0.0000 0.0000 10.5323
#
#
#
# Elastic Compliance Matrix: (Units=1/GPa)
#
#
# Indices 1 2 3 4 5 6 
#
# 1 0.015630 0.001323 -0.001342 0.000000 0.000000 0.000000
# 2 0.001323 0.021516 -0.002819 0.000000 0.000000 0.000000
# 3 -0.001342 -0.002819 0.004359 0.000000 0.000000 0.000000
# 4 0.000000 0.000000 0.000000 0.017689 0.000000 0.000000
# 5 0.000000 0.000000 0.000000 0.000000 0.201897 0.000000
# 6 0.000000 0.000000 0.000000 0.000000 0.000000 0.094946
#
#
# Mechanical properties :
#
#
# Convention : Reuss Voigt Hill
#
# Bulk Modulus (GPa) = 27.91152 52.57622 40.24387
# Shear Modulus (GPa) = 13.38128 35.91984 24.65056
#
# Velocity S-wave (km/s) = 2.28948 3.75108 3.10744
# Velocity P-wave (km/s) = 4.23350 6.27344 5.35157
#
# Compressibility (1/GPa) = 0.03582751
#
# Stress axis : x y z
#
# Youngs Moduli (GPa) = 63.98141 46.47672 229.42213
#
# Poissons Ratio (x) = -0.06148 0.30788
# Poissons Ratio (y) = -0.08464 0.64683
# Poissons Ratio (z) = 0.08586 0.13104
#
# Static dielectric constant tensor:
#      x y z
#    x 2.099870 0.000000 0.000000 
#    y 0.000000 2.013560 0.000000 
#    z 0.000000 0.000000 2.087540 
# 
# From -- ./inp_files/9921.got.cif
#   From: 2010.05.17/outbox.cif.g08.bks.cpg/sg53_5_cif.got.tgz:9921.got - 2010.06.03 12:45:16.
