data_PCOD9415930
_publ_section_title
;
Structure prediction by ZEFSAII (Michael W. Deem and Ramdas Pophale) SiO2 
 PCOD9415930
Probable space group: P M N A
;
_chemical_formula_sum "Si O2"
_cell_formula_units_Z 48
_cell_length_a 18.120807
_cell_length_b 17.847699
_cell_length_c 7.409336
_cell_angle_alpha 90.000000
_cell_angle_beta 90.000000
_cell_angle_gamma 90.000000
_cell_volume 2396.288246
_symmetry_space_group_name_H-M "P M N A"
_symmetry_group_IT_number 53
_symmetry_cell_setting 'orthorhombic'
loop_
_space_group_symop_operation_xyz
x,y,z
1/2-x,-y,1/2+z
x,-y,-z
1/2-x,y,1/2-z
-x,-y,-z
1/2+x,y,1/2-z
-x,y,z
1/2+x,-y,1/2+z
loop_
_atom_site_type_symbol
_atom_site_label
_atom_site_fract_x
_atom_site_fract_y
_atom_site_fract_z
Si Si1 0.085141 0.651673 0.780102
Si Si2 0.414859 0.651673 0.280101
Si Si3 0.662783 0.806441 0.713509
Si Si4 0.662783 0.806440 0.286490
Si Si5 0.412008 0.088477 1.000000
Si Si6 0.163019 0.500000 0.784309
O O1 0.128598 0.726554 0.727988
O O2 0.124942 0.575986 0.716462
O O3 0.000000 0.654275 0.722837
O O4 0.085533 0.650270 0.000000
O O5 0.500000 0.654274 0.222836
O O6 0.371403 0.726554 0.227987
O O7 0.375057 0.575987 0.216462
O O8 0.750000 0.806467 0.750000
O O9 0.649892 0.815625 0.500000
O O10 0.623715 0.871104 0.827400
O O11 0.750000 0.806466 0.250000
O O12 0.623715 0.871104 0.172599
O O13 0.500000 0.099829 0.999999
O O14 0.396939 0.000000 0.000000
O O15 0.250000 0.500001 0.750000
O O16 0.152470 0.500000 0.000000
#
# Coordination Sequence:
#
# PCOD9415930 Si02
#       6
#     8   8   8   8   8   8
#     4   9  18  33  57  85 117 159 208 254 308 368
#     4   9  18  33  57  85 117 159 208 254 308 368
#     4  11  22  41  66  96 128 168 211 262 315 379
#     4  11  22  41  66  96 128 168 211 262 315 379
#     4  11  26  46  68  97 130 164 207 261 324 386
#     4  10  19  33  53  79 115 158 202 255 304 360
#
# _framework density 20.03098
#
# number of rings (size 3 to 8) (size 9 to 14) (size 15 to 20)
#    0.000    1.833    1.667    2.500    0.000    5.333 
#    3.000    1.667    0.000    1.000    0.000    0.000 
#    0.000    0.000    0.000    0.000    0.000    0.000 
#
# Total GULP energy -268419.300386 kJ/mol
# GULP energy per Si atom -5592.068758 kJ/mol
# Density = 1.998539 g / cm^3
# Si number density = 20.030980 Si / 1000 Ang^3
#
#
#
# Elastic Constant Matrix: (Units=GPa)
#
#
# Indices 1 2 3 4 5 6 
#
# 1 190.4582 139.4784 38.3288 0.0000 0.0000 0.0000
# 2 139.4784 218.8263 64.2464 0.0000 0.0000 0.0000
# 3 38.3288 64.2464 109.6714 0.0000 0.0000 0.0000
# 4 0.0000 0.0000 0.0000 39.8683 0.0000 0.0000
# 5 0.0000 0.0000 0.0000 0.0000 10.7326 0.0000
# 6 0.0000 0.0000 0.0000 0.0000 0.0000 123.0149
#
#
#
# Elastic Compliance Matrix: (Units=1/GPa)
#
#
# Indices 1 2 3 4 5 6 
#
# 1 0.009854 -0.006364 0.000284 0.000000 0.000000 0.000000
# 2 -0.006364 0.009630 -0.003417 0.000000 0.000000 0.000000
# 3 0.000284 -0.003417 0.011020 0.000000 0.000000 0.000000
# 4 0.000000 0.000000 0.000000 0.025083 0.000000 0.000000
# 5 0.000000 0.000000 0.000000 0.000000 0.093174 0.000000
# 6 0.000000 0.000000 0.000000 0.000000 0.000000 0.008129
#
#
# Mechanical properties :
#
#
# Convention : Reuss Voigt Hill
#
# Bulk Modulus (GPa) = 86.87750 111.45147 99.16449
# Shear Modulus (GPa) = 27.82093 53.18330 40.50211
#
# Velocity S-wave (km/s) = 3.73083 5.15831 4.50151
# Velocity P-wave (km/s) = 7.87557 9.55185 8.75393
#
# Compressibility (1/GPa) = 0.01151046
#
# Stress axis : x y z
#
# Youngs Moduli (GPa) = 101.47992 103.84550 90.74126
#
# Poissons Ratio (x) = 0.66092 -0.02581
# Poissons Ratio (y) = 0.64587 0.31005
# Poissons Ratio (z) = -0.02887 0.35482
#
# Static dielectric constant tensor:
#      x y z
#    x 1.659220 0.000000 0.000000 
#    y 0.000000 1.667390 0.000000 
#    z 0.000000 0.000000 1.748550 
# 
# From -- ./inp_files/10098.got.cif
#   From: 2010.05.17/outbox.cif.g08.bks.cpg/sg53_6_cif.got.tgz:10098.got - 2010.06.03 12:45:16.
