data_PCOD9415786
_publ_section_title
;
Structure prediction by ZEFSAII (Michael W. Deem and Ramdas Pophale) SiO2 
 PCOD9415786
Probable space group: P M N A
;
_chemical_formula_sum "Si O2"
_cell_formula_units_Z 48
_cell_length_a 9.072299
_cell_length_b 9.818694
_cell_length_c 31.249401
_cell_angle_alpha 90.000000
_cell_angle_beta 90.000000
_cell_angle_gamma 90.000000
_cell_volume 2783.638135
_symmetry_space_group_name_H-M "P M N A"
_symmetry_group_IT_number 53
_symmetry_cell_setting 'orthorhombic'
loop_
_space_group_symop_operation_xyz
x,y,z
1/2-x,-y,1/2+z
x,-y,-z
1/2-x,y,1/2-z
-x,-y,-z
1/2+x,y,1/2-z
-x,y,z
1/2+x,-y,1/2+z
loop_
_atom_site_type_symbol
_atom_site_label
_atom_site_fract_x
_atom_site_fract_y
_atom_site_fract_z
Si Si1 0.673868 0.401914 0.355468
Si Si2 0.674426 0.814258 0.568308
Si Si3 0.324353 0.190935 0.204246
Si Si4 0.320468 0.348203 0.513458
Si Si5 0.677909 0.697953 0.388473
Si Si6 0.675812 0.022128 0.870240
O O1 0.500000 0.397936 0.344626
O O2 0.690635 0.313075 0.398934
O O3 0.765202 0.326963 0.318866
O O4 0.716743 0.556736 0.365175
O O5 0.500000 0.847788 0.566352
O O6 0.725300 0.761929 0.522020
O O7 0.760457 0.939271 0.589148
O O8 0.250000 0.172547 0.250000
O O9 0.500000 0.196485 0.208606
O O10 0.286519 0.068615 0.171428
O O11 0.271862 0.500000 0.500000
O O12 0.500000 0.350305 0.512371
O O13 0.276830 0.314269 0.561695
O O14 0.500000 0.710592 0.387340
O O15 0.751885 0.830187 0.368611
O O16 0.500000 0.031294 0.873230
#
# Coordination Sequence:
#
# PCOD9415786 Si02
#       6
#     8   8   8   8   8   8
#     4   9  17  31  54  81 106 133 169 213 260 309
#     4   9  16  30  53  76 101 138 182 224 259 298
#     4  10  21  38  60  81 101 130 169 212 259 316
#     4   9  15  27  50  79 106 135 180 231 264 291
#     4  10  19  32  53  80 108 140 178 218 260 304
#     4  10  22  37  51  73 109 145 174 212 265 317
#
# _framework density 17.24362
#
# number of rings (size 3 to 8) (size 9 to 14) (size 15 to 20)
#    0.000    2.500    1.667    1.000    0.000    3.333 
#    0.000    5.000    0.000    3.000    0.000    0.000 
#    0.000    0.000    0.000    0.000    0.000    0.000 
#
# Total GULP energy -267768.996265 kJ/mol
# GULP energy per Si atom -5578.520756 kJ/mol
# Density = 1.720437 g / cm^3
# Si number density = 17.243620 Si / 1000 Ang^3
#
#
#
# Elastic Constant Matrix: (Units=GPa)
#
#
# Indices 1 2 3 4 5 6 
#
# 1 31.9500 48.0744 40.4866 0.0000 0.0000 0.0000
# 2 48.0744 129.5172 47.4132 0.0000 0.0000 0.0000
# 3 40.4866 47.4132 100.0460 0.0000 0.0000 0.0000
# 4 0.0000 0.0000 0.0000 12.7332 0.0000 0.0000
# 5 0.0000 0.0000 0.0000 0.0000 13.8431 0.0000
# 6 0.0000 0.0000 0.0000 0.0000 0.0000 -23.9984
#
#
#
# Elastic Compliance Matrix: (Units=1/GPa)
#
#
# Indices 1 2 3 4 5 6 
#
# 1 0.128690 -0.034728 -0.035620 0.000000 0.000000 0.000000
# 2 -0.034728 0.018713 0.005185 0.000000 0.000000 0.000000
# 3 -0.035620 0.005185 0.021953 0.000000 0.000000 0.000000
# 4 0.000000 0.000000 0.000000 0.078535 0.000000 0.000000
# 5 0.000000 0.000000 0.000000 0.000000 0.072238 0.000000
# 6 0.000000 0.000000 0.000000 0.000000 0.000000 -0.041669
#
#
# Mechanical properties :
#
#
# Convention : Reuss Voigt Hill
#
# Bulk Modulus (GPa) = 25.62095 59.27349 42.44722
# Shear Modulus (GPa) = 11.85407 8.88485 10.36946
#
# Velocity S-wave (km/s) = 2.62477 2.27238 2.45491
# Velocity P-wave (km/s) = 4.90676 6.42913 5.71883
#
# Compressibility (1/GPa) = 0.03903056
#
# Stress axis : x y z
#
# Youngs Moduli (GPa) = 7.77058 53.43858 45.55196
#
# Poissons Ratio (x) = 1.85580 1.62258
# Poissons Ratio (y) = 0.26985 -0.23620
# Poissons Ratio (z) = 0.27679 -0.27709
#
# Static dielectric constant tensor:
#      x y z
#    x 1.572950 0.000000 0.000000 
#    y 0.000000 1.573140 0.000000 
#    z 0.000000 0.000000 1.573260 
# 
# From -- ./inp_files/37701.got.cif
#   From: 2010.05.17/outbox.cif.g08.bks.cpg/sg53_19_cif.got.tgz:37701.got - 2010.06.03 12:45:16.
