data_PCOD9415716
_publ_section_title
;
Structure prediction by ZEFSAII (Michael W. Deem and Ramdas Pophale) SiO2 
 PCOD9415716
Probable space group: P M N A
;
_chemical_formula_sum "Si O2"
_cell_formula_units_Z 56
_cell_length_a 8.036479
_cell_length_b 18.620706
_cell_length_c 19.584389
_cell_angle_alpha 90.000000
_cell_angle_beta 90.000000
_cell_angle_gamma 90.000000
_cell_volume 2930.704183
_symmetry_space_group_name_H-M "P M N A"
_symmetry_group_IT_number 53
_symmetry_cell_setting 'orthorhombic'
loop_
_space_group_symop_operation_xyz
x,y,z
1/2-x,-y,1/2+z
x,-y,-z
1/2-x,y,1/2-z
-x,-y,-z
1/2+x,y,1/2-z
-x,y,z
1/2+x,-y,1/2+z
loop_
_atom_site_type_symbol
_atom_site_label
_atom_site_fract_x
_atom_site_fract_y
_atom_site_fract_z
Si Si1 0.799452 0.474120 0.170383
Si Si2 0.799836 0.802910 0.564803
Si Si3 0.801147 0.317711 0.170880
Si Si4 0.799867 0.229854 0.587206
Si Si5 0.199052 0.369271 0.829395
Si Si6 0.796712 0.966050 0.572826
Si Si7 0.799209 0.908829 0.328514
O O1 0.750000 0.474045 0.250000
O O2 0.739108 0.396360 0.144729
O O3 0.739352 0.552050 0.145083
O O4 0.000000 0.474246 0.164431
O O5 0.757203 0.746755 0.623521
O O6 0.738255 0.776712 0.490546
O O7 0.739217 0.883989 0.578739
O O8 0.000000 0.807014 0.560911
O O9 0.750000 0.308906 0.250000
O O10 0.000000 0.319289 0.169160
O O11 0.757644 0.303752 0.624517
O O12 0.738552 0.161911 0.631397
O O13 0.000000 0.224484 0.584985
O O14 0.250000 0.359682 0.750000
O O15 0.000000 0.370275 0.830801
O O16 0.000000 0.965193 0.573772
O O17 0.748629 0.000000 0.500000
O O18 0.740817 0.019616 0.632424
O O19 0.750000 0.907161 0.250000
O O20 0.000000 0.908355 0.332207
#
# Coordination Sequence:
#
# PCOD9415716 Si02
#       7
#     8   8   8   8   8   8   8
#     4   8  16  31  51  74 100 135 175 215 261 314
#     4  10  20  35  57  81 105 138 180 219 261 315
#     4  10  20  36  57  80 107 137 174 220 269 316
#     4  10  20  34  52  76 107 142 178 214 258 314
#     4  10  19  32  52  77 105 138 178 220 263 311
#     4   9  16  33  58  77  97 136 181 215 254 311
#     4  10  20  34  54  79 105 136 175 216 260 309
#
# _framework density 19.108035000000001
#
# number of rings (size 3 to 8) (size 9 to 14) (size 15 to 20)
#    0.000    2.429    1.429    1.286    0.000    4.000 
#    0.000    2.857    0.000    5.143    0.000    0.000 
#    0.000    0.000    0.000    0.000    0.000    0.000 
#
# Total GULP energy -312244.109694 kJ/mol
# GULP energy per Si atom -5575.787673 kJ/mol
# Density = 1.906454 g / cm^3
# Si number density = 19.108035 Si / 1000 Ang^3
#
#
#
# Elastic Constant Matrix: (Units=GPa)
#
#
# Indices 1 2 3 4 5 6 
#
# 1 14.8348 14.3838 7.9485 0.0000 0.0000 0.0000
# 2 14.3838 235.6346 105.2152 0.0000 0.0000 0.0000
# 3 7.9485 105.2152 122.8820 0.0000 0.0000 0.0000
# 4 0.0000 0.0000 0.0000 7.1658 0.0000 0.0000
# 5 0.0000 0.0000 0.0000 0.0000 23.2342 0.0000
# 6 0.0000 0.0000 0.0000 0.0000 0.0000 19.8223
#
#
#
# Elastic Compliance Matrix: (Units=1/GPa)
#
#
# Indices 1 2 3 4 5 6 
#
# 1 0.071808 -0.003739 -0.001444 0.000000 0.000000 0.000000
# 2 -0.003739 0.007065 -0.005808 0.000000 0.000000 0.000000
# 3 -0.001444 -0.005808 0.013204 0.000000 0.000000 0.000000
# 4 0.000000 0.000000 0.000000 0.139551 0.000000 0.000000
# 5 0.000000 0.000000 0.000000 0.000000 0.043040 0.000000
# 6 0.000000 0.000000 0.000000 0.000000 0.000000 0.050448
#
#
# Mechanical properties :
#
#
# Convention : Reuss Voigt Hill
#
# Bulk Modulus (GPa) = 14.26599 69.82738 42.04668
# Shear Modulus (GPa) = 13.49667 26.43141 19.96404
#
# Velocity S-wave (km/s) = 2.66058 3.72326 3.23584
# Velocity P-wave (km/s) = 4.11344 7.42336 6.00111
#
# Compressibility (1/GPa) = 0.07009679
#
# Stress axis : x y z
#
# Youngs Moduli (GPa) = 13.92611 141.53627 75.73467
#
# Poissons Ratio (x) = 0.52917 0.10933
# Poissons Ratio (y) = 0.05207 0.43984
# Poissons Ratio (z) = 0.02010 0.82200
#
# Static dielectric constant tensor:
#      x y z
#    x 1.698680 0.000000 0.000000 
#    y 0.000000 1.701970 0.000000 
#    z 0.000000 0.000000 1.621590 
# 
# From -- ./inp_files/31060.got.cif
#   From: 2010.05.17/outbox.cif.g08.bks.cpg/sg53_16_cif.got.tgz:31060.got - 2010.06.03 12:45:16.
