data_PCOD9415628
_publ_section_title
;
Structure prediction by ZEFSAII (Michael W. Deem and Ramdas Pophale) SiO2 
 PCOD9415628
Probable space group: P M N A
;
_chemical_formula_sum "Si O2"
_cell_formula_units_Z 56
_cell_length_a 8.800420
_cell_length_b 13.610794
_cell_length_c 24.391259
_cell_angle_alpha 90.000000
_cell_angle_beta 90.000000
_cell_angle_gamma 90.000000
_cell_volume 2921.602168
_symmetry_space_group_name_H-M "P M N A"
_symmetry_group_IT_number 53
_symmetry_cell_setting 'orthorhombic'
loop_
_space_group_symop_operation_xyz
x,y,z
1/2-x,-y,1/2+z
x,-y,-z
1/2-x,y,1/2-z
-x,-y,-z
1/2+x,y,1/2-z
-x,y,z
1/2+x,-y,1/2+z
loop_
_atom_site_type_symbol
_atom_site_label
_atom_site_fract_x
_atom_site_fract_y
_atom_site_fract_z
Si Si1 0.679200 0.159059 0.414100
Si Si2 0.182975 0.468605 0.191828
Si Si3 0.681824 0.840634 0.310593
Si Si4 0.320551 0.954188 0.090562
Si Si5 0.318843 0.251704 0.192063
Si Si6 0.178246 0.242114 0.518311
Si Si7 0.318764 0.351441 0.616380
O O1 0.500000 0.163461 0.405946
O O2 0.764584 0.185974 0.358170
O O3 0.730064 0.232536 0.462211
O O4 0.731841 0.049479 0.429643
O O5 0.250000 0.504225 0.250000
O O6 0.252863 0.361271 0.182542
O O7 0.222154 0.545756 0.144414
O O8 0.000000 0.461725 0.195800
O O9 0.750000 0.843096 0.250000
O O10 0.500000 0.854000 0.309083
O O11 0.757468 0.921198 0.350259
O O12 0.713662 0.735688 0.339887
O O13 0.500000 0.975622 0.092909
O O14 0.298784 0.860499 0.051142
O O15 0.250000 0.217304 0.250000
O O16 0.500000 0.255345 0.195716
O O17 0.234736 0.325119 0.560224
O O18 0.000000 0.252540 0.506664
O O19 0.500000 0.349856 0.606548
#
# Coordination Sequence:
#
# PCOD9415628 Si02
#       7
#     8   8   8   8   8   8   8
#     4  12  24  39  60  83 109 144 184 226 275 327
#     4  10  19  34  57  85 115 148 186 226 273 326
#     4  10  19  32  50  77 112 148 185 225 274 326
#     4  10  21  37  56  80 110 145 186 229 273 324
#     4  11  23  41  62  85 113 143 182 229 275 325
#     4  10  21  37  58  84 114 146 183 227 272 323
#     4   9  19  34  54  81 114 149 184 225 272 325
#
# _framework density 19.167565
#
# number of rings (size 3 to 8) (size 9 to 14) (size 15 to 20)
#    0.000    1.714    0.000    6.000    0.000    5.714 
#    0.000    3.571    0.000    4.286    0.000    0.000 
#    0.000    0.000    0.000    0.000    0.000    0.000 
#
# Total GULP energy -312996.067623 kJ/mol
# GULP energy per Si atom -5589.215493 kJ/mol
# Density = 1.912394 g / cm^3
# Si number density = 19.167565 Si / 1000 Ang^3
#
#
#
# Elastic Constant Matrix: (Units=GPa)
#
#
# Indices 1 2 3 4 5 6 
#
# 1 94.8736 18.3359 36.3247 0.0000 0.0000 0.0000
# 2 18.3359 20.8130 -0.8812 0.0000 0.0000 0.0000
# 3 36.3247 -0.8812 64.9186 0.0000 0.0000 0.0000
# 4 0.0000 0.0000 0.0000 20.3663 0.0000 0.0000
# 5 0.0000 0.0000 0.0000 0.0000 28.3972 0.0000
# 6 0.0000 0.0000 0.0000 0.0000 0.0000 33.6377
#
#
#
# Elastic Compliance Matrix: (Units=1/GPa)
#
#
# Indices 1 2 3 4 5 6 
#
# 1 0.017390 -0.015741 -0.009944 0.000000 0.000000 0.000000
# 2 -0.015741 0.062323 0.009654 0.000000 0.000000 0.000000
# 3 -0.009944 0.009654 0.021099 0.000000 0.000000 0.000000
# 4 0.000000 0.000000 0.000000 0.049101 0.000000 0.000000
# 5 0.000000 0.000000 0.000000 0.000000 0.035215 0.000000
# 6 0.000000 0.000000 0.000000 0.000000 0.000000 0.029729
#
#
# Mechanical properties :
#
#
# Convention : Reuss Voigt Hill
#
# Bulk Modulus (GPa) = 14.54556 32.01825 23.28191
# Shear Modulus (GPa) = 18.52978 24.93530 21.73254
#
# Velocity S-wave (km/s) = 3.11259 3.61073 3.37087
# Velocity P-wave (km/s) = 4.53021 5.84156 5.22717
#
# Compressibility (1/GPa) = 0.06874949
#
# Stress axis : x y z
#
# Youngs Moduli (GPa) = 57.50454 16.04532 47.39546
#
# Poissons Ratio (x) = 0.25257 0.47130
# Poissons Ratio (y) = 0.90519 -0.45755
# Poissons Ratio (z) = 0.57183 -0.15490
#
# Static dielectric constant tensor:
#      x y z
#    x 1.635460 0.000000 0.000000 
#    y 0.000000 1.668130 0.000000 
#    z 0.000000 0.000000 1.656680 
# 
# From -- ./inp_files/30826.got.cif
#   From: 2010.05.17/outbox.cif.g08.bks.cpg/sg53_16_cif.got.tgz:30826.got - 2010.06.03 12:45:16.
