data_PCOD9415313
_publ_section_title
;
Structure prediction by ZEFSAII (Michael W. Deem and Ramdas Pophale) SiO2 
 PCOD9415313
Probable space group: P M N A
;
_chemical_formula_sum "Si O2"
_cell_formula_units_Z 56
_cell_length_a 20.616997
_cell_length_b 9.064385
_cell_length_c 15.206350
_cell_angle_alpha 90.000000
_cell_angle_beta 90.000000
_cell_angle_gamma 90.000000
_cell_volume 2841.768745
_symmetry_space_group_name_H-M "P M N A"
_symmetry_group_IT_number 53
_symmetry_cell_setting 'orthorhombic'
loop_
_space_group_symop_operation_xyz
x,y,z
1/2-x,-y,1/2+z
x,-y,-z
1/2-x,y,1/2-z
-x,-y,-z
1/2+x,y,1/2-z
-x,y,z
1/2+x,-y,1/2+z
loop_
_atom_site_type_symbol
_atom_site_label
_atom_site_fract_x
_atom_site_fract_y
_atom_site_fract_z
Si Si1 0.305631 0.794346 0.820141
Si Si2 0.816770 0.265227 0.903443
Si Si3 0.425998 0.627830 0.739639
Si Si4 0.318702 0.908290 0.088730
Si Si5 0.774205 0.475641 0.408346
Si Si6 0.926420 0.669273 0.967306
Si Si7 0.362023 0.334661 0.787749
O O1 0.250000 0.771500 0.750000
O O2 0.373718 0.721510 0.793839
O O3 0.275766 0.698538 0.899437
O O4 0.314005 0.963532 0.839801
O O5 0.752772 0.166134 0.918090
O O6 0.792352 0.435094 0.914129
O O7 0.840710 0.254989 0.802434
O O8 0.873598 0.244594 0.974311
O O9 0.500000 0.669231 0.759039
O O10 0.412893 0.661227 0.636852
O O11 0.417013 0.453139 0.761412
O O12 0.365634 0.783160 0.131925
O O13 0.336428 0.000000 0.000000
O O14 0.811071 0.500000 0.500000
O O15 0.807296 0.553020 0.325024
O O16 0.000000 0.727488 0.979645
O O17 0.927292 0.500000 0.000000
#
# Coordination Sequence:
#
# PCOD9415313 Si02
#       7
#     8   8   8   8   8   8   8
#     4  11  22  36  59  90 123 163 208 255 308 368
#     4  11  20  35  56  86 122 163 201 253 315 369
#     4  10  22  40  65  94 126 161 205 259 316 374
#     4  11  24  39  58  86 124 164 206 261 310 369
#     4  10  19  30  53  83 115 150 200 260 309 356
#     4  10  20  34  59  94 126 160 204 246 304 388
#     4  10  20  37  56  83 120 156 205 251 305 369
#
# _framework density 19.706036999999998
#
# number of rings (size 3 to 8) (size 9 to 14) (size 15 to 20)
#    0.000    1.571    1.429    6.429    4.000    0.000 
#    0.000    0.714    0.000   19.286    0.000    0.000 
#    0.000    0.000    0.000    0.000    0.000    0.000 
#
# Total GULP energy -311991.435249 kJ/mol
# GULP energy per Si atom -5571.275629 kJ/mol
# Density = 1.966119 g / cm^3
# Si number density = 19.706037 Si / 1000 Ang^3
#
#
#
# Elastic Constant Matrix: (Units=GPa)
#
#
# Indices 1 2 3 4 5 6 
#
# 1 89.7376 37.3401 44.4144 0.0000 0.0000 0.0000
# 2 37.3401 75.6927 27.4423 0.0000 0.0000 0.0000
# 3 44.4144 27.4423 91.4718 0.0000 0.0000 0.0000
# 4 0.0000 0.0000 0.0000 35.5428 0.0000 0.0000
# 5 0.0000 0.0000 0.0000 0.0000 28.0102 0.0000
# 6 0.0000 0.0000 0.0000 0.0000 0.0000 18.4169
#
#
#
# Elastic Compliance Matrix: (Units=1/GPa)
#
#
# Indices 1 2 3 4 5 6 
#
# 1 0.016772 -0.005971 -0.006352 0.000000 0.000000 0.000000
# 2 -0.005971 0.016949 -0.002186 0.000000 0.000000 0.000000
# 3 -0.006352 -0.002186 0.014673 0.000000 0.000000 0.000000
# 4 0.000000 0.000000 0.000000 0.028135 0.000000 0.000000
# 5 0.000000 0.000000 0.000000 0.000000 0.035701 0.000000
# 6 0.000000 0.000000 0.000000 0.000000 0.000000 0.054298
#
#
# Mechanical properties :
#
#
# Convention : Reuss Voigt Hill
#
# Bulk Modulus (GPa) = 51.61073 52.81064 52.21069
# Shear Modulus (GPa) = 24.75186 26.24099 25.49643
#
# Velocity S-wave (km/s) = 3.54793 3.65310 3.60090
# Velocity P-wave (km/s) = 6.55980 6.68213 6.62125
#
# Compressibility (1/GPa) = 0.01937581
#
# Stress axis : x y z
#
# Youngs Moduli (GPa) = 59.62265 58.99973 68.15447
#
# Poissons Ratio (x) = 0.35228 0.43295
# Poissons Ratio (y) = 0.35600 0.14897
# Poissons Ratio (z) = 0.37875 0.12896
#
# Static dielectric constant tensor:
#      x y z
#    x 1.700930 0.000000 0.000000 
#    y 0.000000 1.758940 0.000000 
#    z 0.000000 0.000000 1.752820 
# 
# From -- ./inp_files/24337.got.cif
#   From: 2010.05.17/outbox.cif.g08.bks.cpg/sg53_13_cif.got.tgz:24337.got - 2010.06.03 12:45:16.
