data_PCOD9415799
_publ_section_title
;
Structure prediction by ZEFSAII (Michael W. Deem and Ramdas Pophale) SiO2 
 PCOD9415799
Probable space group: P M N A
;
_chemical_formula_sum "Si O2"
_cell_formula_units_Z 40
_cell_length_a 14.666277
_cell_length_b 8.806582
_cell_length_c 16.982461
_cell_angle_alpha 90.000000
_cell_angle_beta 90.000000
_cell_angle_gamma 90.000000
_cell_volume 2193.450774
_symmetry_space_group_name_H-M "P M N A"
_symmetry_group_IT_number 53
_symmetry_cell_setting 'orthorhombic'
loop_
_space_group_symop_operation_xyz
x,y,z
1/2-x,-y,1/2+z
x,-y,-z
1/2-x,y,1/2-z
-x,-y,-z
1/2+x,y,1/2-z
-x,y,z
1/2+x,-y,1/2+z
loop_
_atom_site_type_symbol
_atom_site_label
_atom_site_fract_x
_atom_site_fract_y
_atom_site_fract_z
Si Si1 0.391377 0.326954 0.973205
Si Si2 0.897159 0.679864 0.904883
Si Si3 0.766069 0.894935 0.574584
Si Si4 0.774429 0.186028 0.659643
Si Si5 0.601234 0.335329 0.594528
O O1 0.500000 0.300628 0.971524
O O2 0.340602 0.217311 0.035914
O O3 0.374131 0.500000 0.000000
O O4 0.346085 0.291080 0.888028
O O5 0.817297 0.798743 0.889791
O O6 0.877020 0.507398 0.877991
O O7 0.000000 0.721739 0.878717
O O8 0.900209 0.666891 0.999919
O O9 0.736739 0.000000 0.500000
O O10 0.802210 0.013464 0.639206
O O11 0.750000 0.213211 0.750000
O O12 0.677399 0.220097 0.619899
O O13 0.500000 0.296693 0.622879
#
# Coordination Sequence:
#
# PCOD9415799 Si02
#       5
#     8   8   8   8   8
#     4  10  21  40  65  85 104 146 206 249 276 324
#     4   9  16  29  53  81 105 132 173 221 261 313
#     4  10  19  32  53  81 111 142 184 223 272 334
#     4  11  23  36  53  82 118 149 178 228 294 344
#     4   9  17  31  53  79 107 137 172 215 265 320
#
# _framework density 18.236105999999999
#
# number of rings (size 3 to 8) (size 9 to 14) (size 15 to 20)
#    0.000    2.200    4.000    2.400    0.000    5.600 
#    0.000    4.000    0.000    2.400    0.000    0.000 
#    0.000    0.000    0.000    0.000    0.000    0.000 
#
# Total GULP energy -222713.734262 kJ/mol
# GULP energy per Si atom -5567.843357 kJ/mol
# Density = 1.819460 g / cm^3
# Si number density = 18.236106 Si / 1000 Ang^3
#
#
#
# Elastic Constant Matrix: (Units=GPa)
#
#
# Indices 1 2 3 4 5 6 
#
# 1 94.9710 62.8024 31.1013 0.0000 0.0000 0.0000
# 2 62.8024 94.3213 31.2031 0.0000 0.0000 0.0000
# 3 31.1013 31.2031 62.3220 0.0000 0.0000 0.0000
# 4 0.0000 0.0000 0.0000 7.0086 0.0000 0.0000
# 5 0.0000 0.0000 0.0000 0.0000 3.9250 0.0000
# 6 0.0000 0.0000 0.0000 0.0000 0.0000 -244.9203
#
#
#
# Elastic Compliance Matrix: (Units=1/GPa)
#
#
# Indices 1 2 3 4 5 6 
#
# 1 0.019568 -0.011743 -0.003885 0.000000 0.000000 0.000000
# 2 -0.011743 0.019754 -0.004030 0.000000 0.000000 0.000000
# 3 -0.003885 -0.004030 0.020002 0.000000 0.000000 0.000000
# 4 0.000000 0.000000 0.000000 0.142682 0.000000 0.000000
# 5 0.000000 0.000000 0.000000 0.000000 0.254778 0.000000
# 6 0.000000 0.000000 0.000000 0.000000 0.000000 -0.004083
#
#
# Mechanical properties :
#
#
# Convention : Reuss Voigt Hill
#
# Bulk Modulus (GPa) = 49.98343 55.75866 52.87104
# Shear Modulus (GPa) = 10.02630 -38.36351 -14.16861
#
# Velocity S-wave (km/s) = 2.34734 -4.59160 -2.79041
# Velocity P-wave (km/s) = 5.90044 1.59121 4.32129
#
# Compressibility (1/GPa) = 0.02000663
#
# Stress axis : x y z
#
# Youngs Moduli (GPa) = 51.10482 50.62148 49.99383
#
# Poissons Ratio (x) = 0.59447 0.19425
# Poissons Ratio (y) = 0.60015 0.20148
# Poissons Ratio (z) = 0.19856 0.20401
#
# Static dielectric constant tensor:
#      x y z
#    x 1.630540 0.000000 0.000000 
#    y 0.000000 1.666850 0.000000 
#    z 0.000000 0.000000 1.662730 
# 
# From -- ./inp_files/22437.got.cif
#   From: 2010.05.17/outbox.cif.g08.bks.cpg/sg53_12_cif.got.tgz:22437.got - 2010.06.03 12:45:16.
