data_PCOD9415813
_publ_section_title
;
Structure prediction by ZEFSAII (Michael W. Deem and Ramdas Pophale) SiO2 
 PCOD9415813
Probable space group: P M N A
;
_chemical_formula_sum "Si O2"
_cell_formula_units_Z 40
_cell_length_a 26.966106
_cell_length_b 7.382569
_cell_length_c 9.880591
_cell_angle_alpha 90.000000
_cell_angle_beta 90.000000
_cell_angle_gamma 90.000000
_cell_volume 1967.019541
_symmetry_space_group_name_H-M "P M N A"
_symmetry_group_IT_number 53
_symmetry_cell_setting 'orthorhombic'
loop_
_space_group_symop_operation_xyz
x,y,z
1/2-x,-y,1/2+z
x,-y,-z
1/2-x,y,1/2-z
-x,-y,-z
1/2+x,y,1/2-z
-x,y,z
1/2+x,-y,1/2+z
loop_
_atom_site_type_symbol
_atom_site_label
_atom_site_fract_x
_atom_site_fract_y
_atom_site_fract_z
Si Si1 0.904811 0.459859 0.848633
Si Si2 0.692700 0.504743 0.785016
Si Si3 0.556688 0.254937 0.137140
Si Si4 0.941432 0.068564 0.849639
Si Si5 0.843262 0.214537 0.501363
O O1 0.847059 0.512813 0.835623
O O2 0.933623 0.574377 0.735103
O O3 0.911802 0.249237 0.821126
O O4 0.923569 0.500000 0.000000
O O5 0.750000 0.494286 0.750000
O O6 0.682164 0.682738 0.875026
O O7 0.676861 0.328036 0.871933
O O8 0.500000 0.251886 0.088475
O O9 0.597903 0.248928 0.021037
O O10 0.565878 0.083454 0.235976
O O11 0.000000 0.111821 0.852768
O O12 0.927976 0.000000 0.000000
O O13 0.834022 0.000000 0.500000
#
# Coordination Sequence:
#
# PCOD9415813 Si02
#       5
#     8   8   8   8   8
#     4  11  21  35  59  87 120 160 204 253 304 362
#     4  10  24  43  64  87 120 157 202 259 314 360
#     4  10  21  37  60  90 126 166 201 242 299 363
#     4  10  19  32  53  85 124 162 199 242 293 353
#     4  10  22  43  65  90 124 158 204 252 300 371
#
# _framework density 20.335334
#
# number of rings (size 3 to 8) (size 9 to 14) (size 15 to 20)
#    0.000    1.800    2.000    1.800    2.800    2.000 
#    0.000   10.000    0.000    0.000    0.000    0.000 
#    0.000    0.000    0.000    0.000    0.000    0.000 
#
# Total GULP energy -223612.667283 kJ/mol
# GULP energy per Si atom -5590.316682 kJ/mol
# Density = 2.028905 g / cm^3
# Si number density = 20.335334 Si / 1000 Ang^3
#
#
#
# Elastic Constant Matrix: (Units=GPa)
#
#
# Indices 1 2 3 4 5 6 
#
# 1 125.2602 54.1517 30.7445 0.0000 0.0000 0.0000
# 2 54.1517 141.4912 29.7668 0.0000 0.0000 0.0000
# 3 30.7445 29.7668 58.3538 0.0000 0.0000 0.0000
# 4 0.0000 0.0000 0.0000 12.9737 0.0000 0.0000
# 5 0.0000 0.0000 0.0000 0.0000 -12.2176 0.0000
# 6 0.0000 0.0000 0.0000 0.0000 0.0000 12.3905
#
#
#
# Elastic Compliance Matrix: (Units=1/GPa)
#
#
# Indices 1 2 3 4 5 6 
#
# 1 0.010273 -0.003129 -0.003816 0.000000 0.000000 0.000000
# 2 -0.003129 0.008870 -0.002876 0.000000 0.000000 0.000000
# 3 -0.003816 -0.002876 0.020615 0.000000 0.000000 0.000000
# 4 0.000000 0.000000 0.000000 0.077079 0.000000 0.000000
# 5 0.000000 0.000000 0.000000 0.000000 -0.081849 0.000000
# 6 0.000000 0.000000 0.000000 0.000000 0.000000 0.080707
#
#
# Mechanical properties :
#
#
# Convention : Reuss Voigt Hill
#
# Bulk Modulus (GPa) = 49.71449 61.60347 55.65898
# Shear Modulus (GPa) = 35.20081 16.65879 25.92980
#
# Velocity S-wave (km/s) = 4.16506 2.86528 3.57474
# Velocity P-wave (km/s) = 6.90150 6.42698 6.66846
#
# Compressibility (1/GPa) = 0.02011486
#
# Stress axis : x y z
#
# Youngs Moduli (GPa) = 97.34587 112.73806 48.50890
#
# Poissons Ratio (x) = 0.35272 0.18512
# Poissons Ratio (y) = 0.30457 0.13953
# Poissons Ratio (z) = 0.37150 0.32427
#
# Static dielectric constant tensor:
#      x y z
#    x 1.697940 0.000000 0.000000 
#    y 0.000000 1.704550 0.000000 
#    z 0.000000 0.000000 1.758450 
# 
# From -- ./inp_files/18583.got.cif
#   From: 2010.05.17/outbox.cif.g08.bks.cpg/sg53_10_cif.got.tgz:18583.got - 2010.06.03 12:45:16.
