data_PCOD9415533
_publ_section_title
;
Structure prediction by ZEFSAII (Michael W. Deem and Ramdas Pophale) SiO2 
 PCOD9415533
Probable space group: P M N A
;
_chemical_formula_sum "Si O2"
_cell_formula_units_Z 64
_cell_length_a 9.191255
_cell_length_b 15.236043
_cell_length_c 21.241156
_cell_angle_alpha 90.000000
_cell_angle_beta 90.000000
_cell_angle_gamma 90.000000
_cell_volume 2974.576574
_symmetry_space_group_name_H-M "P M N A"
_symmetry_group_IT_number 53
_symmetry_cell_setting 'orthorhombic'
loop_
_space_group_symop_operation_xyz
x,y,z
1/2-x,-y,1/2+z
x,-y,-z
1/2-x,y,1/2-z
-x,-y,-z
1/2+x,y,1/2-z
-x,y,z
1/2+x,-y,1/2+z
loop_
_atom_site_type_symbol
_atom_site_label
_atom_site_fract_x
_atom_site_fract_y
_atom_site_fract_z
Si Si1 0.668302 0.866492 0.994895
Si Si2 0.828889 0.259133 0.814491
Si Si3 0.832384 0.572125 0.094919
Si Si4 0.327149 0.089837 0.366256
Si Si5 0.834909 0.713555 0.839771
Si Si6 0.669720 0.454747 0.188860
Si Si7 0.834930 0.305239 0.010243
Si Si8 0.170698 0.916177 0.362615
O O1 0.500000 0.871691 0.974498
O O2 0.717063 0.766849 0.008883
O O3 0.682643 0.916117 0.060979
O O4 0.771153 0.896438 0.938054
O O5 0.750000 0.284987 0.750000
O O6 0.815960 0.337743 0.864828
O O7 0.753993 0.169497 0.838105
O O8 0.000000 0.243954 0.803809
O O9 0.728958 0.501890 0.126643
O O10 0.805157 0.602939 0.023644
O O11 0.000000 0.541668 0.100582
O O12 0.500000 0.074921 0.366512
O O13 0.300273 0.183527 0.332731
O O14 0.243004 0.006240 0.339340
O O15 0.716708 0.646789 0.814304
O O16 0.000000 0.695975 0.816376
O O17 0.837478 0.694577 0.914742
O O18 0.750000 0.493360 0.250000
O O19 0.500000 0.465990 0.195294
O O20 0.000000 0.278826 0.989581
O O21 0.000000 0.911410 0.346774
#
# Coordination Sequence:
#
# PCOD9415533 Si02
#       8
#     8   8   8   8   8   8   8   8
#     4  10  19  31  51  83 122 159 194 239 290 343
#     4  11  23  39  60  84 117 158 202 248 296 354
#     4  10  21  39  64  92 122 156 196 241 293 355
#     4  10  21  36  58  85 116 156 199 242 291 351
#     4   9  20  40  63  88 121 156 196 245 296 351
#     4  12  26  43  65  89 116 152 198 248 299 355
#     4   9  18  35  60  90 123 161 197 234 291 358
#     4  11  22  35  54  83 119 157 198 244 294 346
#
# _framework density 21.515667000000001
#
# number of rings (size 3 to 8) (size 9 to 14) (size 15 to 20)
#    0.000    1.750    1.250    4.125    0.000    8.500 
#    0.000    3.125    0.000    3.000    0.000    0.000 
#    0.000    0.000    0.000    0.000    0.000    0.000 
#
# Total GULP energy -357805.243767 kJ/mol
# GULP energy per Si atom -5590.706934 kJ/mol
# Density = 2.146670 g / cm^3
# Si number density = 21.515667 Si / 1000 Ang^3
#
#
#
# Elastic Constant Matrix: (Units=GPa)
#
#
# Indices 1 2 3 4 5 6 
#
# 1 119.2403 56.2603 11.3602 0.0000 0.0000 0.0000
# 2 56.2603 92.9130 -0.3859 0.0000 0.0000 0.0000
# 3 11.3602 -0.3859 29.4050 0.0000 0.0000 0.0000
# 4 0.0000 0.0000 0.0000 9.6587 0.0000 0.0000
# 5 0.0000 0.0000 0.0000 0.0000 22.2154 0.0000
# 6 0.0000 0.0000 0.0000 0.0000 0.0000 28.5678
#
#
#
# Elastic Compliance Matrix: (Units=1/GPa)
#
#
# Indices 1 2 3 4 5 6 
#
# 1 0.012407 -0.007533 -0.004892 0.000000 0.000000 0.000000
# 2 -0.007533 0.015337 0.003111 0.000000 0.000000 0.000000
# 3 -0.004892 0.003111 0.035939 0.000000 0.000000 0.000000
# 4 0.000000 0.000000 0.000000 0.103533 0.000000 0.000000
# 5 0.000000 0.000000 0.000000 0.000000 0.045014 0.000000
# 6 0.000000 0.000000 0.000000 0.000000 0.000000 0.035004
#
#
# Mechanical properties :
#
#
# Convention : Reuss Voigt Hill
#
# Bulk Modulus (GPa) = 22.19483 41.78084 31.98784
# Shear Modulus (GPa) = 17.80128 23.70997 20.75562
#
# Velocity S-wave (km/s) = 2.87951 3.32322 3.10929
# Velocity P-wave (km/s) = 4.62531 5.84688 5.27160
#
# Compressibility (1/GPa) = 0.04505553
#
# Stress axis : x y z
#
# Youngs Moduli (GPa) = 80.60229 65.20246 27.82524
#
# Poissons Ratio (x) = 0.49115 0.13612
# Poissons Ratio (y) = 0.60715 -0.08658
# Poissons Ratio (z) = 0.39430 -0.20287
#
# Static dielectric constant tensor:
#      x y z
#    x 1.723460 0.000000 0.000000 
#    y 0.000000 1.813190 0.000000 
#    z 0.000000 0.000000 1.816120 
# 
# From -- ./inp_files/34294.got.cif
#   From: 2010.05.17/outbox.cif.g08.bks.cpg/sg53_18_cif.got.tgz:34294.got - 2010.06.03 12:45:16.
