data_PCOD9415058
_publ_section_title
;
Structure prediction by ZEFSAII (Michael W. Deem and Ramdas Pophale) SiO2 
 PCOD9415058
Probable space group: P M N A
;
_chemical_formula_sum "Si O2"
_cell_formula_units_Z 20
_cell_length_a 11.694169
_cell_length_b 9.137183
_cell_length_c 7.250087
_cell_angle_alpha 90.000000
_cell_angle_beta 90.000000
_cell_angle_gamma 90.000000
_cell_volume 774.684572
_symmetry_space_group_name_H-M "P M N A"
_symmetry_group_IT_number 53
_symmetry_cell_setting 'orthorhombic'
loop_
_space_group_symop_operation_xyz
x,y,z
1/2-x,-y,1/2+z
x,-y,-z
1/2-x,y,1/2-z
-x,-y,-z
1/2+x,y,1/2-z
-x,y,z
1/2+x,-y,1/2+z
loop_
_atom_site_type_symbol
_atom_site_label
_atom_site_fract_x
_atom_site_fract_y
_atom_site_fract_z
Si Si1 0.372958 0.313554 0.092599
Si Si2 0.375069 0.994401 0.280809
Si Si3 0.250000 0.440407 0.750000
O O1 0.500000 0.330983 0.017269
O O2 0.366199 0.153503 0.182844
O O3 0.352878 0.439939 0.245526
O O4 0.281601 0.347447 0.931061
O O5 0.250000 0.926226 0.250000
O O6 0.500000 0.932749 0.218743
O O7 0.382964 0.000000 0.500000
#
# Coordination Sequence:
#
# PCOD9415058 Si02
#       3
#     8   8   4
#     4  10  21  40  65 102 144 183 235 293 352 425
#     4  10  22  45  73  99 135 185 241 298 359 423
#     4  10  18  36  66  98 142 182 218 284 350 418
#
# _framework density 25.816960000000002
#
# number of rings (size 3 to 8) (size 9 to 14) (size 15 to 20)
#    0.000    2.000    2.000    2.400    0.000    0.800 
#    3.600   20.000    0.000    0.000    0.000    0.000 
#    0.000    0.000    0.000    0.000    0.000    0.000 
#
# Total GULP energy -111464.051138 kJ/mol
# GULP energy per Si atom -5573.202557 kJ/mol
# Density = 2.575820 g / cm^3
# Si number density = 25.816960 Si / 1000 Ang^3
#
#
#
# Elastic Constant Matrix: (Units=GPa)
#
#
# Indices 1 2 3 4 5 6 
#
# 1 235.2584 41.9340 81.8262 0.0000 0.0000 0.0000
# 2 41.9340 143.6244 63.5715 0.0000 0.0000 0.0000
# 3 81.8262 63.5715 172.2808 0.0000 0.0000 0.0000
# 4 0.0000 0.0000 0.0000 56.0453 0.0000 0.0000
# 5 0.0000 0.0000 0.0000 0.0000 35.6754 0.0000
# 6 0.0000 0.0000 0.0000 0.0000 0.0000 -84.0115
#
#
#
# Elastic Compliance Matrix: (Units=1/GPa)
#
#
# Indices 1 2 3 4 5 6 
#
# 1 0.005122 -0.000500 -0.002248 0.000000 0.000000 0.000000
# 2 -0.000500 0.008371 -0.002851 0.000000 0.000000 0.000000
# 3 -0.002248 -0.002851 0.007924 0.000000 0.000000 0.000000
# 4 0.000000 0.000000 0.000000 0.017843 0.000000 0.000000
# 5 0.000000 0.000000 0.000000 0.000000 0.028031 0.000000
# 6 0.000000 0.000000 0.000000 0.000000 0.000000 -0.011903
#
#
# Mechanical properties :
#
#
# Convention : Reuss Voigt Hill
#
# Bulk Modulus (GPa) = 97.86943 102.86967 100.36955
# Shear Modulus (GPa) = 71.43725 25.79731 48.61728
#
# Velocity S-wave (km/s) = 5.26600 3.16450 4.34424
# Velocity P-wave (km/s) = 8.65827 7.29962 8.00781
#
# Compressibility (1/GPa) = 0.01021770
#
# Stress axis : x y z
#
# Youngs Moduli (GPa) = 195.24741 119.46468 126.19534
#
# Poissons Ratio (x) = 0.05978 0.28368
# Poissons Ratio (y) = 0.09770 0.35980
# Poissons Ratio (z) = 0.43891 0.34061
#
# Static dielectric constant tensor:
#      x y z
#    x 2.074910 0.000000 0.000000 
#    y 0.000000 2.062750 0.000000 
#    z 0.000000 0.000000 2.083980 
# 
# From -- ./inp_files/7110.got.cif
#   From: 2010.05.17/outbox.cif.g08.bks.cpg/sg53_4_cif.got.tgz:7110.got - 2010.06.03 12:45:16.
