data_PCOD9415481
_publ_section_title
;
Structure prediction by ZEFSAII (Michael W. Deem and Ramdas Pophale) SiO2 
 PCOD9415481
Probable space group: P M N A
;
_chemical_formula_sum "Si O2"
_cell_formula_units_Z 64
_cell_length_a 7.701233
_cell_length_b 28.109803
_cell_length_c 14.344065
_cell_angle_alpha 90.000000
_cell_angle_beta 90.000000
_cell_angle_gamma 90.000000
_cell_volume 3105.205235
_symmetry_space_group_name_H-M "P M N A"
_symmetry_group_IT_number 53
_symmetry_cell_setting 'orthorhombic'
loop_
_space_group_symop_operation_xyz
x,y,z
1/2-x,-y,1/2+z
x,-y,-z
1/2-x,y,1/2-z
-x,-y,-z
1/2+x,y,1/2-z
-x,y,z
1/2+x,-y,1/2+z
loop_
_atom_site_type_symbol
_atom_site_label
_atom_site_fract_x
_atom_site_fract_y
_atom_site_fract_z
Si Si1 0.707971 0.982322 0.355202
Si Si2 0.301407 0.287953 0.508211
Si Si3 0.287618 0.112819 0.550449
Si Si4 0.207959 0.553529 0.503334
Si Si5 0.290643 0.207871 0.643403
Si Si6 0.293926 0.638031 0.640971
Si Si7 0.708137 0.909419 0.646337
Si Si8 0.207457 0.629861 0.357647
O O1 0.750000 0.967667 0.250000
O O2 0.500000 0.985067 0.368530
O O3 0.771794 0.939833 0.420049
O O4 0.775682 0.036170 0.364952
O O5 0.500000 0.275293 0.482353
O O6 0.222607 0.242406 0.561050
O O7 0.222154 0.317375 0.420750
O O8 0.299641 0.326913 0.590468
O O9 0.500000 0.112491 0.554427
O O10 0.229851 0.154503 0.619182
O O11 0.234702 0.120493 0.443103
O O12 0.278945 0.500000 0.500000
O O13 0.244906 0.588200 0.590978
O O14 0.264514 0.582648 0.412208
O O15 0.000000 0.549957 0.499362
O O16 0.250000 0.221629 0.750000
O O17 0.500000 0.209140 0.637020
O O18 0.250000 0.639497 0.750000
O O19 0.500000 0.641225 0.632176
O O20 0.750000 0.892255 0.750000
O O21 0.500000 0.912074 0.641856
O O22 0.250000 0.628093 0.250000
O O23 0.000000 0.635843 0.370085
#
# Coordination Sequence:
#
# PCOD9415481 Si02
#       8
#     8   8   8   8   8   8   8   8
#     4   9  16  27  45  68  92 121 157 194 234 283
#     4   9  19  35  53  73  97 126 162 202 244 291
#     4   9  17  30  48  68  93 126 159 191 235 294
#     4   9  19  35  52  74 105 137 169 205 245 290
#     4  10  20  34  52  74  99 126 156 194 244 297
#     4  10  20  35  55  77 102 134 173 214 253 294
#     4   9  17  30  47  66  90 122 160 198 234 277
#     4  10  19  31  50  73  98 128 161 198 238 283
#
# _framework density 20.610554
#
# number of rings (size 3 to 8) (size 9 to 14) (size 15 to 20)
#    0.000    2.625    0.000    1.875    0.000    4.750 
#    0.000    3.125    0.000    3.000    0.000    0.000 
#    0.000    0.000    0.000    0.000    0.000    0.000 
#
# Total GULP energy -356713.954969 kJ/mol
# GULP energy per Si atom -5573.655546 kJ/mol
# Density = 2.056364 g / cm^3
# Si number density = 20.610554 Si / 1000 Ang^3
#
#
#
# Elastic Constant Matrix: (Units=GPa)
#
#
# Indices 1 2 3 4 5 6 
#
# 1 31.1554 -1.1207 -14.9405 0.0000 0.0000 0.0000
# 2 -1.1207 26.9318 21.8537 0.0000 0.0000 0.0000
# 3 -14.9405 21.8537 133.2671 0.0000 0.0000 0.0000
# 4 0.0000 0.0000 0.0000 17.8385 0.0000 0.0000
# 5 0.0000 0.0000 0.0000 0.0000 18.2004 0.0000
# 6 0.0000 0.0000 0.0000 0.0000 0.0000 24.0103
#
#
#
# Elastic Compliance Matrix: (Units=1/GPa)
#
#
# Indices 1 2 3 4 5 6 
#
# 1 0.034008 -0.001936 0.004130 0.000000 0.000000 0.000000
# 2 -0.001936 0.042940 -0.007259 0.000000 0.000000 0.000000
# 3 0.004130 -0.007259 0.009157 0.000000 0.000000 0.000000
# 4 0.000000 0.000000 0.000000 0.056059 0.000000 0.000000
# 5 0.000000 0.000000 0.000000 0.000000 0.054944 0.000000
# 6 0.000000 0.000000 0.000000 0.000000 0.000000 0.041649
#
#
# Mechanical properties :
#
#
# Convention : Reuss Voigt Hill
#
# Bulk Modulus (GPa) = 13.16203 22.54880 17.85542
# Shear Modulus (GPa) = 18.23412 24.38062 21.30737
#
# Velocity S-wave (km/s) = 2.97761 3.44309 3.21878
# Velocity P-wave (km/s) = 4.26867 5.17404 4.74300
#
# Compressibility (1/GPa) = 0.07597610
#
# Stress axis : x y z
#
# Youngs Moduli (GPa) = 29.40477 23.28824 109.20555
#
# Poissons Ratio (x) = 0.04509 -0.45103
# Poissons Ratio (y) = 0.05693 0.79268
# Poissons Ratio (z) = -0.12145 0.16904
#
# Static dielectric constant tensor:
#      x y z
#    x 1.785770 0.000000 0.000000 
#    y 0.000000 1.761020 0.000000 
#    z 0.000000 0.000000 1.765970 
# 
# From -- ./inp_files/14243.got.cif
#   From: 2010.05.17/outbox.cif.g08.bks.cpg/sg53_8_cif.got.tgz:14243.got - 2010.06.03 12:45:16.
