data_PCOD9415523
_publ_section_title
;
Structure prediction by ZEFSAII (Michael W. Deem and Ramdas Pophale) SiO2 
 PCOD9415523
Probable space group: P M N A
;
_chemical_formula_sum "Si O2"
_cell_formula_units_Z 64
_cell_length_a 26.671717
_cell_length_b 7.023091
_cell_length_c 13.228700
_cell_angle_alpha 90.000000
_cell_angle_beta 90.000000
_cell_angle_gamma 90.000000
_cell_volume 2477.972246
_symmetry_space_group_name_H-M "P M N A"
_symmetry_group_IT_number 53
_symmetry_cell_setting 'orthorhombic'
loop_
_space_group_symop_operation_xyz
x,y,z
1/2-x,-y,1/2+z
x,-y,-z
1/2-x,y,1/2-z
-x,-y,-z
1/2+x,y,1/2-z
-x,y,z
1/2+x,-y,1/2+z
loop_
_atom_site_type_symbol
_atom_site_label
_atom_site_fract_x
_atom_site_fract_y
_atom_site_fract_z
Si Si1 0.244439 0.085565 0.630377
Si Si2 0.554264 0.251968 0.564207
Si Si3 0.244478 0.629820 0.901154
Si Si4 0.634014 0.004586 0.889142
Si Si5 0.336530 0.773502 0.496061
Si Si6 0.944851 0.512972 0.738109
Si Si7 0.555277 0.039928 0.273488
Si Si8 0.152953 0.444131 0.381364
O O1 0.250000 0.077759 0.750000
O O2 0.247664 0.862977 0.592977
O O3 0.185586 0.128053 0.607243
O O4 0.290690 0.216107 0.589130
O O5 0.500000 0.274736 0.511693
O O6 0.607436 0.295221 0.517286
O O7 0.553047 0.385216 0.663126
O O8 0.557733 0.041729 0.614113
O O9 0.289829 0.542960 0.834821
O O10 0.254144 0.500000 0.000000
O O11 0.184524 0.652619 0.907586
O O12 0.597739 0.050099 0.797023
O O13 0.646920 0.783529 0.873158
O O14 0.609648 0.000000 0.000000
O O15 0.342676 0.000000 0.500000
O O16 0.940418 0.733887 0.769939
O O17 0.894912 0.469262 0.674266
O O18 0.000000 0.493304 0.686039
O O19 0.500000 0.989027 0.233456
O O20 0.148811 0.500000 0.500000
#
# Coordination Sequence:
#
# PCOD9415523 Si02
#       8
#     8   8   8   8   8   8   8   8
#     4  10  19  35  56  81 111 148 196 241 295 358
#     4  10  21  39  62  89 116 151 199 254 304 356
#     4   9  19  39  55  79 119 155 189 242 298 354
#     4  10  19  31  51  78 109 150 190 238 287 352
#     4  10  21  40  60  84 115 153 195 246 310 368
#     4   9  19  36  56  85 121 154 196 247 296 353
#     4   9  19  36  56  82 117 153 193 241 293 347
#     4   9  18  32  52  76 111 156 192 234 291 353
#
# _framework density 25.827567999999999
#
# number of rings (size 3 to 8) (size 9 to 14) (size 15 to 20)
#    0.000    2.500    0.000    2.625    1.750    0.750 
#   15.750    0.000    0.000    0.375    0.000    0.000 
#    0.000    0.000    0.000    0.000    0.000    0.000 
#
# Total GULP energy -356490.221072 kJ/mol
# GULP energy per Si atom -5570.159704 kJ/mol
# Density = 2.576878 g / cm^3
# Si number density = 25.827568 Si / 1000 Ang^3
#
#
#
# Elastic Constant Matrix: (Units=GPa)
#
#
# Indices 1 2 3 4 5 6 
#
# 1 268.7388 35.9041 68.7315 0.0000 0.0000 0.0000
# 2 35.9041 97.1754 17.2478 0.0000 0.0000 0.0000
# 3 68.7315 17.2478 64.6061 0.0000 0.0000 0.0000
# 4 0.0000 0.0000 0.0000 25.0532 0.0000 0.0000
# 5 0.0000 0.0000 0.0000 0.0000 24.9112 0.0000
# 6 0.0000 0.0000 0.0000 0.0000 0.0000 12.2176
#
#
#
# Elastic Compliance Matrix: (Units=1/GPa)
#
#
# Indices 1 2 3 4 5 6 
#
# 1 0.005200 -0.000986 -0.005269 0.000000 0.000000 0.000000
# 2 -0.000986 0.010990 -0.001885 0.000000 0.000000 0.000000
# 3 -0.005269 -0.001885 0.021587 0.000000 0.000000 0.000000
# 4 0.000000 0.000000 0.000000 0.039915 0.000000 0.000000
# 5 0.000000 0.000000 0.000000 0.000000 0.040143 0.000000
# 6 0.000000 0.000000 0.000000 0.000000 0.000000 0.081849
#
#
# Mechanical properties :
#
#
# Convention : Reuss Voigt Hill
#
# Bulk Modulus (GPa) = 46.51804 74.92076 60.71940
# Shear Modulus (GPa) = 22.40846 33.01220 27.71033
#
# Velocity S-wave (km/s) = 2.94873 3.57904 3.27906
# Velocity P-wave (km/s) = 5.44458 6.79341 6.15605
#
# Compressibility (1/GPa) = 0.02149703
#
# Stress axis : x y z
#
# Youngs Moduli (GPa) = 192.28941 90.99543 46.32350
#
# Poissons Ratio (x) = 0.08974 0.24409
# Poissons Ratio (y) = 0.18964 0.08730
# Poissons Ratio (z) = 1.01323 0.17150
#
# Static dielectric constant tensor:
#      x y z
#    x 2.119690 0.000000 0.000000 
#    y 0.000000 2.151380 0.000000 
#    z 0.000000 0.000000 2.036900 
# 
# From -- ./inp_files/24701.got.cif
#   From: 2010.05.17/outbox.cif.g08.bks.cpg/sg53_13_cif.got.tgz:24701.got - 2010.06.03 12:45:16.
