data_PCOD9415981
_publ_section_title
;
Structure prediction by ZEFSAII (Michael W. Deem and Ramdas Pophale) SiO2 
 PCOD9415981
Probable space group: P M N A
;
_chemical_formula_sum "Si O2"
_cell_formula_units_Z 64
_cell_length_a 8.679327
_cell_length_b 26.756228
_cell_length_c 14.311724
_cell_angle_alpha 90.000000
_cell_angle_beta 90.000000
_cell_angle_gamma 90.000000
_cell_volume 3323.555163
_symmetry_space_group_name_H-M "P M N A"
_symmetry_group_IT_number 53
_symmetry_cell_setting 'orthorhombic'
loop_
_space_group_symop_operation_xyz
x,y,z
1/2-x,-y,1/2+z
x,-y,-z
1/2-x,y,1/2-z
-x,-y,-z
1/2+x,y,1/2-z
-x,y,z
1/2+x,-y,1/2+z
loop_
_atom_site_type_symbol
_atom_site_label
_atom_site_fract_x
_atom_site_fract_y
_atom_site_fract_z
Si Si1 0.685830 0.634015 0.146396
Si Si2 0.313555 0.414981 0.144810
Si Si3 0.173502 0.013892 0.390240
Si Si4 0.813846 0.884249 0.945197
Si Si5 0.813531 0.684948 0.535709
Si Si6 0.186245 0.523444 0.355867
Si Si7 0.684519 0.221000 0.354101
Si Si8 0.318138 0.910652 0.346001
O O1 0.750000 0.641011 0.250000
O O2 0.500000 0.634092 0.151089
O O3 0.732810 0.578467 0.109515
O O4 0.733011 0.675454 0.071549
O O5 0.250000 0.412254 0.250000
O O6 0.500000 0.414631 0.147154
O O7 0.265501 0.365538 0.090143
O O8 0.266886 0.469444 0.103138
O O9 0.245117 0.068921 0.388470
O O10 0.000000 0.012912 0.351542
O O11 0.164827 0.000000 0.500000
O O12 0.274986 0.969370 0.349385
O O13 0.768417 0.831841 0.899803
O O14 0.000000 0.888578 0.944130
O O15 0.763217 0.888396 0.054275
O O16 0.743368 0.733277 0.583439
O O17 0.000000 0.688084 0.540055
O O18 0.250000 0.522409 0.250000
O O19 0.000000 0.523466 0.355965
O O20 0.750000 0.225483 0.250000
O O21 0.500000 0.222215 0.350081
O O22 0.250000 0.889277 0.250000
O O23 0.500000 0.904851 0.342886
#
# Coordination Sequence:
#
# PCOD9415981 Si02
#       8
#     8   8   8   8   8   8   8   8
#     4   9  18  33  53  76 104 137 174 215 261 315
#     4   9  17  29  47  72 103 136 171 211 258 313
#     4   9  17  30  51  80 112 146 183 220 259 306
#     4   9  20  38  57  78 108 146 185 225 270 318
#     4  10  21  36  54  78 105 136 176 221 268 318
#     4   8  14  26  45  70 100 134 169 207 253 308
#     4  11  24  42  62  82 105 136 176 223 273 321
#     4  10  19  33  54  81 115 151 184 220 264 314
#
# _framework density 19.256487
#
# number of rings (size 3 to 8) (size 9 to 14) (size 15 to 20)
#    0.000    2.625    0.000    1.500    0.000    6.000 
#    0.000    4.375    0.000    3.000    0.000    9.625 
#    0.000    0.000    0.000    0.000    0.000    0.000 
#
# Total GULP energy -356845.111011 kJ/mol
# GULP energy per Si atom -5575.704860 kJ/mol
# Density = 1.921266 g / cm^3
# Si number density = 19.256487 Si / 1000 Ang^3
#
#
#
# Elastic Constant Matrix: (Units=GPa)
#
#
# Indices 1 2 3 4 5 6 
#
# 1 17.8074 26.5232 18.6949 0.0000 0.0000 0.0000
# 2 26.5232 147.8070 65.4778 0.0000 0.0000 0.0000
# 3 18.6949 65.4778 98.7555 0.0000 0.0000 0.0000
# 4 0.0000 0.0000 0.0000 25.9339 0.0000 0.0000
# 5 0.0000 0.0000 0.0000 0.0000 20.6022 0.0000
# 6 0.0000 0.0000 0.0000 0.0000 0.0000 32.0422
#
#
#
# Elastic Compliance Matrix: (Units=1/GPa)
#
#
# Indices 1 2 3 4 5 6 
#
# 1 0.080930 -0.010953 -0.008059 0.000000 0.000000 0.000000
# 2 -0.010953 0.011061 -0.005261 0.000000 0.000000 0.000000
# 3 -0.008059 -0.005261 0.015140 0.000000 0.000000 0.000000
# 4 0.000000 0.000000 0.000000 0.038560 0.000000 0.000000
# 5 0.000000 0.000000 0.000000 0.000000 0.048539 0.000000
# 6 0.000000 0.000000 0.000000 0.000000 0.000000 0.031209
#
#
# Mechanical properties :
#
#
# Convention : Reuss Voigt Hill
#
# Bulk Modulus (GPa) = 17.06851 53.97352 35.52102
# Shear Modulus (GPa) = 17.03515 25.96059 21.49787
#
# Velocity S-wave (km/s) = 2.97752 3.67570 3.34488
# Velocity P-wave (km/s) = 4.55015 6.78999 5.77961
#
# Compressibility (1/GPa) = 0.05858741
#
# Stress axis : x y z
#
# Youngs Moduli (GPa) = 12.35634 90.40435 66.05230
#
# Poissons Ratio (x) = 0.99016 0.53229
# Poissons Ratio (y) = 0.13533 0.34748
# Poissons Ratio (z) = 0.09957 0.47559
#
# Static dielectric constant tensor:
#      x y z
#    x 1.668680 0.000000 0.000000 
#    y 0.000000 1.666980 0.000000 
#    z 0.000000 0.000000 1.692090 
# 
# From -- ./inp_files/20836.got.cif
#   From: 2010.05.17/outbox.cif.g08.bks.cpg/sg53_11_cif.got.tgz:20836.got - 2010.06.03 12:45:16.
