data_PCOD9415299
_publ_section_title
;
Structure prediction by ZEFSAII (Michael W. Deem and Ramdas Pophale) SiO2 
 PCOD9415299
Probable space group: P M N A
;
_chemical_formula_sum "Si O2"
_cell_formula_units_Z 52
_cell_length_a 19.389368
_cell_length_b 9.148817
_cell_length_c 11.748208
_cell_angle_alpha 90.000000
_cell_angle_beta 90.000000
_cell_angle_gamma 90.000000
_cell_volume 2084.012028
_symmetry_space_group_name_H-M "P M N A"
_symmetry_group_IT_number 53
_symmetry_cell_setting 'orthorhombic'
loop_
_space_group_symop_operation_xyz
x,y,z
1/2-x,-y,1/2+z
x,-y,-z
1/2-x,y,1/2-z
-x,-y,-z
1/2+x,y,1/2-z
-x,y,z
1/2+x,-y,1/2+z
loop_
_atom_site_type_symbol
_atom_site_label
_atom_site_fract_x
_atom_site_fract_y
_atom_site_fract_z
Si Si1 0.923422 0.590362 0.340425
Si Si2 0.921136 0.160347 0.837482
Si Si3 0.921769 0.715727 0.921137
Si Si4 0.576261 0.240079 0.163797
Si Si5 0.779513 0.279809 0.621327
Si Si6 0.685803 0.023374 0.180970
Si Si7 0.318729 0.500000 0.500000
O O1 0.922384 0.677640 0.220186
O O2 0.917244 0.415439 0.342651
O O3 0.856091 0.657125 0.397991
O O4 0.000000 0.624124 0.388930
O O5 0.865255 0.069690 0.765690
O O6 0.000000 0.103638 0.827008
O O7 0.905086 0.182625 0.970601
O O8 0.921028 0.790956 0.799546
O O9 0.869452 0.581924 0.914153
O O10 0.000000 0.663194 0.940119
O O11 0.500000 0.197847 0.121455
O O12 0.638741 0.142706 0.119206
O O13 0.750000 0.304841 0.750000
O O14 0.781246 0.106236 0.606774
O O15 0.728506 0.371848 0.545620
O O16 0.750000 0.092044 0.250000
#
# Coordination Sequence:
#
# PCOD9415299 Si02
#       7
#     8   8   8   8   8   8   4
#     4   9  18  34  55  77 102 140 189 237 284 333
#     4   9  17  32  54  78 109 146 180 222 279 339
#     4  10  19  30  49  82 119 147 176 220 277 350
#     4  10  20  32  51  79 107 143 189 229 277 338
#     4  10  21  37  57  83 113 146 187 235 288 346
#     4  10  20  34  49  70 105 148 186 223 267 324
#     4  12  21  34  59  88 118 152 188 234 289 340
#
# _framework density 24.95187
#
# number of rings (size 3 to 8) (size 9 to 14) (size 15 to 20)
#    0.000    2.154    0.000    5.308    0.000    5.538 
#    0.000    2.692    0.000    4.615    0.000    2.154 
#    0.000    0.000    0.000    0.000    0.000    0.000 
#
# Total GULP energy -290818.151956 kJ/mol
# GULP energy per Si atom -5592.656768 kJ/mol
# Density = 2.489508 g / cm^3
# Si number density = 24.951870 Si / 1000 Ang^3
#
#
#
# Elastic Constant Matrix: (Units=GPa)
#
#
# Indices 1 2 3 4 5 6 
#
# 1 165.7459 68.8835 8.6480 0.0000 0.0000 0.0000
# 2 68.8835 121.8472 10.3296 0.0000 0.0000 0.0000
# 3 8.6480 10.3296 67.1911 0.0000 0.0000 0.0000
# 4 0.0000 0.0000 0.0000 18.6483 0.0000 0.0000
# 5 0.0000 0.0000 0.0000 0.0000 8.7241 0.0000
# 6 0.0000 0.0000 0.0000 0.0000 0.0000 25.5828
#
#
#
# Elastic Compliance Matrix: (Units=1/GPa)
#
#
# Indices 1 2 3 4 5 6 
#
# 1 0.007894 -0.004434 -0.000334 0.000000 0.000000 0.000000
# 2 -0.004434 0.010806 -0.001091 0.000000 0.000000 0.000000
# 3 -0.000334 -0.001091 0.015094 0.000000 0.000000 0.000000
# 4 0.000000 0.000000 0.000000 0.053624 0.000000 0.000000
# 5 0.000000 0.000000 0.000000 0.000000 0.114625 0.000000
# 6 0.000000 0.000000 0.000000 0.000000 0.000000 0.039089
#
#
# Mechanical properties :
#
#
# Convention : Reuss Voigt Hill
#
# Bulk Modulus (GPa) = 45.29928 58.94516 52.12222
# Shear Modulus (GPa) = 19.21545 28.38592 23.80068
#
# Velocity S-wave (km/s) = 2.77808 3.37653 3.09182
# Velocity P-wave (km/s) = 5.33708 6.23507 5.80347
#
# Compressibility (1/GPa) = 0.02207541
#
# Stress axis : x y z
#
# Youngs Moduli (GPa) = 126.68527 92.53970 66.25316
#
# Poissons Ratio (x) = 0.41033 0.02215
# Poissons Ratio (y) = 0.56174 0.07225
# Poissons Ratio (z) = 0.04235 0.10092
#
# Static dielectric constant tensor:
#      x y z
#    x 1.981240 0.000000 0.000000 
#    y 0.000000 1.968090 0.000000 
#    z 0.000000 0.000000 2.058090 
# 
# From -- ./inp_files/24247.got.cif
#   From: 2010.05.17/outbox.cif.g08.bks.cpg/sg53_13_cif.got.tgz:24247.got - 2010.06.03 12:45:16.
