data_PCOD9415870
_publ_section_title
;
Structure prediction by ZEFSAII (Michael W. Deem and Ramdas Pophale) SiO2 
 PCOD9415870
Probable space group: P M N A
;
_chemical_formula_sum "Si O2"
_cell_formula_units_Z 64
_cell_length_a 8.750923
_cell_length_b 15.226938
_cell_length_c 30.478039
_cell_angle_alpha 90.000000
_cell_angle_beta 90.000000
_cell_angle_gamma 90.000000
_cell_volume 4061.191442
_symmetry_space_group_name_H-M "P M N A"
_symmetry_group_IT_number 53
_symmetry_cell_setting 'orthorhombic'
loop_
_space_group_symop_operation_xyz
x,y,z
1/2-x,-y,1/2+z
x,-y,-z
1/2-x,y,1/2-z
-x,-y,-z
1/2+x,y,1/2-z
-x,y,z
1/2+x,-y,1/2+z
loop_
_atom_site_type_symbol
_atom_site_label
_atom_site_fract_x
_atom_site_fract_y
_atom_site_fract_z
Si Si1 0.816774 0.539293 0.392402
Si Si2 0.816482 0.121430 0.971072
Si Si3 0.183970 0.370402 0.058007
Si Si4 0.817925 0.049392 0.437724
Si Si5 0.817314 0.200638 0.116709
Si Si6 0.816805 0.715426 0.703236
Si Si7 0.315917 0.324236 0.540464
Si Si8 0.683136 0.508224 0.796543
O O1 0.758364 0.451166 0.416460
O O2 0.756273 0.620812 0.420364
O O3 0.765073 0.538133 0.341467
O O4 0.000000 0.538277 0.392550
O O5 0.776535 0.221096 0.958980
O O6 0.000000 0.115331 0.975061
O O7 0.755199 0.047491 0.938001
O O8 0.743671 0.095748 0.017832
O O9 0.220960 0.279081 0.082442
O O10 0.000000 0.380998 0.059327
O O11 0.230437 0.363409 0.007060
O O12 0.762010 0.111539 0.398797
O O13 0.000000 0.043218 0.439381
O O14 0.758429 0.232170 0.163648
O O15 0.000000 0.190138 0.116296
O O16 0.750000 0.743710 0.750000
O O17 0.778236 0.611753 0.698220
O O18 0.000000 0.723667 0.702298
O O19 0.500000 0.331228 0.542885
O O20 0.750000 0.477717 0.750000
O O21 0.500000 0.501865 0.793908
#
# Coordination Sequence:
#
# PCOD9415870 Si02
#       8
#     8   8   8   8   8   8   8   8
#     4  11  22  34  48  73 102 132 167 210 256 299
#     4  10  19  35  53  71  98 131 170 210 248 295
#     4  10  20  34  49  68  98 137 178 208 238 291
#     4  11  21  32  50  76 102 129 164 207 255 301
#     4  11  20  33  52  74 100 137 174 208 251 299
#     4  10  19  33  50  73 102 132 168 210 254 305
#     4  10  21  36  51  70  97 136 177 211 245 294
#     4   9  19  33  49  70  97 127 164 206 252 297
#
# _framework density 15.758922
#
# number of rings (size 3 to 8) (size 9 to 14) (size 15 to 20)
#    0.000    1.750    2.500    3.750    0.000    5.000 
#    0.000    0.000    0.000    0.000    0.000    0.875 
#    0.000    4.000    0.000    0.000    0.000    0.000 
#
# Total GULP energy -357274.426262 kJ/mol
# GULP energy per Si atom -5582.412910 kJ/mol
# Density = 1.572305 g / cm^3
# Si number density = 15.758922 Si / 1000 Ang^3
#
#
#
# Elastic Constant Matrix: (Units=GPa)
#
#
# Indices 1 2 3 4 5 6 
#
# 1 46.3745 31.8838 34.3193 0.0000 0.0000 0.0000
# 2 31.8838 79.4277 58.5175 0.0000 0.0000 0.0000
# 3 34.3193 58.5175 138.3208 0.0000 0.0000 0.0000
# 4 0.0000 0.0000 0.0000 21.8430 0.0000 0.0000
# 5 0.0000 0.0000 0.0000 0.0000 27.8530 0.0000
# 6 0.0000 0.0000 0.0000 0.0000 0.0000 7.4078
#
#
#
# Elastic Compliance Matrix: (Units=1/GPa)
#
#
# Indices 1 2 3 4 5 6 
#
# 1 0.030918 -0.009820 -0.003517 0.000000 0.000000 0.000000
# 2 -0.009820 0.021410 -0.006621 0.000000 0.000000 0.000000
# 3 -0.003517 -0.006621 0.010903 0.000000 0.000000 0.000000
# 4 0.000000 0.000000 0.000000 0.045781 0.000000 0.000000
# 5 0.000000 0.000000 0.000000 0.000000 0.035903 0.000000
# 6 0.000000 0.000000 0.000000 0.000000 0.000000 0.134992
#
#
# Mechanical properties :
#
#
# Convention : Reuss Voigt Hill
#
# Bulk Modulus (GPa) = 42.89054 57.06270 49.97662
# Shear Modulus (GPa) = 15.26276 20.71425 17.98850
#
# Velocity S-wave (km/s) = 3.11547 3.62946 3.38225
# Velocity P-wave (km/s) = 6.34171 7.33842 6.85820
#
# Compressibility (1/GPa) = 0.02331516
#
# Stress axis : x y z
#
# Youngs Moduli (GPa) = 32.34394 46.70678 91.71592
#
# Poissons Ratio (x) = 0.45867 0.32253
# Poissons Ratio (y) = 0.31762 0.60727
# Poissons Ratio (z) = 0.11374 0.30925
#
# Static dielectric constant tensor:
#      x y z
#    x 1.527180 0.000000 0.000000 
#    y 0.000000 1.516880 0.000000 
#    z 0.000000 0.000000 1.526480 
# 
# From -- ./inp_files/38448.got.cif
#   From: 2010.05.17/outbox.cif.g08.bks.cpg/sg53_20_cif.got.tgz:38448.got - 2010.06.03 12:45:16.
