data_PCOD9415896
_publ_section_title
;
Structure prediction by ZEFSAII (Michael W. Deem and Ramdas Pophale) SiO2 
 PCOD9415896
Probable space group: P M N A
;
_chemical_formula_sum "Si O2"
_cell_formula_units_Z 64
_cell_length_a 7.745735
_cell_length_b 13.117716
_cell_length_c 25.800233
_cell_angle_alpha 90.000000
_cell_angle_beta 90.000000
_cell_angle_gamma 90.000000
_cell_volume 2621.467554
_symmetry_space_group_name_H-M "P M N A"
_symmetry_group_IT_number 53
_symmetry_cell_setting 'orthorhombic'
loop_
_space_group_symop_operation_xyz
x,y,z
1/2-x,-y,1/2+z
x,-y,-z
1/2-x,y,1/2-z
-x,-y,-z
1/2+x,y,1/2-z
-x,y,z
1/2+x,-y,1/2+z
loop_
_atom_site_type_symbol
_atom_site_label
_atom_site_fract_x
_atom_site_fract_y
_atom_site_fract_z
Si Si1 0.788768 0.186360 0.076630
Si Si2 0.794711 0.338505 0.810191
Si Si3 0.793164 0.885519 0.190519
Si Si4 0.711647 0.251247 0.533850
Si Si5 0.789879 0.039045 0.914951
Si Si6 0.809954 0.765572 0.808258
Si Si7 0.309745 0.437507 0.158838
Si Si8 0.794715 0.472181 0.940584
O O1 0.725216 0.208256 0.135444
O O2 0.000000 0.195403 0.078570
O O3 0.741379 0.069861 0.062407
O O4 0.735946 0.251934 0.026635
O O5 0.750000 0.335222 0.750000
O O6 0.731165 0.227113 0.827152
O O7 0.718484 0.444537 0.828257
O O8 0.000000 0.343163 0.819453
O O9 0.750000 0.908036 0.250000
O O10 0.735988 0.960830 0.145549
O O11 0.000000 0.880973 0.189022
O O12 0.500000 0.253201 0.535351
O O13 0.767769 0.143904 0.558516
O O14 0.765601 0.354285 0.563635
O O15 0.000000 0.041723 0.917219
O O16 0.750000 0.791772 0.750000
O O17 0.812475 0.642227 0.812995
O O18 0.000000 0.811658 0.811491
O O19 0.500000 0.405046 0.174426
O O20 0.286845 0.444879 0.097244
O O21 0.000000 0.475030 0.929292
O O22 0.769625 0.500000 0.000000
#
# Coordination Sequence:
#
# PCOD9415896 Si02
#       8
#     8   8   8   8   8   8   8   8
#     4   9  18  32  53  80 109 142 182 232 284 335
#     4  10  19  33  52  76 107 141 177 217 266 323
#     4   9  18  31  49  75 109 146 181 223 274 331
#     4   9  16  29  52  82 114 147 184 230 284 336
#     4   9  16  28  49  79 111 142 182 231 282 333
#     4  11  23  40  59  81 111 147 189 233 282 339
#     4  12  24  37  55  80 109 142 181 225 276 330
#     4  10  20  35  56  82 114 151 188 225 270 327
#
# _framework density 24.413806000000001
#
# number of rings (size 3 to 8) (size 9 to 14) (size 15 to 20)
#    0.000    2.125    0.000    4.125    0.000    6.750 
#    0.000    0.000    0.000    0.750    0.000    0.000 
#    0.000    8.000    0.000    0.000    0.000    0.000 
#
# Total GULP energy -357243.106522 kJ/mol
# GULP energy per Si atom -5581.923539 kJ/mol
# Density = 2.435824 g / cm^3
# Si number density = 24.413806 Si / 1000 Ang^3
#
#
#
# Elastic Constant Matrix: (Units=GPa)
#
#
# Indices 1 2 3 4 5 6 
#
# 1 32.4264 -12.0858 -9.5321 0.0000 0.0000 0.0000
# 2 -12.0858 59.3515 6.7900 0.0000 0.0000 0.0000
# 3 -9.5321 6.7900 93.1731 0.0000 0.0000 0.0000
# 4 0.0000 0.0000 0.0000 37.8375 0.0000 0.0000
# 5 0.0000 0.0000 0.0000 0.0000 23.1384 0.0000
# 6 0.0000 0.0000 0.0000 0.0000 0.0000 1.1845
#
#
#
# Elastic Compliance Matrix: (Units=1/GPa)
#
#
# Indices 1 2 3 4 5 6 
#
# 1 0.034192 0.006618 0.003016 0.000000 0.000000 0.000000
# 2 0.006618 0.018271 -0.000654 0.000000 0.000000 0.000000
# 3 0.003016 -0.000654 0.011089 0.000000 0.000000 0.000000
# 4 0.000000 0.000000 0.000000 0.026429 0.000000 0.000000
# 5 0.000000 0.000000 0.000000 0.000000 0.043218 0.000000
# 6 0.000000 0.000000 0.000000 0.000000 0.000000 0.844255
#
#
# Mechanical properties :
#
#
# Convention : Reuss Voigt Hill
#
# Bulk Modulus (GPa) = 12.26843 17.25500 14.76171
# Shear Modulus (GPa) = 5.06757 25.75068 15.40912
#
# Velocity S-wave (km/s) = 1.44229 3.25123 2.51502
# Velocity P-wave (km/s) = 2.79459 4.60185 3.80702
#
# Compressibility (1/GPa) = 0.08151000
#
# Stress axis : x y z
#
# Youngs Moduli (GPa) = 29.24652 54.73094 90.17998
#
# Poissons Ratio (x) = -0.36219 -0.27196
# Poissons Ratio (y) = -0.19354 0.05902
# Poissons Ratio (z) = -0.08820 0.03582
#
# Static dielectric constant tensor:
#      x y z
#    x 1.984410 0.000000 0.000000 
#    y 0.000000 1.958030 0.000000 
#    z 0.000000 0.000000 1.967340 
# 
# From -- ./inp_files/34242.got.cif
#   From: 2010.05.17/outbox.cif.g08.bks.cpg/sg53_18_cif.got.tgz:34242.got - 2010.06.03 12:45:16.
