data_PCOD9415578
_publ_section_title
;
Structure prediction by ZEFSAII (Michael W. Deem and Ramdas Pophale) SiO2 
 PCOD9415578
Probable space group: P M N A
;
_chemical_formula_sum "Si O2"
_cell_formula_units_Z 64
_cell_length_a 8.839323
_cell_length_b 26.360622
_cell_length_c 14.181633
_cell_angle_alpha 90.000000
_cell_angle_beta 90.000000
_cell_angle_gamma 90.000000
_cell_volume 3304.463048
_symmetry_space_group_name_H-M "P M N A"
_symmetry_group_IT_number 53
_symmetry_cell_setting 'orthorhombic'
loop_
_space_group_symop_operation_xyz
x,y,z
1/2-x,-y,1/2+z
x,-y,-z
1/2-x,y,1/2-z
-x,-y,-z
1/2+x,y,1/2-z
-x,y,z
1/2+x,-y,1/2+z
loop_
_atom_site_type_symbol
_atom_site_label
_atom_site_fract_x
_atom_site_fract_y
_atom_site_fract_z
Si Si1 0.822341 0.207257 0.654085
Si Si2 0.317944 0.779192 0.940094
Si Si3 0.182565 0.419763 0.038129
Si Si4 0.327741 0.116502 0.398324
Si Si5 0.315468 0.007865 0.392166
Si Si6 0.173068 0.897141 0.125482
Si Si7 0.181302 0.672400 0.647918
Si Si8 0.318232 0.477739 0.647839
O O1 0.750000 0.228888 0.750000
O O2 0.765146 0.224129 0.550083
O O3 0.785092 0.147245 0.654220
O O4 0.000000 0.216316 0.657736
O O5 0.500000 0.781745 0.942874
O O6 0.259417 0.830669 0.891225
O O7 0.271854 0.728708 0.885142
O O8 0.259743 0.369074 0.074241
O O9 0.223522 0.466704 0.107140
O O10 0.000000 0.414573 0.040859
O O11 0.226269 0.437441 0.932869
O O12 0.500000 0.123262 0.364188
O O13 0.262097 0.063291 0.358850
O O14 0.334386 0.105949 0.511259
O O15 0.500000 0.010385 0.391683
O O16 0.265175 0.000000 0.500000
O O17 0.276779 0.953759 0.347817
O O18 0.000000 0.887698 0.158338
O O19 0.250000 0.660989 0.750000
O O20 0.000000 0.670673 0.652661
O O21 0.250000 0.468717 0.750000
O O22 0.500000 0.476723 0.653811
#
# Coordination Sequence:
#
# PCOD9415578 Si02
#       8
#     8   8   8   8   8   8   8   8
#     4  10  19  32  49  69  95 128 166 208 254 306
#     4   9  20  36  51  71 101 132 166 213 264 309
#     4   9  19  36  56  83 118 154 191 230 269 313
#     4   8  13  23  43  68  91 120 159 199 243 299
#     4   7  10  18  35  61  90 117 148 189 237 292
#     4   8  13  23  40  63  91 121 154 194 241 297
#     4  11  23  39  59  82 107 137 175 222 273 322
#     4   9  18  33  55  84 121 159 193 229 269 313
#
# _framework density 19.367747000000001
#
# number of rings (size 3 to 8) (size 9 to 14) (size 15 to 20)
#    0.000    3.125    0.000    3.375    0.000    3.500 
#    0.000    2.500    0.000    7.500    0.000    1.750 
#    0.000    0.000    0.000    0.000    0.000    0.000 
#
# Total GULP energy -356544.760672 kJ/mol
# GULP energy per Si atom -5571.011885 kJ/mol
# Density = 1.932366 g / cm^3
# Si number density = 19.367747 Si / 1000 Ang^3
#
#
#
# Elastic Constant Matrix: (Units=GPa)
#
#
# Indices 1 2 3 4 5 6 
#
# 1 15.6076 24.1900 17.2648 0.0000 0.0000 0.0000
# 2 24.1900 120.3285 34.1537 0.0000 0.0000 0.0000
# 3 17.2648 34.1537 89.2999 0.0000 0.0000 0.0000
# 4 0.0000 0.0000 0.0000 -48.0356 0.0000 0.0000
# 5 0.0000 0.0000 0.0000 0.0000 2.8973 0.0000
# 6 0.0000 0.0000 0.0000 0.0000 0.0000 30.8728
#
#
#
# Elastic Compliance Matrix: (Units=1/GPa)
#
#
# Indices 1 2 3 4 5 6 
#
# 1 0.106539 -0.017468 -0.013917 0.000000 0.000000 0.000000
# 2 -0.017468 0.012187 -0.001284 0.000000 0.000000 0.000000
# 3 -0.013917 -0.001284 0.014380 0.000000 0.000000 0.000000
# 4 0.000000 0.000000 0.000000 -0.020818 0.000000 0.000000
# 5 0.000000 0.000000 0.000000 0.000000 0.345150 0.000000
# 6 0.000000 0.000000 0.000000 0.000000 0.000000 0.032391
#
#
# Mechanical properties :
#
#
# Convention : Reuss Voigt Hill
#
# Bulk Modulus (GPa) = 14.75608 41.82811 28.29209
# Shear Modulus (GPa) = 8.65418 7.12205 7.88811
#
# Velocity S-wave (km/s) = 2.11614 1.91970 2.02031
# Velocity P-wave (km/s) = 3.68865 5.15338 4.48127
#
# Compressibility (1/GPa) = 0.06776869
#
# Stress axis : x y z
#
# Youngs Moduli (GPa) = 9.38621 82.05761 69.54181
#
# Poissons Ratio (x) = 1.43336 0.96781
# Poissons Ratio (y) = 0.16396 0.08928
# Poissons Ratio (z) = 0.13063 0.10534
#
# Static dielectric constant tensor:
#      x y z
#    x 1.661670 0.000000 0.000000 
#    y 0.000000 1.681330 0.000000 
#    z 0.000000 0.000000 1.617140 
# 
# From -- ./inp_files/20818.got.cif
#   From: 2010.05.17/outbox.cif.g08.bks.cpg/sg53_11_cif.got.tgz:20818.got - 2010.06.03 12:45:16.
