data_PCOD9415540
_publ_section_title
;
Structure prediction by ZEFSAII (Michael W. Deem and Ramdas Pophale) SiO2 
 PCOD9415540
Probable space group: P M N A
;
_chemical_formula_sum "Si O2"
_cell_formula_units_Z 48
_cell_length_a 24.513217
_cell_length_b 11.823199
_cell_length_c 9.073337
_cell_angle_alpha 90.000000
_cell_angle_beta 90.000000
_cell_angle_gamma 90.000000
_cell_volume 2629.676654
_symmetry_space_group_name_H-M "P M N A"
_symmetry_group_IT_number 53
_symmetry_cell_setting 'orthorhombic'
loop_
_space_group_symop_operation_xyz
x,y,z
1/2-x,-y,1/2+z
x,-y,-z
1/2-x,y,1/2-z
-x,-y,-z
1/2+x,y,1/2-z
-x,y,z
1/2+x,-y,1/2+z
loop_
_atom_site_type_symbol
_atom_site_label
_atom_site_fract_x
_atom_site_fract_y
_atom_site_fract_z
Si Si1 0.884308 0.235856 0.830950
Si Si2 0.895507 0.391353 0.330185
Si Si3 0.563778 0.039101 0.831735
Si Si4 0.557761 0.622604 0.120093
Si Si5 0.935901 0.184207 0.134410
Si Si6 0.307380 0.548071 0.332861
O O1 0.932445 0.316908 0.773473
O O2 0.834522 0.325737 0.834306
O O3 0.891732 0.132314 0.716516
O O4 0.899202 0.186079 0.988894
O O5 0.893888 0.353664 0.502269
O O6 0.940019 0.490624 0.343982
O O7 0.915359 0.288402 0.233097
O O8 0.844896 0.458523 0.259071
O O9 0.500000 0.079003 0.816182
O O10 0.569520 0.931139 0.725739
O O11 0.570589 0.000000 0.000000
O O12 0.500000 0.660081 0.056624
O O13 0.000000 0.197394 0.097763
O O14 0.303548 0.500000 0.500000
O O15 0.250000 0.553603 0.250000
#
# Coordination Sequence:
#
# PCOD9415540 Si02
#       6
#     8   8   8   8   8   8
#     4  11  22  37  58  88 121 157 209 249 302 360
#     4  10  20  35  54  85 116 153 201 241 297 362
#     4  10  21  37  59  89 127 171 207 234 283 364
#     4  10  19  31  52  82 123 162 193 235 288 364
#     4  11  20  33  57  88 129 165 193 238 295 360
#     4  11  25  44  65  86 114 151 204 267 322 369
#
# _framework density 18.253195000000002
#
# number of rings (size 3 to 8) (size 9 to 14) (size 15 to 20)
#    0.000    1.500    1.667    5.000    4.667    2.667 
#    0.000    2.500    0.000    3.000    0.000    0.000 
#    0.000    0.000    0.000    0.000    0.000    0.000 
#
# Total GULP energy -267334.195261 kJ/mol
# GULP energy per Si atom -5569.462401 kJ/mol
# Density = 1.821165 g / cm^3
# Si number density = 18.253195 Si / 1000 Ang^3
#
#
#
# Elastic Constant Matrix: (Units=GPa)
#
#
# Indices 1 2 3 4 5 6 
#
# 1 110.0125 42.6005 47.3016 0.0000 0.0000 0.0000
# 2 42.6005 102.0034 37.7386 0.0000 0.0000 0.0000
# 3 47.3016 37.7386 99.6887 0.0000 0.0000 0.0000
# 4 0.0000 0.0000 0.0000 37.3644 0.0000 0.0000
# 5 0.0000 0.0000 0.0000 0.0000 22.6381 0.0000
# 6 0.0000 0.0000 0.0000 0.0000 0.0000 18.0894
#
#
#
# Elastic Compliance Matrix: (Units=1/GPa)
#
#
# Indices 1 2 3 4 5 6 
#
# 1 0.012404 -0.003492 -0.004564 0.000000 0.000000 0.000000
# 2 -0.003492 0.012383 -0.003031 0.000000 0.000000 0.000000
# 3 -0.004564 -0.003031 0.013344 0.000000 0.000000 0.000000
# 4 0.000000 0.000000 0.000000 0.026763 0.000000 0.000000
# 5 0.000000 0.000000 0.000000 0.000000 0.044173 0.000000
# 6 0.000000 0.000000 0.000000 0.000000 0.000000 0.055281
#
#
# Mechanical properties :
#
#
# Convention : Reuss Voigt Hill
#
# Bulk Modulus (GPa) = 62.66353 62.99846 62.83100
# Shear Modulus (GPa) = 26.06303 27.88932 26.97618
#
# Velocity S-wave (km/s) = 3.78280 3.91310 3.84850
# Velocity P-wave (km/s) = 7.31329 7.41654 7.36509
#
# Compressibility (1/GPa) = 0.01595825
#
# Stress axis : x y z
#
# Youngs Moduli (GPa) = 80.61654 80.75339 74.93923
#
# Poissons Ratio (x) = 0.28200 0.34201
# Poissons Ratio (y) = 0.28152 0.22714
# Poissons Ratio (z) = 0.36792 0.24476
#
# Static dielectric constant tensor:
#      x y z
#    x 1.611680 0.000000 0.000000 
#    y 0.000000 1.666060 0.000000 
#    z 0.000000 0.000000 1.688010 
# 
# From -- ./inp_files/11751.got.cif
#   From: 2010.05.17/outbox.cif.g08.bks.cpg/sg53_6_cif.got.tgz:11751.got - 2010.06.03 12:45:16.
