data_PCOD9415759
_publ_section_title
;
Structure prediction by ZEFSAII (Michael W. Deem and Ramdas Pophale) SiO2 
 PCOD9415759
Probable space group: P M N A
;
_chemical_formula_sum "Si O2"
_cell_formula_units_Z 48
_cell_length_a 25.314826
_cell_length_b 10.588673
_cell_length_c 9.193813
_cell_angle_alpha 90.000000
_cell_angle_beta 90.000000
_cell_angle_gamma 90.000000
_cell_volume 2464.405386
_symmetry_space_group_name_H-M "P M N A"
_symmetry_group_IT_number 53
_symmetry_cell_setting 'orthorhombic'
loop_
_space_group_symop_operation_xyz
x,y,z
1/2-x,-y,1/2+z
x,-y,-z
1/2-x,y,1/2-z
-x,-y,-z
1/2+x,y,1/2-z
-x,y,z
1/2+x,-y,1/2+z
loop_
_atom_site_type_symbol
_atom_site_label
_atom_site_fract_x
_atom_site_fract_y
_atom_site_fract_z
Si Si1 0.877688 0.921338 0.810954
Si Si2 0.666803 0.786610 0.954648
Si Si3 0.191655 0.429380 0.223878
Si Si4 0.639427 0.305743 0.732429
Si Si5 0.789274 0.198926 0.009667
Si Si6 0.437932 0.166840 0.568450
O O1 0.865996 0.885128 0.644906
O O2 0.907273 0.051494 0.848937
O O3 0.821266 0.901106 0.891191
O O4 0.915156 0.826742 0.904275
O O5 0.674296 0.662798 0.853834
O O6 0.640230 0.744170 0.103609
O O7 0.727190 0.828999 0.987995
O O8 0.250000 0.484201 0.250000
O O9 0.154500 0.548706 0.216116
O O10 0.199472 0.333959 0.089355
O O11 0.683167 0.221598 0.644896
O O12 0.583353 0.285151 0.656086
O O13 0.500000 0.147050 0.569684
#
# Coordination Sequence:
#
# PCOD9415759 Si02
#       6
#     8   8   8   8   8   8
#     4   9  18  36  58  76  97 137 180 219 267 317
#     4  10  19  32  52  84 118 142 166 207 262 322
#     4   9  17  31  52  78 113 151 178 202 243 314
#     4  11  20  31  52  82 111 145 179 211 260 315
#     4   9  18  32  53  80 116 148 172 202 246 319
#     4  10  22  41  59  72  94 134 188 239 275 315
#
# _framework density 19.477315999999998
#
# number of rings (size 3 to 8) (size 9 to 14) (size 15 to 20)
#    0.000    2.333    0.000    5.000    0.000    3.333 
#    0.000   15.833    0.000   24.000    0.000    0.000 
#    0.000    0.000    0.000    0.000    0.000    0.000 
#
# Total GULP energy -267692.279505 kJ/mol
# GULP energy per Si atom -5576.922490 kJ/mol
# Density = 1.943298 g / cm^3
# Si number density = 19.477316 Si / 1000 Ang^3
#
#
#
# Elastic Constant Matrix: (Units=GPa)
#
#
# Indices 1 2 3 4 5 6 
#
# 1 105.3071 23.3782 18.5307 0.0000 0.0000 0.0000
# 2 23.3782 37.8841 3.8316 0.0000 0.0000 0.0000
# 3 18.5307 3.8316 111.5968 0.0000 0.0000 0.0000
# 4 0.0000 0.0000 0.0000 10.8560 0.0000 0.0000
# 5 0.0000 0.0000 0.0000 0.0000 12.6433 0.0000
# 6 0.0000 0.0000 0.0000 0.0000 0.0000 4.0160
#
#
#
# Elastic Compliance Matrix: (Units=1/GPa)
#
#
# Indices 1 2 3 4 5 6 
#
# 1 0.011296 -0.006804 -0.001642 0.000000 0.000000 0.000000
# 2 -0.006804 0.030587 0.000080 0.000000 0.000000 0.000000
# 3 -0.001642 0.000080 0.009231 0.000000 0.000000 0.000000
# 4 0.000000 0.000000 0.000000 0.092115 0.000000 0.000000
# 5 0.000000 0.000000 0.000000 0.000000 0.079093 0.000000
# 6 0.000000 0.000000 0.000000 0.000000 0.000000 0.249006
#
#
# Mechanical properties :
#
#
# Convention : Reuss Voigt Hill
#
# Bulk Modulus (GPa) = 29.08661 38.47436 33.78048
# Shear Modulus (GPa) = 10.00959 19.43954 14.72456
#
# Velocity S-wave (km/s) = 2.26942 3.16264 2.75250
# Velocity P-wave (km/s) = 4.67258 5.75610 5.24241
#
# Compressibility (1/GPa) = 0.03438008
#
# Stress axis : x y z
#
# Youngs Moduli (GPa) = 88.53042 32.69337 108.33356
#
# Poissons Ratio (x) = 0.22246 0.17788
# Poissons Ratio (y) = 0.60240 -0.00863
# Poissons Ratio (z) = 0.14537 -0.00260
#
# Static dielectric constant tensor:
#      x y z
#    x 1.656520 0.000000 0.000000 
#    y 0.000000 1.756300 0.000000 
#    z 0.000000 0.000000 1.730620 
# 
# From -- ./inp_files/11790.got.cif
#   From: 2010.05.17/outbox.cif.g08.bks.cpg/sg53_6_cif.got.tgz:11790.got - 2010.06.03 12:45:16.
