data_PCOD9415735
_publ_section_title
;
Structure prediction by ZEFSAII (Michael W. Deem and Ramdas Pophale) SiO2 
 PCOD9415735
Probable space group: P M N A
;
_chemical_formula_sum "Si O2"
_cell_formula_units_Z 64
_cell_length_a 8.563118
_cell_length_b 24.721029
_cell_length_c 14.683931
_cell_angle_alpha 90.000000
_cell_angle_beta 90.000000
_cell_angle_gamma 90.000000
_cell_volume 3108.427968
_symmetry_space_group_name_H-M "P M N A"
_symmetry_group_IT_number 53
_symmetry_cell_setting 'orthorhombic'
loop_
_space_group_symop_operation_xyz
x,y,z
1/2-x,-y,1/2+z
x,-y,-z
1/2-x,y,1/2-z
-x,-y,-z
1/2+x,y,1/2-z
-x,y,z
1/2+x,-y,1/2+z
loop_
_atom_site_type_symbol
_atom_site_label
_atom_site_fract_x
_atom_site_fract_y
_atom_site_fract_z
Si Si1 0.810600 0.374452 0.950528
Si Si2 0.823320 0.515775 0.393014
Si Si3 0.317580 0.758930 0.845656
Si Si4 0.682479 0.122263 0.338215
Si Si5 0.186836 0.256601 0.956871
Si Si6 0.310936 0.147438 0.647446
Si Si7 0.183306 0.064369 0.508191
Si Si8 0.182427 0.594882 0.845639
O O1 0.742372 0.423655 0.892033
O O2 0.762549 0.314731 0.917398
O O3 0.000000 0.378424 0.950128
O O4 0.757656 0.382401 0.056824
O O5 0.827977 0.500000 0.500000
O O6 0.717081 0.469401 0.350008
O O7 0.000000 0.512563 0.357066
O O8 0.250000 0.738219 0.750000
O O9 0.500000 0.747587 0.850917
O O10 0.283745 0.823247 0.844336
O O11 0.233187 0.740967 0.937328
O O12 0.750000 0.091908 0.250000
O O13 0.712311 0.089658 0.428890
O O14 0.000000 0.135652 0.172007
O O15 0.241799 0.201335 0.908877
O O16 0.000000 0.254871 0.951717
O O17 0.250000 0.151937 0.750000
O O18 0.500000 0.144992 0.645321
O O19 0.240685 0.094123 0.599493
O O20 0.000000 0.077451 0.494291
O O21 0.199236 0.000000 0.500000
O O22 0.250000 0.615113 0.750000
O O23 0.000000 0.605541 0.844312
#
# Coordination Sequence:
#
# PCOD9415735 Si02
#       8
#     8   8   8   8   8   8   8   8
#     4   9  19  35  55  79 111 149 191 239 292 350
#     4   9  17  31  51  75 104 140 186 234 281 340
#     4  11  21  34  56  84 117 155 196 242 292 354
#     4  11  21  36  59  87 120 156 194 237 290 351
#     4  10  21  39  61  87 119 160 205 251 303 360
#     4  11  24  43  68  92 122 162 206 254 303 359
#     4  11  24  42  65  94 126 158 198 248 301 360
#     4  10  19  32  52  78 110 148 187 234 292 353
#
# _framework density 20.589185000000001
#
# number of rings (size 3 to 8) (size 9 to 14) (size 15 to 20)
#    0.000    1.750    1.250    4.500    0.000    5.000 
#    0.000    1.875    0.000    1.500    0.000    0.000 
#    0.000    0.000    0.000    0.000    0.000    0.000 
#
# Total GULP energy -357298.841270 kJ/mol
# GULP energy per Si atom -5582.794395 kJ/mol
# Density = 2.054232 g / cm^3
# Si number density = 20.589185 Si / 1000 Ang^3
#
#
#
# Elastic Constant Matrix: (Units=GPa)
#
#
# Indices 1 2 3 4 5 6 
#
# 1 20.3756 18.7366 -1.9000 0.0000 0.0000 0.0000
# 2 18.7366 111.4368 27.2619 0.0000 0.0000 0.0000
# 3 -1.9000 27.2619 68.2627 0.0000 0.0000 0.0000
# 4 0.0000 0.0000 0.0000 -6.2234 0.0000 0.0000
# 5 0.0000 0.0000 0.0000 0.0000 31.8131 0.0000
# 6 0.0000 0.0000 0.0000 0.0000 0.0000 21.5536
#
#
#
# Elastic Compliance Matrix: (Units=1/GPa)
#
#
# Indices 1 2 3 4 5 6 
#
# 1 0.060449 -0.011720 0.006363 0.000000 0.000000 0.000000
# 2 -0.011720 0.012218 -0.005206 0.000000 0.000000 0.000000
# 3 0.006363 -0.005206 0.016905 0.000000 0.000000 0.000000
# 4 0.000000 0.000000 0.000000 -0.160683 0.000000 0.000000
# 5 0.000000 0.000000 0.000000 0.000000 0.031434 0.000000
# 6 0.000000 0.000000 0.000000 0.000000 0.000000 0.046396
#
#
# Mechanical properties :
#
#
# Convention : Reuss Voigt Hill
#
# Bulk Modulus (GPa) = 14.60983 32.03021 23.32002
# Shear Modulus (GPa) = 98.69736 19.82711 59.26223
#
# Velocity S-wave (km/s) = 6.93113 3.10657 5.37082
# Velocity P-wave (km/s) = 8.43596 5.33463 7.05775
#
# Compressibility (1/GPa) = 0.06844708
#
# Stress axis : x y z
#
# Youngs Moduli (GPa) = 16.54276 81.84753 59.15281
#
# Poissons Ratio (x) = 0.95929 -0.37641
# Poissons Ratio (y) = 0.19389 0.30793
# Poissons Ratio (z) = -0.10527 0.42607
#
# Static dielectric constant tensor:
#      x y z
#    x 1.715130 0.000000 0.000000 
#    y 0.000000 1.767370 0.000000 
#    z 0.000000 0.000000 1.788280 
# 
# From -- ./inp_files/20958.got.cif
#   From: 2010.05.17/outbox.cif.g08.bks.cpg/sg53_11_cif.got.tgz:20958.got - 2010.06.03 12:45:16.
