data_PCOD9415438
_publ_section_title
;
Structure prediction by ZEFSAII (Michael W. Deem and Ramdas Pophale) SiO2 
 PCOD9415438
Probable space group: P M N A
;
_chemical_formula_sum "Si O2"
_cell_formula_units_Z 64
_cell_length_a 8.613701
_cell_length_b 21.092167
_cell_length_c 19.745041
_cell_angle_alpha 90.000000
_cell_angle_beta 90.000000
_cell_angle_gamma 90.000000
_cell_volume 3587.311035
_symmetry_space_group_name_H-M "P M N A"
_symmetry_group_IT_number 53
_symmetry_cell_setting 'orthorhombic'
loop_
_space_group_symop_operation_xyz
x,y,z
1/2-x,-y,1/2+z
x,-y,-z
1/2-x,y,1/2-z
-x,-y,-z
1/2+x,y,1/2-z
-x,y,z
1/2+x,-y,1/2+z
loop_
_atom_site_type_symbol
_atom_site_label
_atom_site_fract_x
_atom_site_fract_y
_atom_site_fract_z
Si Si1 0.687401 0.632657 0.173838
Si Si2 0.813874 0.361827 0.173761
Si Si3 0.187363 0.743653 0.425113
Si Si4 0.812906 0.251531 0.073539
Si Si5 0.312371 0.106380 0.432509
Si Si6 0.313864 0.110751 0.917990
Si Si7 0.686099 0.999215 0.325716
Si Si8 0.186096 0.493120 0.326850
O O1 0.750000 0.638408 0.250000
O O2 0.500000 0.634527 0.177020
O O3 0.741840 0.690489 0.127403
O O4 0.729337 0.562638 0.145294
O O5 0.750000 0.356503 0.250000
O O6 0.761413 0.302001 0.129409
O O7 0.755691 0.428755 0.143068
O O8 0.000000 0.363082 0.176591
O O9 0.249486 0.730463 0.499995
O O10 0.233639 0.815776 0.407084
O O11 0.000000 0.742260 0.426622
O O12 0.766252 0.178459 0.086261
O O13 0.000000 0.252755 0.071774
O O14 0.500000 0.103941 0.438029
O O15 0.243884 0.092098 0.506714
O O16 0.263581 0.056688 0.375249
O O17 0.500000 0.106972 0.916122
O O18 0.243538 0.064736 0.861952
O O19 0.750000 0.005481 0.250000
O O20 0.500000 0.999308 0.323109
O O21 0.250000 0.494334 0.250000
O O22 0.000000 0.487800 0.325851
#
# Coordination Sequence:
#
# PCOD9415438 Si02
#       8
#     8   8   8   8   8   8   8   8
#     4   9  18  32  50  73  99 128 165 206 247 293
#     4  10  19  31  49  73 100 129 164 206 249 296
#     4   9  19  35  53  75 102 131 166 206 246 292
#     4   9  19  35  53  74 100 131 167 205 246 294
#     4   9  19  37  57  75  99 134 172 206 246 297
#     4  10  20  35  56  79 103 133 169 207 247 298
#     4  11  23  37  54  77 106 136 166 207 253 295
#     4   9  16  28  47  69  95 128 164 202 244 292
#
# _framework density 17.840661000000001
#
# number of rings (size 3 to 8) (size 9 to 14) (size 15 to 20)
#    0.000    2.500    0.000    2.625    0.000    6.000 
#    0.000    1.875    0.000    3.750    0.000    0.000 
#    0.000    0.000    0.000    0.000    0.000    0.000 
#
# Total GULP energy -356880.355083 kJ/mol
# GULP energy per Si atom -5576.255548 kJ/mol
# Density = 1.780005 g / cm^3
# Si number density = 17.840661 Si / 1000 Ang^3
#
#
#
# Elastic Constant Matrix: (Units=GPa)
#
#
# Indices 1 2 3 4 5 6 
#
# 1 23.9357 21.3772 15.4387 0.0000 0.0000 0.0000
# 2 21.3772 96.0126 58.8332 0.0000 0.0000 0.0000
# 3 15.4387 58.8332 71.7012 0.0000 0.0000 0.0000
# 4 0.0000 0.0000 0.0000 30.3855 0.0000 0.0000
# 5 0.0000 0.0000 0.0000 0.0000 26.8718 0.0000
# 6 0.0000 0.0000 0.0000 0.0000 0.0000 24.3558
#
#
#
# Elastic Compliance Matrix: (Units=1/GPa)
#
#
# Indices 1 2 3 4 5 6 
#
# 1 0.052569 -0.009591 -0.003450 0.000000 0.000000 0.000000
# 2 -0.009591 0.022697 -0.016559 0.000000 0.000000 0.000000
# 3 -0.003450 -0.016559 0.028277 0.000000 0.000000 0.000000
# 4 0.000000 0.000000 0.000000 0.032910 0.000000 0.000000
# 5 0.000000 0.000000 0.000000 0.000000 0.037214 0.000000
# 6 0.000000 0.000000 0.000000 0.000000 0.000000 0.041058
#
#
# Mechanical properties :
#
#
# Convention : Reuss Voigt Hill
#
# Bulk Modulus (GPa) = 22.55063 42.54976 32.55019
# Shear Modulus (GPa) = 17.31868 22.72265 20.02067
#
# Velocity S-wave (km/s) = 3.11905 3.57269 3.35355
# Velocity P-wave (km/s) = 5.06348 6.39691 5.76885
#
# Compressibility (1/GPa) = 0.04434466
#
# Stress axis : x y z
#
# Youngs Moduli (GPa) = 19.02255 44.05790 35.36474
#
# Poissons Ratio (x) = 0.42254 0.12200
# Poissons Ratio (y) = 0.18244 0.58560
# Poissons Ratio (z) = 0.06562 0.72955
#
# Static dielectric constant tensor:
#      x y z
#    x 1.604890 0.000000 0.000000 
#    y 0.000000 1.648380 0.000000 
#    z 0.000000 0.000000 1.545610 
# 
# From -- ./inp_files/26973.got.cif
#   From: 2010.05.17/outbox.cif.g08.bks.cpg/sg53_14_cif.got.tgz:26973.got - 2010.06.03 12:45:16.
