data_PCOD9415493
_publ_section_title
;
Structure prediction by ZEFSAII (Michael W. Deem and Ramdas Pophale) SiO2 
 PCOD9415493
Probable space group: P M N A
;
_chemical_formula_sum "Si O2"
_cell_formula_units_Z 48
_cell_length_a 8.581267
_cell_length_b 16.782945
_cell_length_c 19.054888
_cell_angle_alpha 90.000000
_cell_angle_beta 90.000000
_cell_angle_gamma 90.000000
_cell_volume 2744.264621
_symmetry_space_group_name_H-M "P M N A"
_symmetry_group_IT_number 53
_symmetry_cell_setting 'orthorhombic'
loop_
_space_group_symop_operation_xyz
x,y,z
1/2-x,-y,1/2+z
x,-y,-z
1/2-x,y,1/2-z
-x,-y,-z
1/2+x,y,1/2-z
-x,y,z
1/2+x,-y,1/2+z
loop_
_atom_site_type_symbol
_atom_site_label
_atom_site_fract_x
_atom_site_fract_y
_atom_site_fract_z
Si Si1 0.686641 0.246622 0.541113
Si Si2 0.813194 0.664069 0.328099
Si Si3 0.189576 0.916540 0.968487
Si Si4 0.187347 0.675513 0.596601
Si Si5 0.812694 0.168744 0.172784
Si Si6 0.187883 0.516134 0.671809
O O1 0.500000 0.249794 0.539643
O O2 0.748001 0.274237 0.615878
O O3 0.734943 0.157663 0.517798
O O4 0.752947 0.304171 0.480793
O O5 0.750000 0.678314 0.250000
O O6 0.764304 0.573514 0.348846
O O7 0.000000 0.667153 0.327373
O O8 0.236620 0.892705 0.889078
O O9 0.000000 0.919302 0.967762
O O10 0.246027 0.000000 0.000000
O O11 0.252287 0.744678 0.647559
O O12 0.238710 0.588380 0.622387
O O13 0.000000 0.678944 0.597821
O O14 0.750000 0.149788 0.250000
O O15 0.000000 0.170818 0.174316
O O16 0.250000 0.530706 0.750000
O O17 0.000000 0.516978 0.673803
#
# Coordination Sequence:
#
# PCOD9415493 Si02
#       6
#     8   8   8   8   8   8
#     4  10  20  34  53  77 101 128 164 203 250 303
#     4  10  20  36  54  72  98 132 171 211 250 290
#     4   8  16  33  55  75  98 130 165 203 248 299
#     4  10  19  32  50  73 102 134 168 206 248 293
#     4  10  19  31  50  76 104 133 166 203 249 303
#     4   9  19  32  48  70  97 133 172 209 247 289
#
# _framework density 17.491023999999999
#
# number of rings (size 3 to 8) (size 9 to 14) (size 15 to 20)
#    0.000    2.500    0.000    3.500    0.000    4.000 
#    0.000    4.167    0.000   20.000    0.000    0.000 
#    0.000    0.000    0.000    0.000    0.000    0.000 
#
# Total GULP energy -267716.714547 kJ/mol
# GULP energy per Si atom -5577.431553 kJ/mol
# Density = 1.745121 g / cm^3
# Si number density = 17.491024 Si / 1000 Ang^3
#
#
#
# Elastic Constant Matrix: (Units=GPa)
#
#
# Indices 1 2 3 4 5 6 
#
# 1 41.9069 28.7085 32.9909 0.0000 0.0000 0.0000
# 2 28.7085 108.6727 98.8608 0.0000 0.0000 0.0000
# 3 32.9909 98.8608 139.1867 0.0000 0.0000 0.0000
# 4 0.0000 0.0000 0.0000 10.9995 0.0000 0.0000
# 5 0.0000 0.0000 0.0000 0.0000 33.7582 0.0000
# 6 0.0000 0.0000 0.0000 0.0000 0.0000 18.2125
#
#
#
# Elastic Compliance Matrix: (Units=1/GPa)
#
#
# Indices 1 2 3 4 5 6 
#
# 1 0.029973 -0.004112 -0.004184 0.000000 0.000000 0.000000
# 2 -0.004112 0.026569 -0.017897 0.000000 0.000000 0.000000
# 3 -0.004184 -0.017897 0.020888 0.000000 0.000000 0.000000
# 4 0.000000 0.000000 0.000000 0.090913 0.000000 0.000000
# 5 0.000000 0.000000 0.000000 0.000000 0.029622 0.000000
# 6 0.000000 0.000000 0.000000 0.000000 0.000000 0.054907
#
#
# Mechanical properties :
#
#
# Convention : Reuss Voigt Hill
#
# Bulk Modulus (GPa) = 39.92828 67.87628 53.90228
# Shear Modulus (GPa) = 15.94357 21.20778 18.57567
#
# Velocity S-wave (km/s) = 3.02243 3.48587 3.26239
# Velocity P-wave (km/s) = 5.92094 7.42242 6.71378
#
# Compressibility (1/GPa) = 0.02504491
#
# Stress axis : x y z
#
# Youngs Moduli (GPa) = 33.36341 37.63775 47.87500
#
# Poissons Ratio (x) = 0.15478 0.20029
# Poissons Ratio (y) = 0.13720 0.85680
# Poissons Ratio (z) = 0.13958 0.67359
#
# Static dielectric constant tensor:
#      x y z
#    x 1.598960 0.000000 0.000000 
#    y 0.000000 1.598200 0.000000 
#    z 0.000000 0.000000 1.574140 
# 
# From -- ./inp_files/26161.got.cif
#   From: 2010.05.17/outbox.cif.g08.bks.cpg/sg53_14_cif.got.tgz:26161.got - 2010.06.03 12:45:16.
