data_PCOD9415740
_publ_section_title
;
Structure prediction by ZEFSAII (Michael W. Deem and Ramdas Pophale) SiO2 
 PCOD9415740
Probable space group: P M N A
;
_chemical_formula_sum "Si O2"
_cell_formula_units_Z 40
_cell_length_a 8.830544
_cell_length_b 14.094236
_cell_length_c 18.266850
_cell_angle_alpha 90.000000
_cell_angle_beta 90.000000
_cell_angle_gamma 90.000000
_cell_volume 2273.487971
_symmetry_space_group_name_H-M "P M N A"
_symmetry_group_IT_number 53
_symmetry_cell_setting 'orthorhombic'
loop_
_space_group_symop_operation_xyz
x,y,z
1/2-x,-y,1/2+z
x,-y,-z
1/2-x,y,1/2-z
-x,-y,-z
1/2+x,y,1/2-z
-x,y,z
1/2+x,-y,1/2+z
loop_
_atom_site_type_symbol
_atom_site_label
_atom_site_fract_x
_atom_site_fract_y
_atom_site_fract_z
Si Si1 0.180431 0.420934 0.169225
Si Si2 0.681448 0.893333 0.480159
Si Si3 0.680171 0.707952 0.951499
Si Si4 0.680412 0.197993 0.674518
Si Si5 0.180964 0.385971 0.607351
O O1 0.250000 0.413731 0.250000
O O2 0.235479 0.335253 0.117885
O O3 0.241924 0.517162 0.131856
O O4 0.000000 0.423883 0.173572
O O5 0.500000 0.884238 0.491422
O O6 0.764117 0.812830 0.527333
O O7 0.711781 0.868853 0.395158
O O8 0.726702 0.000000 0.500000
O O9 0.500000 0.706634 0.939869
O O10 0.712711 0.642546 0.023065
O O11 0.750000 0.161784 0.750000
O O12 0.500000 0.209519 0.681183
O O13 0.755573 0.299213 0.655495
O O14 0.000000 0.393437 0.616177
#
# Coordination Sequence:
#
# PCOD9415740 Si02
#       5
#     8   8   8   8   8
#     4  12  24  37  54  77 109 146 183 220 261 312
#     4   9  19  37  59  80 104 139 181 223 269 321
#     4  10  21  37  57  81 108 139 177 221 268 319
#     4  10  19  32  52  79 109 138 173 218 268 318
#     4  10  20  35  55  79 109 142 177 217 262 314
#
# _framework density 17.594111999999999
#
# number of rings (size 3 to 8) (size 9 to 14) (size 15 to 20)
#    0.000    1.800    0.000    4.800    0.000    6.000 
#    0.000    1.000    0.000    2.400    0.000    0.000 
#    0.000    0.000    0.000    0.000    0.000    0.000 
#
# Total GULP energy -223507.660199 kJ/mol
# GULP energy per Si atom -5587.691505 kJ/mol
# Density = 1.755407 g / cm^3
# Si number density = 17.594112 Si / 1000 Ang^3
#
#
#
# Elastic Constant Matrix: (Units=GPa)
#
#
# Indices 1 2 3 4 5 6 
#
# 1 97.1417 64.1448 65.5483 0.0000 0.0000 0.0000
# 2 64.1448 123.4508 81.5190 0.0000 0.0000 0.0000
# 3 65.5483 81.5190 91.9683 0.0000 0.0000 0.0000
# 4 0.0000 0.0000 0.0000 10.9265 0.0000 0.0000
# 5 0.0000 0.0000 0.0000 0.0000 31.1415 0.0000
# 6 0.0000 0.0000 0.0000 0.0000 0.0000 25.1057
#
#
#
# Elastic Compliance Matrix: (Units=1/GPa)
#
#
# Indices 1 2 3 4 5 6 
#
# 1 0.020117 -0.002375 -0.012233 0.000000 0.000000 0.000000
# 2 -0.002375 0.019814 -0.015870 0.000000 0.000000 0.000000
# 3 -0.012233 -0.015870 0.033659 0.000000 0.000000 0.000000
# 4 0.000000 0.000000 0.000000 0.091521 0.000000 0.000000
# 5 0.000000 0.000000 0.000000 0.000000 0.032112 0.000000
# 6 0.000000 0.000000 0.000000 0.000000 0.000000 0.039832
#
#
# Mechanical properties :
#
#
# Convention : Reuss Voigt Hill
#
# Bulk Modulus (GPa) = 79.15026 81.66501 80.40764
# Shear Modulus (GPa) = 16.54424 20.19130 18.36777
#
# Velocity S-wave (km/s) = 3.06980 3.39132 3.23456
# Velocity P-wave (km/s) = 7.59272 7.86458 7.72985
#
# Compressibility (1/GPa) = 0.01263420
#
# Stress axis : x y z
#
# Youngs Moduli (GPa) = 49.71003 50.46935 29.71001
#
# Poissons Ratio (x) = 0.11986 0.36343
# Poissons Ratio (y) = 0.11806 0.47150
# Poissons Ratio (z) = 0.60808 0.80095
#
# Static dielectric constant tensor:
#      x y z
#    x 1.584120 0.000000 0.000000 
#    y 0.000000 1.567230 0.000000 
#    z 0.000000 0.000000 1.598480 
# 
# From -- ./inp_files/19855.got.cif
#   From: 2010.05.17/outbox.cif.g08.bks.cpg/sg53_10_cif.got.tgz:19855.got - 2010.06.03 12:45:16.
