data_PCOD9415215
_publ_section_title
;
Structure prediction by ZEFSAII (Michael W. Deem and Ramdas Pophale) SiO2 
 PCOD9415215
Probable space group: P M N A
;
_chemical_formula_sum "Si O2"
_cell_formula_units_Z 56
_cell_length_a 8.718976
_cell_length_b 21.223717
_cell_length_c 18.962550
_cell_angle_alpha 90.000000
_cell_angle_beta 90.000000
_cell_angle_gamma 90.000000
_cell_volume 3509.002416
_symmetry_space_group_name_H-M "P M N A"
_symmetry_group_IT_number 53
_symmetry_cell_setting 'orthorhombic'
loop_
_space_group_symop_operation_xyz
x,y,z
1/2-x,-y,1/2+z
x,-y,-z
1/2-x,y,1/2-z
-x,-y,-z
1/2+x,y,1/2-z
-x,y,z
1/2+x,-y,1/2+z
loop_
_atom_site_type_symbol
_atom_site_label
_atom_site_fract_x
_atom_site_fract_y
_atom_site_fract_z
Si Si1 0.315610 0.017243 0.326740
Si Si2 0.823364 0.928090 0.970827
Si Si3 0.816103 0.752563 0.327660
Si Si4 0.677976 0.434217 0.456184
Si Si5 0.682509 0.111763 0.888584
Si Si6 0.313880 0.636070 0.411259
Si Si7 0.814218 0.508957 0.172374
O O1 0.250000 0.032604 0.250000
O O2 0.500000 0.017440 0.325273
O O3 0.260741 0.947424 0.349674
O O4 0.267216 0.064302 0.390403
O O5 0.000000 0.906105 0.970940
O O6 0.728267 0.890331 0.028869
O O7 0.823925 0.000000 0.000000
O O8 0.750000 0.740993 0.250000
O O9 0.770638 0.822295 0.353837
O O10 0.753640 0.699596 0.380278
O O11 0.000000 0.749659 0.325301
O O12 0.676972 0.500000 0.500000
O O13 0.500000 0.416908 0.444471
O O14 0.742504 0.382763 0.510141
O O15 0.744225 0.454463 0.380967
O O16 0.500000 0.104440 0.881923
O O17 0.500000 0.639377 0.412655
O O18 0.272893 0.577030 0.360691
O O19 0.750000 0.502487 0.250000
O O20 0.000000 0.506452 0.172936
#
# Coordination Sequence:
#
# PCOD9415215 Si02
#       7
#     8   8   8   8   8   8   8
#     4  10  19  30  46  69  94 118 145 180 221 262
#     4   8  16  30  46  65  89 115 144 180 220 262
#     4  11  23  34  44  63  90 119 151 183 213 249
#     4   7  12  25  43  61  82 110 143 176 212 258
#     4  10  20  32  46  64  88 120 153 183 217 257
#     4   9  17  30  47  63  83 116 151 181 214 253
#     4   9  16  26  42  65  90 113 141 177 217 261
#
# _framework density 15.958952999999999
#
# number of rings (size 3 to 8) (size 9 to 14) (size 15 to 20)
#    0.000    2.857    0.000    4.714    0.000    8.286 
#    0.000    0.714    0.000    2.571    0.000    1.000 
#    0.000    2.286    0.000    0.000    0.000    0.000 
#
# Total GULP energy -311834.900770 kJ/mol
# GULP energy per Si atom -5568.480371 kJ/mol
# Density = 1.592263 g / cm^3
# Si number density = 15.958953 Si / 1000 Ang^3
#
#
#
# Elastic Constant Matrix: (Units=GPa)
#
#
# Indices 1 2 3 4 5 6 
#
# 1 14.8547 2.9935 5.5089 0.0000 0.0000 0.0000
# 2 2.9935 18.0770 -8.8204 0.0000 0.0000 0.0000
# 3 5.5089 -8.8204 69.2957 0.0000 0.0000 0.0000
# 4 0.0000 0.0000 0.0000 25.6499 0.0000 0.0000
# 5 0.0000 0.0000 0.0000 0.0000 21.0925 0.0000
# 6 0.0000 0.0000 0.0000 0.0000 0.0000 21.7508
#
#
#
# Elastic Compliance Matrix: (Units=1/GPa)
#
#
# Indices 1 2 3 4 5 6 
#
# 1 0.073467 -0.016010 -0.007878 0.000000 0.000000 0.000000
# 2 -0.016010 0.062471 0.009224 0.000000 0.000000 0.000000
# 3 -0.007878 0.009224 0.016231 0.000000 0.000000 0.000000
# 4 0.000000 0.000000 0.000000 0.038986 0.000000 0.000000
# 5 0.000000 0.000000 0.000000 0.000000 0.047410 0.000000
# 6 0.000000 0.000000 0.000000 0.000000 0.000000 0.045975
#
#
# Mechanical properties :
#
#
# Convention : Reuss Voigt Hill
#
# Bulk Modulus (GPa) = 8.14057 11.28792 9.71424
# Shear Modulus (GPa) = 14.09181 20.53501 17.31341
#
# Velocity S-wave (km/s) = 2.97476 3.59101 3.29731
# Velocity P-wave (km/s) = 4.11229 4.92770 4.53835
#
# Compressibility (1/GPa) = 0.12284159
#
# Stress axis : x y z
#
# Youngs Moduli (GPa) = 13.61157 16.00744 61.60907
#
# Poissons Ratio (x) = 0.25628 0.48538
# Poissons Ratio (y) = 0.21792 -0.56831
# Poissons Ratio (z) = 0.10724 -0.14766
#
# Static dielectric constant tensor:
#      x y z
#    x 1.543980 0.000000 0.000000 
#    y 0.000000 1.515690 0.000000 
#    z 0.000000 0.000000 1.566230 
# 
# From -- ./inp_files/26725.got.cif
#   From: 2010.05.17/outbox.cif.g08.bks.cpg/sg53_14_cif.got.tgz:26725.got - 2010.06.03 12:45:16.
