data_PCOD9415107
_publ_section_title
;
Structure prediction by ZEFSAII (Michael W. Deem and Ramdas Pophale) SiO2 
 PCOD9415107
Probable space group: P M N A
;
_chemical_formula_sum "Si O2"
_cell_formula_units_Z 64
_cell_length_a 9.137109
_cell_length_b 17.401667
_cell_length_c 27.080739
_cell_angle_alpha 90.000000
_cell_angle_beta 90.000000
_cell_angle_gamma 90.000000
_cell_volume 4305.862636
_symmetry_space_group_name_H-M "P M N A"
_symmetry_group_IT_number 53
_symmetry_cell_setting 'orthorhombic'
loop_
_space_group_symop_operation_xyz
x,y,z
1/2-x,-y,1/2+z
x,-y,-z
1/2-x,y,1/2-z
-x,-y,-z
1/2+x,y,1/2-z
-x,y,z
1/2+x,-y,1/2+z
loop_
_atom_site_type_symbol
_atom_site_label
_atom_site_fract_x
_atom_site_fract_y
_atom_site_fract_z
Si Si1 0.324957 0.326490 0.965705
Si Si2 0.173653 0.370124 0.421156
Si Si3 0.673976 0.917959 0.802913
Si Si4 0.673156 0.788480 0.881299
Si Si5 0.171990 0.972082 0.118490
Si Si6 0.169005 0.521784 0.058364
Si Si7 0.675194 0.847657 0.058866
Si Si8 0.170566 0.893408 0.960245
O O1 0.500000 0.333651 0.961706
O O2 0.250083 0.396984 0.937456
O O3 0.283525 0.242161 0.946560
O O4 0.289519 0.336321 0.024143
O O5 0.204757 0.302101 0.382489
O O6 0.257050 0.449887 0.414440
O O7 0.000000 0.385515 0.421243
O O8 0.750000 0.917332 0.750000
O O9 0.500000 0.930706 0.798730
O O10 0.695657 0.836642 0.831433
O O11 0.746032 0.982918 0.837765
O O12 0.500000 0.797078 0.895013
O O13 0.772498 0.828768 0.922475
O O14 0.247563 0.892556 0.103382
O O15 0.000000 0.963207 0.129522
O O16 0.183686 0.027923 0.070544
O O17 0.000000 0.528991 0.071744
O O18 0.178197 0.500000 0.000000
O O19 0.500000 0.853378 0.062648
O O20 0.730571 0.887207 0.008422
O O21 0.000000 0.882792 0.973442
#
# Coordination Sequence:
#
# PCOD9415107 Si02
#       8
#     8   8   8   8   8   8   8   8
#     4   9  17  28  41  57  82 119 156 187 220 258
#     4   9  15  27  43  59  83 115 152 187 218 259
#     4  10  20  35  54  71  91 117 147 186 231 276
#     4   9  17  30  47  67  88 117 154 187 223 270
#     4  10  21  34  46  65  89 116 151 187 228 274
#     4   9  17  26  37  57  83 113 150 186 220 256
#     4  11  20  30  44  63  88 120 157 191 225 267
#     4  10  19  29  42  61  89 120 150 187 227 265
#
# _framework density 14.863455999999999
#
# number of rings (size 3 to 8) (size 9 to 14) (size 15 to 20)
#    0.000    2.375    1.250    2.250    0.000    6.500 
#    0.000    0.000    0.000    0.000    0.000    0.000 
#    0.000    1.000    0.000    6.750    0.000    4.875 
#
# Total GULP energy -356730.846054 kJ/mol
# GULP energy per Si atom -5573.919470 kJ/mol
# Density = 1.482963 g / cm^3
# Si number density = 14.863456 Si / 1000 Ang^3
#
#
#
# Elastic Constant Matrix: (Units=GPa)
#
#
# Indices 1 2 3 4 5 6 
#
# 1 69.1193 62.7521 38.8897 0.0000 0.0000 0.0000
# 2 62.7521 107.0581 46.6916 0.0000 0.0000 0.0000
# 3 38.8897 46.6916 58.9668 0.0000 0.0000 0.0000
# 4 0.0000 0.0000 0.0000 9.3636 0.0000 0.0000
# 5 0.0000 0.0000 0.0000 0.0000 17.9275 0.0000
# 6 0.0000 0.0000 0.0000 0.0000 0.0000 18.8118
#
#
#
# Elastic Compliance Matrix: (Units=1/GPa)
#
#
# Indices 1 2 3 4 5 6 
#
# 1 0.034604 -0.015779 -0.010328 0.000000 0.000000 0.000000
# 2 -0.015779 0.021463 -0.006589 0.000000 0.000000 0.000000
# 3 -0.010328 -0.006589 0.028987 0.000000 0.000000 0.000000
# 4 0.000000 0.000000 0.000000 0.106796 0.000000 0.000000
# 5 0.000000 0.000000 0.000000 0.000000 0.055780 0.000000
# 6 0.000000 0.000000 0.000000 0.000000 0.000000 0.053158
#
#
# Mechanical properties :
#
#
# Convention : Reuss Voigt Hill
#
# Bulk Modulus (GPa) = 50.85537 59.09013 54.97275
# Shear Modulus (GPa) = 13.41441 15.00797 14.21119
#
# Velocity S-wave (km/s) = 3.00744 3.18106 3.09547
# Velocity P-wave (km/s) = 6.80800 7.30300 7.05984
#
# Compressibility (1/GPa) = 0.01966361
#
# Stress axis : x y z
#
# Youngs Moduli (GPa) = 28.89852 46.59185 34.49804
#
# Poissons Ratio (x) = 0.73516 0.35629
# Poissons Ratio (y) = 0.45598 0.22730
# Poissons Ratio (z) = 0.29846 0.30698
#
# Static dielectric constant tensor:
#      x y z
#    x 1.494570 0.000000 0.000000 
#    y 0.000000 1.507160 0.000000 
#    z 0.000000 0.000000 1.465070 
# 
# From -- ./inp_files/34472.got.cif
#   From: 2010.05.17/outbox.cif.g08.bks.cpg/sg53_18_cif.got.tgz:34472.got - 2010.06.03 12:45:16.
