data_PCOD9415855
_publ_section_title
;
Structure prediction by ZEFSAII (Michael W. Deem and Ramdas Pophale) SiO2 
 PCOD9415855
Probable space group: P M N A
;
_chemical_formula_sum "Si O2"
_cell_formula_units_Z 64
_cell_length_a 22.676525
_cell_length_b 14.582665
_cell_length_c 9.090976
_cell_angle_alpha 90.000000
_cell_angle_beta 90.000000
_cell_angle_gamma 90.000000
_cell_volume 3006.241830
_symmetry_space_group_name_H-M "P M N A"
_symmetry_group_IT_number 53
_symmetry_cell_setting 'orthorhombic'
loop_
_space_group_symop_operation_xyz
x,y,z
1/2-x,-y,1/2+z
x,-y,-z
1/2-x,y,1/2-z
-x,-y,-z
1/2+x,y,1/2-z
-x,y,z
1/2+x,-y,1/2+z
loop_
_atom_site_type_symbol
_atom_site_label
_atom_site_fract_x
_atom_site_fract_y
_atom_site_fract_z
Si Si1 0.125499 0.595074 0.070913
Si Si2 0.775179 0.095735 0.079073
Si Si3 0.394801 0.794943 0.506163
Si Si4 0.152894 0.151738 0.560891
Si Si5 0.567070 0.942955 0.266435
Si Si6 0.435095 0.151437 0.203376
Si Si7 0.749356 0.596077 0.922755
Si Si8 0.313947 0.333246 0.827707
O O1 0.148711 0.589984 0.240680
O O2 0.101488 0.500000 0.000000
O O3 0.095640 0.694275 0.064720
O O4 0.184695 0.615025 0.976501
O O5 0.750000 0.087727 0.250000
O O6 0.828337 0.169037 0.053384
O O7 0.718438 0.125885 0.984924
O O8 0.794425 0.000000 0.000000
O O9 0.420157 0.876083 0.402942
O O10 0.428032 0.782497 0.660216
O O11 0.117025 0.074175 0.645490
O O12 0.114435 0.169523 0.416404
O O13 0.155913 0.234831 0.677125
O O14 0.500000 0.923491 0.215690
O O15 0.570643 0.052175 0.282989
O O16 0.500000 0.155686 0.135257
O O17 0.750000 0.594478 0.750000
O O18 0.735308 0.500000 0.000000
O O19 0.700808 0.658709 0.999608
O O20 0.250000 0.332370 0.750000
#
# Coordination Sequence:
#
# PCOD9415855 Si02
#       8
#     8   8   8   8   8   8   8   8
#     4  10  21  39  60  87 123 160 208 265 319 379
#     4  12  26  39  60  95 140 179 209 252 322 398
#     4  12  24  41  66  96 129 166 213 266 327 386
#     4  12  24  39  63  93 134 171 208 258 317 384
#     4  11  24  44  68  92 122 170 223 267 311 370
#     4  11  24  43  65  93 125 165 218 271 312 367
#     4  10  19  32  57  87 123 164 207 253 309 377
#     4  10  21  38  56  90 127 170 210 254 316 382
#
# _framework density 21.289038999999999
#
# number of rings (size 3 to 8) (size 9 to 14) (size 15 to 20)
#    0.000    1.000    2.500    6.375    3.500    3.000 
#    0.000    0.000    0.000    1.500    0.000    0.875 
#    0.000    0.000    0.000    0.000    0.000    0.000 
#
# Total GULP energy -356822.303807 kJ/mol
# GULP energy per Si atom -5575.348497 kJ/mol
# Density = 2.124058 g / cm^3
# Si number density = 21.289039 Si / 1000 Ang^3
#
#
#
# Elastic Constant Matrix: (Units=GPa)
#
#
# Indices 1 2 3 4 5 6 
#
# 1 66.4400 8.1589 -2.7310 0.0000 0.0000 0.0000
# 2 8.1589 76.6561 5.5398 0.0000 0.0000 0.0000
# 3 -2.7310 5.5398 95.9516 0.0000 0.0000 0.0000
# 4 0.0000 0.0000 0.0000 22.9922 0.0000 0.0000
# 5 0.0000 0.0000 0.0000 0.0000 30.8126 0.0000
# 6 0.0000 0.0000 0.0000 0.0000 0.0000 13.7553
#
#
#
# Elastic Compliance Matrix: (Units=1/GPa)
#
#
# Indices 1 2 3 4 5 6 
#
# 1 0.015277 -0.001664 0.000531 0.000000 0.000000 0.000000
# 2 -0.001664 0.013281 -0.000814 0.000000 0.000000 0.000000
# 3 0.000531 -0.000814 0.010484 0.000000 0.000000 0.000000
# 4 0.000000 0.000000 0.000000 0.043493 0.000000 0.000000
# 5 0.000000 0.000000 0.000000 0.000000 0.032454 0.000000
# 6 0.000000 0.000000 0.000000 0.000000 0.000000 0.072699
#
#
# Mechanical properties :
#
#
# Convention : Reuss Voigt Hill
#
# Bulk Modulus (GPa) = 28.45164 28.99813 28.72488
# Shear Modulus (GPa) = 24.59418 28.71737 26.65578
#
# Velocity S-wave (km/s) = 3.40259 3.67676 3.54233
# Velocity P-wave (km/s) = 5.36938 5.62810 5.50026
#
# Compressibility (1/GPa) = 0.03514736
#
# Stress axis : x y z
#
# Youngs Moduli (GPa) = 65.45622 75.29403 95.38309
#
# Poissons Ratio (x) = 0.12532 -0.05064
# Poissons Ratio (y) = 0.10895 0.07766
# Poissons Ratio (z) = -0.03475 0.06130
#
# Static dielectric constant tensor:
#      x y z
#    x 1.930250 0.000000 0.000000 
#    y 0.000000 1.919170 0.000000 
#    z 0.000000 0.000000 1.876560 
# 
# From -- ./inp_files/11968.got.cif
#   From: 2010.05.17/outbox.cif.g08.bks.cpg/sg53_6_cif.got.tgz:11968.got - 2010.06.03 12:45:16.
