data_PCOD9415030
_publ_section_title
;
Structure prediction by ZEFSAII (Michael W. Deem and Ramdas Pophale) SiO2 
 PCOD9415030
Probable space group: P M N A
;
_chemical_formula_sum "Si O2"
_cell_formula_units_Z 56
_cell_length_a 31.572757
_cell_length_b 13.143939
_cell_length_c 5.842051
_cell_angle_alpha 90.000000
_cell_angle_beta 90.000000
_cell_angle_gamma 90.000000
_cell_volume 2424.395035
_symmetry_space_group_name_H-M "P M N A"
_symmetry_group_IT_number 53
_symmetry_cell_setting 'orthorhombic'
loop_
_space_group_symop_operation_xyz
x,y,z
1/2-x,-y,1/2+z
x,-y,-z
1/2-x,y,1/2-z
-x,-y,-z
1/2+x,y,1/2-z
-x,y,z
1/2+x,-y,1/2+z
loop_
_atom_site_type_symbol
_atom_site_label
_atom_site_fract_x
_atom_site_fract_y
_atom_site_fract_z
Si Si1 0.619395 0.636103 0.493991
Si Si2 0.349654 0.792689 0.119273
Si Si3 0.069936 0.243084 0.359373
Si Si4 0.453943 0.585309 0.193779
Si Si5 0.701827 0.690781 0.736148
Si Si6 0.711167 0.887645 0.408549
Si Si7 0.452435 0.029960 0.254528
O O1 0.631167 0.728570 0.326156
O O2 0.585730 0.674453 0.678787
O O3 0.590419 0.567654 0.326749
O O4 0.665068 0.619824 0.619692
O O5 0.328329 0.888728 0.235410
O O6 0.386702 0.810111 0.942355
O O7 0.315766 0.722519 0.984949
O O8 0.049564 0.305157 0.567201
O O9 0.044740 0.151889 0.249261
O O10 0.500000 0.583615 0.317012
O O11 0.455611 0.500000 0.000000
O O12 0.750000 0.649918 0.750000
O O13 0.704836 0.798688 0.596356
O O14 0.750000 0.855806 0.250000
O O15 0.718946 0.000000 0.500000
O O16 0.500000 0.983610 0.259363
O O17 0.431743 0.000000 0.500000
O O18 0.435668 0.000000 0.000000
#
# Coordination Sequence:
#
# PCOD9415030 Si02
#       7
#     8   8   8   8   8   8   8
#     4   9  21  37  59  89 126 158 211 262 327 402
#     4   9  20  37  51  79 115 155 209 259 323 395
#     4  10  21  41  60  88 127 165 216 272 334 393
#     4  10  22  40  66  99 134 167 209 268 343 427
#     4  10  18  35  57  79 117 158 210 265 320 393
#     4  11  21  31  47  74 112 160 209 266 327 389
#     4  10  23  41  62  88 120 172 233 280 331 393
#
# _framework density 23.098542999999999
#
# number of rings (size 3 to 8) (size 9 to 14) (size 15 to 20)
#    0.000    2.143    1.429    0.857    4.000    1.714 
#    7.714    1.429    0.000    0.000    0.000    0.000 
#  154.286    0.000    0.000    0.000    0.000    0.000 
#
# Total GULP energy -312024.797403 kJ/mol
# GULP energy per Si atom -5571.871382 kJ/mol
# Density = 2.304597 g / cm^3
# Si number density = 23.098543 Si / 1000 Ang^3
#
#
#
# Elastic Constant Matrix: (Units=GPa)
#
#
# Indices 1 2 3 4 5 6 
#
# 1 130.2437 13.7797 22.9800 0.0000 0.0000 0.0000
# 2 13.7797 59.4705 14.2753 0.0000 0.0000 0.0000
# 3 22.9800 14.2753 88.2181 0.0000 0.0000 0.0000
# 4 0.0000 0.0000 0.0000 28.4476 0.0000 0.0000
# 5 0.0000 0.0000 0.0000 0.0000 -35.8027 0.0000
# 6 0.0000 0.0000 0.0000 0.0000 0.0000 24.9961
#
#
#
# Elastic Compliance Matrix: (Units=1/GPa)
#
#
# Indices 1 2 3 4 5 6 
#
# 1 0.008164 -0.001437 -0.001894 0.000000 0.000000 0.000000
# 2 -0.001437 0.017748 -0.002498 0.000000 0.000000 0.000000
# 3 -0.001894 -0.002498 0.012233 0.000000 0.000000 0.000000
# 4 0.000000 0.000000 0.000000 0.035152 0.000000 0.000000
# 5 0.000000 0.000000 0.000000 0.000000 -0.027931 0.000000
# 6 0.000000 0.000000 0.000000 0.000000 0.000000 0.040006
#
#
# Mechanical properties :
#
#
# Convention : Reuss Voigt Hill
#
# Bulk Modulus (GPa) = 37.75388 42.22249 39.98819
# Shear Modulus (GPa) = 47.23262 18.65469 32.94366
#
# Velocity S-wave (km/s) = 4.52689 2.84494 3.78063
# Velocity P-wave (km/s) = 6.61088 5.39542 6.03383
#
# Compressibility (1/GPa) = 0.02648735
#
# Stress axis : x y z
#
# Youngs Moduli (GPa) = 122.48666 56.34585 81.74541
#
# Poissons Ratio (x) = 0.08097 0.15484
# Poissons Ratio (y) = 0.17602 0.20416
# Poissons Ratio (z) = 0.23201 0.14073
#
# Static dielectric constant tensor:
#      x y z
#    x 1.938940 0.000000 0.000000 
#    y 0.000000 1.675700 0.000000 
#    z 0.000000 0.000000 1.851540 
# 
# From -- ./inp_files/5356.got.cif
#   From: 2010.05.17/outbox.cif.g08.bks.cpg/sg53_3_cif.got.tgz:5356.got - 2010.06.03 12:45:16.
