data_PCOD9415191
_publ_section_title
;
Structure prediction by ZEFSAII (Michael W. Deem and Ramdas Pophale) SiO2 
 PCOD9415191
Probable space group: P M N A
;
_chemical_formula_sum "Si O2"
_cell_formula_units_Z 64
_cell_length_a 9.091939
_cell_length_b 20.270623
_cell_length_c 20.628212
_cell_angle_alpha 90.000000
_cell_angle_beta 90.000000
_cell_angle_gamma 90.000000
_cell_volume 3801.764368
_symmetry_space_group_name_H-M "P M N A"
_symmetry_group_IT_number 53
_symmetry_cell_setting 'orthorhombic'
loop_
_space_group_symop_operation_xyz
x,y,z
1/2-x,-y,1/2+z
x,-y,-z
1/2-x,y,1/2-z
-x,-y,-z
1/2+x,y,1/2-z
-x,y,z
1/2+x,-y,1/2+z
loop_
_atom_site_type_symbol
_atom_site_label
_atom_site_fract_x
_atom_site_fract_y
_atom_site_fract_z
Si Si1 0.675681 0.106370 0.390260
Si Si2 0.676883 0.384973 0.682068
Si Si3 0.179631 0.302768 0.943156
Si Si4 0.829879 0.023066 0.575539
Si Si5 0.321375 0.650257 0.582667
Si Si6 0.677133 0.764672 0.682608
Si Si7 0.323949 0.152044 0.537533
Si Si8 0.677043 0.460817 0.318252
O O1 0.500000 0.097220 0.386527
O O2 0.720988 0.161591 0.338708
O O3 0.706421 0.137128 0.461601
O O4 0.753393 0.035981 0.385506
O O5 0.750000 0.365681 0.750000
O O6 0.500000 0.379963 0.687770
O O7 0.725683 0.340671 0.621564
O O8 0.711900 0.462251 0.670084
O O9 0.224364 0.226051 0.945451
O O10 0.000000 0.303080 0.944149
O O11 0.229426 0.339160 0.009093
O O12 0.750976 0.093619 0.577923
O O13 0.000000 0.028884 0.592820
O O14 0.820226 0.000000 0.500000
O O15 0.500000 0.648199 0.580076
O O16 0.281623 0.713621 0.626054
O O17 0.274316 0.585708 0.622552
O O18 0.750000 0.745836 0.750000
O O19 0.500000 0.762838 0.688157
O O20 0.500000 0.147989 0.545658
O O21 0.750000 0.440956 0.250000
O O22 0.500000 0.454761 0.311993
#
# Coordination Sequence:
#
# PCOD9415191 Si02
#       8
#     8   8   8   8   8   8   8   8
#     4   9  16  28  45  64  87 119 158 193 227 274
#     4   9  18  32  50  72  95 123 158 195 240 291
#     4   9  16  28  49  73  96 122 157 202 242 277
#     4   9  17  27  42  66  94 119 145 186 235 277
#     4   9  16  28  46  70  97 123 159 204 239 272
#     4  10  19  30  45  66  94 129 164 197 236 281
#     4   9  15  27  47  68  89 117 153 193 234 277
#     4   9  17  29  47  69  96 129 162 197 235 279
#
# _framework density 16.834288999999998
#
# number of rings (size 3 to 8) (size 9 to 14) (size 15 to 20)
#    0.000    2.875    1.250    0.750    0.000    2.500 
#    0.000    3.125    0.000    3.000    0.000    5.250 
#    0.000    0.000    0.000    0.000    0.000    0.000 
#
# Total GULP energy -356554.125817 kJ/mol
# GULP energy per Si atom -5571.158216 kJ/mol
# Density = 1.679597 g / cm^3
# Si number density = 16.834289 Si / 1000 Ang^3
#
#
#
# Elastic Constant Matrix: (Units=GPa)
#
#
# Indices 1 2 3 4 5 6 
#
# 1 8.2006 27.4198 24.5276 0.0000 0.0000 0.0000
# 2 27.4198 116.4929 76.3165 0.0000 0.0000 0.0000
# 3 24.5276 76.3165 114.0461 0.0000 0.0000 0.0000
# 4 0.0000 0.0000 0.0000 20.9865 0.0000 0.0000
# 5 0.0000 0.0000 0.0000 0.0000 18.8560 0.0000
# 6 0.0000 0.0000 0.0000 0.0000 0.0000 11.0165
#
#
#
# Elastic Compliance Matrix: (Units=1/GPa)
#
#
# Indices 1 2 3 4 5 6 
#
# 1 0.931275 -0.156673 -0.095446 0.000000 0.000000 0.000000
# 2 -0.156673 0.041643 0.005829 0.000000 0.000000 0.000000
# 3 -0.095446 0.005829 0.025395 0.000000 0.000000 0.000000
# 4 0.000000 0.000000 0.000000 0.047650 0.000000 0.000000
# 5 0.000000 0.000000 0.000000 0.000000 0.053033 0.000000
# 6 0.000000 0.000000 0.000000 0.000000 0.000000 0.090773
#
#
# Mechanical properties :
#
#
# Convention : Reuss Voigt Hill
#
# Bulk Modulus (GPa) = 1.97733 55.02973 28.50353
# Shear Modulus (GPa) = 2.70135 17.53684 10.11909
#
# Velocity S-wave (km/s) = 1.26813 3.23109 2.45439
# Velocity P-wave (km/s) = 1.82245 6.83227 5.00007
#
# Compressibility (1/GPa) = 0.50573300
#
# Stress axis : x y z
#
# Youngs Moduli (GPa) = 1.07380 24.01374 39.37780
#
# Poissons Ratio (x) = 3.76231 3.75845
# Poissons Ratio (y) = 0.16824 -0.22954
# Poissons Ratio (z) = 0.10249 -0.13998
#
# Static dielectric constant tensor:
#      x y z
#    x 1.562410 0.000000 0.000000 
#    y 0.000000 1.576950 0.000000 
#    z 0.000000 0.000000 1.551400 
# 
# From -- ./inp_files/26970.got.cif
#   From: 2010.05.17/outbox.cif.g08.bks.cpg/sg53_14_cif.got.tgz:26970.got - 2010.06.03 12:45:16.
