data_PCOD9415041
_publ_section_title
;
Structure prediction by ZEFSAII (Michael W. Deem and Ramdas Pophale) SiO2 
 PCOD9415041
Probable space group: P M N A
;
_chemical_formula_sum "Si O2"
_cell_formula_units_Z 52
_cell_length_a 7.702003
_cell_length_b 12.422011
_cell_length_c 25.687989
_cell_angle_alpha 90.000000
_cell_angle_beta 90.000000
_cell_angle_gamma 90.000000
_cell_volume 2457.682061
_symmetry_space_group_name_H-M "P M N A"
_symmetry_group_IT_number 53
_symmetry_cell_setting 'orthorhombic'
loop_
_space_group_symop_operation_xyz
x,y,z
1/2-x,-y,1/2+z
x,-y,-z
1/2-x,y,1/2-z
-x,-y,-z
1/2+x,y,1/2-z
-x,y,z
1/2+x,-y,1/2+z
loop_
_atom_site_type_symbol
_atom_site_label
_atom_site_fract_x
_atom_site_fract_y
_atom_site_fract_z
Si Si1 0.712676 0.153024 0.642005
Si Si2 0.205346 0.890501 0.025526
Si Si3 0.206683 0.377510 0.810756
Si Si4 0.750000 0.249565 0.250000
Si Si5 0.795887 0.078480 0.171501
Si Si6 0.707166 0.782149 0.923972
Si Si7 0.295542 0.609861 0.840938
O O1 0.500000 0.153682 0.642189
O O2 0.773511 0.139390 0.582412
O O3 0.773537 0.263965 0.667249
O O4 0.761894 0.044649 0.672807
O O5 0.000000 0.908616 0.032793
O O6 0.229228 0.798430 0.982353
O O7 0.279643 0.000000 0.000000
O O8 0.250000 0.388281 0.750000
O O9 0.272973 0.482714 0.840637
O O10 0.000000 0.377020 0.816142
O O11 0.689453 0.159930 0.207638
O O12 0.811032 0.335741 0.206403
O O13 0.780711 0.122682 0.112666
O O14 0.000000 0.087810 0.186387
O O15 0.500000 0.791304 0.924139
O O16 0.752189 0.671800 0.893879
O O17 0.500000 0.632300 0.829433
#
# Coordination Sequence:
#
# PCOD9415041 Si02
#       7
#     8   8   8   4   8   8   8
#     4   9  20  37  56  83 114 147 190 228 267 335
#     4  10  18  35  61  83 111 151 190 227 278 339
#     4  11  23  39  60  82 112 150 190 231 273 328
#     4  10  20  30  58  86 112 138 190 236 284 320
#     4  10  19  35  56  80 114 152 185 224 280 338
#     4  10  21  35  55  87 118 141 181 236 285 332
#     4  10  21  38  56  81 114 147 190 234 278 333
#
# _framework density 21.158148000000001
#
# number of rings (size 3 to 8) (size 9 to 14) (size 15 to 20)
#    0.000    2.000    2.308    1.385    1.077    4.000 
#    0.000    3.846    0.000    4.615    0.000    0.000 
#    0.000    0.000    0.000    0.000    0.000    0.000 
#
# Total GULP energy -289864.902576 kJ/mol
# GULP energy per Si atom -5574.325050 kJ/mol
# Density = 2.110999 g / cm^3
# Si number density = 21.158148 Si / 1000 Ang^3
#
#
#
# Elastic Constant Matrix: (Units=GPa)
#
#
# Indices 1 2 3 4 5 6 
#
# 1 55.8774 11.8645 1.4245 0.0000 0.0000 0.0000
# 2 11.8645 172.8959 14.9126 0.0000 0.0000 0.0000
# 3 1.4245 14.9126 27.9130 0.0000 0.0000 0.0000
# 4 0.0000 0.0000 0.0000 34.4882 0.0000 0.0000
# 5 0.0000 0.0000 0.0000 0.0000 14.1880 0.0000
# 6 0.0000 0.0000 0.0000 0.0000 0.0000 -34.0540
#
#
#
# Elastic Compliance Matrix: (Units=1/GPa)
#
#
# Indices 1 2 3 4 5 6 
#
# 1 0.018163 -0.001223 -0.000274 0.000000 0.000000 0.000000
# 2 -0.001223 0.006146 -0.003221 0.000000 0.000000 0.000000
# 3 -0.000274 -0.003221 0.037560 0.000000 0.000000 0.000000
# 4 0.000000 0.000000 0.000000 0.028995 0.000000 0.000000
# 5 0.000000 0.000000 0.000000 0.000000 0.070482 0.000000
# 6 0.000000 0.000000 0.000000 0.000000 0.000000 -0.029365
#
#
# Mechanical properties :
#
#
# Convention : Reuss Voigt Hill
#
# Bulk Modulus (GPa) = 19.07153 34.78772 26.92963
# Shear Modulus (GPa) = 31.46758 18.15676 24.81217
#
# Velocity S-wave (km/s) = 3.86068 2.93259 3.42819
# Velocity P-wave (km/s) = 5.37648 5.28623 5.33154
#
# Compressibility (1/GPa) = 0.05243418
#
# Stress axis : x y z
#
# Youngs Moduli (GPa) = 55.05719 162.71958 26.62384
#
# Poissons Ratio (x) = 0.19897 0.00729
# Poissons Ratio (y) = 0.06732 0.08575
# Poissons Ratio (z) = 0.01507 0.52410
#
# Static dielectric constant tensor:
#      x y z
#    x 1.896870 0.000000 0.000000 
#    y 0.000000 1.756620 0.000000 
#    z 0.000000 0.000000 1.743610 
# 
# From -- ./inp_files/36233.got.cif
#   From: 2010.05.17/outbox.cif.g08.bks.cpg/sg53_19_cif.got.tgz:36233.got - 2010.06.03 12:45:16.
