data_PCOD9415168
_publ_section_title
;
Structure prediction by ZEFSAII (Michael W. Deem and Ramdas Pophale) SiO2 
 PCOD9415168
Probable space group: P M N A
;
_chemical_formula_sum "Si O2"
_cell_formula_units_Z 56
_cell_length_a 25.812062
_cell_length_b 27.327897
_cell_length_c 5.277583
_cell_angle_alpha 90.000000
_cell_angle_beta 90.000000
_cell_angle_gamma 90.000000
_cell_volume 3722.750956
_symmetry_space_group_name_H-M "P M N A"
_symmetry_group_IT_number 53
_symmetry_cell_setting 'orthorhombic'
loop_
_space_group_symop_operation_xyz
x,y,z
1/2-x,-y,1/2+z
x,-y,-z
1/2-x,y,1/2-z
-x,-y,-z
1/2+x,y,1/2-z
-x,y,z
1/2+x,-y,1/2+z
loop_
_atom_site_type_symbol
_atom_site_label
_atom_site_fract_x
_atom_site_fract_y
_atom_site_fract_z
Si Si1 0.784729 0.443181 0.499980
Si Si2 0.937322 0.773772 0.969374
Si Si3 0.562868 0.286443 0.969039
Si Si4 0.438160 0.443396 0.532890
Si Si5 0.606326 0.394487 0.032756
Si Si6 0.936788 0.114398 0.973723
Si Si7 0.436885 0.943786 0.973742
O O1 0.803499 0.500000 0.500000
O O2 0.750000 0.436798 0.250000
O O3 0.833341 0.407223 0.495289
O O4 0.750000 0.436467 0.750000
O O5 0.922700 0.740296 0.207788
O O6 0.000000 0.775993 0.972487
O O7 0.923391 0.748460 0.705002
O O8 0.919057 0.829601 0.998393
O O9 0.500000 0.293925 0.971126
O O10 0.590731 0.338223 0.997902
O O11 0.422751 0.500000 0.500000
O O12 0.500000 0.439717 0.505574
O O13 0.412210 0.412567 0.308282
O O14 0.422151 0.424268 0.808510
O O15 0.920739 0.081652 0.212771
O O16 0.000000 0.115215 0.973103
O O17 0.920659 0.088860 0.712886
O O18 0.500000 0.944404 0.973605
O O19 0.419990 0.000000 0.000000
#
# Coordination Sequence:
#
# PCOD9415168 Si02
#       7
#     8   8   8   8   8   8   8
#     4  10  21  37  55  73  91 113 145 182 220 266
#     4   9  17  28  40  55  77 107 141 173 208 254
#     4  10  19  30  44  63  86 110 139 174 212 258
#     4  11  22  34  49  71  97 122 146 170 206 268
#     4  12  22  35  53  71  93 120 146 180 226 262
#     4   9  15  23  34  46  65  96 130 166 212 256
#     4   9  15  21  30  46  66  89 124 172 221 259
#
# _framework density 15.042638
#
# number of rings (size 3 to 8) (size 9 to 14) (size 15 to 20)
#    0.000    2.000    0.000    5.571    0.000    8.571 
#    0.000    0.000    0.000    0.000    0.000    0.000 
#    0.000    0.000    0.000    0.000    0.000    0.000 
#
# Total GULP energy -312452.667696 kJ/mol
# GULP energy per Si atom -5579.511923 kJ/mol
# Density = 1.500840 g / cm^3
# Si number density = 15.042638 Si / 1000 Ang^3
#
#
#
# Elastic Constant Matrix: (Units=GPa)
#
#
# Indices 1 2 3 4 5 6 
#
# 1 26.0693 11.1210 1.5131 0.0000 0.0000 0.0000
# 2 11.1210 47.2646 -22.3207 0.0000 0.0000 0.0000
# 3 1.5131 -22.3207 48.9387 0.0000 0.0000 0.0000
# 4 0.0000 0.0000 0.0000 30.0912 0.0000 0.0000
# 5 0.0000 0.0000 0.0000 0.0000 12.4342 0.0000
# 6 0.0000 0.0000 0.0000 0.0000 0.0000 -23.8283
#
#
#
# Elastic Compliance Matrix: (Units=1/GPa)
#
#
# Indices 1 2 3 4 5 6 
#
# 1 0.044922 -0.014308 -0.007915 0.000000 0.000000 0.000000
# 2 -0.014308 0.031523 0.014820 0.000000 0.000000 0.000000
# 3 -0.007915 0.014820 0.027438 0.000000 0.000000 0.000000
# 4 0.000000 0.000000 0.000000 0.033232 0.000000 0.000000
# 5 0.000000 0.000000 0.000000 0.000000 0.080424 0.000000
# 6 0.000000 0.000000 0.000000 0.000000 0.000000 -0.041967
#
#
# Mechanical properties :
#
#
# Convention : Reuss Voigt Hill
#
# Bulk Modulus (GPa) = 11.22618 11.43328 11.32973
# Shear Modulus (GPa) = 22.72020 12.53669 17.62845
#
# Velocity S-wave (km/s) = 3.89059 2.89002 3.42701
# Velocity P-wave (km/s) = 5.25940 4.33051 4.81740
#
# Compressibility (1/GPa) = 0.08907751
#
# Stress axis : x y z
#
# Youngs Moduli (GPa) = 22.26074 31.72332 36.44636
#
# Poissons Ratio (x) = 0.45388 0.28846
# Poissons Ratio (y) = 0.31850 -0.54012
# Poissons Ratio (z) = 0.17618 -0.47013
#
# Static dielectric constant tensor:
#      x y z
#    x 1.461620 0.000000 0.000000 
#    y 0.000000 1.496990 0.000000 
#    z 0.000000 0.000000 1.504260 
# 
# From -- ./inp_files/3861.got.cif
#   From: 2010.05.17/outbox.cif.g08.bks.cpg/sg53_2_cif.got.tgz:3861.got - 2010.06.03 12:45:16.
