data_PCOD9415243
_publ_section_title
;
Structure prediction by ZEFSAII (Michael W. Deem and Ramdas Pophale) SiO2 
 PCOD9415243
Probable space group: P M N A
;
_chemical_formula_sum "Si O2"
_cell_formula_units_Z 64
_cell_length_a 19.859163
_cell_length_b 7.229438
_cell_length_c 25.084756
_cell_angle_alpha 90.000000
_cell_angle_beta 90.000000
_cell_angle_gamma 90.000000
_cell_volume 3601.433160
_symmetry_space_group_name_H-M "P M N A"
_symmetry_group_IT_number 53
_symmetry_cell_setting 'orthorhombic'
loop_
_space_group_symop_operation_xyz
x,y,z
1/2-x,-y,1/2+z
x,-y,-z
1/2-x,y,1/2-z
-x,-y,-z
1/2+x,y,1/2-z
-x,y,z
1/2+x,-y,1/2+z
loop_
_atom_site_type_symbol
_atom_site_label
_atom_site_fract_x
_atom_site_fract_y
_atom_site_fract_z
Si Si1 0.574464 0.844970 0.077712
Si Si2 0.273911 0.393977 0.688751
Si Si3 0.680862 0.937549 0.160134
Si Si4 0.683831 0.655235 0.875874
Si Si5 0.924372 0.292143 0.802431
Si Si6 0.575913 0.277260 0.041532
Si Si7 0.424014 0.937900 0.750514
Si Si8 0.073427 0.444090 0.289006
O O1 0.500000 0.801524 0.099398
O O2 0.633689 0.821565 0.119717
O O3 0.574708 0.064413 0.063041
O O4 0.583278 0.738081 0.022119
O O5 0.250000 0.451460 0.750000
O O6 0.239667 0.193592 0.680549
O O7 0.245139 0.529079 0.643176
O O8 0.353780 0.375715 0.679388
O O9 0.633177 0.003213 0.208301
O O10 0.702704 0.128602 0.131850
O O11 0.640908 0.634670 0.930156
O O12 0.628437 0.598670 0.831898
O O13 0.918582 0.070254 0.800194
O O14 0.923782 0.362591 0.740751
O O15 0.000000 0.341903 0.822642
O O16 0.500000 0.351634 0.052853
O O17 0.500000 0.970238 0.772329
O O18 0.419301 0.717338 0.744253
O O19 0.000000 0.421396 0.313745
#
# Coordination Sequence:
#
# PCOD9415243 Si02
#       8
#     8   8   8   8   8   8   8   8
#     4   8  14  27  48  73 102 135 166 194 230 280
#     4  12  22  34  45  67  92 120 160 204 243 284
#     4  10  19  30  47  68  94 126 158 196 235 274
#     4  10  19  30  47  68  94 126 158 196 235 274
#     4  10  20  34  46  58  83 117 152 192 235 275
#     4   8  14  27  48  73 102 135 166 194 230 280
#     4   9  16  26  42  63  86 116 154 188 220 264
#     4   9  16  26  42  63  86 116 154 188 220 264
#
# _framework density 17.770703000000001
#
# number of rings (size 3 to 8) (size 9 to 14) (size 15 to 20)
#    0.000    2.500    2.500    1.500    0.000    4.500 
#    0.000    2.500    0.000    1.500    0.000    0.000 
#    0.000    2.000    0.000    6.250    0.000    0.000 
#
# Total GULP energy -356481.378996 kJ/mol
# GULP energy per Si atom -5570.021547 kJ/mol
# Density = 1.773026 g / cm^3
# Si number density = 17.770703 Si / 1000 Ang^3
#
#
#
# Elastic Constant Matrix: (Units=GPa)
#
#
# Indices 1 2 3 4 5 6 
#
# 1 112.9601 19.9571 20.7042 0.0000 0.0000 0.0000
# 2 19.9571 68.2474 8.9973 0.0000 0.0000 0.0000
# 3 20.7042 8.9973 28.1146 0.0000 0.0000 0.0000
# 4 0.0000 0.0000 0.0000 19.3595 0.0000 0.0000
# 5 0.0000 0.0000 0.0000 0.0000 19.6056 0.0000
# 6 0.0000 0.0000 0.0000 0.0000 0.0000 19.6906
#
#
#
# Elastic Compliance Matrix: (Units=1/GPa)
#
#
# Indices 1 2 3 4 5 6 
#
# 1 0.010527 -0.002147 -0.007065 0.000000 0.000000 0.000000
# 2 -0.002147 0.015736 -0.003455 0.000000 0.000000 0.000000
# 3 -0.007065 -0.003455 0.041877 0.000000 0.000000 0.000000
# 4 0.000000 0.000000 0.000000 0.051654 0.000000 0.000000
# 5 0.000000 0.000000 0.000000 0.000000 0.051006 0.000000
# 6 0.000000 0.000000 0.000000 0.000000 0.000000 0.050786
#
#
# Mechanical properties :
#
#
# Convention : Reuss Voigt Hill
#
# Bulk Modulus (GPa) = 23.36110 34.29325 28.82717
# Shear Modulus (GPa) = 19.14329 22.37539 20.75934
#
# Velocity S-wave (km/s) = 3.28569 3.55225 3.42157
# Velocity P-wave (km/s) = 5.25060 6.01367 5.64504
#
# Compressibility (1/GPa) = 0.04280621
#
# Stress axis : x y z
#
# Youngs Moduli (GPa) = 94.99435 63.54926 23.87933
#
# Poissons Ratio (x) = 0.13643 0.16871
# Poissons Ratio (y) = 0.20394 0.08250
# Poissons Ratio (z) = 0.67115 0.21955
#
# Static dielectric constant tensor:
#      x y z
#    x 1.643800 0.000000 0.000000 
#    y 0.000000 1.697480 0.000000 
#    z 0.000000 0.000000 1.599920 
# 
# From -- ./inp_files/35568.got.cif
#   From: 2010.05.17/outbox.cif.g08.bks.cpg/sg53_18_cif.got.tgz:35568.got - 2010.06.03 12:45:16.
