data_PCOD9415811
_publ_section_title
;
Structure prediction by ZEFSAII (Michael W. Deem and Ramdas Pophale) SiO2 
 PCOD9415811
Probable space group: P M N A
;
_chemical_formula_sum "Si O2"
_cell_formula_units_Z 64
_cell_length_a 8.990267
_cell_length_b 12.555747
_cell_length_c 29.419469
_cell_angle_alpha 90.000000
_cell_angle_beta 90.000000
_cell_angle_gamma 90.000000
_cell_volume 3320.855478
_symmetry_space_group_name_H-M "P M N A"
_symmetry_group_IT_number 53
_symmetry_cell_setting 'orthorhombic'
loop_
_space_group_symop_operation_xyz
x,y,z
1/2-x,-y,1/2+z
x,-y,-z
1/2-x,y,1/2-z
-x,-y,-z
1/2+x,y,1/2-z
-x,y,z
1/2+x,-y,1/2+z
loop_
_atom_site_type_symbol
_atom_site_label
_atom_site_fract_x
_atom_site_fract_y
_atom_site_fract_z
Si Si1 0.823325 0.425639 0.294766
Si Si2 0.672507 0.422240 0.574685
Si Si3 0.824771 0.777471 0.465418
Si Si4 0.825074 0.039604 0.606787
Si Si5 0.172729 0.646342 0.179634
Si Si6 0.177490 0.640363 0.602706
Si Si7 0.823223 0.155219 0.056506
Si Si8 0.322134 0.129726 0.796407
O O1 0.750000 0.375268 0.250000
O O2 0.752738 0.542795 0.300330
O O3 0.794143 0.368931 0.343036
O O4 0.000000 0.433415 0.288877
O O5 0.500000 0.440201 0.562664
O O6 0.748547 0.336808 0.541755
O O7 0.677050 0.370280 0.625194
O O8 0.759230 0.533319 0.579335
O O9 0.749365 0.839856 0.506693
O O10 0.000000 0.763991 0.474036
O O11 0.807281 0.849667 0.420455
O O12 0.728594 0.949577 0.583032
O O13 0.000000 0.010126 0.603407
O O14 0.787407 0.059197 0.659322
O O15 0.255413 0.753222 0.194138
O O16 0.000000 0.650229 0.193822
O O17 0.258985 0.742138 0.582517
O O18 0.000000 0.646833 0.595820
O O19 0.000000 0.160137 0.053098
O O20 0.250000 0.088744 0.750000
O O21 0.500000 0.136929 0.792272
#
# Coordination Sequence:
#
# PCOD9415811 Si02
#       8
#     8   8   8   8   8   8   8   8
#     4  10  20  34  56  84 115 153 199 246 294 352
#     4  10  20  35  59  92 127 157 193 245 300 349
#     4  11  22  40  66  93 122 158 200 243 299 363
#     4  10  23  43  65  88 120 160 202 247 295 356
#     4  10  19  32  53  83 122 160 192 237 294 351
#     4  10  22  41  62  85 119 162 204 245 297 362
#     4  12  26  42  63  90 119 154 201 254 304 355
#     4  11  22  37  58  87 121 158 200 243 294 354
#
# _framework density 19.272141999999999
#
# number of rings (size 3 to 8) (size 9 to 14) (size 15 to 20)
#    0.000    1.500    1.250    4.125    0.000    6.500 
#    0.000    3.125    0.000    0.000    0.000    0.000 
#    0.000    0.000    0.000    0.000    0.000    0.000 
#
# Total GULP energy -357851.507576 kJ/mol
# GULP energy per Si atom -5591.429806 kJ/mol
# Density = 1.922828 g / cm^3
# Si number density = 19.272142 Si / 1000 Ang^3
#
#
#
# Elastic Constant Matrix: (Units=GPa)
#
#
# Indices 1 2 3 4 5 6 
#
# 1 98.9371 23.9785 40.0203 0.0000 0.0000 0.0000
# 2 23.9785 33.7972 4.4954 0.0000 0.0000 0.0000
# 3 40.0203 4.4954 75.5085 0.0000 0.0000 0.0000
# 4 0.0000 0.0000 0.0000 14.8313 0.0000 0.0000
# 5 0.0000 0.0000 0.0000 0.0000 46.0589 0.0000
# 6 0.0000 0.0000 0.0000 0.0000 0.0000 27.2724
#
#
#
# Elastic Compliance Matrix: (Units=1/GPa)
#
#
# Indices 1 2 3 4 5 6 
#
# 1 0.015670 -0.010093 -0.007704 0.000000 0.000000 0.000000
# 2 -0.010093 0.036325 0.003187 0.000000 0.000000 0.000000
# 3 -0.007704 0.003187 0.017137 0.000000 0.000000 0.000000
# 4 0.000000 0.000000 0.000000 0.067425 0.000000 0.000000
# 5 0.000000 0.000000 0.000000 0.000000 0.021711 0.000000
# 6 0.000000 0.000000 0.000000 0.000000 0.000000 0.036667
#
#
# Mechanical properties :
#
#
# Convention : Reuss Voigt Hill
#
# Bulk Modulus (GPa) = 25.05559 38.35901 31.70730
# Shear Modulus (GPa) = 21.05615 26.94909 24.00262
#
# Velocity S-wave (km/s) = 3.30899 3.74350 3.53293
# Velocity P-wave (km/s) = 5.25627 6.21548 5.75589
#
# Compressibility (1/GPa) = 0.03991126
#
# Stress axis : x y z
#
# Youngs Moduli (GPa) = 63.81635 27.52924 58.35253
#
# Poissons Ratio (x) = 0.27785 0.44957
# Poissons Ratio (y) = 0.64408 -0.18595
# Poissons Ratio (z) = 0.49167 -0.08773
#
# Static dielectric constant tensor:
#      x y z
#    x 1.639790 0.000000 0.000000 
#    y 0.000000 1.629690 0.000000 
#    z 0.000000 0.000000 1.706970 
# 
# From -- ./inp_files/38238.got.cif
#   From: 2010.05.17/outbox.cif.g08.bks.cpg/sg53_20_cif.got.tgz:38238.got - 2010.06.03 12:45:16.
