data_PCOD9415343
_publ_section_title
;
Structure prediction by ZEFSAII (Michael W. Deem and Ramdas Pophale) SiO2 
 PCOD9415343
Probable space group: P M N A
;
_chemical_formula_sum "Si O2"
_cell_formula_units_Z 56
_cell_length_a 7.283672
_cell_length_b 13.050985
_cell_length_c 26.027690
_cell_angle_alpha 90.000000
_cell_angle_beta 90.000000
_cell_angle_gamma 90.000000
_cell_volume 2474.168631
_symmetry_space_group_name_H-M "P M N A"
_symmetry_group_IT_number 53
_symmetry_cell_setting 'orthorhombic'
loop_
_space_group_symop_operation_xyz
x,y,z
1/2-x,-y,1/2+z
x,-y,-z
1/2-x,y,1/2-z
-x,-y,-z
1/2+x,y,1/2-z
-x,y,z
1/2+x,-y,1/2+z
loop_
_atom_site_type_symbol
_atom_site_label
_atom_site_fract_x
_atom_site_fract_y
_atom_site_fract_z
Si Si1 0.223405 0.303672 0.490447
Si Si2 0.276341 0.039482 0.160780
Si Si3 0.776089 0.424937 0.392218
Si Si4 0.218114 0.262297 0.307834
Si Si5 0.224269 0.656238 0.392863
Si Si6 0.723247 0.077712 0.044059
Si Si7 0.718378 0.182792 0.807906
O O1 0.279265 0.389262 0.449275
O O2 0.282330 0.319082 0.548923
O O3 0.280143 0.193080 0.468840
O O4 0.000000 0.304599 0.491250
O O5 0.500000 0.039464 0.163260
O O6 0.211579 0.933541 0.185598
O O7 0.212149 0.145946 0.185787
O O8 0.223248 0.043508 0.100901
O O9 0.713137 0.341139 0.350726
O O10 0.719285 0.540369 0.380138
O O11 0.000000 0.424302 0.391666
O O12 0.250000 0.298597 0.250000
O O13 0.000000 0.256405 0.316214
O O14 0.287248 0.739654 0.351440
O O15 0.000000 0.658148 0.392720
O O16 0.500000 0.077654 0.043700
O O17 0.783859 0.000000 0.000000
O O18 0.750000 0.219356 0.750000
O O19 0.500000 0.177199 0.815546
#
# Coordination Sequence:
#
# PCOD9415343 Si02
#       7
#     8   8   8   8   8   8   8
#     4   9  14  23  39  63  93 121 148 182 230 282
#     4   9  16  28  43  63  92 121 150 186 229 274
#     4   9  16  27  42  63  92 123 151 185 231 279
#     4  10  19  31  47  67  92 122 155 190 228 269
#     4   9  17  27  42  65  93 122 151 185 230 278
#     4   9  14  20  35  60  92 123 146 177 228 282
#     4  10  20  33  48  67  93 124 157 192 228 269
#
# _framework density 22.633863999999999
#
# number of rings (size 3 to 8) (size 9 to 14) (size 15 to 20)
#    0.000    2.714    1.429    1.714    0.000    5.714 
#    0.000    0.000    0.000    0.000    0.000    1.000 
#    0.000    4.571    0.000    0.000    0.000    0.000 
#
# Total GULP energy -313004.374149 kJ/mol
# GULP energy per Si atom -5589.363824 kJ/mol
# Density = 2.258235 g / cm^3
# Si number density = 22.633864 Si / 1000 Ang^3
#
#
#
# Elastic Constant Matrix: (Units=GPa)
#
#
# Indices 1 2 3 4 5 6 
#
# 1 97.2139 4.8287 -3.9736 0.0000 0.0000 0.0000
# 2 4.8287 134.6167 74.4025 0.0000 0.0000 0.0000
# 3 -3.9736 74.4025 172.6565 0.0000 0.0000 0.0000
# 4 0.0000 0.0000 0.0000 -1.0715 0.0000 0.0000
# 5 0.0000 0.0000 0.0000 0.0000 -1.5048 0.0000
# 6 0.0000 0.0000 0.0000 0.0000 0.0000 -19.2142
#
#
#
# Elastic Compliance Matrix: (Units=1/GPa)
#
#
# Indices 1 2 3 4 5 6 
#
# 1 0.010341 -0.000660 0.000522 0.000000 0.000000 0.000000
# 2 -0.000660 0.009793 -0.004235 0.000000 0.000000 0.000000
# 3 0.000522 -0.004235 0.007629 0.000000 0.000000 0.000000
# 4 0.000000 0.000000 0.000000 -0.933287 0.000000 0.000000
# 5 0.000000 0.000000 0.000000 0.000000 -0.664546 0.000000
# 6 0.000000 0.000000 0.000000 0.000000 0.000000 -0.052045
#
#
# Mechanical properties :
#
#
# Convention : Reuss Voigt Hill
#
# Bulk Modulus (GPa) = 52.58324 61.66689 57.12507
# Shear Modulus (GPa) = -3.11133 17.59054 7.23961
#
# Velocity S-wave (km/s) = -1.17372 2.79082 1.79040
# Velocity P-wave (km/s) = 4.63095 6.13917 5.43761
#
# Compressibility (1/GPa) = 0.01901746
#
# Stress axis : x y z
#
# Youngs Moduli (GPa) = 96.70522 102.11414 131.07967
#
# Poissons Ratio (x) = 0.06735 -0.06845
# Poissons Ratio (y) = 0.06378 0.55515
# Poissons Ratio (z) = -0.05050 0.43248
#
# Static dielectric constant tensor:
#      x y z
#    x 2.033300 0.000000 0.000000 
#    y 0.000000 1.797650 0.000000 
#    z 0.000000 0.000000 1.779510 
# 
# From -- ./inp_files/31944.got.cif
#   From: 2010.05.17/outbox.cif.g08.bks.cpg/sg53_16_cif.got.tgz:31944.got - 2010.06.03 12:45:16.
