data_PCOD9415537
_publ_section_title
;
Structure prediction by ZEFSAII (Michael W. Deem and Ramdas Pophale) SiO2 
 PCOD9415537
Probable space group: P M N A
;
_chemical_formula_sum "Si O2"
_cell_formula_units_Z 56
_cell_length_a 14.662876
_cell_length_b 15.454080
_cell_length_c 11.008890
_cell_angle_alpha 90.000000
_cell_angle_beta 90.000000
_cell_angle_gamma 90.000000
_cell_volume 2494.628331
_symmetry_space_group_name_H-M "P M N A"
_symmetry_group_IT_number 53
_symmetry_cell_setting 'orthorhombic'
loop_
_space_group_symop_operation_xyz
x,y,z
1/2-x,-y,1/2+z
x,-y,-z
1/2-x,y,1/2-z
-x,-y,-z
1/2+x,y,1/2-z
-x,y,z
1/2+x,-y,1/2+z
loop_
_atom_site_type_symbol
_atom_site_label
_atom_site_fract_x
_atom_site_fract_y
_atom_site_fract_z
Si Si1 0.892669 0.907941 0.429576
Si Si2 0.107360 0.339658 0.170529
Si Si3 0.399488 0.215102 0.147500
Si Si4 0.682880 0.477352 0.636519
Si Si5 0.109324 0.288323 0.908684
Si Si6 0.341774 0.923145 0.669535
Si Si7 0.312663 0.892015 0.382170
O O1 0.869897 0.833189 0.527487
O O2 0.795895 0.905711 0.358168
O O3 0.000000 0.896152 0.387463
O O4 0.893302 0.000000 0.500000
O O5 0.149223 0.296633 0.291050
O O6 0.116484 0.441783 0.158896
O O7 0.000000 0.319784 0.171392
O O8 0.142904 0.294731 0.048552
O O9 0.500000 0.245265 0.113085
O O10 0.402993 0.143068 0.254802
O O11 0.720420 0.500000 0.500000
O O12 0.750000 0.480561 0.750000
O O13 0.637416 0.382760 0.639713
O O14 0.152001 0.203228 0.848226
O O15 0.000000 0.280031 0.904891
O O16 0.250000 0.917655 0.750000
O O17 0.325850 0.898172 0.529847
O O18 0.369823 0.023952 0.663507
#
# Coordination Sequence:
#
# PCOD9415537 Si02
#       7
#     8   8   8   8   8   8   8
#     4  10  19  34  53  78 117 162 204 246 311 388
#     4   9  18  34  58  89 117 149 202 265 326 384
#     4  10  19  31  52  80 113 151 193 253 316 372
#     4  10  22  40  65  95 126 166 214 269 331 400
#     4  10  21  38  60  88 124 163 207 266 330 390
#     4  11  20  33  49  76 115 148 194 253 308 360
#     4  11  21  33  55  82 108 159 207 251 308 370
#
# _framework density 22.448235
#
# number of rings (size 3 to 8) (size 9 to 14) (size 15 to 20)
#    0.000    1.857    4.286    0.429    0.000    5.714 
#    0.000    1.429    0.000    6.857    0.000    0.000 
#    0.000    0.000    0.000    0.000    0.000    0.000 
#
# Total GULP energy -312029.866249 kJ/mol
# GULP energy per Si atom -5571.961897 kJ/mol
# Density = 2.239714 g / cm^3
# Si number density = 22.448235 Si / 1000 Ang^3
#
#
#
# Elastic Constant Matrix: (Units=GPa)
#
#
# Indices 1 2 3 4 5 6 
#
# 1 79.2822 17.4312 9.5831 0.0000 0.0000 0.0000
# 2 17.4312 144.1326 10.2121 0.0000 0.0000 0.0000
# 3 9.5831 10.2121 47.6167 0.0000 0.0000 0.0000
# 4 0.0000 0.0000 0.0000 39.4113 0.0000 0.0000
# 5 0.0000 0.0000 0.0000 0.0000 1.5078 0.0000
# 6 0.0000 0.0000 0.0000 0.0000 0.0000 28.9814
#
#
#
# Elastic Compliance Matrix: (Units=1/GPa)
#
#
# Indices 1 2 3 4 5 6 
#
# 1 0.013212 -0.001431 -0.002352 0.000000 0.000000 0.000000
# 2 -0.001431 0.007200 -0.001256 0.000000 0.000000 0.000000
# 3 -0.002352 -0.001256 0.021744 0.000000 0.000000 0.000000
# 4 0.000000 0.000000 0.000000 0.025373 0.000000 0.000000
# 5 0.000000 0.000000 0.000000 0.000000 0.663224 0.000000
# 6 0.000000 0.000000 0.000000 0.000000 0.000000 0.034505
#
#
# Mechanical properties :
#
#
# Convention : Reuss Voigt Hill
#
# Bulk Modulus (GPa) = 31.17473 38.38714 34.78093
# Shear Modulus (GPa) = 6.36109 29.56710 17.96410
#
# Velocity S-wave (km/s) = 1.68518 3.63316 2.83193
# Velocity P-wave (km/s) = 4.20761 5.89383 5.12060
#
# Compressibility (1/GPa) = 0.03207727
#
# Stress axis : x y z
#
# Youngs Moduli (GPa) = 75.68799 138.88606 45.99012
#
# Poissons Ratio (x) = 0.19878 0.10817
# Poissons Ratio (y) = 0.10833 0.05777
# Poissons Ratio (z) = 0.17802 0.17446
#
# Static dielectric constant tensor:
#      x y z
#    x 1.826090 0.000000 0.000000 
#    y 0.000000 1.850400 0.000000 
#    z 0.000000 0.000000 2.007800 
# 
# From -- ./inp_files/16064.got.cif
#   From: 2010.05.17/outbox.cif.g08.bks.cpg/sg53_9_cif.got.tgz:16064.got - 2010.06.03 12:45:16.
