data_PCOD9415066
_publ_section_title
;
Structure prediction by ZEFSAII (Michael W. Deem and Ramdas Pophale) SiO2 
 PCOD9415066
Probable space group: P M N A
;
_chemical_formula_sum "Si O2"
_cell_formula_units_Z 44
_cell_length_a 10.314790
_cell_length_b 13.913665
_cell_length_c 14.554315
_cell_angle_alpha 90.000000
_cell_angle_beta 90.000000
_cell_angle_gamma 90.000000
_cell_volume 2088.784823
_symmetry_space_group_name_H-M "P M N A"
_symmetry_group_IT_number 53
_symmetry_cell_setting 'orthorhombic'
loop_
_space_group_symop_operation_xyz
x,y,z
1/2-x,-y,1/2+z
x,-y,-z
1/2-x,y,1/2-z
-x,-y,-z
1/2+x,y,1/2-z
-x,y,z
1/2+x,-y,1/2+z
loop_
_atom_site_type_symbol
_atom_site_label
_atom_site_fract_x
_atom_site_fract_y
_atom_site_fract_z
Si Si1 0.649772 0.055261 0.832186
Si Si2 0.250000 0.517678 0.750000
Si Si3 0.354977 0.328975 0.678512
Si Si4 0.500000 0.357584 0.942966
Si Si5 0.153061 0.175451 0.334077
Si Si6 0.000000 0.563499 0.648494
Si Si7 0.730320 0.781724 0.036545
O O1 0.750000 0.074283 0.750000
O O2 0.500000 0.082704 0.811548
O O3 0.698546 0.114825 0.920151
O O4 0.650804 0.940487 0.846105
O O5 0.312098 0.441860 0.676024
O O6 0.367539 0.576846 0.794486
O O7 0.250000 0.286997 0.750000
O O8 0.500000 0.325182 0.715705
O O9 0.351901 0.268315 0.584819
O O10 0.500000 0.451359 0.881149
O O11 0.622189 0.291713 0.927327
O O12 0.500000 0.385480 0.050511
O O13 0.250000 0.197109 0.250000
O O14 0.215162 0.215584 0.427697
O O15 0.000000 0.204451 0.322599
#
# Coordination Sequence:
#
# PCOD9415066 Si02
#       7
#     8   4   8   4   8   4   8
#     4  10  21  36  59  91 120 154 199 246 299 362
#     4  10  18  38  62  88 116 156 190 244 300 360
#     4  10  21  34  60  95 125 152 195 248 306 358
#     4  11  22  38  57  92 114 161 196 244 297 372
#     4  10  22  40  59  81 119 166 208 251 297 353
#     4  11  22  38  64  85 124 151 200 246 306 364
#     4  12  21  36  63  87 121 157 206 246 302 354
#
# _framework density 21.064879999999999
#
# number of rings (size 3 to 8) (size 9 to 14) (size 15 to 20)
#    0.545    0.909    4.545    1.091    1.273    4.364 
#    1.636    0.000    2.000    7.636    0.000    0.000 
#    0.000    0.000    0.000    0.000    0.000    0.000 
#
# Total GULP energy -245523.364985 kJ/mol
# GULP energy per Si atom -5580.076477 kJ/mol
# Density = 2.101694 g / cm^3
# Si number density = 21.064880 Si / 1000 Ang^3
#
#
#
# Elastic Constant Matrix: (Units=GPa)
#
#
# Indices 1 2 3 4 5 6 
#
# 1 147.2307 14.2129 66.3678 0.0000 0.0000 0.0000
# 2 14.2129 38.4478 15.5775 0.0000 0.0000 0.0000
# 3 66.3678 15.5775 145.0633 0.0000 0.0000 0.0000
# 4 0.0000 0.0000 0.0000 33.1003 0.0000 0.0000
# 5 0.0000 0.0000 0.0000 0.0000 30.7115 0.0000
# 6 0.0000 0.0000 0.0000 0.0000 0.0000 6.2785
#
#
#
# Elastic Compliance Matrix: (Units=1/GPa)
#
#
# Indices 1 2 3 4 5 6 
#
# 1 0.008658 -0.001668 -0.003782 0.000000 0.000000 0.000000
# 2 -0.001668 0.027514 -0.002191 0.000000 0.000000 0.000000
# 3 -0.003782 -0.002191 0.008859 0.000000 0.000000 0.000000
# 4 0.000000 0.000000 0.000000 0.030211 0.000000 0.000000
# 5 0.000000 0.000000 0.000000 0.000000 0.032561 0.000000
# 6 0.000000 0.000000 0.000000 0.000000 0.000000 0.159274
#
#
# Mechanical properties :
#
#
# Convention : Reuss Voigt Hill
#
# Bulk Modulus (GPa) = 33.61588 58.11759 45.86674
# Shear Modulus (GPa) = 17.10713 29.65696 23.38204
#
# Velocity S-wave (km/s) = 2.85286 3.75625 3.33528
# Velocity P-wave (km/s) = 5.18118 6.81632 6.05421
#
# Compressibility (1/GPa) = 0.02974784
#
# Stress axis : x y z
#
# Youngs Moduli (GPa) = 115.50145 36.34541 112.87801
#
# Poissons Ratio (x) = 0.06063 0.42690
# Poissons Ratio (y) = 0.19269 0.24735
# Poissons Ratio (z) = 0.43682 0.07964
#
# Static dielectric constant tensor:
#      x y z
#    x 1.702240 0.000000 0.000000 
#    y 0.000000 1.801590 0.000000 
#    z 0.000000 0.000000 1.757250 
# 
# From -- ./inp_files/14879.got.cif
#   From: 2010.05.17/outbox.cif.g08.bks.cpg/sg53_8_cif.got.tgz:14879.got - 2010.06.03 12:45:16.
