data_PCOD9415761
_publ_section_title
;
Structure prediction by ZEFSAII (Michael W. Deem and Ramdas Pophale) SiO2 
 PCOD9415761
Probable space group: P M N A
;
_chemical_formula_sum "Si O2"
_cell_formula_units_Z 64
_cell_length_a 7.971459
_cell_length_b 12.416359
_cell_length_c 33.133173
_cell_angle_alpha 90.000000
_cell_angle_beta 90.000000
_cell_angle_gamma 90.000000
_cell_volume 3279.405388
_symmetry_space_group_name_H-M "P M N A"
_symmetry_group_IT_number 53
_symmetry_cell_setting 'orthorhombic'
loop_
_space_group_symop_operation_xyz
x,y,z
1/2-x,-y,1/2+z
x,-y,-z
1/2-x,y,1/2-z
-x,-y,-z
1/2+x,y,1/2-z
-x,y,z
1/2+x,-y,1/2+z
loop_
_atom_site_type_symbol
_atom_site_label
_atom_site_fract_x
_atom_site_fract_y
_atom_site_fract_z
Si Si1 0.199190 0.611398 0.425481
Si Si2 0.196341 0.559745 0.859691
Si Si3 0.698284 0.217489 0.638712
Si Si4 0.298021 0.612080 0.296424
Si Si5 0.805668 0.311474 0.491171
Si Si6 0.805963 0.995111 0.613935
Si Si7 0.302939 0.240597 0.094951
Si Si8 0.193298 0.903627 0.031518
O O1 0.281723 0.521082 0.397622
O O2 0.226047 0.723248 0.400893
O O3 0.263577 0.616784 0.471677
O O4 0.000000 0.590893 0.426994
O O5 0.261461 0.493247 0.821100
O O6 0.285916 0.670144 0.870756
O O7 0.000000 0.582268 0.854238
O O8 0.760491 0.284836 0.677442
O O9 0.000000 0.984412 0.625271
O O10 0.730483 0.090243 0.641247
O O11 0.250000 0.614614 0.250000
O O12 0.500000 0.610674 0.298599
O O13 0.730287 0.292895 0.446547
O O14 0.791833 0.193500 0.511100
O O15 0.000000 0.344977 0.485821
O O16 0.731491 0.874798 0.609093
O O17 0.000000 0.234306 0.864657
O O18 0.784311 0.047769 0.570013
O O19 0.500000 0.220638 0.085979
O O20 0.000000 0.870720 0.041514
O O21 0.182781 0.000000 0.000000
#
# Coordination Sequence:
#
# PCOD9415761 Si02
#       8
#     8   8   8   8   8   8   8   8
#     4  10  19  32  53  76 102 143 187 228 278 321
#     4  10  22  39  56  78 110 141 176 226 277 325
#     4  10  20  34  53  83 117 140 169 217 270 324
#     4   9  20  38  62  90 113 134 163 208 265 324
#     4  10  20  33  49  71 102 142 191 241 277 313
#     4  11  21  33  52  76 106 146 186 224 269 317
#     4  10  22  37  52  73 105 148 195 236 267 312
#     4  11  21  30  45  71 102 140 187 236 280 318
#
# _framework density 19.515730999999999
#
# number of rings (size 3 to 8) (size 9 to 14) (size 15 to 20)
#    0.000    1.875    2.500    2.625    0.000    6.000 
#    0.000    2.500    0.000    0.750    0.000    0.000 
#    0.000    0.000    0.000    0.000    0.000    0.000 
#
# Total GULP energy -356920.842789 kJ/mol
# GULP energy per Si atom -5576.888169 kJ/mol
# Density = 1.947131 g / cm^3
# Si number density = 19.515731 Si / 1000 Ang^3
#
#
#
# Elastic Constant Matrix: (Units=GPa)
#
#
# Indices 1 2 3 4 5 6 
#
# 1 24.8367 -8.7987 -0.5401 0.0000 0.0000 0.0000
# 2 -8.7987 81.6697 60.1616 0.0000 0.0000 0.0000
# 3 -0.5401 60.1616 115.2904 0.0000 0.0000 0.0000
# 4 0.0000 0.0000 0.0000 17.7258 0.0000 0.0000
# 5 0.0000 0.0000 0.0000 0.0000 13.2272 0.0000
# 6 0.0000 0.0000 0.0000 0.0000 0.0000 24.9114
#
#
#
# Elastic Compliance Matrix: (Units=1/GPa)
#
#
# Indices 1 2 3 4 5 6 
#
# 1 0.042751 0.007242 -0.003579 0.000000 0.000000 0.000000
# 2 0.007242 0.021117 -0.010986 0.000000 0.000000 0.000000
# 3 -0.003579 -0.010986 0.014390 0.000000 0.000000 0.000000
# 4 0.000000 0.000000 0.000000 0.056415 0.000000 0.000000
# 5 0.000000 0.000000 0.000000 0.000000 0.075602 0.000000
# 6 0.000000 0.000000 0.000000 0.000000 0.000000 0.040142
#
#
# Mechanical properties :
#
#
# Convention : Reuss Voigt Hill
#
# Bulk Modulus (GPa) = 15.72010 35.93806 25.82908
# Shear Modulus (GPa) = 17.46633 22.57116 20.01875
#
# Velocity S-wave (km/s) = 2.99488 3.40452 3.20625
# Velocity P-wave (km/s) = 4.47567 5.82316 5.19331
#
# Compressibility (1/GPa) = 0.06361282
#
# Stress axis : x y z
#
# Youngs Moduli (GPa) = 23.39140 47.35491 69.49496
#
# Poissons Ratio (x) = -0.34295 0.24871
# Poissons Ratio (y) = -0.16940 0.76344
# Poissons Ratio (z) = 0.08371 0.52022
#
# Static dielectric constant tensor:
#      x y z
#    x 1.716630 0.000000 0.000000 
#    y 0.000000 1.724950 0.000000 
#    z 0.000000 0.000000 1.682020 
# 
# From -- ./inp_files/38115.got.cif
#   From: 2010.05.17/outbox.cif.g08.bks.cpg/sg53_20_cif.got.tgz:38115.got - 2010.06.03 12:45:16.
