data_PCOD9415656
_publ_section_title
;
Structure prediction by ZEFSAII (Michael W. Deem and Ramdas Pophale) SiO2 
 PCOD9415656
Probable space group: P M N A
;
_chemical_formula_sum "Si O2"
_cell_formula_units_Z 56
_cell_length_a 8.712214
_cell_length_b 23.236323
_cell_length_c 14.785362
_cell_angle_alpha 90.000000
_cell_angle_beta 90.000000
_cell_angle_gamma 90.000000
_cell_volume 2993.146000
_symmetry_space_group_name_H-M "P M N A"
_symmetry_group_IT_number 53
_symmetry_cell_setting 'orthorhombic'
loop_
_space_group_symop_operation_xyz
x,y,z
1/2-x,-y,1/2+z
x,-y,-z
1/2-x,y,1/2-z
-x,-y,-z
1/2+x,y,1/2-z
-x,y,z
1/2+x,-y,1/2+z
loop_
_atom_site_type_symbol
_atom_site_label
_atom_site_fract_x
_atom_site_fract_y
_atom_site_fract_z
Si Si1 0.184931 0.897567 0.846934
Si Si2 0.682099 0.599776 0.656391
Si Si3 0.314765 0.633984 0.455096
Si Si4 0.173309 0.518141 0.394533
Si Si5 0.314856 0.969605 0.347787
Si Si6 0.187217 0.138895 0.963050
Si Si7 0.314343 0.250119 0.649040
O O1 0.250000 0.880369 0.750000
O O2 0.000000 0.896465 0.842236
O O3 0.231129 0.964292 0.865183
O O4 0.235512 0.860056 0.932479
O O5 0.750000 0.623602 0.750000
O O6 0.500000 0.604777 0.660133
O O7 0.734774 0.627606 0.560609
O O8 0.729439 0.532607 0.649958
O O9 0.500000 0.629274 0.454586
O O10 0.247620 0.580990 0.397311
O O11 0.270269 0.694021 0.409601
O O12 0.165731 0.500000 0.500000
O O13 0.000000 0.519149 0.357900
O O14 0.250000 0.953331 0.250000
O O15 0.500000 0.968887 0.345502
O O16 0.264902 0.921864 0.419428
O O17 0.237962 0.192365 0.902532
O O18 0.000000 0.139424 0.962750
O O19 0.250000 0.252879 0.750000
O O20 0.500000 0.248974 0.653649
#
# Coordination Sequence:
#
# PCOD9415656 Si02
#       7
#     8   8   8   8   8   8   8
#     4   9  17  30  48  71  99 129 162 200 243 293
#     4  10  19  32  51  75 103 133 165 202 245 293
#     4   9  19  35  52  71 100 136 168 201 245 295
#     4   9  17  30  50  75 101 129 162 200 241 286
#     4   9  16  27  46  72  99 128 162 200 244 292
#     4   9  17  31  51  71  95 130 167 201 241 292
#     4  10  21  37  55  74  96 126 165 205 245 290
#
# _framework density 18.709410999999999
#
# number of rings (size 3 to 8) (size 9 to 14) (size 15 to 20)
#    0.000    2.714    0.000    1.714    0.000    5.143 
#    0.000    3.571    0.000    3.429    0.000    0.000 
#    0.000    0.000    0.000    0.000    0.000    0.000 
#
# Total GULP energy -312211.622497 kJ/mol
# GULP energy per Si atom -5575.207545 kJ/mol
# Density = 1.866683 g / cm^3
# Si number density = 18.709411 Si / 1000 Ang^3
#
#
#
# Elastic Constant Matrix: (Units=GPa)
#
#
# Indices 1 2 3 4 5 6 
#
# 1 11.8652 13.2017 22.7856 0.0000 0.0000 0.0000
# 2 13.2017 53.0103 66.2581 0.0000 0.0000 0.0000
# 3 22.7856 66.2581 153.8813 0.0000 0.0000 0.0000
# 4 0.0000 0.0000 0.0000 25.1676 0.0000 0.0000
# 5 0.0000 0.0000 0.0000 0.0000 29.6350 0.0000
# 6 0.0000 0.0000 0.0000 0.0000 0.0000 13.6569
#
#
#
# Elastic Compliance Matrix: (Units=1/GPa)
#
#
# Indices 1 2 3 4 5 6 
#
# 1 0.124662 -0.017266 -0.011025 0.000000 0.000000 0.000000
# 2 -0.017266 0.043240 -0.016061 0.000000 0.000000 0.000000
# 3 -0.011025 -0.016061 0.015047 0.000000 0.000000 0.000000
# 4 0.000000 0.000000 0.000000 0.039734 0.000000 0.000000
# 5 0.000000 0.000000 0.000000 0.000000 0.033744 0.000000
# 6 0.000000 0.000000 0.000000 0.000000 0.000000 0.073223
#
#
# Mechanical properties :
#
#
# Convention : Reuss Voigt Hill
#
# Bulk Modulus (GPa) = 10.61077 47.02750 28.81914
# Shear Modulus (GPa) = 11.11686 21.45934 16.28810
#
# Velocity S-wave (km/s) = 2.44024 3.39038 2.95377
# Velocity P-wave (km/s) = 3.69098 6.36526 5.20288
#
# Compressibility (1/GPa) = 0.09424385
#
# Stress axis : x y z
#
# Youngs Moduli (GPa) = 8.02171 23.12695 66.45994
#
# Poissons Ratio (x) = 0.39931 0.73269
# Poissons Ratio (y) = 0.13850 1.06744
# Poissons Ratio (z) = 0.08844 0.37145
#
# Static dielectric constant tensor:
#      x y z
#    x 1.647010 0.000000 0.000000 
#    y 0.000000 1.634990 0.000000 
#    z 0.000000 0.000000 1.668740 
# 
# From -- ./inp_files/20524.got.cif
#   From: 2010.05.17/outbox.cif.g08.bks.cpg/sg53_11_cif.got.tgz:20524.got - 2010.06.03 12:45:16.
