data_PCOD9415244
_publ_section_title
;
Structure prediction by ZEFSAII (Michael W. Deem and Ramdas Pophale) SiO2 
 PCOD9415244
Probable space group: P M N A
;
_chemical_formula_sum "Si O2"
_cell_formula_units_Z 56
_cell_length_a 25.438878
_cell_length_b 15.671990
_cell_length_c 7.965419
_cell_angle_alpha 90.000000
_cell_angle_beta 90.000000
_cell_angle_gamma 90.000000
_cell_volume 3175.636055
_symmetry_space_group_name_H-M "P M N A"
_symmetry_group_IT_number 53
_symmetry_cell_setting 'orthorhombic'
loop_
_space_group_symop_operation_xyz
x,y,z
1/2-x,-y,1/2+z
x,-y,-z
1/2-x,y,1/2-z
-x,-y,-z
1/2+x,y,1/2-z
-x,y,z
1/2+x,-y,1/2+z
loop_
_atom_site_type_symbol
_atom_site_label
_atom_site_fract_x
_atom_site_fract_y
_atom_site_fract_z
Si Si1 0.299502 0.936423 0.143882
Si Si2 0.440570 0.707932 0.497200
Si Si3 0.647432 0.194900 0.644572
Si Si4 0.253240 0.771766 0.948992
Si Si5 0.439834 0.611004 0.843699
Si Si6 0.384045 0.545596 0.332128
Si Si7 0.656465 0.338167 0.918074
O O1 0.250000 0.973286 0.250000
O O2 0.339219 0.898148 0.282445
O O3 0.278067 0.853963 0.042318
O O4 0.319194 0.000000 0.000000
O O5 0.500000 0.723271 0.444951
O O6 0.404331 0.789263 0.462803
O O7 0.439509 0.677687 0.689620
O O8 0.417451 0.626838 0.395525
O O9 0.696078 0.231870 0.535302
O O10 0.642638 0.256029 0.805615
O O11 0.250000 0.783958 0.750000
O O12 0.290635 0.690619 0.987662
O O13 0.500000 0.606184 0.908947
O O14 0.421615 0.520381 0.765632
O O15 0.393755 0.639319 0.968398
O O16 0.363579 0.500000 0.500000
O O17 0.339614 0.582110 0.208956
#
# Coordination Sequence:
#
# PCOD9415244 Si02
#       7
#     8   8   8   8   8   8   8
#     4   9  17  30  50  78 107 132 162 199 240 288
#     4   9  17  31  51  72  95 127 167 208 253 303
#     4   9  19  33  50  72 101 132 161 200 247 293
#     4  10  19  33  53  73  98 130 162 201 250 301
#     4  10  19  30  48  73  96 122 164 217 261 293
#     4   9  18  31  47  68  93 124 164 212 261 300
#     4  10  19  30  47  68  94 126 160 197 250 307
#
# _framework density 17.634262
#
# number of rings (size 3 to 8) (size 9 to 14) (size 15 to 20)
#    0.000    2.571    0.000    3.429    0.000    5.143 
#    0.000    0.000    0.000   43.286    0.000    0.000 
#    0.000   28.571    0.000    2.000    0.000    9.714 
#
# Total GULP energy -311879.690316 kJ/mol
# GULP energy per Si atom -5569.280184 kJ/mol
# Density = 1.759413 g / cm^3
# Si number density = 17.634262 Si / 1000 Ang^3
#
#
#
# Elastic Constant Matrix: (Units=GPa)
#
#
# Indices 1 2 3 4 5 6 
#
# 1 57.8628 29.1386 37.8055 0.0000 0.0000 0.0000
# 2 29.1386 39.6926 16.8525 0.0000 0.0000 0.0000
# 3 37.8055 16.8525 74.6546 0.0000 0.0000 0.0000
# 4 0.0000 0.0000 0.0000 28.6496 0.0000 0.0000
# 5 0.0000 0.0000 0.0000 0.0000 18.9604 0.0000
# 6 0.0000 0.0000 0.0000 0.0000 0.0000 10.1580
#
#
#
# Elastic Compliance Matrix: (Units=1/GPa)
#
#
# Indices 1 2 3 4 5 6 
#
# 1 0.037191 -0.021352 -0.014014 0.000000 0.000000 0.000000
# 2 -0.021352 0.040123 0.001756 0.000000 0.000000 0.000000
# 3 -0.014014 0.001756 0.020095 0.000000 0.000000 0.000000
# 4 0.000000 0.000000 0.000000 0.034905 0.000000 0.000000
# 5 0.000000 0.000000 0.000000 0.000000 0.052741 0.000000
# 6 0.000000 0.000000 0.000000 0.000000 0.000000 0.098444
#
#
# Mechanical properties :
#
#
# Convention : Reuss Voigt Hill
#
# Bulk Modulus (GPa) = 33.12505 37.75590 35.44048
# Shear Modulus (GPa) = 13.85874 17.44783 15.65328
#
# Velocity S-wave (km/s) = 2.80643 3.14893 2.98260
# Velocity P-wave (km/s) = 5.41541 5.88881 5.65706
#
# Compressibility (1/GPa) = 0.03018863
#
# Stress axis : x y z
#
# Youngs Moduli (GPa) = 26.88835 24.92325 49.76292
#
# Poissons Ratio (x) = 0.53217 0.69736
# Poissons Ratio (y) = 0.57413 -0.08736
# Poissons Ratio (z) = 0.37680 -0.04375
#
# Static dielectric constant tensor:
#      x y z
#    x 1.609160 0.000000 0.000000 
#    y 0.000000 1.609280 0.000000 
#    z 0.000000 0.000000 1.649650 
# 
# From -- ./inp_files/11975.got.cif
#   From: 2010.05.17/outbox.cif.g08.bks.cpg/sg53_6_cif.got.tgz:11975.got - 2010.06.03 12:45:16.
