data_PCOD9415727
_publ_section_title
;
Structure prediction by ZEFSAII (Michael W. Deem and Ramdas Pophale) SiO2 
 PCOD9415727
Probable space group: P M N A
;
_chemical_formula_sum "Si O2"
_cell_formula_units_Z 64
_cell_length_a 7.992343
_cell_length_b 23.169341
_cell_length_c 16.160502
_cell_angle_alpha 90.000000
_cell_angle_beta 90.000000
_cell_angle_gamma 90.000000
_cell_volume 2992.558456
_symmetry_space_group_name_H-M "P M N A"
_symmetry_group_IT_number 53
_symmetry_cell_setting 'orthorhombic'
loop_
_space_group_symop_operation_xyz
x,y,z
1/2-x,-y,1/2+z
x,-y,-z
1/2-x,y,1/2-z
-x,-y,-z
1/2+x,y,1/2-z
-x,y,z
1/2+x,-y,1/2+z
loop_
_atom_site_type_symbol
_atom_site_label
_atom_site_fract_x
_atom_site_fract_y
_atom_site_fract_z
Si Si1 0.295508 0.433584 0.999113
Si Si2 0.798017 0.126449 0.846420
Si Si3 0.302131 0.246520 0.578472
Si Si4 0.797817 0.998411 0.152598
Si Si5 0.700036 0.360024 0.840246
Si Si6 0.191416 0.754794 0.599836
Si Si7 0.297939 0.363640 0.160595
Si Si8 0.802475 0.122347 0.154336
O O1 0.500000 0.433106 0.999063
O O2 0.241734 0.400052 0.916303
O O3 0.241760 0.500000 0.000000
O O4 0.239850 0.400774 0.082228
O O5 0.750000 0.130141 0.750000
O O6 0.739255 0.183989 0.891961
O O7 0.737823 0.063937 0.879682
O O8 0.000000 0.126945 0.851410
O O9 0.500000 0.242582 0.559951
O O10 0.273795 0.296155 0.645510
O O11 0.206975 0.264015 0.495278
O O12 0.750000 0.998763 0.250000
O O13 0.000000 0.997250 0.144850
O O14 0.734626 0.060663 0.120812
O O15 0.750000 0.382202 0.750000
O O16 0.500000 0.355779 0.844376
O O17 0.268900 0.702118 0.651356
O O18 0.263307 0.818625 0.608213
O O19 0.000000 0.760476 0.625753
O O20 0.250000 0.387342 0.250000
O O21 0.500000 0.361052 0.155523
O O22 0.750000 0.129056 0.250000
O O23 0.000000 0.116192 0.153275
#
# Coordination Sequence:
#
# PCOD9415727 Si02
#       8
#     8   8   8   8   8   8   8   8
#     4   9  19  39  64  88 121 162 198 235 285 345
#     4   9  18  32  51  76 103 137 181 231 286 346
#     4  11  22  36  56  82 112 148 192 242 298 351
#     4   8  15  29  48  70 100 135 177 228 282 341
#     4  11  22  39  62  90 123 160 201 243 291 348
#     4  11  22  37  55  78 111 149 191 240 295 351
#     4  10  21  38  60  88 116 153 195 236 288 340
#     4  10  19  32  52  78 105 140 184 232 287 348
#
# _framework density 21.386382000000001
#
# number of rings (size 3 to 8) (size 9 to 14) (size 15 to 20)
#    0.000    2.125    1.250    2.250    0.000    5.000 
#    0.000    0.625    0.000    6.375    0.000    0.000 
#    0.000    0.000    0.000    0.000    0.000    0.000 
#
# Total GULP energy -357130.048879 kJ/mol
# GULP energy per Si atom -5580.157014 kJ/mol
# Density = 2.133771 g / cm^3
# Si number density = 21.386382 Si / 1000 Ang^3
#
#
#
# Elastic Constant Matrix: (Units=GPa)
#
#
# Indices 1 2 3 4 5 6 
#
# 1 20.5439 11.9102 -6.7335 0.0000 0.0000 0.0000
# 2 11.9102 153.6903 57.0640 0.0000 0.0000 0.0000
# 3 -6.7335 57.0640 106.7213 0.0000 0.0000 0.0000
# 4 0.0000 0.0000 0.0000 24.7025 0.0000 0.0000
# 5 0.0000 0.0000 0.0000 0.0000 23.9423 0.0000
# 6 0.0000 0.0000 0.0000 0.0000 0.0000 0.2500
#
#
#
# Elastic Compliance Matrix: (Units=1/GPa)
#
#
# Indices 1 2 3 4 5 6 
#
# 1 0.055048 -0.006932 0.007180 0.000000 0.000000 0.000000
# 2 -0.006932 0.008991 -0.005245 0.000000 0.000000 0.000000
# 3 0.007180 -0.005245 0.012628 0.000000 0.000000 0.000000
# 4 0.000000 0.000000 0.000000 0.040482 0.000000 0.000000
# 5 0.000000 0.000000 0.000000 0.000000 0.041767 0.000000
# 6 0.000000 0.000000 0.000000 0.000000 0.000000 4.000235
#
#
# Mechanical properties :
#
#
# Convention : Reuss Voigt Hill
#
# Bulk Modulus (GPa) = 14.99863 45.04855 30.02359
# Shear Modulus (GPa) = 1.19293 24.35994 12.77643
#
# Velocity S-wave (km/s) = 0.74767 3.37863 2.44685
# Velocity P-wave (km/s) = 2.78814 6.02744 4.69594
#
# Compressibility (1/GPa) = 0.06667276
#
# Stress axis : x y z
#
# Youngs Moduli (GPa) = 18.16597 111.22043 79.19128
#
# Poissons Ratio (x) = 0.77094 -0.56856
# Poissons Ratio (y) = 0.12592 0.41535
# Poissons Ratio (z) = -0.13042 0.58334
#
# Static dielectric constant tensor:
#      x y z
#    x 2.708340 0.000000 0.000000 
#    y 0.000000 1.815760 0.000000 
#    z 0.000000 0.000000 1.760100 
# 
# From -- ./inp_files/20923.got.cif
#   From: 2010.05.17/outbox.cif.g08.bks.cpg/sg53_11_cif.got.tgz:20923.got - 2010.06.03 12:45:16.
