data_PCOD9415971
_publ_section_title
;
Structure prediction by ZEFSAII (Michael W. Deem and Ramdas Pophale) SiO2 
 PCOD9415971
Probable space group: P M N A
;
_chemical_formula_sum "Si O2"
_cell_formula_units_Z 56
_cell_length_a 14.380395
_cell_length_b 9.110453
_cell_length_c 23.209966
_cell_angle_alpha 90.000000
_cell_angle_beta 90.000000
_cell_angle_gamma 90.000000
_cell_volume 3040.782041
_symmetry_space_group_name_H-M "P M N A"
_symmetry_group_IT_number 53
_symmetry_cell_setting 'orthorhombic'
loop_
_space_group_symop_operation_xyz
x,y,z
1/2-x,-y,1/2+z
x,-y,-z
1/2-x,y,1/2-z
-x,-y,-z
1/2+x,y,1/2-z
-x,y,z
1/2+x,-y,1/2+z
loop_
_atom_site_type_symbol
_atom_site_label
_atom_site_fract_x
_atom_site_fract_y
_atom_site_fract_z
Si Si1 0.601884 0.834528 0.024834
Si Si2 0.111233 0.670656 0.114754
Si Si3 0.695941 0.176219 0.507494
Si Si4 0.610420 0.851357 0.278575
Si Si5 0.609719 0.331121 0.399892
Si Si6 0.608044 0.060850 0.846833
Si Si7 0.227466 0.863316 0.813645
O O1 0.500000 0.766376 0.013678
O O2 0.697136 0.770955 0.999823
O O3 0.616274 0.852647 0.093511
O O4 0.597235 0.000000 0.000000
O O5 0.161483 0.779287 0.070668
O O6 0.134762 0.715983 0.180237
O O7 0.133831 0.503122 0.100096
O O8 0.000000 0.687780 0.107475
O O9 0.632059 0.256119 0.460870
O O10 0.692689 0.000000 0.500000
O O11 0.500000 0.875466 0.284471
O O12 0.629438 0.843141 0.210299
O O13 0.664103 0.993375 0.301795
O O14 0.500000 0.317124 0.386950
O O15 0.671546 0.247589 0.353054
O O16 0.500000 0.012471 0.842889
O O17 0.679214 0.925181 0.843807
O O18 0.250000 0.802797 0.750000
#
# Coordination Sequence:
#
# PCOD9415971 Si02
#       7
#     8   8   8   8   8   8   8
#     4   9  17  30  50  78 110 139 173 221 274 323
#     4  10  21  36  54  79 111 147 181 221 280 337
#     4  11  21  34  56  83 108 140 185 232 276 326
#     4   9  17  31  53  79 106 136 178 227 270 320
#     4  11  23  38  55  77 111 148 180 220 274 335
#     4   9  17  30  51  79 107 137 176 225 274 317
#     4  10  19  33  54  81 107 137 176 219 264 314
#
# _framework density 18.416315000000001
#
# number of rings (size 3 to 8) (size 9 to 14) (size 15 to 20)
#    0.000    2.143    0.000    4.714    0.000    4.000 
#    0.000    3.571    0.000    2.571    0.000    0.000 
#    0.000    0.000    0.000    0.000    0.000    0.000 
#
# Total GULP energy -312347.195300 kJ/mol
# GULP energy per Si atom -5577.628487 kJ/mol
# Density = 1.837440 g / cm^3
# Si number density = 18.416315 Si / 1000 Ang^3
#
#
#
# Elastic Constant Matrix: (Units=GPa)
#
#
# Indices 1 2 3 4 5 6 
#
# 1 66.8557 30.8878 19.3148 0.0000 0.0000 0.0000
# 2 30.8878 58.2722 32.1626 0.0000 0.0000 0.0000
# 3 19.3148 32.1626 73.8942 0.0000 0.0000 0.0000
# 4 0.0000 0.0000 0.0000 18.2323 0.0000 0.0000
# 5 0.0000 0.0000 0.0000 0.0000 31.4092 0.0000
# 6 0.0000 0.0000 0.0000 0.0000 0.0000 -24.4553
#
#
#
# Elastic Compliance Matrix: (Units=1/GPa)
#
#
# Indices 1 2 3 4 5 6 
#
# 1 0.019845 -0.010077 -0.000801 0.000000 0.000000 0.000000
# 2 -0.010077 0.027704 -0.009424 0.000000 0.000000 0.000000
# 3 -0.000801 -0.009424 0.017844 0.000000 0.000000 0.000000
# 4 0.000000 0.000000 0.000000 0.054848 0.000000 0.000000
# 5 0.000000 0.000000 0.000000 0.000000 0.031838 0.000000
# 6 0.000000 0.000000 0.000000 0.000000 0.000000 -0.040891
#
#
# Mechanical properties :
#
#
# Convention : Reuss Voigt Hill
#
# Bulk Modulus (GPa) = 40.34153 40.41696 40.37925
# Shear Modulus (GPa) = 31.23951 12.81435 22.02693
#
# Velocity S-wave (km/s) = 4.12308 2.64069 3.46216
# Velocity P-wave (km/s) = 6.67976 5.59389 6.16080
#
# Compressibility (1/GPa) = 0.02478835
#
# Stress axis : x y z
#
# Youngs Moduli (GPa) = 50.39171 36.09638 56.04069
#
# Poissons Ratio (x) = 0.36373 0.04490
# Poissons Ratio (y) = 0.50778 0.52814
# Poissons Ratio (z) = 0.04037 0.34018
#
# Static dielectric constant tensor:
#      x y z
#    x 1.667620 0.000000 0.000000 
#    y 0.000000 1.587800 0.000000 
#    z 0.000000 0.000000 1.667450 
# 
# From -- ./inp_files/32434.got.cif
#   From: 2010.05.17/outbox.cif.g08.bks.cpg/sg53_17_cif.got.tgz:32434.got - 2010.06.03 12:45:16.
