data_PCOD9415325
_publ_section_title
;
Structure prediction by ZEFSAII (Michael W. Deem and Ramdas Pophale) SiO2 
 PCOD9415325
Probable space group: P M N A
;
_chemical_formula_sum "Si O2"
_cell_formula_units_Z 56
_cell_length_a 17.453068
_cell_length_b 5.712284
_cell_length_c 20.781690
_cell_angle_alpha 90.000000
_cell_angle_beta 90.000000
_cell_angle_gamma 90.000000
_cell_volume 2071.869677
_symmetry_space_group_name_H-M "P M N A"
_symmetry_group_IT_number 53
_symmetry_cell_setting 'orthorhombic'
loop_
_space_group_symop_operation_xyz
x,y,z
1/2-x,-y,1/2+z
x,-y,-z
1/2-x,y,1/2-z
-x,-y,-z
1/2+x,y,1/2-z
-x,y,z
1/2+x,-y,1/2+z
loop_
_atom_site_type_symbol
_atom_site_label
_atom_site_fract_x
_atom_site_fract_y
_atom_site_fract_z
Si Si1 0.500000 0.750003 0.757401
Si Si2 0.612899 0.750002 0.636432
Si Si3 0.703793 0.250001 0.855462
Si Si4 0.613197 0.250002 0.642496
Si Si5 0.000000 0.250003 0.739559
Si Si6 0.080814 0.250000 0.462993
Si Si7 0.284860 0.249999 0.178818
Si Si8 0.240628 0.750000 0.501413
O O1 0.572409 0.750003 0.707119
O O2 0.500000 0.502127 0.793553
O O3 0.500000 0.997878 0.793553
O O4 0.591886 0.495298 0.609276
O O5 0.705423 0.750002 0.637413
O O6 0.591886 0.004707 0.609276
O O7 0.795817 0.250002 0.843518
O O8 0.674132 0.497781 0.829036
O O9 0.697619 0.250000 0.932273
O O10 0.674132 0.002222 0.829036
O O11 0.570979 0.250003 0.710773
O O12 0.076682 0.500000 0.500000
O O13 0.171763 0.250000 0.445951
O O14 0.000000 0.250000 0.424644
O O15 0.076682 0.000000 0.500000
O O16 0.250000 0.249999 0.250000
O O17 0.282067 0.500000 0.500000
O O18 0.282067 0.000000 0.500000
#
# Coordination Sequence:
#
# PCOD9415325 Si02
#       8
#     4   8   8   8   4   8   8   8
#     4   8  12  20  34  54  76  99 130 174 224 245
#     4   8  14  23  37  57  79 104 136 178 217 251
#     4  10  19  31  46  68  93 119 150 189 227 273
#     4   8  14  23  37  57  83 105 137 176 215 251
#     4   8  12  20  34  54  78 103 130 176 214 247
#     4   8  14  25  42  65  90 113 145 188 224 260
#     4  10  19  31  46  66  90 121 155 187 223 267
#     4  10  19  31  48  71  96 122 152 189 236 280
#
# _framework density 27.028725999999999
#
# number of rings (size 3 to 8) (size 9 to 14) (size 15 to 20)
#    0.000    3.143    0.000    1.286    0.000    0.000 
#    0.000    0.000    0.000    0.000    3.714    1.000 
#    0.000    0.000    0.000    0.000    0.000    0.000 
#
# Total GULP energy -311854.948953 kJ/mol
# GULP energy per Si atom -5568.838374 kJ/mol
# Density = 2.696721 g / cm^3
# Si number density = 27.028726 Si / 1000 Ang^3
#
#
#
# Elastic Constant Matrix: (Units=GPa)
#
#
# Indices 1 2 3 4 5 6 
#
# 1 145.4212 -1.1033 15.9387 0.0000 0.0000 0.0000
# 2 -1.1033 413.9341 43.3755 0.0000 0.0000 0.0000
# 3 15.9387 43.3755 44.8445 0.0000 0.0000 0.0000
# 4 0.0000 0.0000 0.0000 22.8717 0.0000 0.0000
# 5 0.0000 0.0000 0.0000 0.0000 11.4514 0.0000
# 6 0.0000 0.0000 0.0000 0.0000 0.0000 76.2612
#
#
#
# Elastic Compliance Matrix: (Units=1/GPa)
#
#
# Indices 1 2 3 4 5 6 
#
# 1 0.007193 0.000319 -0.002866 0.000000 0.000000 0.000000
# 2 0.000319 0.002703 -0.002728 0.000000 0.000000 0.000000
# 3 -0.002866 -0.002728 0.025956 0.000000 0.000000 0.000000
# 4 0.000000 0.000000 0.000000 0.043722 0.000000 0.000000
# 5 0.000000 0.000000 0.000000 0.000000 0.087326 0.000000
# 6 0.000000 0.000000 0.000000 0.000000 0.000000 0.013113
#
#
# Mechanical properties :
#
#
# Convention : Reuss Voigt Hill
#
# Bulk Modulus (GPa) = 39.51901 80.06905 59.79403
# Shear Modulus (GPa) = 25.12638 58.51612 41.82125
#
# Velocity S-wave (km/s) = 3.05227 4.65796 3.93783
# Velocity P-wave (km/s) = 5.20333 7.65616 6.54567
#
# Compressibility (1/GPa) = 0.02530428
#
# Stress axis : x y z
#
# Youngs Moduli (GPa) = 139.02259 370.02667 38.52680
#
# Poissons Ratio (x) = -0.11821 0.11040
# Poissons Ratio (y) = -0.04441 0.10508
# Poissons Ratio (z) = 0.39838 1.00926
#
# Static dielectric constant tensor:
#      x y z
#    x 2.109450 0.000000 0.000000 
#    y 0.000000 2.158950 0.000000 
#    z 0.000000 0.000000 2.159850 
# 
# From -- ./inp_files/35711.got.cif
#   From: 2010.05.17/outbox.cif.g08.bks.cpg/sg53_18_cif.got.tgz:35711.got - 2010.06.03 12:45:16.
