data_PCOD9415474
_publ_section_title
;
Structure prediction by ZEFSAII (Michael W. Deem and Ramdas Pophale) SiO2 
 PCOD9415474
Probable space group: P M N A
;
_chemical_formula_sum "Si O2"
_cell_formula_units_Z 40
_cell_length_a 7.742143
_cell_length_b 17.265708
_cell_length_c 12.999601
_cell_angle_alpha 90.000000
_cell_angle_beta 90.000000
_cell_angle_gamma 90.000000
_cell_volume 1737.703209
_symmetry_space_group_name_H-M "P M N A"
_symmetry_group_IT_number 53
_symmetry_cell_setting 'orthorhombic'
loop_
_space_group_symop_operation_xyz
x,y,z
1/2-x,-y,1/2+z
x,-y,-z
1/2-x,y,1/2-z
-x,-y,-z
1/2+x,y,1/2-z
-x,y,z
1/2+x,-y,1/2+z
loop_
_atom_site_type_symbol
_atom_site_label
_atom_site_fract_x
_atom_site_fract_y
_atom_site_fract_z
Si Si1 0.709665 0.386227 0.919735
Si Si2 0.797692 0.813687 0.854157
Si Si3 0.802926 0.218610 0.909375
Si Si4 0.000000 0.104640 0.621106
Si Si5 0.500000 0.933398 0.877209
Si Si6 0.293846 0.443635 0.138810
O O1 0.500000 0.381140 0.916263
O O2 0.781233 0.306979 0.874179
O O3 0.766598 0.466871 0.868523
O O4 0.767663 0.397394 0.038860
O O5 0.750000 0.767271 0.750000
O O6 0.671724 0.887205 0.847296
O O7 0.000000 0.831926 0.852472
O O8 0.763354 0.778667 0.967060
O O9 0.666325 0.158756 0.862618
O O10 0.000000 0.192817 0.894880
O O11 0.000000 0.078238 0.501119
O O12 0.000000 0.019461 0.669862
O O13 0.250000 0.412062 0.250000
O O14 0.500000 0.446481 0.128422
#
# Coordination Sequence:
#
# PCOD9415474 Si02
#       6
#     8   8   8   4   4   8
#     4   9  18  35  54  75 110 148 181 224 275 329
#     4  10  19  31  49  77 108 138 176 216 265 324
#     4  10  20  32  52  80 105 138 179 218 264 320
#     4   9  18  34  52  73 104 132 171 217 263 315
#     4   9  18  32  52  74  98 139 171 209 265 312
#     4   9  19  34  54  79 106 143 186 225 273 325
#
# _framework density 23.018892000000001
#
# number of rings (size 3 to 8) (size 9 to 14) (size 15 to 20)
#    0.000    2.600    2.000    1.200    0.000    3.200 
#    0.000   10.000    0.000    1.200    0.000    0.000 
#    0.000    0.000    0.000    0.000    0.000    0.000 
#
# Total GULP energy -223275.348342 kJ/mol
# GULP energy per Si atom -5581.883709 kJ/mol
# Density = 2.296650 g / cm^3
# Si number density = 23.018892 Si / 1000 Ang^3
#
#
#
# Elastic Constant Matrix: (Units=GPa)
#
#
# Indices 1 2 3 4 5 6 
#
# 1 94.2878 53.0701 7.0006 0.0000 0.0000 0.0000
# 2 53.0701 165.1133 0.7026 0.0000 0.0000 0.0000
# 3 7.0006 0.7026 80.1906 0.0000 0.0000 0.0000
# 4 0.0000 0.0000 0.0000 -8.9108 0.0000 0.0000
# 5 0.0000 0.0000 0.0000 0.0000 18.6713 0.0000
# 6 0.0000 0.0000 0.0000 0.0000 0.0000 -8.1659
#
#
#
# Elastic Compliance Matrix: (Units=1/GPa)
#
#
# Indices 1 2 3 4 5 6 
#
# 1 0.013045 -0.004188 -0.001102 0.000000 0.000000 0.000000
# 2 -0.004188 0.007401 0.000301 0.000000 0.000000 0.000000
# 3 -0.001102 0.000301 0.012564 0.000000 0.000000 0.000000
# 4 0.000000 0.000000 0.000000 -0.112223 0.000000 0.000000
# 5 0.000000 0.000000 0.000000 0.000000 0.053558 0.000000
# 6 0.000000 0.000000 0.000000 0.000000 0.000000 -0.122460
#
#
# Mechanical properties :
#
#
# Convention : Reuss Voigt Hill
#
# Bulk Modulus (GPa) = 43.41950 51.23757 47.32853
# Shear Modulus (GPa) = -38.32631 18.90681 -9.70975
#
# Velocity S-wave (km/s) = -4.08486 2.86905 -2.05605
# Velocity P-wave (km/s) = 1.82883 5.76910 3.86897
#
# Compressibility (1/GPa) = 0.02303113
#
# Stress axis : x y z
#
# Youngs Moduli (GPa) = 76.65783 135.11117 79.59330
#
# Poissons Ratio (x) = 0.56587 0.08772
# Poissons Ratio (y) = 0.32106 -0.02394
# Poissons Ratio (z) = 0.08449 -0.04064
#
# Static dielectric constant tensor:
#      x y z
#    x 1.816530 0.000000 0.000000 
#    y 0.000000 1.841830 0.000000 
#    z 0.000000 0.000000 1.937960 
# 
# From -- ./inp_files/19909.got.cif
#   From: 2010.05.17/outbox.cif.g08.bks.cpg/sg53_10_cif.got.tgz:19909.got - 2010.06.03 12:45:16.
