data_PCOD9415087
_publ_section_title
;
Structure prediction by ZEFSAII (Michael W. Deem and Ramdas Pophale) SiO2 
 PCOD9415087
Probable space group: P M N A
;
_chemical_formula_sum "Si O2"
_cell_formula_units_Z 64
_cell_length_a 8.883548
_cell_length_b 18.787108
_cell_length_c 25.209637
_cell_angle_alpha 90.000000
_cell_angle_beta 90.000000
_cell_angle_gamma 90.000000
_cell_volume 4207.392006
_symmetry_space_group_name_H-M "P M N A"
_symmetry_group_IT_number 53
_symmetry_cell_setting 'orthorhombic'
loop_
_space_group_symop_operation_xyz
x,y,z
1/2-x,-y,1/2+z
x,-y,-z
1/2-x,y,1/2-z
-x,-y,-z
1/2+x,y,1/2-z
-x,y,z
1/2+x,-y,1/2+z
loop_
_atom_site_type_symbol
_atom_site_label
_atom_site_fract_x
_atom_site_fract_y
_atom_site_fract_z
Si Si1 0.826722 0.687274 0.390056
Si Si2 0.318537 0.989454 0.082493
Si Si3 0.823472 0.602146 0.955997
Si Si4 0.674309 0.741777 0.988547
Si Si5 0.823693 0.548031 0.078252
Si Si6 0.321951 0.212816 0.694918
Si Si7 0.819727 0.893277 0.995688
Si Si8 0.681451 0.045640 0.693229
O O1 0.815918 0.715426 0.450426
O O2 0.767047 0.606482 0.389236
O O3 0.732890 0.738920 0.352897
O O4 0.000000 0.689909 0.373896
O O5 0.500000 0.988650 0.080907
O O6 0.256521 0.990859 0.142246
O O7 0.252510 0.055451 0.048841
O O8 0.252762 0.920606 0.051101
O O9 0.771140 0.534031 0.921760
O O10 0.000000 0.614832 0.944859
O O11 0.732685 0.675332 0.953797
O O12 0.815204 0.574663 0.017017
O O13 0.500000 0.757982 0.976958
O O14 0.773664 0.812394 0.984162
O O15 0.000000 0.549490 0.092808
O O16 0.250000 0.237261 0.750000
O O17 0.500000 0.216173 0.699327
O O18 0.281044 0.129804 0.687313
O O19 0.000000 0.901945 0.997631
O O20 0.750000 0.022790 0.750000
O O21 0.500000 0.037450 0.692926
#
# Coordination Sequence:
#
# PCOD9415087 Si02
#       8
#     8   8   8   8   8   8   8   8
#     4  10  19  28  41  61  86 115 148 182 218 261
#     4  11  21  34  50  68  92 120 151 190 232 276
#     4   8  14  25  40  58  81 111 143 176 210 248
#     4  10  19  29  42  63  89 117 148 183 221 263
#     4   8  14  25  40  57  80 110 144 176 209 247
#     4  10  20  32  46  62  84 112 144 182 221 259
#     4  11  21  33  48  66  90 122 157 191 228 276
#     4  10  20  34  51  71  92 119 153 189 229 272
#
# _framework density 15.211323
#
# number of rings (size 3 to 8) (size 9 to 14) (size 15 to 20)
#    0.000    2.250    0.000    6.000    0.000    5.500 
#    0.000    2.500    0.000    0.000    0.000    0.000 
#    0.000    1.000    0.000    5.500    0.000    6.125 
#
# Total GULP energy -356797.697038 kJ/mol
# GULP energy per Si atom -5574.964016 kJ/mol
# Density = 1.517670 g / cm^3
# Si number density = 15.211323 Si / 1000 Ang^3
#
#
#
# Elastic Constant Matrix: (Units=GPa)
#
#
# Indices 1 2 3 4 5 6 
#
# 1 77.2126 30.9020 28.7926 0.0000 0.0000 0.0000
# 2 30.9020 65.8966 12.6829 0.0000 0.0000 0.0000
# 3 28.7926 12.6829 59.0988 0.0000 0.0000 0.0000
# 4 0.0000 0.0000 0.0000 7.4395 0.0000 0.0000
# 5 0.0000 0.0000 0.0000 0.0000 22.4388 0.0000
# 6 0.0000 0.0000 0.0000 0.0000 0.0000 19.0221
#
#
#
# Elastic Compliance Matrix: (Units=1/GPa)
#
#
# Indices 1 2 3 4 5 6 
#
# 1 0.018688 -0.007313 -0.007535 0.000000 0.000000 0.000000
# 2 -0.007313 0.018691 -0.000448 0.000000 0.000000 0.000000
# 3 -0.007535 -0.000448 0.020688 0.000000 0.000000 0.000000
# 4 0.000000 0.000000 0.000000 0.134418 0.000000 0.000000
# 5 0.000000 0.000000 0.000000 0.000000 0.044566 0.000000
# 6 0.000000 0.000000 0.000000 0.000000 0.000000 0.052571
#
#
# Mechanical properties :
#
#
# Convention : Reuss Voigt Hill
#
# Bulk Modulus (GPa) = 36.39844 38.55147 37.47496
# Shear Modulus (GPa) = 15.18033 18.43543 16.80788
#
# Velocity S-wave (km/s) = 3.16248 3.48509 3.32770
# Velocity P-wave (km/s) = 6.10864 6.44930 6.28128
#
# Compressibility (1/GPa) = 0.02747370
#
# Stress axis : x y z
#
# Youngs Moduli (GPa) = 53.50980 53.50117 48.33689
#
# Poissons Ratio (x) = 0.39128 0.36423
# Poissons Ratio (y) = 0.39134 0.02166
# Poissons Ratio (z) = 0.40321 0.02398
#
# Static dielectric constant tensor:
#      x y z
#    x 1.508760 0.000000 0.000000 
#    y 0.000000 1.515630 0.000000 
#    z 0.000000 0.000000 1.492880 
# 
# From -- ./inp_files/34468.got.cif
#   From: 2010.05.17/outbox.cif.g08.bks.cpg/sg53_18_cif.got.tgz:34468.got - 2010.06.03 12:45:16.
