data_PCOD9415730
_publ_section_title
;
Structure prediction by ZEFSAII (Michael W. Deem and Ramdas Pophale) SiO2 
 PCOD9415730
Probable space group: P M N A
;
_chemical_formula_sum "Si O2"
_cell_formula_units_Z 48
_cell_length_a 8.015140
_cell_length_b 33.127930
_cell_length_c 9.279649
_cell_angle_alpha 90.000000
_cell_angle_beta 90.000000
_cell_angle_gamma 90.000000
_cell_volume 2463.978772
_symmetry_space_group_name_H-M "P M N A"
_symmetry_group_IT_number 53
_symmetry_cell_setting 'orthorhombic'
loop_
_space_group_symop_operation_xyz
x,y,z
1/2-x,-y,1/2+z
x,-y,-z
1/2-x,y,1/2-z
-x,-y,-z
1/2+x,y,1/2-z
-x,y,z
1/2+x,-y,1/2+z
loop_
_atom_site_type_symbol
_atom_site_label
_atom_site_fract_x
_atom_site_fract_y
_atom_site_fract_z
Si Si1 0.699122 0.881203 0.582759
Si Si2 0.801846 0.038857 0.584588
Si Si3 0.798676 0.706900 0.918967
Si Si4 0.201447 0.206461 0.080986
Si Si5 0.298513 0.539809 0.416169
Si Si6 0.798304 0.619018 0.917812
O O1 0.750000 0.885824 0.750000
O O2 0.500000 0.880001 0.578410
O O3 0.755285 0.919400 0.491886
O O4 0.762202 0.837263 0.527030
O O5 0.750000 0.038353 0.750000
O O6 0.000000 0.035876 0.580069
O O7 0.730316 0.000000 0.500000
O O8 0.750000 0.706938 0.750000
O O9 0.738095 0.750213 0.979561
O O10 0.739105 0.663157 0.973338
O O11 0.000000 0.707019 0.928976
O O12 0.250000 0.206506 0.250000
O O13 0.000000 0.206661 0.070582
O O14 0.238077 0.500000 0.500000
O O15 0.250000 0.538227 0.250000
O O16 0.500000 0.540053 0.425423
O O17 0.236578 0.580846 0.491812
O O18 0.750000 0.614804 0.750000
O O19 0.000000 0.619176 0.924227
#
# Coordination Sequence:
#
# PCOD9415730 Si02
#       6
#     8   8   8   8   8   8
#     4  10  19  32  52  78 107 137 170 207 248 293
#     4  11  24  40  58  79 103 132 166 205 249 297
#     4   8  13  23  40  64  94 125 158 196 237 279
#     4   8  14  24  41  67  97 129 162 198 239 281
#     4  10  21  35  50  70  95 123 158 198 241 290
#     4   9  17  29  47  71  97 126 160 199 241 286
#
# _framework density 19.480688000000001
#
# number of rings (size 3 to 8) (size 9 to 14) (size 15 to 20)
#    0.000    2.667    0.000    2.000    0.000    4.333 
#    0.000    0.000    0.000    1.000    0.000    2.333 
#    0.000    0.000    0.000    0.000    0.000    0.000 
#
# Total GULP energy -267392.585117 kJ/mol
# GULP energy per Si atom -5570.678857 kJ/mol
# Density = 1.943635 g / cm^3
# Si number density = 19.480688 Si / 1000 Ang^3
#
#
#
# Elastic Constant Matrix: (Units=GPa)
#
#
# Indices 1 2 3 4 5 6 
#
# 1 21.9555 19.8441 4.0539 0.0000 0.0000 0.0000
# 2 19.8441 272.5749 95.0178 0.0000 0.0000 0.0000
# 3 4.0539 95.0178 82.1326 0.0000 0.0000 0.0000
# 4 0.0000 0.0000 0.0000 22.9566 0.0000 0.0000
# 5 0.0000 0.0000 0.0000 0.0000 22.7894 0.0000
# 6 0.0000 0.0000 0.0000 0.0000 0.0000 15.5769
#
#
#
# Elastic Compliance Matrix: (Units=1/GPa)
#
#
# Indices 1 2 3 4 5 6 
#
# 1 0.049156 -0.004580 0.002872 0.000000 0.000000 0.000000
# 2 -0.004580 0.006575 -0.007380 0.000000 0.000000 0.000000
# 3 0.002872 -0.007380 0.020572 0.000000 0.000000 0.000000
# 4 0.000000 0.000000 0.000000 0.043560 0.000000 0.000000
# 5 0.000000 0.000000 0.000000 0.000000 0.043880 0.000000
# 6 0.000000 0.000000 0.000000 0.000000 0.000000 0.064198
#
#
# Mechanical properties :
#
#
# Convention : Reuss Voigt Hill
#
# Bulk Modulus (GPa) = 17.20387 68.27717 42.74052
# Shear Modulus (GPa) = 18.83293 29.44771 24.14032
#
# Velocity S-wave (km/s) = 3.11263 3.89219 3.52404
# Velocity P-wave (km/s) = 4.66566 7.43799 6.20854
#
# Compressibility (1/GPa) = 0.05812645
#
# Stress axis : x y z
#
# Youngs Moduli (GPa) = 20.34344 152.09450 48.61023
#
# Poissons Ratio (x) = 0.69657 -0.13961
# Poissons Ratio (y) = 0.09317 0.35876
# Poissons Ratio (z) = -0.05843 1.12250
#
# Static dielectric constant tensor:
#      x y z
#    x 1.683690 0.000000 0.000000 
#    y 0.000000 1.784290 0.000000 
#    z 0.000000 0.000000 1.620610 
# 
# From -- ./inp_files/6606.got.cif
#   From: 2010.05.17/outbox.cif.g08.bks.cpg/sg53_4_cif.got.tgz:6606.got - 2010.06.03 12:45:16.
