data_PCOD9415649
_publ_section_title
;
Structure prediction by ZEFSAII (Michael W. Deem and Ramdas Pophale) SiO2 
 PCOD9415649
Probable space group: P M N A
;
_chemical_formula_sum "Si O2"
_cell_formula_units_Z 40
_cell_length_a 8.367052
_cell_length_b 27.034194
_cell_length_c 9.972395
_cell_angle_alpha 90.000000
_cell_angle_beta 90.000000
_cell_angle_gamma 90.000000
_cell_volume 2255.720915
_symmetry_space_group_name_H-M "P M N A"
_symmetry_group_IT_number 53
_symmetry_cell_setting 'orthorhombic'
loop_
_space_group_symop_operation_xyz
x,y,z
1/2-x,-y,1/2+z
x,-y,-z
1/2-x,y,1/2-z
-x,-y,-z
1/2+x,y,1/2-z
-x,y,z
1/2+x,-y,1/2+z
loop_
_atom_site_type_symbol
_atom_site_label
_atom_site_fract_x
_atom_site_fract_y
_atom_site_fract_z
Si Si1 0.692644 0.847667 0.903743
Si Si2 0.308847 0.654416 0.400933
Si Si3 0.806821 0.542745 0.099287
Si Si4 0.191519 0.739691 0.596662
Si Si5 0.693656 0.955953 0.903805
O O1 0.750000 0.847632 0.750000
O O2 0.500000 0.847676 0.907798
O O3 0.746251 0.794063 0.957160
O O4 0.745684 0.901389 0.956522
O O5 0.250000 0.664553 0.250000
O O6 0.500000 0.654534 0.400395
O O7 0.254120 0.598553 0.437514
O O8 0.250115 0.695475 0.503921
O O9 0.750000 0.533122 0.250000
O O10 0.000000 0.542387 0.097538
O O11 0.748984 0.500000 0.000000
O O12 0.250000 0.734304 0.750000
O O13 0.000000 0.739423 0.598439
O O14 0.750000 0.961771 0.750000
O O15 0.500000 0.956740 0.902376
O O16 0.749883 0.000000 0.000000
#
# Coordination Sequence:
#
# PCOD9415649 Si02
#       5
#     8   8   8   8   8
#     4   8  15  28  46  67  92 123 157 194 236 280
#     4  10  20  35  53  73 100 132 164 198 241 290
#     4   9  19  35  53  74  99 127 160 197 237 283
#     4  10  19  32  51  74  99 127 163 204 243 286
#     4   9  17  30  48  69  94 123 156 195 237 282
#
# _framework density 17.732689000000001
#
# number of rings (size 3 to 8) (size 9 to 14) (size 15 to 20)
#    0.000    2.800    0.000    1.200    0.000    3.200 
#    0.000    3.000    0.000    2.400    0.000    0.000 
#    0.000    0.000    0.000    0.000    0.000    0.000 
#
# Total GULP energy -222748.437677 kJ/mol
# GULP energy per Si atom -5568.710942 kJ/mol
# Density = 1.769233 g / cm^3
# Si number density = 17.732689 Si / 1000 Ang^3
#
#
#
# Elastic Constant Matrix: (Units=GPa)
#
#
# Indices 1 2 3 4 5 6 
#
# 1 17.7844 29.4936 15.2033 0.0000 0.0000 0.0000
# 2 29.4936 222.2590 109.2935 0.0000 0.0000 0.0000
# 3 15.2033 109.2935 76.2922 0.0000 0.0000 0.0000
# 4 0.0000 0.0000 0.0000 37.0635 0.0000 0.0000
# 5 0.0000 0.0000 0.0000 0.0000 26.5850 0.0000
# 6 0.0000 0.0000 0.0000 0.0000 0.0000 22.3450
#
#
#
# Elastic Compliance Matrix: (Units=1/GPa)
#
#
# Indices 1 2 3 4 5 6 
#
# 1 0.072208 -0.008479 -0.002242 0.000000 0.000000 0.000000
# 2 -0.008479 0.016219 -0.021545 0.000000 0.000000 0.000000
# 3 -0.002242 -0.021545 0.044419 0.000000 0.000000 0.000000
# 4 0.000000 0.000000 0.000000 0.026981 0.000000 0.000000
# 5 0.000000 0.000000 0.000000 0.000000 0.037615 0.000000
# 6 0.000000 0.000000 0.000000 0.000000 0.000000 0.044753
#
#
# Mechanical properties :
#
#
# Convention : Reuss Voigt Hill
#
# Bulk Modulus (GPa) = 14.63856 69.36849 42.00352
# Shear Modulus (GPa) = 15.17459 28.02170 21.59814
#
# Velocity S-wave (km/s) = 2.92848 3.97952 3.49375
# Velocity P-wave (km/s) = 4.43934 7.76655 6.32562
#
# Compressibility (1/GPa) = 0.06831275
#
# Stress axis : x y z
#
# Youngs Moduli (GPa) = 13.84893 61.65609 22.51295
#
# Poissons Ratio (x) = 0.52281 0.05047
# Poissons Ratio (y) = 0.11743 0.48504
# Poissons Ratio (z) = 0.03105 1.32838
#
# Static dielectric constant tensor:
#      x y z
#    x 1.620170 0.000000 0.000000 
#    y 0.000000 1.670670 0.000000 
#    z 0.000000 0.000000 1.546420 
# 
# From -- ./inp_files/6274.got.cif
#   From: 2010.05.17/outbox.cif.g08.bks.cpg/sg53_4_cif.got.tgz:6274.got - 2010.06.03 12:45:16.
