data_PCOD9415483
_publ_section_title
;
Structure prediction by ZEFSAII (Michael W. Deem and Ramdas Pophale) SiO2 
 PCOD9415483
Probable space group: P M N A
;
_chemical_formula_sum "Si O2"
_cell_formula_units_Z 58
_cell_length_a 9.513966
_cell_length_b 11.904690
_cell_length_c 26.935662
_cell_angle_alpha 90.000000
_cell_angle_beta 90.000000
_cell_angle_gamma 90.000000
_cell_volume 3050.755055
_symmetry_space_group_name_H-M "P M N A"
_symmetry_group_IT_number 53
_symmetry_cell_setting 'orthorhombic'
loop_
_space_group_symop_operation_xyz
x,y,z
1/2-x,-y,1/2+z
x,-y,-z
1/2-x,y,1/2-z
-x,-y,-z
1/2+x,y,1/2-z
-x,y,z
1/2+x,-y,1/2+z
loop_
_atom_site_type_symbol
_atom_site_label
_atom_site_fract_x
_atom_site_fract_y
_atom_site_fract_z
Si Si1 0.335721 0.525739 0.795058
Si Si2 0.661084 0.612453 0.555002
Si Si3 0.765617 0.160949 0.481071
Si Si4 0.840108 0.161951 0.591295
Si Si5 0.334104 0.587789 0.096860
Si Si6 0.661217 0.271407 0.335859
Si Si7 0.337896 0.926928 0.874348
Si Si8 0.000000 0.000000 0.000000
O O1 0.250000 0.470238 0.750000
O O2 0.500000 0.539834 0.782893
O O3 0.326958 0.458353 0.846768
O O4 0.257726 0.643851 0.804955
O O5 0.500000 0.593715 0.539914
O O6 0.736278 0.705709 0.521446
O O7 0.747044 0.498153 0.562830
O O8 0.656816 0.672991 0.609140
O O9 0.841253 0.135752 0.532723
O O10 0.838992 0.124401 0.430183
O O11 0.621812 0.091332 0.483905
O O12 0.775823 0.285252 0.596904
O O13 0.000000 0.171661 0.609286
O O14 0.779605 0.053632 0.619221
O O15 0.500000 0.588465 0.082120
O O16 0.500000 0.263212 0.318274
O O17 0.737940 0.152332 0.342164
O O18 0.500000 0.927521 0.856816
#
# Coordination Sequence:
#
# PCOD9415483 Si02
#       8
#     8   8   8   8   8   8   8   2
#     4  10  19  34  59  83 106 129 162 203 254 310
#     4   9  18  32  47  69  98 131 169 215 257 300
#     4  11  20  31  50  69  99 136 181 223 266 307
#     4  10  20  34  50  70  99 137 182 219 253 300
#     4   9  20  37  53  73 100 136 172 211 257 308
#     4   9  18  31  52  77 105 131 162 203 252 303
#     4  10  19  31  50  74 101 133 175 217 260 302
#     4  12  20  32  46  70 104 132 186 220 278 316
#
# _framework density 19.011687999999999
#
# number of rings (size 3 to 8) (size 9 to 14) (size 15 to 20)
#    0.000    2.207    2.069    1.241    0.966    6.069 
#    1.241    2.069    0.000    0.828    0.000    1.931 
#    0.000    0.000    0.000    0.000    0.000    0.000 
#
# Total GULP energy -322903.371187 kJ/mol
# GULP energy per Si atom -5567.299503 kJ/mol
# Density = 1.896842 g / cm^3
# Si number density = 19.011688 Si / 1000 Ang^3
#
#
#
# Elastic Constant Matrix: (Units=GPa)
#
#
# Indices 1 2 3 4 5 6 
#
# 1 87.9392 31.0374 3.0261 0.0000 0.0000 0.0000
# 2 31.0374 121.7215 -0.6665 0.0000 0.0000 0.0000
# 3 3.0261 -0.6665 25.1098 0.0000 0.0000 0.0000
# 4 0.0000 0.0000 0.0000 12.3658 0.0000 0.0000
# 5 0.0000 0.0000 0.0000 0.0000 -216.7251 0.0000
# 6 0.0000 0.0000 0.0000 0.0000 0.0000 38.4019
#
#
#
# Elastic Compliance Matrix: (Units=1/GPa)
#
#
# Indices 1 2 3 4 5 6 
#
# 1 0.012560 -0.003211 -0.001599 0.000000 0.000000 0.000000
# 2 -0.003211 0.009038 0.000627 0.000000 0.000000 0.000000
# 3 -0.001599 0.000627 0.040034 0.000000 0.000000 0.000000
# 4 0.000000 0.000000 0.000000 0.080868 0.000000 0.000000
# 5 0.000000 0.000000 0.000000 0.000000 -0.004614 0.000000
# 6 0.000000 0.000000 0.000000 0.000000 0.000000 0.026040
#
#
# Mechanical properties :
#
#
# Convention : Reuss Voigt Hill
#
# Bulk Modulus (GPa) = 18.77389 33.50716 26.14052
# Shear Modulus (GPa) = 26.30905 -19.76659 3.27123
#
# Velocity S-wave (km/s) = 3.72403 -3.22795 1.31316
# Velocity P-wave (km/s) = 5.32800 1.94163 4.00983
#
# Compressibility (1/GPa) = 0.05326548
#
# Stress axis : x y z
#
# Youngs Moduli (GPa) = 79.61822 110.64676 24.97848
#
# Poissons Ratio (x) = 0.35533 0.03994
# Poissons Ratio (y) = 0.25568 -0.01566
# Poissons Ratio (z) = 0.12730 -0.06937
#
# Static dielectric constant tensor:
#      x y z
#    x 1.655550 0.000000 0.000000 
#    y 0.000000 1.696910 0.000000 
#    z 0.000000 0.000000 1.684600 
# 
# From -- ./inp_files/38049.got.cif
#   From: 2010.05.17/outbox.cif.g08.bks.cpg/sg53_20_cif.got.tgz:38049.got - 2010.06.03 12:45:16.
