data_PCOD9415369
_publ_section_title
;
Structure prediction by ZEFSAII (Michael W. Deem and Ramdas Pophale) SiO2 
 PCOD9415369
Probable space group: P M N A
;
_chemical_formula_sum "Si O2"
_cell_formula_units_Z 48
_cell_length_a 8.635305
_cell_length_b 24.400180
_cell_length_c 14.159974
_cell_angle_alpha 90.000000
_cell_angle_beta 90.000000
_cell_angle_gamma 90.000000
_cell_volume 2983.548950
_symmetry_space_group_name_H-M "P M N A"
_symmetry_group_IT_number 53
_symmetry_cell_setting 'orthorhombic'
loop_
_space_group_symop_operation_xyz
x,y,z
1/2-x,-y,1/2+z
x,-y,-z
1/2-x,y,1/2-z
-x,-y,-z
1/2+x,y,1/2-z
-x,y,z
1/2+x,-y,1/2+z
loop_
_atom_site_type_symbol
_atom_site_label
_atom_site_fract_x
_atom_site_fract_y
_atom_site_fract_z
Si Si1 0.814559 0.520433 0.354766
Si Si2 0.313081 0.086637 0.037744
Si Si3 0.186684 0.582239 0.971029
Si Si4 0.313482 0.313173 0.353789
Si Si5 0.186466 0.022857 0.646655
Si Si6 0.814629 0.188217 0.145898
O O1 0.750000 0.528887 0.250000
O O2 0.759012 0.566987 0.428085
O O3 0.745615 0.464274 0.398437
O O4 0.000000 0.517246 0.353911
O O5 0.500000 0.089583 0.039697
O O6 0.265703 0.066520 0.933404
O O7 0.245095 0.143599 0.072407
O O8 0.265980 0.037288 0.108497
O O9 0.232950 0.641201 0.929604
O O10 0.000000 0.579045 0.977110
O O11 0.250000 0.327222 0.250000
O O12 0.500000 0.313894 0.348775
O O13 0.264836 0.250787 0.376118
O O14 0.250000 0.033652 0.750000
O O15 0.000000 0.023036 0.649258
O O16 0.750000 0.174766 0.250000
O O17 0.000000 0.186735 0.149345
#
# Coordination Sequence:
#
# PCOD9415369 Si02
#       6
#     8   8   8   8   8   8
#     4  11  21  33  49  72  99 127 158 194 235 281
#     4   9  18  32  47  67  94 124 153 189 231 274
#     4  10  19  33  51  72  97 126 158 195 235 278
#     4   9  19  32  48  70  97 125 155 190 230 273
#     4   9  18  31  47  67  94 122 153 190 231 274
#     4  10  19  31  47  70  96 124 155 190 229 274
#
# _framework density 16.088221999999998
#
# number of rings (size 3 to 8) (size 9 to 14) (size 15 to 20)
#    0.000    2.333    0.000    5.500    0.000    6.000 
#    0.000    1.667    0.000    1.000    0.000    2.333 
#    0.000    0.000    0.000    0.000    0.000    0.000 
#
# Total GULP energy -267759.385031 kJ/mol
# GULP energy per Si atom -5578.320521 kJ/mol
# Density = 1.605160 g / cm^3
# Si number density = 16.088222 Si / 1000 Ang^3
#
#
#
# Elastic Constant Matrix: (Units=GPa)
#
#
# Indices 1 2 3 4 5 6 
#
# 1 46.5410 25.8711 34.3594 0.0000 0.0000 0.0000
# 2 25.8711 95.8565 77.1199 0.0000 0.0000 0.0000
# 3 34.3594 77.1199 145.4127 0.0000 0.0000 0.0000
# 4 0.0000 0.0000 0.0000 23.0699 0.0000 0.0000
# 5 0.0000 0.0000 0.0000 0.0000 28.7255 0.0000
# 6 0.0000 0.0000 0.0000 0.0000 0.0000 24.0590
#
#
#
# Elastic Compliance Matrix: (Units=1/GPa)
#
#
# Indices 1 2 3 4 5 6 
#
# 1 0.026768 -0.003725 -0.004349 0.000000 0.000000 0.000000
# 2 -0.003725 0.018715 -0.009045 0.000000 0.000000 0.000000
# 3 -0.004349 -0.009045 0.012702 0.000000 0.000000 0.000000
# 4 0.000000 0.000000 0.000000 0.043346 0.000000 0.000000
# 5 0.000000 0.000000 0.000000 0.000000 0.034812 0.000000
# 6 0.000000 0.000000 0.000000 0.000000 0.000000 0.041564
#
#
# Mechanical properties :
#
#
# Convention : Reuss Voigt Hill
#
# Bulk Modulus (GPa) = 41.76218 62.50121 52.13169
# Shear Modulus (GPa) = 22.71390 25.20155 23.95772
#
# Velocity S-wave (km/s) = 3.76151 3.96215 3.86313
# Velocity P-wave (km/s) = 6.69925 7.73724 7.23688
#
# Compressibility (1/GPa) = 0.02394511
#
# Stress axis : x y z
#
# Youngs Moduli (GPa) = 37.35781 53.43321 78.72897
#
# Poissons Ratio (x) = 0.19906 0.34241
# Poissons Ratio (y) = 0.13918 0.71212
# Poissons Ratio (z) = 0.16248 0.48332
#
# Static dielectric constant tensor:
#      x y z
#    x 1.543170 0.000000 0.000000 
#    y 0.000000 1.541780 0.000000 
#    z 0.000000 0.000000 1.517020 
# 
# From -- ./inp_files/20334.got.cif
#   From: 2010.05.17/outbox.cif.g08.bks.cpg/sg53_11_cif.got.tgz:20334.got - 2010.06.03 12:45:16.
