data_PCOD9415027
_publ_section_title
;
Structure prediction by ZEFSAII (Michael W. Deem and Ramdas Pophale) SiO2 
 PCOD9415027
Probable space group: P M N A
;
_chemical_formula_sum "Si O2"
_cell_formula_units_Z 48
_cell_length_a 14.678528
_cell_length_b 18.132317
_cell_length_c 8.475154
_cell_angle_alpha 90.000000
_cell_angle_beta 90.000000
_cell_angle_gamma 90.000000
_cell_volume 2255.710739
_symmetry_space_group_name_H-M "P M N A"
_symmetry_group_IT_number 53
_symmetry_cell_setting 'orthorhombic'
loop_
_space_group_symop_operation_xyz
x,y,z
1/2-x,-y,1/2+z
x,-y,-z
1/2-x,y,1/2-z
-x,-y,-z
1/2+x,y,1/2-z
-x,y,z
1/2+x,-y,1/2+z
loop_
_atom_site_type_symbol
_atom_site_label
_atom_site_fract_x
_atom_site_fract_y
_atom_site_fract_z
Si Si1 0.397863 0.704425 0.428447
Si Si2 0.820762 0.867508 0.105836
Si Si3 0.244990 0.581952 0.059208
Si Si4 0.102222 0.688451 0.449564
Si Si5 0.313352 0.825317 0.881259
Si Si6 0.000000 0.065007 0.741240
Si Si7 0.500000 0.897623 0.873683
O O1 0.500000 0.701637 0.493952
O O2 0.357880 0.786463 0.440069
O O3 0.332560 0.640325 0.491034
O O4 0.402625 0.690497 0.239835
O O5 0.750000 0.863804 0.250000
O O6 0.909273 0.913177 0.160767
O O7 0.752242 0.886838 0.961989
O O8 0.250000 0.580946 0.250000
O O9 0.339992 0.617349 0.001734
O O10 0.228937 0.500000 0.000000
O O11 0.155021 0.761990 0.499646
O O12 0.000000 0.689653 0.513786
O O13 0.250000 0.789869 0.750000
O O14 0.406971 0.859612 0.819641
O O15 0.000000 0.104715 0.567630
O O16 0.000000 0.979908 0.693011
#
# Coordination Sequence:
#
# PCOD9415027 Si02
#       7
#     8   8   8   8   8   4   4
#     4  10  18  34  64  93 118 160 223 273 313 384
#     4  12  20  39  70 100 119 173 232 268 314 395
#     4  10  21  37  58  90 127 163 211 268 330 396
#     4  10  19  37  65  87 116 170 221 262 316 388
#     4  12  25  41  67  96 137 173 221 275 336 398
#     4  11  24  41  73  99 130 169 227 280 328 404
#     4  11  24  47  63  99 138 173 210 279 351 391
#
# _framework density 21.279323999999999
#
# number of rings (size 3 to 8) (size 9 to 14) (size 15 to 20)
#    0.000    1.167    6.667    0.500    0.000    2.667 
#    0.000    0.833    0.000    0.000    0.000    0.000 
#    0.000    0.000    0.000    0.000    0.000    0.000 
#
# Total GULP energy -268035.361413 kJ/mol
# GULP energy per Si atom -5584.070029 kJ/mol
# Density = 2.123089 g / cm^3
# Si number density = 21.279324 Si / 1000 Ang^3
#
#
#
# Elastic Constant Matrix: (Units=GPa)
#
#
# Indices 1 2 3 4 5 6 
#
# 1 189.4538 42.1846 30.9232 0.0000 0.0000 0.0000
# 2 42.1846 70.1186 2.9021 0.0000 0.0000 0.0000
# 3 30.9232 2.9021 17.7198 0.0000 0.0000 0.0000
# 4 0.0000 0.0000 0.0000 25.2593 0.0000 0.0000
# 5 0.0000 0.0000 0.0000 0.0000 13.4717 0.0000
# 6 0.0000 0.0000 0.0000 0.0000 0.0000 15.8871
#
#
#
# Elastic Compliance Matrix: (Units=1/GPa)
#
#
# Indices 1 2 3 4 5 6 
#
# 1 0.008643 -0.004607 -0.014328 0.000000 0.000000 0.000000
# 2 -0.004607 0.016814 0.005285 0.000000 0.000000 0.000000
# 3 -0.014328 0.005285 0.080573 0.000000 0.000000 0.000000
# 4 0.000000 0.000000 0.000000 0.039589 0.000000 0.000000
# 5 0.000000 0.000000 0.000000 0.000000 0.074230 0.000000
# 6 0.000000 0.000000 0.000000 0.000000 0.000000 0.062944
#
#
# Mechanical properties :
#
#
# Convention : Reuss Voigt Hill
#
# Bulk Modulus (GPa) = 12.70145 47.70134 30.20140
# Shear Modulus (GPa) = 14.86608 24.34244 19.60426
#
# Velocity S-wave (km/s) = 2.64600 3.38590 3.03856
# Velocity P-wave (km/s) = 3.91369 6.14420 5.15112
#
# Compressibility (1/GPa) = 0.07873116
#
# Stress axis : x y z
#
# Youngs Moduli (GPa) = 115.70367 59.47341 12.41107
#
# Poissons Ratio (x) = 0.27397 0.17783
# Poissons Ratio (y) = 0.53300 -0.06560
# Poissons Ratio (z) = 1.65783 -0.31434
#
# Static dielectric constant tensor:
#      x y z
#    x 1.791770 0.000000 0.000000 
#    y 0.000000 1.728370 0.000000 
#    z 0.000000 0.000000 1.847930 
# 
# From -- ./inp_files/8718.got.cif
#   From: 2010.05.17/outbox.cif.g08.bks.cpg/sg53_5_cif.got.tgz:8718.got - 2010.06.03 12:45:16.
