data_PCOD9415522
_publ_section_title
;
Structure prediction by ZEFSAII (Michael W. Deem and Ramdas Pophale) SiO2 
 PCOD9415522
Probable space group: P M N A
;
_chemical_formula_sum "Si O2"
_cell_formula_units_Z 48
_cell_length_a 9.283227
_cell_length_b 14.866901
_cell_length_c 18.873241
_cell_angle_alpha 90.000000
_cell_angle_beta 90.000000
_cell_angle_gamma 90.000000
_cell_volume 2604.749152
_symmetry_space_group_name_H-M "P M N A"
_symmetry_group_IT_number 53
_symmetry_cell_setting 'orthorhombic'
loop_
_space_group_symop_operation_xyz
x,y,z
1/2-x,-y,1/2+z
x,-y,-z
1/2-x,y,1/2-z
-x,-y,-z
1/2+x,y,1/2-z
-x,y,z
1/2+x,-y,1/2+z
loop_
_atom_site_type_symbol
_atom_site_label
_atom_site_fract_x
_atom_site_fract_y
_atom_site_fract_z
Si Si1 0.829401 0.720974 0.677795
Si Si2 0.336604 0.746060 0.541230
Si Si3 0.170293 0.647728 0.424158
Si Si4 0.329120 0.175666 0.825621
Si Si5 0.329218 0.507686 0.821781
Si Si6 0.165588 0.924283 0.054479
O O1 0.750000 0.747400 0.750000
O O2 0.757098 0.766105 0.610220
O O3 0.804009 0.613531 0.667437
O O4 0.000000 0.736138 0.682048
O O5 0.500000 0.721819 0.560997
O O6 0.260425 0.670383 0.493679
O O7 0.339922 0.833304 0.491457
O O8 0.189528 0.729112 0.367361
O O9 0.214719 0.555354 0.386633
O O10 0.000000 0.644363 0.441990
O O11 0.250000 0.178218 0.750000
O O12 0.500000 0.161632 0.816573
O O13 0.260011 0.099769 0.876924
O O14 0.250000 0.479789 0.750000
O O15 0.500000 0.494559 0.812181
O O16 0.000000 0.947913 0.074722
O O17 0.220473 0.000000 0.000000
#
# Coordination Sequence:
#
# PCOD9415522 Si02
#       6
#     8   8   8   8   8   8
#     4  10  20  35  53  72  98 132 170 210 248 288
#     4  10  20  34  53  76  99 126 162 203 250 300
#     4   9  18  32  49  72 102 135 168 202 244 292
#     4  10  19  31  51  78 107 136 166 202 245 296
#     4   9  18  31  48  70  98 134 172 208 245 285
#     4   9  19  37  58  77 100 130 164 205 252 301
#
# _framework density 18.427876999999999
#
# number of rings (size 3 to 8) (size 9 to 14) (size 15 to 20)
#    0.000    2.500    0.000    2.000    0.000    3.667 
#    0.000    4.167    0.000    0.000    0.000    0.000 
#    0.000    0.000    0.000    0.000    0.000    0.000 
#
# Total GULP energy -267772.967108 kJ/mol
# GULP energy per Si atom -5578.603481 kJ/mol
# Density = 1.838593 g / cm^3
# Si number density = 18.427877 Si / 1000 Ang^3
#
#
#
# Elastic Constant Matrix: (Units=GPa)
#
#
# Indices 1 2 3 4 5 6 
#
# 1 83.2537 7.9143 58.2798 0.0000 0.0000 0.0000
# 2 7.9143 -0.9827 -6.6750 0.0000 0.0000 0.0000
# 3 58.2798 -6.6750 96.5431 0.0000 0.0000 0.0000
# 4 0.0000 0.0000 0.0000 26.4306 0.0000 0.0000
# 5 0.0000 0.0000 0.0000 0.0000 36.3975 0.0000
# 6 0.0000 0.0000 0.0000 0.0000 0.0000 25.2494
#
#
#
# Elastic Compliance Matrix: (Units=1/GPa)
#
#
# Indices 1 2 3 4 5 6 
#
# 1 0.006810 0.056317 -0.000217 0.000000 0.000000 0.000000
# 2 0.056317 -0.226668 -0.049668 0.000000 0.000000 0.000000
# 3 -0.000217 -0.049668 0.007055 0.000000 0.000000 0.000000
# 4 0.000000 0.000000 0.000000 0.037835 0.000000 0.000000
# 5 0.000000 0.000000 0.000000 0.000000 0.027474 0.000000
# 6 0.000000 0.000000 0.000000 0.000000 0.000000 0.039605
#
#
# Mechanical properties :
#
#
# Convention : Reuss Voigt Hill
#
# Bulk Modulus (GPa) = -5.00150 33.09471 14.04661
# Shear Modulus (GPa) = -26.68119 25.56848 -0.55635
#
# Velocity S-wave (km/s) = -3.80922 3.72894 -0.55006
# Velocity P-wave (km/s) = 4.69754 6.04467 2.68991
#
# Compressibility (1/GPa) = -0.19994021
#
# Stress axis : x y z
#
# Youngs Moduli (GPa) = 146.84601 -4.41174 141.74146
#
# Poissons Ratio (x) = 0.24846 0.03078
# Poissons Ratio (y) = -8.26990 7.04006
# Poissons Ratio (z) = 0.03189 -0.21912
#
# Static dielectric constant tensor:
#      x y z
#    x 1.625880 0.000000 0.000000 
#    y 0.000000 1.644680 0.000000 
#    z 0.000000 0.000000 1.617490 
# 
# From -- ./inp_files/20173.got.cif
#   From: 2010.05.17/outbox.cif.g08.bks.cpg/sg53_11_cif.got.tgz:20173.got - 2010.06.03 12:45:16.
