data_PCOD9415929
_publ_section_title
;
Structure prediction by ZEFSAII (Michael W. Deem and Ramdas Pophale) SiO2 
 PCOD9415929
Probable space group: P M N A
;
_chemical_formula_sum "Si O2"
_cell_formula_units_Z 64
_cell_length_a 9.193359
_cell_length_b 12.004103
_cell_length_c 32.520099
_cell_angle_alpha 90.000000
_cell_angle_beta 90.000000
_cell_angle_gamma 90.000000
_cell_volume 3588.854007
_symmetry_space_group_name_H-M "P M N A"
_symmetry_group_IT_number 53
_symmetry_cell_setting 'orthorhombic'
loop_
_space_group_symop_operation_xyz
x,y,z
1/2-x,-y,1/2+z
x,-y,-z
1/2-x,y,1/2-z
-x,-y,-z
1/2+x,y,1/2-z
-x,y,z
1/2+x,-y,1/2+z
loop_
_atom_site_type_symbol
_atom_site_label
_atom_site_fract_x
_atom_site_fract_y
_atom_site_fract_z
Si Si1 0.825441 0.820368 0.207680
Si Si2 0.326918 0.443028 0.707980
Si Si3 0.329318 0.997330 0.951857
Si Si4 0.668293 0.565707 0.864531
Si Si5 0.326369 0.855559 0.382458
Si Si6 0.169475 0.740064 0.571519
Si Si7 0.667850 0.652042 0.083877
Si Si8 0.835419 0.633376 0.002455
O O1 0.750000 0.858029 0.250000
O O2 0.789321 0.688404 0.202314
O O3 0.783935 0.881811 0.165008
O O4 0.000000 0.828209 0.212150
O O5 0.250000 0.478614 0.750000
O O6 0.500000 0.450324 0.711236
O O7 0.269016 0.518967 0.671149
O O8 0.500000 0.030488 0.952396
O O9 0.244877 0.074155 0.919362
O O10 0.318750 0.871857 0.934514
O O11 0.279823 0.000000 0.000000
O O12 0.500000 0.563263 0.850632
O O13 0.700500 0.686094 0.884007
O O14 0.680692 0.475324 0.901446
O O15 0.500000 0.862400 0.385258
O O16 0.272006 0.729872 0.389640
O O17 0.278961 0.684606 0.539584
O O18 0.000000 0.709596 0.562260
O O19 0.500000 0.685525 0.088798
O O20 0.722077 0.665710 0.037617
O O21 0.000000 0.670761 0.012377
O O22 0.836901 0.500000 0.000000
#
# Coordination Sequence:
#
# PCOD9415929 Si02
#       8
#     8   8   8   8   8   8   8   8
#     4   9  19  33  52  81 114 146 178 221 276 335
#     4  10  19  33  53  79 115 150 181 222 273 335
#     4  10  22  40  60  82 108 147 198 243 286 339
#     4  10  20  33  52  79 109 145 183 224 274 328
#     4  11  22  37  57  83 115 146 185 235 286 335
#     4  10  21  38  57  78 109 145 188 234 273 329
#     4  11  21  33  52  77 108 146 186 222 269 330
#     4  11  22  33  49  76 110 143 178 223 273 324
#
# _framework density 17.832989999999999
#
# number of rings (size 3 to 8) (size 9 to 14) (size 15 to 20)
#    0.000    1.750    2.500    2.250    0.000    4.750 
#    0.000    0.000    0.000    0.750    0.000    1.750 
#    0.000    0.000    0.000    0.000    0.000    0.000 
#
# Total GULP energy -356981.422033 kJ/mol
# GULP energy per Si atom -5577.834719 kJ/mol
# Density = 1.779240 g / cm^3
# Si number density = 17.832990 Si / 1000 Ang^3
#
#
#
# Elastic Constant Matrix: (Units=GPa)
#
#
# Indices 1 2 3 4 5 6 
#
# 1 44.8738 22.3056 46.5427 0.0000 0.0000 0.0000
# 2 22.3056 52.2769 26.6742 0.0000 0.0000 0.0000
# 3 46.5427 26.6742 125.0719 0.0000 0.0000 0.0000
# 4 0.0000 0.0000 0.0000 25.1492 0.0000 0.0000
# 5 0.0000 0.0000 0.0000 0.0000 31.2547 0.0000
# 6 0.0000 0.0000 0.0000 0.0000 0.0000 8.3339
#
#
#
# Elastic Compliance Matrix: (Units=1/GPa)
#
#
# Indices 1 2 3 4 5 6 
#
# 1 0.041212 -0.010951 -0.013001 0.000000 0.000000 0.000000
# 2 -0.010951 0.024375 -0.001123 0.000000 0.000000 0.000000
# 3 -0.013001 -0.001123 0.013073 0.000000 0.000000 0.000000
# 4 0.000000 0.000000 0.000000 0.039763 0.000000 0.000000
# 5 0.000000 0.000000 0.000000 0.000000 0.031995 0.000000
# 6 0.000000 0.000000 0.000000 0.000000 0.000000 0.119992
#
#
# Mechanical properties :
#
#
# Convention : Reuss Voigt Hill
#
# Bulk Modulus (GPa) = 35.07540 45.91861 40.49701
# Shear Modulus (GPa) = 15.14861 21.39423 18.27142
#
# Velocity S-wave (km/s) = 2.91773 3.46743 3.20439
# Velocity P-wave (km/s) = 5.57337 6.46807 6.03731
#
# Compressibility (1/GPa) = 0.02851001
#
# Stress axis : x y z
#
# Youngs Moduli (GPa) = 24.26457 41.02627 76.49428
#
# Poissons Ratio (x) = 0.44928 0.99448
# Poissons Ratio (y) = 0.26572 0.08592
# Poissons Ratio (z) = 0.31546 0.04608
#
# Static dielectric constant tensor:
#      x y z
#    x 1.598270 0.000000 0.000000 
#    y 0.000000 1.609140 0.000000 
#    z 0.000000 0.000000 1.626460 
# 
# From -- ./inp_files/38179.got.cif
#   From: 2010.05.17/outbox.cif.g08.bks.cpg/sg53_20_cif.got.tgz:38179.got - 2010.06.03 12:45:16.
