data_PCOD9415425
_publ_section_title
;
Structure prediction by ZEFSAII (Michael W. Deem and Ramdas Pophale) SiO2 
 PCOD9415425
Probable space group: P M N A
;
_chemical_formula_sum "Si O2"
_cell_formula_units_Z 64
_cell_length_a 24.063833
_cell_length_b 7.630255
_cell_length_c 18.003243
_cell_angle_alpha 90.000000
_cell_angle_beta 90.000000
_cell_angle_gamma 90.000000
_cell_volume 3305.632735
_symmetry_space_group_name_H-M "P M N A"
_symmetry_group_IT_number 53
_symmetry_cell_setting 'orthorhombic'
loop_
_space_group_symop_operation_xyz
x,y,z
1/2-x,-y,1/2+z
x,-y,-z
1/2-x,y,1/2-z
-x,-y,-z
1/2+x,y,1/2-z
-x,y,z
1/2+x,-y,1/2+z
loop_
_atom_site_type_symbol
_atom_site_label
_atom_site_fract_x
_atom_site_fract_y
_atom_site_fract_z
Si Si1 0.062793 0.813962 0.463247
Si Si2 0.839256 0.772813 0.825905
Si Si3 0.645360 0.192140 0.831085
Si Si4 0.784100 0.481972 0.911464
Si Si5 0.821665 0.564822 0.680310
Si Si6 0.559565 0.663746 0.877918
Si Si7 0.563209 0.947896 0.751614
Si Si8 0.739032 0.897348 0.338903
O O1 0.105969 0.765608 0.400503
O O2 0.061222 0.689650 0.534407
O O3 0.000000 0.826977 0.432617
O O4 0.077217 0.000000 0.500000
O O5 0.832777 0.606407 0.879736
O O6 0.815534 0.699695 0.747304
O O7 0.902448 0.830051 0.807113
O O8 0.802617 0.939857 0.851377
O O9 0.673997 0.362608 0.795263
O O10 0.696433 0.076991 0.863455
O O11 0.605927 0.102680 0.770699
O O12 0.728156 0.569962 0.877600
O O13 0.782744 0.281846 0.879102
O O14 0.783038 0.500000 0.000000
O O15 0.882037 0.589943 0.646012
O O16 0.500000 0.574377 0.859517
O O17 0.558674 0.843342 0.829945
O O18 0.500000 0.992288 0.729578
O O19 0.750000 0.888234 0.250000
#
# Coordination Sequence:
#
# PCOD9415425 Si02
#       8
#     8   8   8   8   8   8   8   8
#     4  10  19  31  48  74 119 172 211 247 288 340
#     4  11  23  43  67  84 124 166 199 255 320 363
#     4  11  21  33  54  86 116 155 210 254 291 360
#     4  11  25  40  60  93 129 157 203 262 309 370
#     4  10  23  37  58  86 122 162 209 258 300 355
#     4   9  19  33  51  77 117 169 210 239 291 349
#     4  10  20  36  60  90 116 150 206 258 302 363
#     4  11  22  40  64  93 119 165 211 241 307 375
#
# _framework density 19.360893000000001
#
# number of rings (size 3 to 8) (size 9 to 14) (size 15 to 20)
#    0.000    1.625    2.500    3.000    5.250    1.500 
#    0.000    1.250    0.000    0.375    0.000    0.875 
#    0.000    0.000    0.000    0.000    0.000    0.000 
#
# Total GULP energy -356736.981853 kJ/mol
# GULP energy per Si atom -5574.015341 kJ/mol
# Density = 1.931683 g / cm^3
# Si number density = 19.360893 Si / 1000 Ang^3
#
#
#
# Elastic Constant Matrix: (Units=GPa)
#
#
# Indices 1 2 3 4 5 6 
#
# 1 105.9196 24.0249 21.4616 0.0000 0.0000 0.0000
# 2 24.0249 78.6174 23.6342 0.0000 0.0000 0.0000
# 3 21.4616 23.6342 73.2600 0.0000 0.0000 0.0000
# 4 0.0000 0.0000 0.0000 22.2576 0.0000 0.0000
# 5 0.0000 0.0000 0.0000 0.0000 18.0454 0.0000
# 6 0.0000 0.0000 0.0000 0.0000 0.0000 18.6811
#
#
#
# Elastic Compliance Matrix: (Units=1/GPa)
#
#
# Indices 1 2 3 4 5 6 
#
# 1 0.010470 -0.002522 -0.002254 0.000000 0.000000 0.000000
# 2 -0.002522 0.014693 -0.004001 0.000000 0.000000 0.000000
# 3 -0.002254 -0.004001 0.015601 0.000000 0.000000 0.000000
# 4 0.000000 0.000000 0.000000 0.044928 0.000000 0.000000
# 5 0.000000 0.000000 0.000000 0.000000 0.055416 0.000000
# 6 0.000000 0.000000 0.000000 0.000000 0.000000 0.053530
#
#
# Mechanical properties :
#
#
# Convention : Reuss Voigt Hill
#
# Bulk Modulus (GPa) = 43.08404 44.00426 43.54415
# Shear Modulus (GPa) = 22.73461 24.37526 23.55493
#
# Velocity S-wave (km/s) = 3.43046 3.55208 3.49180
# Velocity P-wave (km/s) = 6.16378 6.29292 6.22868
#
# Compressibility (1/GPa) = 0.02321045
#
# Stress axis : x y z
#
# Youngs Moduli (GPa) = 95.51289 68.05751 64.09831
#
# Poissons Ratio (x) = 0.17164 0.14445
# Poissons Ratio (y) = 0.24089 0.25648
# Poissons Ratio (z) = 0.21524 0.27232
#
# Static dielectric constant tensor:
#      x y z
#    x 1.797090 0.000000 0.000000 
#    y 0.000000 1.813750 0.000000 
#    z 0.000000 0.000000 1.675070 
# 
# From -- ./inp_files/29621.got.cif
#   From: 2010.05.17/outbox.cif.g08.bks.cpg/sg53_15_cif.got.tgz:29621.got - 2010.06.03 12:45:16.
