data_PCOD9415993
_publ_section_title
;
Structure prediction by ZEFSAII (Michael W. Deem and Ramdas Pophale) SiO2 
 PCOD9415993
Probable space group: P M N A
;
_chemical_formula_sum "Si O2"
_cell_formula_units_Z 64
_cell_length_a 7.709590
_cell_length_b 19.198278
_cell_length_c 21.031301
_cell_angle_alpha 90.000000
_cell_angle_beta 90.000000
_cell_angle_gamma 90.000000
_cell_volume 3112.860781
_symmetry_space_group_name_H-M "P M N A"
_symmetry_group_IT_number 53
_symmetry_cell_setting 'orthorhombic'
loop_
_space_group_symop_operation_xyz
x,y,z
1/2-x,-y,1/2+z
x,-y,-z
1/2-x,y,1/2-z
-x,-y,-z
1/2+x,y,1/2-z
-x,y,z
1/2+x,-y,1/2+z
loop_
_atom_site_type_symbol
_atom_site_label
_atom_site_fract_x
_atom_site_fract_y
_atom_site_fract_z
Si Si1 0.204726 0.795196 0.443784
Si Si2 0.287295 0.046946 0.939922
Si Si3 0.286581 0.703227 0.938157
Si Si4 0.706624 0.706924 0.322207
Si Si5 0.791785 0.797984 0.678163
Si Si6 0.791691 0.043442 0.321744
Si Si7 0.293330 0.451740 0.677702
Si Si8 0.705348 0.545148 0.941555
O O1 0.275198 0.873666 0.444909
O O2 0.272521 0.744884 0.499270
O O3 0.226108 0.758674 0.375790
O O4 0.000000 0.801864 0.456569
O O5 0.500000 0.048410 0.938895
O O6 0.228367 0.009005 0.875551
O O7 0.237036 0.000000 0.000000
O O8 0.500000 0.702283 0.937714
O O9 0.229492 0.745463 0.875776
O O10 0.225135 0.623604 0.938471
O O11 0.750000 0.727746 0.250000
O O12 0.500000 0.704867 0.328152
O O13 0.774110 0.627590 0.331695
O O14 0.750000 0.776031 0.750000
O O15 0.725786 0.877262 0.669188
O O16 0.000000 0.800987 0.672647
O O17 0.750000 0.021543 0.250000
O O18 0.000000 0.046388 0.327441
O O19 0.250000 0.472630 0.750000
O O20 0.500000 0.449613 0.671967
O O21 0.226751 0.503602 0.624038
O O22 0.500000 0.552497 0.953546
O O23 0.779056 0.500000 0.000000
#
# Coordination Sequence:
#
# PCOD9415993 Si02
#       8
#     8   8   8   8   8   8   8   8
#     4  10  19  33  55  79 104 137 175 215 258 305
#     4   9  17  30  51  78 103 131 172 215 252 296
#     4   9  18  32  51  75 102 134 171 209 252 303
#     4  10  21  37  56  78 105 136 171 212 257 309
#     4   9  17  31  50  71  98 132 169 208 250 299
#     4   9  17  30  49  72  98 129 164 204 248 294
#     4  10  21  37  57  79 104 136 173 214 261 313
#     4  10  20  34  53  77 106 138 172 212 257 308
#
# _framework density 20.559864999999999
#
# number of rings (size 3 to 8) (size 9 to 14) (size 15 to 20)
#    0.000    2.500    0.000    2.250    0.000    6.750 
#    0.000    5.000    0.000    3.000    0.000    0.000 
#    0.000    0.000    0.000    0.000    0.000    0.000 
#
# Total GULP energy -357352.501422 kJ/mol
# GULP energy per Si atom -5583.632835 kJ/mol
# Density = 2.051307 g / cm^3
# Si number density = 20.559865 Si / 1000 Ang^3
#
#
#
# Elastic Constant Matrix: (Units=GPa)
#
#
# Indices 1 2 3 4 5 6 
#
# 1 28.9593 0.2555 -12.9740 0.0000 0.0000 0.0000
# 2 0.2555 173.9894 134.2329 0.0000 0.0000 0.0000
# 3 -12.9740 134.2329 168.6389 0.0000 0.0000 0.0000
# 4 0.0000 0.0000 0.0000 41.3955 0.0000 0.0000
# 5 0.0000 0.0000 0.0000 0.0000 24.4465 0.0000
# 6 0.0000 0.0000 0.0000 0.0000 0.0000 14.5066
#
#
#
# Elastic Compliance Matrix: (Units=1/GPa)
#
#
# Indices 1 2 3 4 5 6 
#
# 1 0.038033 -0.005994 0.007697 0.000000 0.000000 0.000000
# 2 -0.005994 0.015838 -0.013068 0.000000 0.000000 0.000000
# 3 0.007697 -0.013068 0.016924 0.000000 0.000000 0.000000
# 4 0.000000 0.000000 0.000000 0.024157 0.000000 0.000000
# 5 0.000000 0.000000 0.000000 0.000000 0.040906 0.000000
# 6 0.000000 0.000000 0.000000 0.000000 0.000000 0.068934
#
#
# Mechanical properties :
#
#
# Convention : Reuss Voigt Hill
#
# Bulk Modulus (GPa) = 20.80532 68.29070 44.54801
# Shear Modulus (GPa) = 20.53020 32.74129 26.63575
#
# Velocity S-wave (km/s) = 3.16342 3.99493 3.60324
# Velocity P-wave (km/s) = 4.84607 7.38694 6.24705
#
# Compressibility (1/GPa) = 0.04806462
#
# Stress axis : x y z
#
# Youngs Moduli (GPa) = 26.29324 63.13786 59.08777
#
# Poissons Ratio (x) = 0.37847 -0.45482
# Poissons Ratio (y) = 0.15761 0.77217
# Poissons Ratio (z) = -0.20239 0.82510
#
# Static dielectric constant tensor:
#      x y z
#    x 1.765810 0.000000 0.000000 
#    y 0.000000 1.725890 0.000000 
#    z 0.000000 0.000000 1.695180 
# 
# From -- ./inp_files/31104.got.cif
#   From: 2010.05.17/outbox.cif.g08.bks.cpg/sg53_16_cif.got.tgz:31104.got - 2010.06.03 12:45:16.
