data_PCOD9415414
_publ_section_title
;
Structure prediction by ZEFSAII (Michael W. Deem and Ramdas Pophale) SiO2 
 PCOD9415414
Probable space group: P M N A
;
_chemical_formula_sum "Si O2"
_cell_formula_units_Z 64
_cell_length_a 8.665080
_cell_length_b 23.007334
_cell_length_c 18.125627
_cell_angle_alpha 90.000000
_cell_angle_beta 90.000000
_cell_angle_gamma 90.000000
_cell_volume 3613.532062
_symmetry_space_group_name_H-M "P M N A"
_symmetry_group_IT_number 53
_symmetry_cell_setting 'orthorhombic'
loop_
_space_group_symop_operation_xyz
x,y,z
1/2-x,-y,1/2+z
x,-y,-z
1/2-x,y,1/2-z
-x,-y,-z
1/2+x,y,1/2-z
-x,y,z
1/2+x,-y,1/2+z
loop_
_atom_site_type_symbol
_atom_site_label
_atom_site_fract_x
_atom_site_fract_y
_atom_site_fract_z
Si Si1 0.814443 0.255549 0.983310
Si Si2 0.813403 0.455204 0.172758
Si Si3 0.176165 0.953523 0.067136
Si Si4 0.313924 0.584416 0.369807
Si Si5 0.813439 0.617987 0.966520
Si Si6 0.816514 0.708536 0.327731
Si Si7 0.817661 0.136112 0.461817
Si Si8 0.814040 0.944255 0.831859
O O1 0.762954 0.315416 0.023140
O O2 0.753113 0.199368 0.025225
O O3 0.000000 0.254826 0.980963
O O4 0.752585 0.259690 0.899548
O O5 0.750000 0.433189 0.250000
O O6 0.766285 0.522501 0.162286
O O7 0.756774 0.416370 0.104553
O O8 0.000000 0.454505 0.172894
O O9 0.000000 0.933378 0.079928
O O10 0.231716 0.991932 0.136124
O O11 0.276905 0.901655 0.034862
O O12 0.170527 0.000000 0.000000
O O13 0.500000 0.591316 0.361504
O O14 0.278085 0.585465 0.457071
O O15 0.233720 0.640859 0.335881
O O16 0.000000 0.619197 0.961480
O O17 0.750000 0.730299 0.250000
O O18 0.000000 0.712933 0.328269
O O19 0.746303 0.102825 0.391143
O O20 0.000000 0.139223 0.452522
O O21 0.750000 0.934937 0.750000
O O22 0.000000 0.942466 0.832000
#
# Coordination Sequence:
#
# PCOD9415414 Si02
#       8
#     8   8   8   8   8   8   8   8
#     4  10  20  37  58  76  99 136 182 224 263 307
#     4  10  19  31  48  72 100 128 163 207 258 315
#     4   8  16  32  53  77 106 139 172 208 254 304
#     4   9  17  31  52  74  96 126 165 208 256 313
#     4   8  16  32  53  72  92 128 173 214 256 307
#     4  11  21  34  52  76 105 133 166 209 260 316
#     4  11  21  34  55  82 110 142 182 221 261 313
#     4  10  20  35  56  83 114 145 179 221 266 308
#
# _framework density 17.711203000000001
#
# number of rings (size 3 to 8) (size 9 to 14) (size 15 to 20)
#    0.000    2.375    0.000    5.250    0.000    5.750 
#    0.000    4.375    0.000    6.750    0.000    0.000 
#    0.000    0.000    0.000    0.000    0.000    0.000 
#
# Total GULP energy -356980.421595 kJ/mol
# GULP energy per Si atom -5577.819087 kJ/mol
# Density = 1.767089 g / cm^3
# Si number density = 17.711203 Si / 1000 Ang^3
#
#
#
# Elastic Constant Matrix: (Units=GPa)
#
#
# Indices 1 2 3 4 5 6 
#
# 1 64.0525 25.6470 30.3056 0.0000 0.0000 0.0000
# 2 25.6470 65.0213 48.7267 0.0000 0.0000 0.0000
# 3 30.3056 48.7267 118.9119 0.0000 0.0000 0.0000
# 4 0.0000 0.0000 0.0000 17.6661 0.0000 0.0000
# 5 0.0000 0.0000 0.0000 0.0000 28.0672 0.0000
# 6 0.0000 0.0000 0.0000 0.0000 0.0000 35.8591
#
#
#
# Elastic Compliance Matrix: (Units=1/GPa)
#
#
# Indices 1 2 3 4 5 6 
#
# 1 0.019068 -0.005599 -0.002565 0.000000 0.000000 0.000000
# 2 -0.005599 0.023839 -0.008342 0.000000 0.000000 0.000000
# 3 -0.002565 -0.008342 0.012482 0.000000 0.000000 0.000000
# 4 0.000000 0.000000 0.000000 0.056606 0.000000 0.000000
# 5 0.000000 0.000000 0.000000 0.000000 0.035629 0.000000
# 6 0.000000 0.000000 0.000000 0.000000 0.000000 0.027887
#
#
# Mechanical properties :
#
#
# Convention : Reuss Voigt Hill
#
# Bulk Modulus (GPa) = 44.68877 50.81604 47.75241
# Shear Modulus (GPa) = 23.15027 25.87224 24.51126
#
# Velocity S-wave (km/s) = 3.61930 3.82617 3.72417
# Velocity P-wave (km/s) = 6.53854 6.94789 6.74632
#
# Compressibility (1/GPa) = 0.02237699
#
# Stress axis : x y z
#
# Youngs Moduli (GPa) = 52.44474 41.94775 80.11779
#
# Poissons Ratio (x) = 0.23485 0.20554
# Poissons Ratio (y) = 0.29361 0.66832
# Poissons Ratio (z) = 0.13454 0.34992
#
# Static dielectric constant tensor:
#      x y z
#    x 1.601480 0.000000 0.000000 
#    y 0.000000 1.598970 0.000000 
#    z 0.000000 0.000000 1.603830 
# 
# From -- ./inp_files/20859.got.cif
#   From: 2010.05.17/outbox.cif.g08.bks.cpg/sg53_11_cif.got.tgz:20859.got - 2010.06.03 12:45:16.
