data_PCOD9415422
_publ_section_title
;
Structure prediction by ZEFSAII (Michael W. Deem and Ramdas Pophale) SiO2 
 PCOD9415422
Probable space group: P M N A
;
_chemical_formula_sum "Si O2"
_cell_formula_units_Z 48
_cell_length_a 8.651959
_cell_length_b 12.084966
_cell_length_c 26.543142
_cell_angle_alpha 90.000000
_cell_angle_beta 90.000000
_cell_angle_gamma 90.000000
_cell_volume 2775.314573
_symmetry_space_group_name_H-M "P M N A"
_symmetry_group_IT_number 53
_symmetry_cell_setting 'orthorhombic'
loop_
_space_group_symop_operation_xyz
x,y,z
1/2-x,-y,1/2+z
x,-y,-z
1/2-x,y,1/2-z
-x,-y,-z
1/2+x,y,1/2-z
-x,y,z
1/2+x,-y,1/2+z
loop_
_atom_site_type_symbol
_atom_site_label
_atom_site_fract_x
_atom_site_fract_y
_atom_site_fract_z
Si Si1 0.316538 0.293242 0.927097
Si Si2 0.684557 0.948394 0.445876
Si Si3 0.817558 0.356449 0.459805
Si Si4 0.815891 0.170766 0.107458
Si Si5 0.681131 0.507389 0.375200
Si Si6 0.815760 0.679747 0.693928
O O1 0.500000 0.298168 0.920064
O O2 0.262971 0.166826 0.931827
O O3 0.236208 0.367660 0.884572
O O4 0.281418 0.348272 0.981543
O O5 0.500000 0.929073 0.450080
O O6 0.734379 0.000000 0.500000
O O7 0.711316 0.042104 0.403613
O O8 0.776075 0.238835 0.435056
O O9 0.720646 0.442206 0.426911
O O10 0.000000 0.380998 0.453632
O O11 0.758951 0.223198 0.159713
O O12 0.000000 0.191138 0.101859
O O13 0.500000 0.502559 0.364940
O O14 0.769329 0.435816 0.333037
O O15 0.750000 0.683151 0.750000
O O16 0.000000 0.691034 0.693540
#
# Coordination Sequence:
#
# PCOD9415422 Si02
#       6
#     8   8   8   8   8   8
#     4  11  22  33  49  74 109 149 187 223 266 319
#     4  10  20  34  52  76 110 151 190 226 264 318
#     4  10  19  31  48  73 107 144 182 223 266 315
#     4  10  19  33  54  80 110 143 184 226 270 317
#     4  11  22  35  53  77 106 140 180 223 273 325
#     4  11  22  39  62  85 109 135 174 224 279 330
#
# _framework density 17.295337
#
# number of rings (size 3 to 8) (size 9 to 14) (size 15 to 20)
#    0.000    1.500    1.667    7.000    0.000    5.667 
#    0.000    0.000    0.000    1.000    0.000    2.333 
#    0.000    0.000    0.000    0.000    0.000    0.000 
#
# Total GULP energy -268012.919356 kJ/mol
# GULP energy per Si atom -5583.602487 kJ/mol
# Density = 1.725597 g / cm^3
# Si number density = 17.295337 Si / 1000 Ang^3
#
#
#
# Elastic Constant Matrix: (Units=GPa)
#
#
# Indices 1 2 3 4 5 6 
#
# 1 42.4149 10.9682 27.4695 0.0000 0.0000 0.0000
# 2 10.9682 66.4297 26.0529 0.0000 0.0000 0.0000
# 3 27.4695 26.0529 81.9543 0.0000 0.0000 0.0000
# 4 0.0000 0.0000 0.0000 9.2505 0.0000 0.0000
# 5 0.0000 0.0000 0.0000 0.0000 24.5119 0.0000
# 6 0.0000 0.0000 0.0000 0.0000 0.0000 -282.5686
#
#
#
# Elastic Compliance Matrix: (Units=1/GPa)
#
#
# Indices 1 2 3 4 5 6 
#
# 1 0.030192 -0.001161 -0.009751 0.000000 0.000000 0.000000
# 2 -0.001161 0.017242 -0.005092 0.000000 0.000000 0.000000
# 3 -0.009751 -0.005092 0.017089 0.000000 0.000000 0.000000
# 4 0.000000 0.000000 0.000000 0.108103 0.000000 0.000000
# 5 0.000000 0.000000 0.000000 0.000000 0.040796 0.000000
# 6 0.000000 0.000000 0.000000 0.000000 0.000000 -0.003539
#
#
# Mechanical properties :
#
#
# Convention : Reuss Voigt Hill
#
# Bulk Modulus (GPa) = 30.75446 35.53111 33.14278
# Shear Modulus (GPa) = 19.78404 -41.34069 -10.77832
#
# Velocity S-wave (km/s) = 3.38582 -4.89435 -2.49909
# Velocity P-wave (km/s) = 5.75374 3.36916 3.29806
#
# Compressibility (1/GPa) = 0.03251561
#
# Stress axis : x y z
#
# Youngs Moduli (GPa) = 33.12167 57.99710 58.51744
#
# Poissons Ratio (x) = 0.06733 0.57058
# Poissons Ratio (y) = 0.03845 0.29798
# Poissons Ratio (z) = 0.32296 0.29533
#
# Static dielectric constant tensor:
#      x y z
#    x 1.580820 0.000000 0.000000 
#    y 0.000000 1.607850 0.000000 
#    z 0.000000 0.000000 1.571680 
# 
# From -- ./inp_files/36157.got.cif
#   From: 2010.05.17/outbox.cif.g08.bks.cpg/sg53_19_cif.got.tgz:36157.got - 2010.06.03 12:45:16.
