data_PCOD9415375
_publ_section_title
;
Structure prediction by ZEFSAII (Michael W. Deem and Ramdas Pophale) SiO2 
 PCOD9415375
Probable space group: P M N A
;
_chemical_formula_sum "Si O2"
_cell_formula_units_Z 64
_cell_length_a 7.662567
_cell_length_b 20.862822
_cell_length_c 19.135656
_cell_angle_alpha 90.000000
_cell_angle_beta 90.000000
_cell_angle_gamma 90.000000
_cell_volume 3059.079000
_symmetry_space_group_name_H-M "P M N A"
_symmetry_group_IT_number 53
_symmetry_cell_setting 'orthorhombic'
loop_
_space_group_symop_operation_xyz
x,y,z
1/2-x,-y,1/2+z
x,-y,-z
1/2-x,y,1/2-z
-x,-y,-z
1/2+x,y,1/2-z
-x,y,z
1/2+x,-y,1/2+z
loop_
_atom_site_type_symbol
_atom_site_label
_atom_site_fract_x
_atom_site_fract_y
_atom_site_fract_z
Si Si1 0.214321 0.801135 0.582004
Si Si2 0.298755 0.036895 0.568031
Si Si3 0.705823 0.182204 0.924939
Si Si4 0.212876 0.439126 0.414044
Si Si5 0.289990 0.297941 0.831824
Si Si6 0.212890 0.416532 0.573140
Si Si7 0.791916 0.074335 0.331451
Si Si8 0.709224 0.679992 0.830076
O O1 0.276387 0.803514 0.502406
O O2 0.269657 0.863844 0.624979
O O3 0.273454 0.737550 0.621462
O O4 0.000000 0.801584 0.581657
O O5 0.500000 0.049363 0.550677
O O6 0.223768 0.106289 0.586260
O O7 0.220327 0.000000 0.500000
O O8 0.284385 0.988814 0.632711
O O9 0.500000 0.195362 0.928794
O O10 0.775015 0.231318 0.866663
O O11 0.262939 0.413927 0.491312
O O12 0.269411 0.512370 0.402954
O O13 0.274556 0.388519 0.357022
O O14 0.000000 0.440785 0.413738
O O15 0.250000 0.303114 0.750000
O O16 0.500000 0.298896 0.836558
O O17 0.226134 0.358223 0.878426
O O18 0.000000 0.415219 0.574336
O O19 0.750000 0.080303 0.250000
O O20 0.000000 0.070484 0.339147
O O21 0.750000 0.692149 0.750000
O O22 0.500000 0.679053 0.837479
#
# Coordination Sequence:
#
# PCOD9415375 Si02
#       8
#     8   8   8   8   8   8   8   8
#     4   9  18  33  55  78 102 136 180 221 262 314
#     4  11  23  39  59  85 113 141 177 224 273 327
#     4  10  20  37  60  81 102 139 185 226 267 318
#     4   8  14  26  49  76 103 133 178 227 265 306
#     4  10  21  35  54  79 110 143 181 226 274 326
#     4   8  14  28  50  77 102 134 178 227 268 307
#     4  11  22  37  58  83 112 145 180 222 271 327
#     4  10  19  31  47  73 106 139 171 212 260 313
#
# _framework density 20.921330000000001
#
# number of rings (size 3 to 8) (size 9 to 14) (size 15 to 20)
#    0.000    2.375    1.250    2.625    0.000    5.000 
#    0.000    2.500    0.000    2.250    0.000    1.750 
#    0.000    0.000    0.000    0.000    0.000    0.000 
#
# Total GULP energy -357296.941187 kJ/mol
# GULP energy per Si atom -5582.764706 kJ/mol
# Density = 2.087371 g / cm^3
# Si number density = 20.921330 Si / 1000 Ang^3
#
#
#
# Elastic Constant Matrix: (Units=GPa)
#
#
# Indices 1 2 3 4 5 6 
#
# 1 34.8878 9.3840 6.6329 0.0000 0.0000 0.0000
# 2 9.3840 140.5220 58.7700 0.0000 0.0000 0.0000
# 3 6.6329 58.7700 83.8747 0.0000 0.0000 0.0000
# 4 0.0000 0.0000 0.0000 23.1433 0.0000 0.0000
# 5 0.0000 0.0000 0.0000 0.0000 12.8915 0.0000
# 6 0.0000 0.0000 0.0000 0.0000 0.0000 -5.0495
#
#
#
# Elastic Compliance Matrix: (Units=1/GPa)
#
#
# Indices 1 2 3 4 5 6 
#
# 1 0.029293 -0.001397 -0.001338 0.000000 0.000000 0.000000
# 2 -0.001397 0.010133 -0.006989 0.000000 0.000000 0.000000
# 3 -0.001338 -0.006989 0.016926 0.000000 0.000000 0.000000
# 4 0.000000 0.000000 0.000000 0.043209 0.000000 0.000000
# 5 0.000000 0.000000 0.000000 0.000000 0.077570 0.000000
# 6 0.000000 0.000000 0.000000 0.000000 0.000000 -0.198038
#
#
# Mechanical properties :
#
#
# Convention : Reuss Voigt Hill
#
# Bulk Modulus (GPa) = 27.09747 45.42870 36.26308
# Shear Modulus (GPa) = 461.11517 18.49688 239.80603
#
# Velocity S-wave (km/s) = 14.86213 2.97663 10.71782
# Velocity P-wave (km/s) = 17.53541 5.79439 13.05882
#
# Compressibility (1/GPa) = 0.03690382
#
# Stress axis : x y z
#
# Youngs Moduli (GPa) = 34.13745 98.68965 59.08142
#
# Poissons Ratio (x) = 0.13783 0.07905
# Poissons Ratio (y) = 0.04768 0.41295
# Poissons Ratio (z) = 0.04567 0.68979
#
# Static dielectric constant tensor:
#      x y z
#    x 1.809420 0.000000 0.000000 
#    y 0.000000 1.743200 0.000000 
#    z 0.000000 0.000000 1.719840 
# 
# From -- ./inp_files/26808.got.cif
#   From: 2010.05.17/outbox.cif.g08.bks.cpg/sg53_14_cif.got.tgz:26808.got - 2010.06.03 12:45:16.
