data_PCOD9415236
_publ_section_title
;
Structure prediction by ZEFSAII (Michael W. Deem and Ramdas Pophale) SiO2 
 PCOD9415236
Probable space group: P M N A
;
_chemical_formula_sum "Si O2"
_cell_formula_units_Z 64
_cell_length_a 9.845748
_cell_length_b 15.755449
_cell_length_c 25.573254
_cell_angle_alpha 90.000000
_cell_angle_beta 90.000000
_cell_angle_gamma 90.000000
_cell_volume 3967.030069
_symmetry_space_group_name_H-M "P M N A"
_symmetry_group_IT_number 53
_symmetry_cell_setting 'orthorhombic'
loop_
_space_group_symop_operation_xyz
x,y,z
1/2-x,-y,1/2+z
x,-y,-z
1/2-x,y,1/2-z
-x,-y,-z
1/2+x,y,1/2-z
-x,y,z
1/2+x,-y,1/2+z
loop_
_atom_site_type_symbol
_atom_site_label
_atom_site_fract_x
_atom_site_fract_y
_atom_site_fract_z
Si Si1 0.844859 0.138919 0.569571
Si Si2 0.842836 0.956106 0.608587
Si Si3 0.336431 0.627598 0.526776
Si Si4 0.842617 0.012773 0.797977
Si Si5 0.844708 0.200185 0.838644
Si Si6 0.836365 0.449563 0.917441
Si Si7 0.157184 0.785215 0.544822
Si Si8 0.336010 0.388094 0.698777
O O1 0.749035 0.181932 0.611940
O O2 0.823089 0.176962 0.512955
O O3 0.000000 0.155455 0.585607
O O4 0.828496 0.036779 0.569807
O O5 0.730216 0.973594 0.651818
O O6 0.822989 0.864973 0.582864
O O7 0.000000 0.960414 0.628373
O O8 0.500000 0.637958 0.527120
O O9 0.304346 0.543660 0.561003
O O10 0.293003 0.611348 0.465917
O O11 0.259567 0.707736 0.550335
O O12 0.750000 0.986623 0.750000
O O13 0.000000 0.988977 0.793122
O O14 0.836684 0.115243 0.803991
O O15 0.812082 0.287166 0.809338
O O16 0.000000 0.208665 0.857182
O O17 0.793624 0.428692 0.857825
O O18 0.000000 0.442817 0.916245
O O19 0.000000 0.756986 0.549710
O O20 0.250000 0.415814 0.750000
O O21 0.500000 0.401335 0.705965
#
# Coordination Sequence:
#
# PCOD9415236 Si02
#       8
#     8   8   8   8   8   8   8   8
#     4   9  17  29  46  67  94 129 161 187 222 272
#     4   9  18  32  47  64  92 128 159 188 227 275
#     4   9  17  32  54  73  90 120 159 197 238 282
#     4  10  19  31  47  67  91 120 157 197 235 273
#     4   9  18  30  45  68  96 124 156 193 227 265
#     4   8  16  32  52  72  94 122 157 193 232 282
#     4  10  19  30  46  71  99 123 151 190 235 277
#     4  10  19  31  47  69  98 128 156 187 227 278
#
# _framework density 16.132975999999999
#
# number of rings (size 3 to 8) (size 9 to 14) (size 15 to 20)
#    0.000    2.750    0.000    2.625    0.000    4.500 
#    0.000    2.500    0.000    4.500    0.000    3.500 
#    0.000    0.000    0.000    0.000    0.000    0.000 
#
# Total GULP energy -356368.343759 kJ/mol
# GULP energy per Si atom -5568.255371 kJ/mol
# Density = 1.609626 g / cm^3
# Si number density = 16.132976 Si / 1000 Ang^3
#
#
#
# Elastic Constant Matrix: (Units=GPa)
#
#
# Indices 1 2 3 4 5 6 
#
# 1 61.5295 38.1154 41.7919 0.0000 0.0000 0.0000
# 2 38.1154 60.2419 25.8494 0.0000 0.0000 0.0000
# 3 41.7919 25.8494 72.2828 0.0000 0.0000 0.0000
# 4 0.0000 0.0000 0.0000 6.8832 0.0000 0.0000
# 5 0.0000 0.0000 0.0000 0.0000 15.4764 0.0000
# 6 0.0000 0.0000 0.0000 0.0000 0.0000 24.6328
#
#
#
# Elastic Compliance Matrix: (Units=1/GPa)
#
#
# Indices 1 2 3 4 5 6 
#
# 1 0.037258 -0.016928 -0.015488 0.000000 0.000000 0.000000
# 2 -0.016928 0.027300 0.000024 0.000000 0.000000 0.000000
# 3 -0.015488 0.000024 0.022781 0.000000 0.000000 0.000000
# 4 0.000000 0.000000 0.000000 0.145281 0.000000 0.000000
# 5 0.000000 0.000000 0.000000 0.000000 0.064615 0.000000
# 6 0.000000 0.000000 0.000000 0.000000 0.000000 0.040596
#
#
# Mechanical properties :
#
#
# Convention : Reuss Voigt Hill
#
# Bulk Modulus (GPa) = 44.33482 45.06306 44.69894
# Shear Modulus (GPa) = 12.19121 15.28498 13.73810
#
# Velocity S-wave (km/s) = 2.75193 3.08139 2.92131
# Velocity P-wave (km/s) = 6.13498 6.37596 6.25663
#
# Compressibility (1/GPa) = 0.02255564
#
# Stress axis : x y z
#
# Youngs Moduli (GPa) = 26.83970 36.63062 43.89700
#
# Poissons Ratio (x) = 0.62007 0.67988
# Poissons Ratio (y) = 0.45433 -0.00107
# Poissons Ratio (z) = 0.41569 -0.00089
#
# Static dielectric constant tensor:
#      x y z
#    x 1.536730 0.000000 0.000000 
#    y 0.000000 1.538990 0.000000 
#    z 0.000000 0.000000 1.550030 
# 
# From -- ./inp_files/34155.got.cif
#   From: 2010.05.17/outbox.cif.g08.bks.cpg/sg53_18_cif.got.tgz:34155.got - 2010.06.03 12:45:16.
