data_PCOD9415672
_publ_section_title
;
Structure prediction by ZEFSAII (Michael W. Deem and Ramdas Pophale) SiO2 
 PCOD9415672
Probable space group: P M N A
;
_chemical_formula_sum "Si O2"
_cell_formula_units_Z 56
_cell_length_a 8.484046
_cell_length_b 16.030689
_cell_length_c 23.836379
_cell_angle_alpha 90.000000
_cell_angle_beta 90.000000
_cell_angle_gamma 90.000000
_cell_volume 3241.869178
_symmetry_space_group_name_H-M "P M N A"
_symmetry_group_IT_number 53
_symmetry_cell_setting 'orthorhombic'
loop_
_space_group_symop_operation_xyz
x,y,z
1/2-x,-y,1/2+z
x,-y,-z
1/2-x,y,1/2-z
-x,-y,-z
1/2+x,y,1/2-z
-x,y,z
1/2+x,-y,1/2+z
loop_
_atom_site_type_symbol
_atom_site_label
_atom_site_fract_x
_atom_site_fract_y
_atom_site_fract_z
Si Si1 0.189330 0.825138 0.685901
Si Si2 0.309134 0.809339 0.186038
Si Si3 0.309822 0.403733 0.493871
Si Si4 0.689899 0.007714 0.813811
Si Si5 0.811170 0.660745 0.872375
Si Si6 0.811220 0.499102 0.688380
Si Si7 0.190462 0.345773 0.610476
O O1 0.250000 0.816186 0.750000
O O2 0.240093 0.917127 0.663513
O O3 0.251122 0.749741 0.648537
O O4 0.000000 0.822296 0.687436
O O5 0.250000 0.798445 0.250000
O O6 0.500000 0.807346 0.188034
O O7 0.256220 0.735021 0.145511
O O8 0.259385 0.901459 0.164048
O O9 0.255159 0.500000 0.500000
O O10 0.500000 0.404896 0.493768
O O11 0.256607 0.364734 0.434875
O O12 0.252474 0.352585 0.547563
O O13 0.750000 0.007623 0.750000
O O14 0.500000 0.007718 0.814312
O O15 0.751903 0.588570 0.830812
O O16 0.000000 0.660847 0.871809
O O17 0.750000 0.477792 0.750000
O O18 0.758667 0.428662 0.644215
O O19 0.000000 0.500870 0.689027
O O20 0.000000 0.344993 0.609149
#
# Coordination Sequence:
#
# PCOD9415672 Si02
#       7
#     8   8   8   8   8   8   8
#     4  10  19  32  51  77 105 134 166 203 249 298
#     4   9  17  31  50  77 107 135 166 201 246 297
#     4  10  21  38  56  72  93 128 173 214 254 297
#     4   8  15  28  48  72 102 134 164 199 241 294
#     4  11  22  36  53  72  97 130 167 210 252 296
#     4  11  22  34  49  73 103 134 163 198 245 296
#     4  10  21  34  52  76 102 131 166 208 248 291
#
# _framework density 17.273985
#
# number of rings (size 3 to 8) (size 9 to 14) (size 15 to 20)
#    0.000    2.143    1.429    2.143    0.000    3.143 
#    0.000    0.000    0.000    0.857    0.000    6.000 
#    0.000    0.000    0.000    0.000    0.000    0.000 
#
# Total GULP energy -312285.769397 kJ/mol
# GULP energy per Si atom -5576.531596 kJ/mol
# Density = 1.723467 g / cm^3
# Si number density = 17.273985 Si / 1000 Ang^3
#
#
#
# Elastic Constant Matrix: (Units=GPa)
#
#
# Indices 1 2 3 4 5 6 
#
# 1 18.3896 14.9875 8.6481 0.0000 0.0000 0.0000
# 2 14.9875 124.8813 22.4444 0.0000 0.0000 0.0000
# 3 8.6481 22.4444 67.3959 0.0000 0.0000 0.0000
# 4 0.0000 0.0000 0.0000 12.1263 0.0000 0.0000
# 5 0.0000 0.0000 0.0000 0.0000 26.3228 0.0000
# 6 0.0000 0.0000 0.0000 0.0000 0.0000 3.9525
#
#
#
# Elastic Compliance Matrix: (Units=1/GPa)
#
#
# Indices 1 2 3 4 5 6 
#
# 1 0.062378 -0.006433 -0.005862 0.000000 0.000000 0.000000
# 2 -0.006433 0.009181 -0.002232 0.000000 0.000000 0.000000
# 3 -0.005862 -0.002232 0.016333 0.000000 0.000000 0.000000
# 4 0.000000 0.000000 0.000000 0.082465 0.000000 0.000000
# 5 0.000000 0.000000 0.000000 0.000000 0.037990 0.000000
# 6 0.000000 0.000000 0.000000 0.000000 0.000000 0.253003
#
#
# Mechanical properties :
#
#
# Convention : Reuss Voigt Hill
#
# Bulk Modulus (GPa) = 16.99563 33.64742 25.32152
# Shear Modulus (GPa) = 9.80360 19.45278 14.62819
#
# Velocity S-wave (km/s) = 2.38489 3.35943 2.91320
# Velocity P-wave (km/s) = 4.17658 5.87951 5.09963
#
# Compressibility (1/GPa) = 0.05883866
#
# Stress axis : x y z
#
# Youngs Moduli (GPa) = 16.03132 108.92346 61.22504
#
# Poissons Ratio (x) = 0.70067 0.35890
# Poissons Ratio (y) = 0.10312 0.13665
# Poissons Ratio (z) = 0.09397 0.24312
#
# Static dielectric constant tensor:
#      x y z
#    x 1.588200 0.000000 0.000000 
#    y 0.000000 1.620300 0.000000 
#    z 0.000000 0.000000 1.546420 
# 
# From -- ./inp_files/30859.got.cif
#   From: 2010.05.17/outbox.cif.g08.bks.cpg/sg53_16_cif.got.tgz:30859.got - 2010.06.03 12:45:16.
