data_PCOD9415416
_publ_section_title
;
Structure prediction by ZEFSAII (Michael W. Deem and Ramdas Pophale) SiO2 
 PCOD9415416
Probable space group: P M N A
;
_chemical_formula_sum "Si O2"
_cell_formula_units_Z 48
_cell_length_a 9.278254
_cell_length_b 14.068718
_cell_length_c 21.609877
_cell_angle_alpha 90.000000
_cell_angle_beta 90.000000
_cell_angle_gamma 90.000000
_cell_volume 2820.805079
_symmetry_space_group_name_H-M "P M N A"
_symmetry_group_IT_number 53
_symmetry_cell_setting 'orthorhombic'
loop_
_space_group_symop_operation_xyz
x,y,z
1/2-x,-y,1/2+z
x,-y,-z
1/2-x,y,1/2-z
-x,-y,-z
1/2+x,y,1/2-z
-x,y,z
1/2+x,-y,1/2+z
loop_
_atom_site_type_symbol
_atom_site_label
_atom_site_fract_x
_atom_site_fract_y
_atom_site_fract_z
Si Si1 0.829413 0.284562 0.812501
Si Si2 0.673904 0.416250 0.450389
Si Si3 0.836561 0.855426 0.398474
Si Si4 0.833706 0.036256 0.071843
Si Si5 0.664774 0.217313 0.039044
Si Si6 0.670988 0.509765 0.686700
O O1 0.750000 0.254917 0.750000
O O2 0.760357 0.223509 0.866337
O O3 0.802328 0.396851 0.820856
O O4 0.000000 0.270287 0.808677
O O5 0.709473 0.500000 0.500000
O O6 0.500000 0.402691 0.454193
O O7 0.756649 0.318678 0.464194
O O8 0.710486 0.444601 0.379401
O O9 0.843624 0.826275 0.470258
O O10 0.000000 0.856669 0.374139
O O11 0.760350 0.957365 0.393207
O O12 0.759032 0.139111 0.075395
O O13 0.000000 0.039118 0.091989
O O14 0.834636 0.000000 0.000000
O O15 0.500000 0.226129 0.062183
O O16 0.750000 0.541133 0.750000
O O17 0.500000 0.523397 0.695435
#
# Coordination Sequence:
#
# PCOD9415416 Si02
#       6
#     8   8   8   8   8   8
#     4  10  19  32  50  72  98 129 166 205 248 297
#     4  10  20  34  52  75 103 134 171 214 257 302
#     4  10  19  31  48  72 102 131 161 200 247 298
#     4   9  17  30  49  71  95 127 163 196 238 296
#     4  10  20  32  48  73 103 132 163 204 252 298
#     4   9  19  34  52  73  99 134 172 210 251 300
#
# _framework density 17.016418000000002
#
# number of rings (size 3 to 8) (size 9 to 14) (size 15 to 20)
#    0.000    2.333    0.000    3.000    0.000    7.000 
#    0.000    0.000    0.000    1.000    0.000    4.667 
#    0.000    0.000    0.000    0.000    0.000    0.000 
#
# Total GULP energy -267537.029096 kJ/mol
# GULP energy per Si atom -5573.688106 kJ/mol
# Density = 1.697769 g / cm^3
# Si number density = 17.016418 Si / 1000 Ang^3
#
#
#
# Elastic Constant Matrix: (Units=GPa)
#
#
# Indices 1 2 3 4 5 6 
#
# 1 94.4120 65.7488 21.4090 0.0000 0.0000 0.0000
# 2 65.7488 100.3287 25.5265 0.0000 0.0000 0.0000
# 3 21.4090 25.5265 43.2738 0.0000 0.0000 0.0000
# 4 0.0000 0.0000 0.0000 9.4477 0.0000 0.0000
# 5 0.0000 0.0000 0.0000 0.0000 26.3894 0.0000
# 6 0.0000 0.0000 0.0000 0.0000 0.0000 19.9287
#
#
#
# Elastic Compliance Matrix: (Units=1/GPa)
#
#
# Indices 1 2 3 4 5 6 
#
# 1 0.019713 -0.012280 -0.002509 0.000000 0.000000 0.000000
# 2 -0.012280 0.019377 -0.005355 0.000000 0.000000 0.000000
# 3 -0.002509 -0.005355 0.027509 0.000000 0.000000 0.000000
# 4 0.000000 0.000000 0.000000 0.105846 0.000000 0.000000
# 5 0.000000 0.000000 0.000000 0.000000 0.037894 0.000000
# 6 0.000000 0.000000 0.000000 0.000000 0.000000 0.050179
#
#
# Mechanical properties :
#
#
# Convention : Reuss Voigt Hill
#
# Bulk Modulus (GPa) = 38.00682 51.48701 44.74691
# Shear Modulus (GPa) = 16.15116 19.50850 17.82983
#
# Velocity S-wave (km/s) = 3.08417 3.38960 3.24049
# Velocity P-wave (km/s) = 5.92171 6.75590 6.35251
#
# Compressibility (1/GPa) = 0.02631106
#
# Stress axis : x y z
#
# Youngs Moduli (GPa) = 50.72896 51.60691 36.35222
#
# Poissons Ratio (x) = 0.63374 0.09120
# Poissons Ratio (y) = 0.62295 0.19467
# Poissons Ratio (z) = 0.12726 0.27635
#
# Static dielectric constant tensor:
#      x y z
#    x 1.578840 0.000000 0.000000 
#    y 0.000000 1.555200 0.000000 
#    z 0.000000 0.000000 1.621880 
# 
# From -- ./inp_files/33854.got.cif
#   From: 2010.05.17/outbox.cif.g08.bks.cpg/sg53_17_cif.got.tgz:33854.got - 2010.06.03 12:45:16.
