data_PCOD9415157
_publ_section_title
;
Structure prediction by ZEFSAII (Michael W. Deem and Ramdas Pophale) SiO2 
 PCOD9415157
Probable space group: P M N A
;
_chemical_formula_sum "Si O2"
_cell_formula_units_Z 48
_cell_length_a 26.098221
_cell_length_b 22.487932
_cell_length_c 5.130716
_cell_angle_alpha 90.000000
_cell_angle_beta 90.000000
_cell_angle_gamma 90.000000
_cell_volume 3011.191665
_symmetry_space_group_name_H-M "P M N A"
_symmetry_group_IT_number 53
_symmetry_cell_setting 'orthorhombic'
loop_
_space_group_symop_operation_xyz
x,y,z
1/2-x,-y,1/2+z
x,-y,-z
1/2-x,y,1/2-z
-x,-y,-z
1/2+x,y,1/2-z
-x,y,z
1/2+x,-y,1/2+z
loop_
_atom_site_type_symbol
_atom_site_label
_atom_site_fract_x
_atom_site_fract_y
_atom_site_fract_z
Si Si1 0.688092 0.326695 0.759351
Si Si2 0.345743 0.121910 0.162671
Si Si3 0.694201 0.059819 0.637832
Si Si4 0.058654 0.042117 0.252560
Si Si5 0.312487 0.462359 0.747915
Si Si6 0.312069 0.252231 0.254925
O O1 0.750000 0.329153 0.750000
O O2 0.669538 0.394243 0.728997
O O3 0.673527 0.279350 0.535718
O O4 0.675405 0.302124 0.042543
O O5 0.306121 0.103586 0.392343
O O6 0.400222 0.094941 0.252252
O O7 0.340558 0.192552 0.163906
O O8 0.333425 0.090455 0.885114
O O9 0.750000 0.044869 0.750000
O O10 0.672875 0.000000 0.500000
O O11 0.000000 0.063928 0.277232
O O12 0.069790 0.000000 0.500000
O O13 0.060854 0.000000 0.000000
O O14 0.328565 0.500000 0.500000
O O15 0.250000 0.460137 0.750000
O O16 0.328052 0.500000 0.000000
O O17 0.250000 0.241757 0.250000
#
# Coordination Sequence:
#
# PCOD9415157 Si02
#       6
#     8   8   8   8   8   8
#     4   9  17  28  40  56  83 115 148 184 215 245
#     4  12  22  34  51  68  89 118 152 183 224 277
#     4  12  23  34  47  67  92 117 145 183 226 268
#     4  10  21  37  55  72  88 108 141 189 240 283
#     4   9  15  23  37  56  76 104 146 189 219 241
#     4  10  19  30  42  59  85 118 149 176 209 258
#
# _framework density 15.940533
#
# number of rings (size 3 to 8) (size 9 to 14) (size 15 to 20)
#    0.000    1.667    0.000    7.500    0.000    5.333 
#    0.000    0.000    0.000    0.000    0.000    0.000 
#    0.000    0.000    0.000    0.000    0.000   16.667 
#
# Total GULP energy -267561.216305 kJ/mol
# GULP energy per Si atom -5574.192006 kJ/mol
# Density = 1.590425 g / cm^3
# Si number density = 15.940533 Si / 1000 Ang^3
#
#
#
# Elastic Constant Matrix: (Units=GPa)
#
#
# Indices 1 2 3 4 5 6 
#
# 1 46.4802 27.9302 9.0542 0.0000 0.0000 0.0000
# 2 27.9302 108.3334 30.3630 0.0000 0.0000 0.0000
# 3 9.0542 30.3630 108.7623 0.0000 0.0000 0.0000
# 4 0.0000 0.0000 0.0000 21.3582 0.0000 0.0000
# 5 0.0000 0.0000 0.0000 0.0000 19.4907 0.0000
# 6 0.0000 0.0000 0.0000 0.0000 0.0000 6.1480
#
#
#
# Elastic Compliance Matrix: (Units=1/GPa)
#
#
# Indices 1 2 3 4 5 6 
#
# 1 0.025468 -0.006479 -0.000311 0.000000 0.000000 0.000000
# 2 -0.006479 0.011662 -0.002716 0.000000 0.000000 0.000000
# 3 -0.000311 -0.002716 0.009979 0.000000 0.000000 0.000000
# 4 0.000000 0.000000 0.000000 0.046820 0.000000 0.000000
# 5 0.000000 0.000000 0.000000 0.000000 0.051307 0.000000
# 6 0.000000 0.000000 0.000000 0.000000 0.000000 0.162655
#
#
# Mechanical properties :
#
#
# Convention : Reuss Voigt Hill
#
# Bulk Modulus (GPa) = 35.59241 44.25232 39.92236
# Shear Modulus (GPa) = 14.86897 22.48127 18.67512
#
# Velocity S-wave (km/s) = 3.05745 3.75950 3.42650
# Velocity P-wave (km/s) = 5.90261 6.83127 6.38385
#
# Compressibility (1/GPa) = 0.02809588
#
# Stress axis : x y z
#
# Youngs Moduli (GPa) = 39.26434 85.74503 100.21405
#
# Poissons Ratio (x) = 0.55553 0.03122
# Poissons Ratio (y) = 0.25439 0.27223
# Poissons Ratio (z) = 0.01223 0.23292
#
# Static dielectric constant tensor:
#      x y z
#    x 1.528350 0.000000 0.000000 
#    y 0.000000 1.594140 0.000000 
#    z 0.000000 0.000000 1.543930 
# 
# From -- ./inp_files/4584.got.cif
#   From: 2010.05.17/outbox.cif.g08.bks.cpg/sg53_3_cif.got.tgz:4584.got - 2010.06.03 12:45:16.
