data_PCOD9415588
_publ_section_title
;
Structure prediction by ZEFSAII (Michael W. Deem and Ramdas Pophale) SiO2 
 PCOD9415588
Probable space group: P M N A
;
_chemical_formula_sum "Si O2"
_cell_formula_units_Z 64
_cell_length_a 8.542244
_cell_length_b 17.088271
_cell_length_c 24.418400
_cell_angle_alpha 90.000000
_cell_angle_beta 90.000000
_cell_angle_gamma 90.000000
_cell_volume 3564.407090
_symmetry_space_group_name_H-M "P M N A"
_symmetry_group_IT_number 53
_symmetry_cell_setting 'orthorhombic'
loop_
_space_group_symop_operation_xyz
x,y,z
1/2-x,-y,1/2+z
x,-y,-z
1/2-x,y,1/2-z
-x,-y,-z
1/2+x,y,1/2-z
-x,y,z
1/2+x,-y,1/2+z
loop_
_atom_site_type_symbol
_atom_site_label
_atom_site_fract_x
_atom_site_fract_y
_atom_site_fract_z
Si Si1 0.813979 0.377143 0.689040
Si Si2 0.684290 0.458223 0.586198
Si Si3 0.185256 0.306899 0.526975
Si Si4 0.187139 0.730604 0.688185
Si Si5 0.687841 0.895610 0.687727
Si Si6 0.811291 0.067449 0.812122
Si Si7 0.313124 0.225254 0.628887
Si Si8 0.689081 0.370025 0.086191
O O1 0.750000 0.383938 0.750000
O O2 0.729768 0.437928 0.648641
O O3 0.771021 0.291657 0.665110
O O4 0.000000 0.388436 0.687107
O O5 0.500000 0.447758 0.577382
O O6 0.774863 0.392968 0.551049
O O7 0.735343 0.546220 0.574510
O O8 0.500000 0.379153 0.085941
O O9 0.271703 0.245636 0.566271
O O10 0.229369 0.311039 0.463290
O O11 0.250000 0.719807 0.750000
O O12 0.242031 0.815177 0.665439
O O13 0.237237 0.664755 0.644849
O O14 0.000000 0.730787 0.691154
O O15 0.750000 0.897442 0.750000
O O16 0.500000 0.889588 0.687406
O O17 0.734690 0.981287 0.665679
O O18 0.750000 0.077353 0.750000
O O19 0.763462 0.140018 0.849907
O O20 0.000000 0.067802 0.809042
O O21 0.500000 0.233420 0.636484
O O22 0.500000 0.293862 0.968103
#
# Coordination Sequence:
#
# PCOD9415588 Si02
#       8
#     8   8   8   8   8   8   8   8
#     4  11  21  34  50  70 101 138 171 204 248 298
#     4  11  22  35  53  77 101 128 166 210 253 297
#     4  10  20  36  55  73  97 132 169 206 251 296
#     4  10  20  35  54  77 103 130 160 199 248 298
#     4   9  16  29  48  72 101 132 164 198 241 291
#     4   9  18  29  46  73 104 135 166 202 243 290
#     4  10  19  32  49  73 103 133 168 209 249 291
#     4  10  22  38  55  74  99 130 165 206 251 299
#
# _framework density 17.955300000000001
#
# number of rings (size 3 to 8) (size 9 to 14) (size 15 to 20)
#    0.000    2.000    0.000    6.750    0.000    6.500 
#    0.000    1.250    0.000    0.750    0.000    5.250 
#    0.000    0.000    0.000    0.000    0.000    0.000 
#
# Total GULP energy -357051.893464 kJ/mol
# GULP energy per Si atom -5578.935835 kJ/mol
# Density = 1.791443 g / cm^3
# Si number density = 17.955300 Si / 1000 Ang^3
#
#
#
# Elastic Constant Matrix: (Units=GPa)
#
#
# Indices 1 2 3 4 5 6 
#
# 1 23.5158 -0.2991 0.1997 0.0000 0.0000 0.0000
# 2 -0.2991 48.1111 1.5926 0.0000 0.0000 0.0000
# 3 0.1997 1.5926 65.3024 0.0000 0.0000 0.0000
# 4 0.0000 0.0000 0.0000 15.7452 0.0000 0.0000
# 5 0.0000 0.0000 0.0000 0.0000 18.6341 0.0000
# 6 0.0000 0.0000 0.0000 0.0000 0.0000 50.8898
#
#
#
# Elastic Compliance Matrix: (Units=1/GPa)
#
#
# Indices 1 2 3 4 5 6 
#
# 1 0.042529 0.000269 -0.000137 0.000000 0.000000 0.000000
# 2 0.000269 0.020804 -0.000508 0.000000 0.000000 0.000000
# 3 -0.000137 -0.000508 0.015326 0.000000 0.000000 0.000000
# 4 0.000000 0.000000 0.000000 0.063511 0.000000 0.000000
# 5 0.000000 0.000000 0.000000 0.000000 0.053665 0.000000
# 6 0.000000 0.000000 0.000000 0.000000 0.000000 0.019650
#
#
# Mechanical properties :
#
#
# Convention : Reuss Voigt Hill
#
# Bulk Modulus (GPa) = 12.83576 15.54618 14.19097
# Shear Modulus (GPa) = 20.64353 26.08289 23.36321
#
# Velocity S-wave (km/s) = 3.39443 3.81551 3.61111
# Velocity P-wave (km/s) = 4.74627 5.29980 5.03065
#
# Compressibility (1/GPa) = 0.07790736
#
# Stress axis : x y z
#
# Youngs Moduli (GPa) = 23.51327 48.06831 65.24779
#
# Poissons Ratio (x) = -0.01293 0.00891
# Poissons Ratio (y) = -0.00632 0.03316
# Poissons Ratio (z) = 0.00321 0.02443
#
# Static dielectric constant tensor:
#      x y z
#    x 1.605030 0.000000 0.000000 
#    y 0.000000 1.634780 0.000000 
#    z 0.000000 0.000000 1.611720 
# 
# From -- ./inp_files/31107.got.cif
#   From: 2010.05.17/outbox.cif.g08.bks.cpg/sg53_16_cif.got.tgz:31107.got - 2010.06.03 12:45:16.
