data_PCOD9415518
_publ_section_title
;
Structure prediction by ZEFSAII (Michael W. Deem and Ramdas Pophale) SiO2 
 PCOD9415518
Probable space group: P M N A
;
_chemical_formula_sum "Si O2"
_cell_formula_units_Z 48
_cell_length_a 14.420936
_cell_length_b 28.356065
_cell_length_c 5.343680
_cell_angle_alpha 90.000000
_cell_angle_beta 90.000000
_cell_angle_gamma 90.000000
_cell_volume 2185.142962
_symmetry_space_group_name_H-M "P M N A"
_symmetry_group_IT_number 53
_symmetry_cell_setting 'orthorhombic'
loop_
_space_group_symop_operation_xyz
x,y,z
1/2-x,-y,1/2+z
x,-y,-z
1/2-x,y,1/2-z
-x,-y,-z
1/2+x,y,1/2-z
-x,y,z
1/2+x,-y,1/2+z
loop_
_atom_site_type_symbol
_atom_site_label
_atom_site_fract_x
_atom_site_fract_y
_atom_site_fract_z
Si Si1 0.859974 0.475553 0.753667
Si Si2 0.389745 0.847646 0.385183
Si Si3 0.888914 0.365363 0.859144
Si Si4 0.386075 0.796132 0.881095
Si Si5 0.312436 0.948658 0.497804
Si Si6 0.886376 0.313221 0.364139
O O1 0.896012 0.500000 0.500000
O O2 0.750000 0.484370 0.750000
O O3 0.872011 0.419992 0.796506
O O4 0.898797 0.500000 0.000000
O O5 0.500000 0.840766 0.376273
O O6 0.353815 0.818515 0.621491
O O7 0.371565 0.902103 0.449000
O O8 0.354728 0.827008 0.120546
O O9 0.854048 0.337107 0.619343
O O10 0.000000 0.359646 0.867531
O O11 0.855333 0.342984 0.120856
O O12 0.500000 0.797175 0.883089
O O13 0.359047 0.741427 0.877099
O O14 0.250000 0.943436 0.750000
O O15 0.361648 0.000000 0.500000
O O16 0.250000 0.951385 0.250000
O O17 0.000000 0.314062 0.361586
#
# Coordination Sequence:
#
# PCOD9415518 Si02
#       6
#     8   8   8   8   8   8
#     4  10  21  36  52  70  95 129 164 199 246 299
#     4  10  19  32  54  81 104 133 176 221 258 297
#     4  10  19  31  51  76  99 127 163 203 244 287
#     4   9  17  30  50  77 107 135 166 208 257 306
#     4  10  21  37  55  75 104 143 178 211 263 323
#     4   9  17  30  49  75 104 131 161 199 246 298
#
# _framework density 21.966526999999999
#
# number of rings (size 3 to 8) (size 9 to 14) (size 15 to 20)
#    0.000    2.333    0.000    3.000    0.000    5.000 
#    0.000    0.000    0.000   16.000    0.000    0.000 
#    0.000    0.000    0.000    0.000    0.000    0.000 
#
# Total GULP energy -268026.438097 kJ/mol
# GULP energy per Si atom -5583.884127 kJ/mol
# Density = 2.191653 g / cm^3
# Si number density = 21.966527 Si / 1000 Ang^3
#
#
#
# Elastic Constant Matrix: (Units=GPa)
#
#
# Indices 1 2 3 4 5 6 
#
# 1 54.0105 -3.4391 26.5527 0.0000 0.0000 0.0000
# 2 -3.4391 168.5861 89.4960 0.0000 0.0000 0.0000
# 3 26.5527 89.4960 214.5919 0.0000 0.0000 0.0000
# 4 0.0000 0.0000 0.0000 46.2603 0.0000 0.0000
# 5 0.0000 0.0000 0.0000 0.0000 7.7094 0.0000
# 6 0.0000 0.0000 0.0000 0.0000 0.0000 17.6116
#
#
#
# Elastic Compliance Matrix: (Units=1/GPa)
#
#
# Indices 1 2 3 4 5 6 
#
# 1 0.020358 0.002251 -0.003458 0.000000 0.000000 0.000000
# 2 0.002251 0.007867 -0.003560 0.000000 0.000000 0.000000
# 3 -0.003458 -0.003560 0.006572 0.000000 0.000000 0.000000
# 4 0.000000 0.000000 0.000000 0.021617 0.000000 0.000000
# 5 0.000000 0.000000 0.000000 0.000000 0.129712 0.000000
# 6 0.000000 0.000000 0.000000 0.000000 0.000000 0.056781
#
#
# Mechanical properties :
#
#
# Convention : Reuss Voigt Hill
#
# Bulk Modulus (GPa) = 39.58059 73.60085 56.59072
# Shear Modulus (GPa) = 19.16718 35.95483 27.56100
#
# Velocity S-wave (km/s) = 2.95712 4.05013 3.54599
# Velocity P-wave (km/s) = 5.45134 7.44648 6.52561
#
# Compressibility (1/GPa) = 0.02526491
#
# Stress axis : x y z
#
# Youngs Moduli (GPa) = 49.12033 127.10929 152.15179
#
# Poissons Ratio (x) = -0.28611 0.52611
# Poissons Ratio (y) = -0.11056 0.54159
# Poissons Ratio (z) = 0.16985 0.45245
#
# Static dielectric constant tensor:
#      x y z
#    x 1.840800 0.000000 0.000000 
#    y 0.000000 1.834000 0.000000 
#    z 0.000000 0.000000 1.780350 
# 
# From -- ./inp_files/1426.got.cif
#   From: 2010.05.17/outbox.cif.g08.bks.cpg/sg53_1_cif.got.tgz:1426.got - 2010.06.03 12:45:16.
