data_PCOD9415177
_publ_section_title
;
Structure prediction by ZEFSAII (Michael W. Deem and Ramdas Pophale) SiO2 
 PCOD9415177
Probable space group: P M N A
;
_chemical_formula_sum "Si O2"
_cell_formula_units_Z 64
_cell_length_a 8.850733
_cell_length_b 23.937363
_cell_length_c 17.195617
_cell_angle_alpha 90.000000
_cell_angle_beta 90.000000
_cell_angle_gamma 90.000000
_cell_volume 3643.118592
_symmetry_space_group_name_H-M "P M N A"
_symmetry_group_IT_number 53
_symmetry_cell_setting 'orthorhombic'
loop_
_space_group_symop_operation_xyz
x,y,z
1/2-x,-y,1/2+z
x,-y,-z
1/2-x,y,1/2-z
-x,-y,-z
1/2+x,y,1/2-z
-x,y,z
1/2+x,-y,1/2+z
loop_
_atom_site_type_symbol
_atom_site_label
_atom_site_fract_x
_atom_site_fract_y
_atom_site_fract_z
Si Si1 0.320888 0.536445 0.834193
Si Si2 0.815252 0.136543 0.508787
Si Si3 0.323051 0.630296 0.569267
Si Si4 0.181648 0.735879 0.493411
Si Si5 0.683555 0.073721 0.833030
Si Si6 0.173864 0.966426 0.582037
Si Si7 0.680100 0.321162 0.829598
Si Si8 0.677587 0.429023 0.597712
O O1 0.250000 0.526106 0.750000
O O2 0.500000 0.533785 0.830527
O O3 0.266607 0.596072 0.866198
O O4 0.258455 0.487685 0.889870
O O5 0.769915 0.200235 0.495862
O O6 0.773309 0.113738 0.594616
O O7 0.758749 0.093078 0.443023
O O8 0.000000 0.134451 0.506991
O O9 0.500000 0.632424 0.588414
O O10 0.259342 0.691417 0.550065
O O11 0.305910 0.595057 0.489147
O O12 0.215576 0.716435 0.404962
O O13 0.000000 0.732265 0.502804
O O14 0.750000 0.090151 0.750000
O O15 0.500000 0.073228 0.829861
O O16 0.738052 0.010987 0.856931
O O17 0.000000 0.956518 0.605958
O O18 0.169311 0.000000 0.500000
O O19 0.750000 0.298805 0.750000
O O20 0.500000 0.325566 0.822765
O O21 0.749965 0.382024 0.846986
O O22 0.500000 0.435123 0.614500
#
# Coordination Sequence:
#
# PCOD9415177 Si02
#       8
#     8   8   8   8   8   8   8   8
#     4  12  24  37  55  78 103 128 158 199 247 297
#     4   8  14  27  47  68  89 120 165 204 231 273
#     4  10  21  37  55  75 101 131 163 201 245 292
#     4   9  18  32  50  70  91 122 166 208 242 282
#     4   9  16  26  43  69  99 127 154 191 238 285
#     4   7  11  22  42  65  87 116 156 195 227 265
#     4  10  19  30  44  65  95 128 161 197 239 289
#     4  10  20  35  54  75 100 129 161 198 242 292
#
# _framework density 17.567366
#
# number of rings (size 3 to 8) (size 9 to 14) (size 15 to 20)
#    0.000    2.625    0.000    4.500    0.000    4.000 
#    0.000    0.625    0.000    4.875    0.000    1.750 
#    0.000    0.000    0.000    0.000    0.000    0.000 
#
# Total GULP energy -356776.073594 kJ/mol
# GULP energy per Si atom -5574.626150 kJ/mol
# Density = 1.752738 g / cm^3
# Si number density = 17.567366 Si / 1000 Ang^3
#
#
#
# Elastic Constant Matrix: (Units=GPa)
#
#
# Indices 1 2 3 4 5 6 
#
# 1 44.8362 30.6450 12.8997 0.0000 0.0000 0.0000
# 2 30.6450 129.9577 12.7935 0.0000 0.0000 0.0000
# 3 12.8997 12.7935 9.3351 0.0000 0.0000 0.0000
# 4 0.0000 0.0000 0.0000 13.0382 0.0000 0.0000
# 5 0.0000 0.0000 0.0000 0.0000 22.3663 0.0000
# 6 0.0000 0.0000 0.0000 0.0000 0.0000 12.0006
#
#
#
# Elastic Compliance Matrix: (Units=1/GPa)
#
#
# Indices 1 2 3 4 5 6 
#
# 1 0.039192 -0.004520 -0.047963 0.000000 0.000000 0.000000
# 2 -0.004520 0.009416 -0.006659 0.000000 0.000000 0.000000
# 3 -0.047963 -0.006659 0.182525 0.000000 0.000000 0.000000
# 4 0.000000 0.000000 0.000000 0.076698 0.000000 0.000000
# 5 0.000000 0.000000 0.000000 0.000000 0.044710 0.000000
# 6 0.000000 0.000000 0.000000 0.000000 0.000000 0.083329
#
#
# Mechanical properties :
#
#
# Convention : Reuss Voigt Hill
#
# Bulk Modulus (GPa) = 8.86126 32.97838 20.91982
# Shear Modulus (GPa) = 8.44922 18.00041 13.22482
#
# Velocity S-wave (km/s) = 2.19546 3.20449 2.74671
# Velocity P-wave (km/s) = 3.38849 5.70131 4.68971
#
# Compressibility (1/GPa) = 0.11285083
#
# Stress axis : x y z
#
# Youngs Moduli (GPa) = 25.51538 106.20008 5.47869
#
# Poissons Ratio (x) = 0.48004 0.26277
# Poissons Ratio (y) = 0.11533 0.03648
# Poissons Ratio (z) = 1.22379 0.70714
#
# Static dielectric constant tensor:
#      x y z
#    x 1.586720 0.000000 0.000000 
#    y 0.000000 1.617250 0.000000 
#    z 0.000000 0.000000 1.593340 
# 
# From -- ./inp_files/27033.got.cif
#   From: 2010.05.17/outbox.cif.g08.bks.cpg/sg53_14_cif.got.tgz:27033.got - 2010.06.03 12:45:16.
