data_PCOD9415090
_publ_section_title
;
Structure prediction by ZEFSAII (Michael W. Deem and Ramdas Pophale) SiO2 
 PCOD9415090
Probable space group: P M N A
;
_chemical_formula_sum "Si O2"
_cell_formula_units_Z 40
_cell_length_a 33.054688
_cell_length_b 5.002111
_cell_length_c 14.500470
_cell_angle_alpha 90.000000
_cell_angle_beta 90.000000
_cell_angle_gamma 90.000000
_cell_volume 2397.554379
_symmetry_space_group_name_H-M "P M N A"
_symmetry_group_IT_number 53
_symmetry_cell_setting 'orthorhombic'
loop_
_space_group_symop_operation_xyz
x,y,z
1/2-x,-y,1/2+z
x,-y,-z
1/2-x,y,1/2-z
-x,-y,-z
1/2+x,y,1/2-z
-x,y,z
1/2+x,-y,1/2+z
loop_
_atom_site_type_symbol
_atom_site_label
_atom_site_fract_x
_atom_site_fract_y
_atom_site_fract_z
Si Si1 0.820549 0.622692 0.215593
Si Si2 0.954585 0.023414 0.888821
Si Si3 0.291906 0.112916 0.192593
Si Si4 0.401723 0.474705 0.389425
Si Si5 0.243212 0.233739 0.942076
O O1 0.808040 0.412799 0.295742
O O2 0.860651 0.532747 0.163970
O O3 0.784622 0.648752 0.139904
O O4 0.823367 0.917737 0.257258
O O5 0.936573 0.311204 0.866916
O O6 0.000000 0.979773 0.852653
O O7 0.920920 0.807738 0.863312
O O8 0.957339 0.000000 0.000000
O O9 0.250000 0.113833 0.250000
O O10 0.278719 0.953162 0.100857
O O11 0.394164 0.500000 0.500000
O O12 0.254536 0.500000 0.000000
O O13 0.219724 0.000000 0.000000
#
# Coordination Sequence:
#
# PCOD9415090 Si02
#       5
#     8   8   8   8   8
#     4  11  20  32  46  65  92 117 149 194 238 268
#     4   9  17  29  42  58  83 113 146 183 218 257
#     4  10  20  33  46  62  88 120 148 184 237 283
#     4  10  19  28  43  64  84 112 152 189 220 254
#     4  11  21  33  50  68  87 117 161 200 230 269
#
# _framework density 16.683667
#
# number of rings (size 3 to 8) (size 9 to 14) (size 15 to 20)
#    0.000    1.800    0.000    7.800    0.000    4.800 
#    0.000    0.000    0.000    0.000    0.000    0.000 
#    0.000    0.000    0.000    0.000    0.000  252.000 
#
# Total GULP energy -222820.545890 kJ/mol
# GULP energy per Si atom -5570.513647 kJ/mol
# Density = 1.664569 g / cm^3
# Si number density = 16.683667 Si / 1000 Ang^3
#
#
#
# Elastic Constant Matrix: (Units=GPa)
#
#
# Indices 1 2 3 4 5 6 
#
# 1 60.8126 -4.4499 7.1349 0.0000 0.0000 0.0000
# 2 -4.4499 77.6198 8.2709 0.0000 0.0000 0.0000
# 3 7.1349 8.2709 34.7318 0.0000 0.0000 0.0000
# 4 0.0000 0.0000 0.0000 28.7625 0.0000 0.0000
# 5 0.0000 0.0000 0.0000 0.0000 21.7452 0.0000
# 6 0.0000 0.0000 0.0000 0.0000 0.0000 -293.0410
#
#
#
# Elastic Compliance Matrix: (Units=1/GPa)
#
#
# Indices 1 2 3 4 5 6 
#
# 1 0.016993 0.001381 -0.003820 0.000000 0.000000 0.000000
# 2 0.001381 0.013331 -0.003458 0.000000 0.000000 0.000000
# 3 -0.003820 -0.003458 0.030400 0.000000 0.000000 0.000000
# 4 0.000000 0.000000 0.000000 0.034768 0.000000 0.000000
# 5 0.000000 0.000000 0.000000 0.000000 0.045987 0.000000
# 6 0.000000 0.000000 0.000000 0.000000 0.000000 -0.003412
#
#
# Mechanical properties :
#
#
# Convention : Reuss Voigt Hill
#
# Bulk Modulus (GPa) = 20.43706 21.67510 21.05608
# Shear Modulus (GPa) = 30.08953 -37.69279 -3.80163
#
# Velocity S-wave (km/s) = 4.25141 -4.75833 -1.51116
# Velocity P-wave (km/s) = 6.03122 4.14354 3.09893
#
# Compressibility (1/GPa) = 0.04893071
#
# Stress axis : x y z
#
# Youngs Moduli (GPa) = 58.84706 75.01314 32.89442
#
# Poissons Ratio (x) = -0.10361 0.12565
# Poissons Ratio (y) = -0.08128 0.11376
# Poissons Ratio (z) = 0.22478 0.25942
#
# Static dielectric constant tensor:
#      x y z
#    x 1.542540 0.000000 0.000000 
#    y 0.000000 1.605230 0.000000 
#    z 0.000000 0.000000 1.635080 
# 
# From -- ./inp_files/24813.got.cif
#   From: 2010.05.17/outbox.cif.g08.bks.cpg/sg53_13_cif.got.tgz:24813.got - 2010.06.03 12:45:16.
