data_PCOD9415068
_publ_section_title
;
Structure prediction by ZEFSAII (Michael W. Deem and Ramdas Pophale) SiO2 
 PCOD9415068
Probable space group: P M N A
;
_chemical_formula_sum "Si O2"
_cell_formula_units_Z 44
_cell_length_a 25.634489
_cell_length_b 5.760922
_cell_length_c 14.369111
_cell_angle_alpha 90.000000
_cell_angle_beta 90.000000
_cell_angle_gamma 90.000000
_cell_volume 2122.005765
_symmetry_space_group_name_H-M "P M N A"
_symmetry_group_IT_number 53
_symmetry_cell_setting 'orthorhombic'
loop_
_space_group_symop_operation_xyz
x,y,z
1/2-x,-y,1/2+z
x,-y,-z
1/2-x,y,1/2-z
-x,-y,-z
1/2+x,y,1/2-z
-x,y,z
1/2+x,-y,1/2+z
loop_
_atom_site_type_symbol
_atom_site_label
_atom_site_fract_x
_atom_site_fract_y
_atom_site_fract_z
Si Si1 0.941459 0.152304 0.871857
Si Si2 0.644359 0.776619 0.668877
Si Si3 0.702563 0.107378 0.798152
Si Si4 0.321730 0.000000 0.000000
Si Si5 0.614473 0.500000 0.000000
Si Si6 0.377777 0.500000 0.500000
Si Si7 0.403531 0.595316 0.200122
O O1 0.941100 0.266081 0.768710
O O2 0.000000 0.079882 0.895012
O O3 0.898388 0.953755 0.870184
O O4 0.916925 0.334830 0.943268
O O5 0.657289 0.618940 0.579915
O O6 0.612950 0.635205 0.746513
O O7 0.690328 0.903752 0.723792
O O8 0.750000 0.242313 0.750000
O O9 0.649816 0.255548 0.802300
O O10 0.710255 0.026508 0.904097
O O11 0.353478 0.749454 0.989138
O O12 0.582221 0.460979 0.905438
#
# Coordination Sequence:
#
# PCOD9415068 Si02
#       7
#     8   8   8   4   4   4   8
#     4  10  21  37  59  87 120 159 202 247 308 379
#     4  10  20  38  57  85 118 160 199 253 303 369
#     4  10  21  39  58  86 123 155 206 257 312 371
#     4  10  20  38  62  90 113 168 211 246 312 376
#     4  10  18  38  66  84 119 160 215 251 305 376
#     4  10  21  36  59  86 121 160 201 241 311 366
#     4   9  20  37  60  83 116 159 200 254 309 369
#
# _framework density 20.735099000000002
#
# number of rings (size 3 to 8) (size 9 to 14) (size 15 to 20)
#    0.000    2.182    1.818    0.818    0.000    5.091 
#    9.818    0.455    0.000    1.091    0.000    0.000 
#    0.000    0.000    0.000    0.000    0.000    0.000 
#
# Total GULP energy -245059.397907 kJ/mol
# GULP energy per Si atom -5569.531771 kJ/mol
# Density = 2.068790 g / cm^3
# Si number density = 20.735099 Si / 1000 Ang^3
#
#
#
# Elastic Constant Matrix: (Units=GPa)
#
#
# Indices 1 2 3 4 5 6 
#
# 1 38.5965 -6.5634 25.6602 0.0000 0.0000 0.0000
# 2 -6.5634 55.8535 33.6707 0.0000 0.0000 0.0000
# 3 25.6602 33.6707 183.3324 0.0000 0.0000 0.0000
# 4 0.0000 0.0000 0.0000 27.0539 0.0000 0.0000
# 5 0.0000 0.0000 0.0000 0.0000 0.6676 0.0000
# 6 0.0000 0.0000 0.0000 0.0000 0.0000 -12.2852
#
#
#
# Elastic Compliance Matrix: (Units=1/GPa)
#
#
# Indices 1 2 3 4 5 6 
#
# 1 0.030821 0.006997 -0.005599 0.000000 0.000000 0.000000
# 2 0.006997 0.021722 -0.004969 0.000000 0.000000 0.000000
# 3 -0.005599 -0.004969 0.007151 0.000000 0.000000 0.000000
# 4 0.000000 0.000000 0.000000 0.036963 0.000000 0.000000
# 5 0.000000 0.000000 0.000000 0.000000 1.497838 0.000000
# 6 0.000000 0.000000 0.000000 0.000000 0.000000 -0.081399
#
#
# Mechanical properties :
#
#
# Convention : Reuss Voigt Hill
#
# Bulk Modulus (GPa) = 19.02856 42.59083 30.80970
# Shear Modulus (GPa) = 3.25149 18.08826 10.66988
#
# Velocity S-wave (km/s) = 1.25360 2.95676 2.27090
# Velocity P-wave (km/s) = 3.36040 5.67817 4.66551
#
# Compressibility (1/GPa) = 0.05255259
#
# Stress axis : x y z
#
# Youngs Moduli (GPa) = 32.44497 46.03718 139.84452
#
# Poissons Ratio (x) = -0.32213 0.78299
# Poissons Ratio (y) = -0.22702 0.69485
# Poissons Ratio (z) = 0.18166 0.22875
#
# Static dielectric constant tensor:
#      x y z
#    x 1.703830 0.000000 0.000000 
#    y 0.000000 1.857990 0.000000 
#    z 0.000000 0.000000 1.717400 
# 
# From -- ./inp_files/24864.got.cif
#   From: 2010.05.17/outbox.cif.g08.bks.cpg/sg53_13_cif.got.tgz:24864.got - 2010.06.03 12:45:16.
