data_PCOD9415365
_publ_section_title
;
Structure prediction by ZEFSAII (Michael W. Deem and Ramdas Pophale) SiO2 
 PCOD9415365
Probable space group: P M N A
;
_chemical_formula_sum "Si O2"
_cell_formula_units_Z 64
_cell_length_a 8.813241
_cell_length_b 13.065132
_cell_length_c 34.864750
_cell_angle_alpha 90.000000
_cell_angle_beta 90.000000
_cell_angle_gamma 90.000000
_cell_volume 4014.541978
_symmetry_space_group_name_H-M "P M N A"
_symmetry_group_IT_number 53
_symmetry_cell_setting 'orthorhombic'
loop_
_space_group_symop_operation_xyz
x,y,z
1/2-x,-y,1/2+z
x,-y,-z
1/2-x,y,1/2-z
-x,-y,-z
1/2+x,y,1/2-z
-x,y,z
1/2+x,-y,1/2+z
loop_
_atom_site_type_symbol
_atom_site_label
_atom_site_fract_x
_atom_site_fract_y
_atom_site_fract_z
Si Si1 0.180169 0.377451 0.419423
Si Si2 0.317828 0.688595 0.659375
Si Si3 0.682172 0.311405 0.659375
Si Si4 0.182065 0.500000 0.707274
Si Si5 0.319831 0.377451 0.919423
Si Si6 0.824657 0.624343 0.000000
Si Si7 0.182599 0.116265 0.791669
Si Si8 0.182599 0.883736 0.791669
O O1 0.262623 0.323599 0.384106
O O2 0.208437 0.500000 0.415724
O O3 0.242469 0.343832 0.460835
O O4 0.000000 0.362016 0.417283
O O5 0.500000 0.677060 0.661277
O O6 0.241164 0.599145 0.684380
O O7 0.274587 0.797607 0.677758
O O8 0.500000 0.322940 0.661277
O O9 0.758836 0.400855 0.684380
O O10 0.737377 0.323600 0.615895
O O11 0.725413 0.202393 0.677758
O O12 0.250000 0.500000 0.750000
O O13 0.000000 0.500000 0.708628
O O14 0.500000 0.362016 0.917282
O O15 0.257531 0.343832 0.960835
O O16 0.000000 0.656073 0.000000
O O17 0.820867 0.500000 0.000000
O O18 0.250000 0.141613 0.750000
O O19 0.000000 0.117124 0.788658
O O20 0.230211 0.000000 0.801495
O O21 0.250000 0.858387 0.750000
O O22 0.000000 0.882876 0.788658
#
# Coordination Sequence:
#
# PCOD9415365 Si02
#       8
#     8   8   8   8   8   8   8   8
#     4  10  19  31  47  70 101 134 165 202 242 290
#     4  11  21  33  51  73  99 131 166 204 245 295
#     4  11  21  33  51  73  99 131 166 204 245 295
#     4  12  24  36  48  67  98 133 166 202 244 296
#     4  10  19  31  47  70 101 134 165 202 242 290
#     4   9  17  29  47  69  96 131 168 203 238 288
#     4   9  19  35  53  73  96 125 164 210 254 293
#     4   9  19  35  53  73  96 125 164 210 254 293
#
# _framework density 15.942042000000001
#
# number of rings (size 3 to 8) (size 9 to 14) (size 15 to 20)
#    0.000    1.875    1.250    3.750    0.000    6.500 
#    0.000    0.000    0.000    0.000    0.000    0.875 
#    0.000    7.000    0.000    0.000    0.000    0.000 
#
# Total GULP energy -357227.322284 kJ/mol
# GULP energy per Si atom -5581.676911 kJ/mol
# Density = 1.590576 g / cm^3
# Si number density = 15.942042 Si / 1000 Ang^3
#
#
#
# Elastic Constant Matrix: (Units=GPa)
#
#
# Indices 1 2 3 4 5 6 
#
# 1 72.5993 46.3024 61.8792 0.0000 0.0000 0.0000
# 2 46.3024 78.6671 72.8646 0.0000 0.0000 0.0000
# 3 61.8792 72.8646 162.0931 0.0000 0.0000 0.0000
# 4 0.0000 0.0000 0.0000 13.5429 0.0000 0.0000
# 5 0.0000 0.0000 0.0000 0.0000 33.4083 0.0000
# 6 0.0000 0.0000 0.0000 0.0000 0.0000 7.1219
#
#
#
# Elastic Compliance Matrix: (Units=1/GPa)
#
#
# Indices 1 2 3 4 5 6 
#
# 1 0.024077 -0.009694 -0.004834 0.000000 0.000000 0.000000
# 2 -0.009694 0.025684 -0.007845 0.000000 0.000000 0.000000
# 3 -0.004834 -0.007845 0.011541 0.000000 0.000000 0.000000
# 4 0.000000 0.000000 0.000000 0.073840 0.000000 0.000000
# 5 0.000000 0.000000 0.000000 0.000000 0.029933 0.000000
# 6 0.000000 0.000000 0.000000 0.000000 0.000000 0.140413
#
#
# Mechanical properties :
#
#
# Convention : Reuss Voigt Hill
#
# Bulk Modulus (GPa) = 60.39922 75.05021 67.72472
# Shear Modulus (GPa) = 14.05480 19.63550 16.84515
#
# Velocity S-wave (km/s) = 2.97243 3.51334 3.25414
# Velocity P-wave (km/s) = 7.05333 7.97729 7.52950
#
# Compressibility (1/GPa) = 0.01655651
#
# Stress axis : x y z
#
# Youngs Moduli (GPa) = 41.53361 38.93512 86.64871
#
# Poissons Ratio (x) = 0.37745 0.41882
# Poissons Ratio (y) = 0.40264 0.67973
# Poissons Ratio (z) = 0.20076 0.30543
#
# Static dielectric constant tensor:
#      x y z
#    x 1.532120 0.000000 0.000000 
#    y 0.000000 1.522770 0.000000 
#    z 0.000000 0.000000 1.515060 
# 
# From -- ./inp_files/38192.got.cif
#   From: 2010.05.17/outbox.cif.g08.bks.cpg/sg53_20_cif.got.tgz:38192.got - 2010.06.03 12:45:16.
