data_PCOD9415697
_publ_section_title
;
Structure prediction by ZEFSAII (Michael W. Deem and Ramdas Pophale) SiO2 
 PCOD9415697
Probable space group: P M N A
;
_chemical_formula_sum "Si O2"
_cell_formula_units_Z 64
_cell_length_a 7.801287
_cell_length_b 20.972026
_cell_length_c 18.994337
_cell_angle_alpha 90.000000
_cell_angle_beta 90.000000
_cell_angle_gamma 90.000000
_cell_volume 3107.640566
_symmetry_space_group_name_H-M "P M N A"
_symmetry_group_IT_number 53
_symmetry_cell_setting 'orthorhombic'
loop_
_space_group_symop_operation_xyz
x,y,z
1/2-x,-y,1/2+z
x,-y,-z
1/2-x,y,1/2-z
-x,-y,-z
1/2+x,y,1/2-z
-x,y,z
1/2+x,-y,1/2+z
loop_
_atom_site_type_symbol
_atom_site_label
_atom_site_fract_x
_atom_site_fract_y
_atom_site_fract_z
Si Si1 0.293879 0.002914 0.831283
Si Si2 0.793167 0.628043 0.670132
Si Si3 0.210061 0.113713 0.429032
Si Si4 0.698382 0.600265 0.331744
Si Si5 0.206200 0.227802 0.330090
Si Si6 0.199214 0.485063 0.424713
Si Si7 0.709913 0.870602 0.090660
Si Si8 0.205016 0.256808 0.667909
O O1 0.250000 0.991020 0.750000
O O2 0.500000 0.003152 0.835884
O O3 0.233384 0.071787 0.858782
O O4 0.232974 0.947881 0.884598
O O5 0.750000 0.609853 0.750000
O O6 0.729194 0.700145 0.657925
O O7 0.725089 0.574797 0.617214
O O8 0.000000 0.629814 0.665346
O O9 0.267077 0.176277 0.386321
O O10 0.263522 0.116145 0.510363
O O11 0.000000 0.112918 0.429334
O O12 0.750000 0.596327 0.250000
O O13 0.500000 0.584465 0.338137
O O14 0.795872 0.548225 0.377387
O O15 0.727011 0.673677 0.353555
O O16 0.250000 0.209038 0.250000
O O17 0.000000 0.229454 0.334980
O O18 0.279982 0.500000 0.500000
O O19 0.000000 0.467909 0.437307
O O20 0.500000 0.869874 0.091110
O O21 0.766604 0.802405 0.121077
O O22 0.250000 0.246052 0.750000
O O23 0.000000 0.260021 0.662888
#
# Coordination Sequence:
#
# PCOD9415697 Si02
#       8
#     8   8   8   8   8   8   8   8
#     4  10  19  32  52  76 102 133 170 212 253 297
#     4   9  18  32  51  74  99 130 168 208 250 298
#     4   9  17  30  50  75 102 132 168 208 249 296
#     4  11  22  37  57  79 105 137 176 219 263 314
#     4   9  17  30  49  72  97 127 163 203 245 293
#     4  10  21  36  54  78 107 138 173 215 263 314
#     4   9  18  31  50  76 102 132 171 212 253 300
#     4  10  19  33  54  77 102 133 171 214 259 308
#
# _framework density 20.594401999999999
#
# number of rings (size 3 to 8) (size 9 to 14) (size 15 to 20)
#    0.000    2.375    0.000    3.750    0.000    4.250 
#    0.000    4.375    0.000    8.250    0.000    0.000 
#    0.000    0.000    0.000    0.000    0.000    0.000 
#
# Total GULP energy -357337.335819 kJ/mol
# GULP energy per Si atom -5583.395872 kJ/mol
# Density = 2.054753 g / cm^3
# Si number density = 20.594402 Si / 1000 Ang^3
#
#
#
# Elastic Constant Matrix: (Units=GPa)
#
#
# Indices 1 2 3 4 5 6 
#
# 1 30.6761 -12.9646 -11.4215 0.0000 0.0000 0.0000
# 2 -12.9646 68.1644 37.7854 0.0000 0.0000 0.0000
# 3 -11.4215 37.7854 75.1572 0.0000 0.0000 0.0000
# 4 0.0000 0.0000 0.0000 451.9592 0.0000 0.0000
# 5 0.0000 0.0000 0.0000 0.0000 21.4169 0.0000
# 6 0.0000 0.0000 0.0000 0.0000 0.0000 1.2172
#
#
#
# Elastic Compliance Matrix: (Units=1/GPa)
#
#
# Indices 1 2 3 4 5 6 
#
# 1 0.035869 0.005269 0.002802 0.000000 0.000000 0.000000
# 2 0.005269 0.021113 -0.009814 0.000000 0.000000 0.000000
# 3 0.002802 -0.009814 0.018665 0.000000 0.000000 0.000000
# 4 0.000000 0.000000 0.000000 0.002213 0.000000 0.000000
# 5 0.000000 0.000000 0.000000 0.000000 0.046692 0.000000
# 6 0.000000 0.000000 0.000000 0.000000 0.000000 0.821546
#
#
# Mechanical properties :
#
#
# Convention : Reuss Voigt Hill
#
# Bulk Modulus (GPa) = 13.85794 22.31069 18.08432
# Shear Modulus (GPa) = 5.13539 105.62523 55.38031
#
# Velocity S-wave (km/s) = 1.58082 7.16936 5.19127
# Velocity P-wave (km/s) = 3.17421 8.91009 6.68825
#
# Compressibility (1/GPa) = 0.07216079
#
# Stress axis : x y z
#
# Youngs Moduli (GPa) = 27.87942 47.36526 53.57599
#
# Poissons Ratio (x) = -0.24956 -0.15012
# Poissons Ratio (y) = -0.14689 0.52578
# Poissons Ratio (z) = -0.07812 0.46483
#
# Static dielectric constant tensor:
#      x y z
#    x 1.761140 0.000000 0.000000 
#    y 0.000000 1.734760 0.000000 
#    z 0.000000 0.000000 1.727540 
# 
# From -- ./inp_files/26844.got.cif
#   From: 2010.05.17/outbox.cif.g08.bks.cpg/sg53_14_cif.got.tgz:26844.got - 2010.06.03 12:45:16.
