data_PCOD9415532
_publ_section_title
;
Structure prediction by ZEFSAII (Michael W. Deem and Ramdas Pophale) SiO2 
 PCOD9415532
Probable space group: P M N A
;
_chemical_formula_sum "Si O2"
_cell_formula_units_Z 64
_cell_length_a 16.352638
_cell_length_b 13.766394
_cell_length_c 13.998300
_cell_angle_alpha 90.000000
_cell_angle_beta 90.000000
_cell_angle_gamma 90.000000
_cell_volume 3151.253308
_symmetry_space_group_name_H-M "P M N A"
_symmetry_group_IT_number 53
_symmetry_cell_setting 'orthorhombic'
loop_
_space_group_symop_operation_xyz
x,y,z
1/2-x,-y,1/2+z
x,-y,-z
1/2-x,y,1/2-z
-x,-y,-z
1/2+x,y,1/2-z
-x,y,z
1/2+x,-y,1/2+z
loop_
_atom_site_type_symbol
_atom_site_label
_atom_site_fract_x
_atom_site_fract_y
_atom_site_fract_z
Si Si1 0.912429 0.111861 0.662818
Si Si2 0.373005 0.924837 0.916956
Si Si3 0.833523 0.287813 0.187961
Si Si4 0.088965 0.699367 0.619771
Si Si5 0.407522 0.886220 0.383920
Si Si6 0.747003 0.613455 0.981985
Si Si7 0.248264 0.226573 0.633963
Si Si8 0.198391 0.068738 0.153142
O O1 0.914795 0.143423 0.772346
O O2 0.832937 0.160621 0.615102
O O3 0.000000 0.139014 0.618310
O O4 0.903714 0.994879 0.668198
O O5 0.402078 0.815163 0.903432
O O6 0.275089 0.920571 0.917657
O O7 0.400101 0.000000 0.000000
O O8 0.750000 0.295486 0.250000
O O9 0.901059 0.315239 0.265951
O O10 0.816922 0.346958 0.091194
O O11 0.840683 0.173628 0.167031
O O12 0.161721 0.642523 0.568604
O O13 0.000000 0.667232 0.587419
O O14 0.500000 0.879742 0.424843
O O15 0.329628 0.821056 0.412416
O O16 0.368413 0.993462 0.382976
O O17 0.755384 0.500000 0.000000
O O18 0.743728 0.670894 0.081907
O O19 0.250000 0.232454 0.750000
O O20 0.250000 0.038884 0.250000
#
# Coordination Sequence:
#
# PCOD9415532 Si02
#       8
#     8   8   8   8   8   8   8   8
#     4  10  19  31  51  83 120 162 202 236 288 363
#     4  12  21  30  52  88 130 171 205 246 296 375
#     4   9  19  38  62  86 120 165 213 259 305 382
#     4  11  23  40  63  97 132 166 209 265 332 392
#     4  10  19  32  55  84 118 160 204 243 291 359
#     4  11  24  42  67  91 115 157 214 274 337 403
#     4  10  21  38  59  87 127 166 204 258 324 390
#     4  11  16  32  54  81 120 168 213 249 295 358
#
# _framework density 20.309380000000001
#
# number of rings (size 3 to 8) (size 9 to 14) (size 15 to 20)
#    0.000    1.500    6.250    1.500    0.000    5.750 
#    0.000    0.625    0.000    7.125    0.000    0.000 
#    0.000    0.000    0.000    0.000    0.000    0.000 
#
# Total GULP energy -356711.361900 kJ/mol
# GULP energy per Si atom -5573.615030 kJ/mol
# Density = 2.026315 g / cm^3
# Si number density = 20.309380 Si / 1000 Ang^3
#
#
#
# Elastic Constant Matrix: (Units=GPa)
#
#
# Indices 1 2 3 4 5 6 
#
# 1 131.3893 30.7220 19.1351 0.0000 0.0000 0.0000
# 2 30.7220 97.2448 23.9060 0.0000 0.0000 0.0000
# 3 19.1351 23.9060 70.8291 0.0000 0.0000 0.0000
# 4 0.0000 0.0000 0.0000 19.4012 0.0000 0.0000
# 5 0.0000 0.0000 0.0000 0.0000 14.8895 0.0000
# 6 0.0000 0.0000 0.0000 0.0000 0.0000 3.7508
#
#
#
# Elastic Compliance Matrix: (Units=1/GPa)
#
#
# Indices 1 2 3 4 5 6 
#
# 1 0.008360 -0.002275 -0.001491 0.000000 0.000000 0.000000
# 2 -0.002275 0.011833 -0.003379 0.000000 0.000000 0.000000
# 3 -0.001491 -0.003379 0.015662 0.000000 0.000000 0.000000
# 4 0.000000 0.000000 0.000000 0.051543 0.000000 0.000000
# 5 0.000000 0.000000 0.000000 0.000000 0.067161 0.000000
# 6 0.000000 0.000000 0.000000 0.000000 0.000000 0.266611
#
#
# Mechanical properties :
#
#
# Convention : Reuss Voigt Hill
#
# Bulk Modulus (GPa) = 46.37114 49.66549 48.01831
# Shear Modulus (GPa) = 11.29568 22.65498 16.97533
#
# Velocity S-wave (km/s) = 2.36091 3.34352 2.89422
# Velocity P-wave (km/s) = 5.50580 6.27798 5.90453
#
# Compressibility (1/GPa) = 0.02156514
#
# Stress axis : x y z
#
# Youngs Moduli (GPa) = 119.61797 84.51191 63.84977
#
# Poissons Ratio (x) = 0.19223 0.09519
# Poissons Ratio (y) = 0.27209 0.21576
# Poissons Ratio (z) = 0.17833 0.28558
#
# Static dielectric constant tensor:
#      x y z
#    x 1.781230 0.000000 0.000000 
#    y 0.000000 1.691590 0.000000 
#    z 0.000000 0.000000 1.920230 
# 
# From -- ./inp_files/23987.got.cif
#   From: 2010.05.17/outbox.cif.g08.bks.cpg/sg53_12_cif.got.tgz:23987.got - 2010.06.03 12:45:16.
