data_PCOD9415823
_publ_section_title
;
Structure prediction by ZEFSAII (Michael W. Deem and Ramdas Pophale) SiO2 
 PCOD9415823
Probable space group: P M N A
;
_chemical_formula_sum "Si O2"
_cell_formula_units_Z 64
_cell_length_a 19.423054
_cell_length_b 14.763042
_cell_length_c 11.715287
_cell_angle_alpha 90.000000
_cell_angle_beta 90.000000
_cell_angle_gamma 90.000000
_cell_volume 3359.280781
_symmetry_space_group_name_H-M "P M N A"
_symmetry_group_IT_number 53
_symmetry_cell_setting 'orthorhombic'
loop_
_space_group_symop_operation_xyz
x,y,z
1/2-x,-y,1/2+z
x,-y,-z
1/2-x,y,1/2-z
-x,-y,-z
1/2+x,y,1/2-z
-x,y,z
1/2+x,-y,1/2+z
loop_
_atom_site_type_symbol
_atom_site_label
_atom_site_fract_x
_atom_site_fract_y
_atom_site_fract_z
Si Si1 0.575036 0.592026 0.572630
Si Si2 0.181176 0.098630 0.050149
Si Si3 0.917380 0.166363 0.685421
Si Si4 0.282043 0.749683 0.873506
Si Si5 0.421068 0.810469 0.928991
Si Si6 0.776859 0.556339 0.878247
Si Si7 0.080882 0.769089 0.081826
Si Si8 0.080534 0.036781 0.249678
O O1 0.570100 0.500000 0.500000
O O2 0.500000 0.606900 0.628543
O O3 0.642917 0.579116 0.646011
O O4 0.587859 0.676668 0.488111
O O5 0.246959 0.164497 0.063166
O O6 0.136032 0.080911 0.164815
O O7 0.127829 0.153290 0.971087
O O8 0.198955 0.000000 0.000000
O O9 0.894155 0.186419 0.558421
O O10 0.899925 0.237101 0.784652
O O11 0.000000 0.163903 0.675063
O O12 0.898225 0.066246 0.727044
O O13 0.250000 0.758541 0.750000
O O14 0.364032 0.753113 0.864908
O O15 0.259046 0.650866 0.913168
O O16 0.500000 0.778043 0.923826
O O17 0.420031 0.908129 0.868079
O O18 0.750000 0.525555 0.750000
O O19 0.773474 0.500000 0.000000
O O20 0.000000 0.795282 0.075829
O O21 0.000000 0.039537 0.206885
#
# Coordination Sequence:
#
# PCOD9415823 Si02
#       8
#     8   8   8   8   8   8   8   8
#     4   9  18  36  64  93 121 158 204 251 302 368
#     4  12  22  34  53  83 122 159 199 247 303 347
#     4   9  18  33  54  82 118 159 205 253 293 347
#     4  11  23  43  61  87 122 156 199 252 305 365
#     4  10  21  39  60  81 113 162 208 245 295 361
#     4  10  22  44  70  95 127 162 202 255 318 380
#     4  10  19  33  55  87 123 157 200 251 302 350
#     4  10  19  32  54  81 112 159 213 248 289 355
#
# _framework density 19.051697000000001
#
# number of rings (size 3 to 8) (size 9 to 14) (size 15 to 20)
#    0.000    1.875    3.750    0.750    0.000    3.000 
#    4.500    3.125    0.000    0.750    0.000    0.000 
#    0.000    0.000    0.000    0.000    0.000    0.000 
#
# Total GULP energy -356277.911840 kJ/mol
# GULP energy per Si atom -5566.842373 kJ/mol
# Density = 1.900833 g / cm^3
# Si number density = 19.051697 Si / 1000 Ang^3
#
#
#
# Elastic Constant Matrix: (Units=GPa)
#
#
# Indices 1 2 3 4 5 6 
#
# 1 105.9972 27.8801 36.9147 0.0000 0.0000 0.0000
# 2 27.8801 81.8197 19.9603 0.0000 0.0000 0.0000
# 3 36.9147 19.9603 90.7830 0.0000 0.0000 0.0000
# 4 0.0000 0.0000 0.0000 14.0710 0.0000 0.0000
# 5 0.0000 0.0000 0.0000 0.0000 25.3334 0.0000
# 6 0.0000 0.0000 0.0000 0.0000 0.0000 214.5478
#
#
#
# Elastic Compliance Matrix: (Units=1/GPa)
#
#
# Indices 1 2 3 4 5 6 
#
# 1 0.011636 -0.002970 -0.004078 0.000000 0.000000 0.000000
# 2 -0.002970 0.013673 -0.001799 0.000000 0.000000 0.000000
# 3 -0.004078 -0.001799 0.013069 0.000000 0.000000 0.000000
# 4 0.000000 0.000000 0.000000 0.071068 0.000000 0.000000
# 5 0.000000 0.000000 0.000000 0.000000 0.039474 0.000000
# 6 0.000000 0.000000 0.000000 0.000000 0.000000 0.004661
#
#
# Mechanical properties :
#
#
# Convention : Reuss Voigt Hill
#
# Bulk Modulus (GPa) = 48.34694 49.79001 49.06847
# Shear Modulus (GPa) = 28.06328 63.71342 45.88835
#
# Velocity S-wave (km/s) = 3.84214 5.78921 4.91310
# Velocity P-wave (km/s) = 6.71673 8.41888 7.61551
#
# Compressibility (1/GPa) = 0.02068383
#
# Stress axis : x y z
#
# Youngs Moduli (GPa) = 85.94221 73.13803 76.51640
#
# Poissons Ratio (x) = 0.21722 0.31206
# Poissons Ratio (y) = 0.25524 0.13762
# Poissons Ratio (z) = 0.35051 0.13154
#
# Static dielectric constant tensor:
#      x y z
#    x 1.700120 0.000000 0.000000 
#    y 0.000000 1.679100 0.000000 
#    z 0.000000 0.000000 1.652210 
# 
# From -- ./inp_files/17137.got.cif
#   From: 2010.05.17/outbox.cif.g08.bks.cpg/sg53_9_cif.got.tgz:17137.got - 2010.06.03 12:45:16.
