data_PCOD9415201
_publ_section_title
;
Structure prediction by ZEFSAII (Michael W. Deem and Ramdas Pophale) SiO2 
 PCOD9415201
Probable space group: P M N A
;
_chemical_formula_sum "Si O2"
_cell_formula_units_Z 48
_cell_length_a 26.184691
_cell_length_b 5.059645
_cell_length_c 22.158172
_cell_angle_alpha 90.000000
_cell_angle_beta 90.000000
_cell_angle_gamma 90.000000
_cell_volume 2935.630755
_symmetry_space_group_name_H-M "P M N A"
_symmetry_group_IT_number 53
_symmetry_cell_setting 'orthorhombic'
loop_
_space_group_symop_operation_xyz
x,y,z
1/2-x,-y,1/2+z
x,-y,-z
1/2-x,y,1/2-z
-x,-y,-z
1/2+x,y,1/2-z
-x,y,z
1/2+x,-y,1/2+z
loop_
_atom_site_type_symbol
_atom_site_label
_atom_site_fract_x
_atom_site_fract_y
_atom_site_fract_z
Si Si1 0.166924 0.456147 0.376164
Si Si2 0.670115 0.998277 0.713424
Si Si3 0.000000 0.351048 0.285530
Si Si4 0.000000 0.845167 0.369769
Si Si5 0.389481 0.509211 0.746921
Si Si6 0.224966 0.043307 0.656081
Si Si7 0.588135 0.259578 0.961867
O O1 0.130826 0.462583 0.316375
O O2 0.193308 0.170906 0.383014
O O3 0.133759 0.580943 0.429518
O O4 0.211953 0.662078 0.363348
O O5 0.641532 0.723329 0.709185
O O6 0.700169 0.005333 0.777460
O O7 0.714416 0.016755 0.663638
O O8 0.628032 0.227623 0.721132
O O9 0.051240 0.416914 0.248889
O O10 0.000000 0.557283 0.340529
O O11 0.000000 0.062290 0.316560
O O12 0.950242 0.858530 0.411773
O O13 0.562497 0.500000 0.000000
O O14 0.603484 0.000000 0.000000
#
# Coordination Sequence:
#
# PCOD9415201 Si02
#       7
#     8   8   4   4   8   8   8
#     4  10  19  31  48  63  84 110 141 189 238 282
#     4   9  17  29  45  67  87 108 133 177 224 275
#     4  12  22  33  50  66  88 122 158 196 232 289
#     4  12  24  37  50  60  82 120 166 206 252 279
#     4  10  19  30  46  63  89 113 145 183 226 267
#     4   9  17  29  47  67  85 105 135 173 232 285
#     4  12  24  37  49  64  85 114 159 210 252 288
#
# _framework density 16.350832
#
# number of rings (size 3 to 8) (size 9 to 14) (size 15 to 20)
#    0.000    1.667    1.667    4.500    4.667    4.000 
#    0.000    0.000    0.000    0.000    0.000    0.000 
#    0.000    0.000    0.000    0.000    0.000    0.000 
#
# Total GULP energy -267605.879075 kJ/mol
# GULP energy per Si atom -5575.122481 kJ/mol
# Density = 1.631362 g / cm^3
# Si number density = 16.350832 Si / 1000 Ang^3
#
#
#
# Elastic Constant Matrix: (Units=GPa)
#
#
# Indices 1 2 3 4 5 6 
#
# 1 81.6202 -2.8265 19.5303 0.0000 0.0000 0.0000
# 2 -2.8265 53.9245 -3.3159 0.0000 0.0000 0.0000
# 3 19.5303 -3.3159 10.0026 0.0000 0.0000 0.0000
# 4 0.0000 0.0000 0.0000 12.7718 0.0000 0.0000
# 5 0.0000 0.0000 0.0000 0.0000 49.1578 0.0000
# 6 0.0000 0.0000 0.0000 0.0000 0.0000 20.5487
#
#
#
# Elastic Compliance Matrix: (Units=1/GPa)
#
#
# Indices 1 2 3 4 5 6 
#
# 1 0.023130 -0.001597 -0.045691 0.000000 0.000000 0.000000
# 2 -0.001597 0.019041 0.009431 0.000000 0.000000 0.000000
# 3 -0.045691 0.009431 0.192313 0.000000 0.000000 0.000000
# 4 0.000000 0.000000 0.000000 0.078297 0.000000 0.000000
# 5 0.000000 0.000000 0.000000 0.000000 0.020343 0.000000
# 6 0.000000 0.000000 0.000000 0.000000 0.000000 0.048665
#
#
# Mechanical properties :
#
#
# Convention : Reuss Voigt Hill
#
# Bulk Modulus (GPa) = 6.29845 19.14700 12.72272
# Shear Modulus (GPa) = 9.79574 25.30629 17.55101
#
# Velocity S-wave (km/s) = 2.45030 3.93836 3.27984
# Velocity P-wave (km/s) = 3.44467 5.69354 4.70543
#
# Compressibility (1/GPa) = 0.15876934
#
# Stress axis : x y z
#
# Youngs Moduli (GPa) = 43.23463 52.51919 5.19984
#
# Poissons Ratio (x) = 0.08389 0.23759
# Poissons Ratio (y) = 0.06906 -0.04904
# Poissons Ratio (z) = 1.97542 -0.49530
#
# Static dielectric constant tensor:
#      x y z
#    x 1.590190 0.000000 0.000000 
#    y 0.000000 1.563810 0.000000 
#    z 0.000000 0.000000 1.563650 
# 
# From -- ./inp_files/35591.got.cif
#   From: 2010.05.17/outbox.cif.g08.bks.cpg/sg53_18_cif.got.tgz:35591.got - 2010.06.03 12:45:16.
