data_PCOD9415714
_publ_section_title
;
Structure prediction by ZEFSAII (Michael W. Deem and Ramdas Pophale) SiO2 
 PCOD9415714
Probable space group: P M N A
;
_chemical_formula_sum "Si O2"
_cell_formula_units_Z 48
_cell_length_a 8.918210
_cell_length_b 18.377454
_cell_length_c 14.832331
_cell_angle_alpha 90.000000
_cell_angle_beta 90.000000
_cell_angle_gamma 90.000000
_cell_volume 2430.929968
_symmetry_space_group_name_H-M "P M N A"
_symmetry_group_IT_number 53
_symmetry_cell_setting 'orthorhombic'
loop_
_space_group_symop_operation_xyz
x,y,z
1/2-x,-y,1/2+z
x,-y,-z
1/2-x,y,1/2-z
-x,-y,-z
1/2+x,y,1/2-z
-x,y,z
1/2+x,-y,1/2+z
loop_
_atom_site_type_symbol
_atom_site_label
_atom_site_fract_x
_atom_site_fract_y
_atom_site_fract_z
Si Si1 0.177816 0.330365 0.535593
Si Si2 0.170178 0.025188 0.895282
Si Si3 0.177576 0.610853 0.656198
Si Si4 0.819629 0.833026 0.457729
Si Si5 0.321195 0.454124 0.653462
Si Si6 0.822147 0.880028 0.659291
O O1 0.199266 0.336107 0.427939
O O2 0.217623 0.249534 0.567814
O O3 0.270626 0.393429 0.583042
O O4 0.000000 0.342585 0.552373
O O5 0.240564 0.105306 0.898421
O O6 0.000000 0.024676 0.860218
O O7 0.270457 0.964097 0.848431
O O8 0.165343 0.000000 0.000000
O O9 0.250000 0.635530 0.750000
O O10 0.252280 0.533287 0.631752
O O11 0.000000 0.599794 0.669333
O O12 0.777041 0.845024 0.563269
O O13 0.000000 0.842471 0.452716
O O14 0.250000 0.434098 0.750000
O O15 0.500000 0.459290 0.659144
O O16 0.750000 0.848356 0.750000
O O17 0.000000 0.874974 0.666495
#
# Coordination Sequence:
#
# PCOD9415714 Si02
#       6
#     8   8   8   8   8   8
#     4  10  21  37  56  80 112 148 182 220 272 328
#     4   9  17  31  51  73  97 127 165 207 248 294
#     4  10  20  35  56  81 111 146 183 225 270 319
#     4   9  19  35  53  74 104 140 173 209 259 316
#     4  11  22  37  58  81 106 139 182 231 277 324
#     4  10  19  32  52  77 104 136 173 213 258 308
#
# _framework density 19.745529000000001
#
# number of rings (size 3 to 8) (size 9 to 14) (size 15 to 20)
#    0.000    2.167    0.000    4.500    0.000    7.333 
#    0.000    0.833    0.000    4.000    0.000    0.000 
#    0.000    0.000    0.000    0.000    0.000    0.000 
#
# Total GULP energy -268018.491992 kJ/mol
# GULP energy per Si atom -5583.718583 kJ/mol
# Density = 1.970059 g / cm^3
# Si number density = 19.745529 Si / 1000 Ang^3
#
#
#
# Elastic Constant Matrix: (Units=GPa)
#
#
# Indices 1 2 3 4 5 6 
#
# 1 65.7469 16.8257 5.4804 0.0000 0.0000 0.0000
# 2 16.8257 42.9043 3.4580 0.0000 0.0000 0.0000
# 3 5.4804 3.4580 17.0020 0.0000 0.0000 0.0000
# 4 0.0000 0.0000 0.0000 7.3628 0.0000 0.0000
# 5 0.0000 0.0000 0.0000 0.0000 30.8146 0.0000
# 6 0.0000 0.0000 0.0000 0.0000 0.0000 -65.5361
#
#
#
# Elastic Compliance Matrix: (Units=1/GPa)
#
#
# Indices 1 2 3 4 5 6 
#
# 1 0.017202 -0.006404 -0.004242 0.000000 0.000000 0.000000
# 2 -0.006404 0.026080 -0.003240 0.000000 0.000000 0.000000
# 3 -0.004242 -0.003240 0.060843 0.000000 0.000000 0.000000
# 4 0.000000 0.000000 0.000000 0.135817 0.000000 0.000000
# 5 0.000000 0.000000 0.000000 0.000000 0.032452 0.000000
# 6 0.000000 0.000000 0.000000 0.000000 0.000000 -0.015259
#
#
# Mechanical properties :
#
#
# Convention : Reuss Voigt Hill
#
# Bulk Modulus (GPa) = 13.09717 19.68682 16.39200
# Shear Modulus (GPa) = 16.11025 1.18755 8.64890
#
# Velocity S-wave (km/s) = 2.85948 0.77636 2.09516
# Velocity P-wave (km/s) = 4.18922 3.28566 3.76465
#
# Compressibility (1/GPa) = 0.07635238
#
# Stress axis : x y z
#
# Youngs Moduli (GPa) = 58.13130 38.34298 16.43567
#
# Poissons Ratio (x) = 0.24556 0.06973
# Poissons Ratio (y) = 0.37229 0.05325
# Poissons Ratio (z) = 0.24662 0.12424
#
# Static dielectric constant tensor:
#      x y z
#    x 1.665940 0.000000 0.000000 
#    y 0.000000 1.679860 0.000000 
#    z 0.000000 0.000000 1.723810 
# 
# From -- ./inp_files/20137.got.cif
#   From: 2010.05.17/outbox.cif.g08.bks.cpg/sg53_11_cif.got.tgz:20137.got - 2010.06.03 12:45:16.
