data_PCOD9415297
_publ_section_title
;
Structure prediction by ZEFSAII (Michael W. Deem and Ramdas Pophale) SiO2 
 PCOD9415297
Probable space group: P M N A
;
_chemical_formula_sum "Si O2"
_cell_formula_units_Z 64
_cell_length_a 9.017947
_cell_length_b 12.369553
_cell_length_c 28.086997
_cell_angle_alpha 90.000000
_cell_angle_beta 90.000000
_cell_angle_gamma 90.000000
_cell_volume 3133.047593
_symmetry_space_group_name_H-M "P M N A"
_symmetry_group_IT_number 53
_symmetry_cell_setting 'orthorhombic'
loop_
_space_group_symop_operation_xyz
x,y,z
1/2-x,-y,1/2+z
x,-y,-z
1/2-x,y,1/2-z
-x,-y,-z
1/2+x,y,1/2-z
-x,y,z
1/2+x,-y,1/2+z
loop_
_atom_site_type_symbol
_atom_site_label
_atom_site_fract_x
_atom_site_fract_y
_atom_site_fract_z
Si Si1 0.173919 0.598454 0.373609
Si Si2 0.323544 0.818520 0.942542
Si Si3 0.669209 0.999923 0.679944
Si Si4 0.168911 0.041016 0.933417
Si Si5 0.821779 0.265562 0.540096
Si Si6 0.323240 0.779304 0.831585
Si Si7 0.671955 0.220354 0.794562
Si Si8 0.323281 0.559962 0.700230
O O1 0.227495 0.636471 0.425774
O O2 0.182396 0.706620 0.341362
O O3 0.265374 0.510255 0.344462
O O4 0.000000 0.564872 0.375803
O O5 0.500000 0.839293 0.944828
O O6 0.292026 0.781623 0.888727
O O7 0.242064 0.931576 0.953497
O O8 0.286023 0.732779 0.983877
O O9 0.500000 0.987309 0.696832
O O10 0.765441 0.893195 0.688591
O O11 0.665906 0.018119 0.623057
O O12 0.745223 0.107499 0.698913
O O13 0.258164 0.150834 0.942249
O O14 0.000000 0.054917 0.949709
O O15 0.000000 0.262333 0.545102
O O16 0.500000 0.767237 0.824803
O O17 0.234255 0.681248 0.808846
O O18 0.750000 0.277071 0.750000
O O19 0.500000 0.202711 0.784252
O O20 0.250000 0.523772 0.750000
O O21 0.500000 0.554668 0.703825
#
# Coordination Sequence:
#
# PCOD9415297 Si02
#       8
#     8   8   8   8   8   8   8   8
#     4  10  22  40  62  88 119 155 199 248 295 349
#     4   9  19  34  56  85 119 161 203 243 288 342
#     4  10  20  35  55  83 119 156 194 238 292 352
#     4  10  19  30  49  80 120 161 199 241 287 339
#     4  10  19  34  56  84 119 160 204 243 285 343
#     4  10  21  40  64  89 120 155 198 248 297 349
#     4  11  22  36  56  83 115 153 192 239 297 358
#     4  12  26  45  69  92 115 148 195 248 304 362
#
# _framework density 20.427395000000001
#
# number of rings (size 3 to 8) (size 9 to 14) (size 15 to 20)
#    0.000    1.750    1.250    3.375    0.000    6.500 
#    0.000    3.125    0.000    3.750    0.000    0.000 
#    0.000    0.000    0.000    0.000    0.000    0.000 
#
# Total GULP energy -357574.722341 kJ/mol
# GULP energy per Si atom -5587.105037 kJ/mol
# Density = 2.038090 g / cm^3
# Si number density = 20.427395 Si / 1000 Ang^3
#
#
#
# Elastic Constant Matrix: (Units=GPa)
#
#
# Indices 1 2 3 4 5 6 
#
# 1 82.3064 26.3732 18.9898 0.0000 0.0000 0.0000
# 2 26.3732 69.7996 1.5781 0.0000 0.0000 0.0000
# 3 18.9898 1.5781 42.5446 0.0000 0.0000 0.0000
# 4 0.0000 0.0000 0.0000 26.1691 0.0000 0.0000
# 5 0.0000 0.0000 0.0000 0.0000 -26.2265 0.0000
# 6 0.0000 0.0000 0.0000 0.0000 0.0000 33.0337
#
#
#
# Elastic Compliance Matrix: (Units=1/GPa)
#
#
# Indices 1 2 3 4 5 6 
#
# 1 0.015532 -0.005717 -0.006721 0.000000 0.000000 0.000000
# 2 -0.005717 0.016443 0.001942 0.000000 0.000000 0.000000
# 3 -0.006721 0.001942 0.026433 0.000000 0.000000 0.000000
# 4 0.000000 0.000000 0.000000 0.038213 0.000000 0.000000
# 5 0.000000 0.000000 0.000000 0.000000 -0.038129 0.000000
# 6 0.000000 0.000000 0.000000 0.000000 0.000000 0.030272
#
#
# Mechanical properties :
#
#
# Convention : Reuss Voigt Hill
#
# Bulk Modulus (GPa) = 26.72650 32.05923 29.39287
# Shear Modulus (GPa) = 40.90763 16.44257 28.67510
#
# Velocity S-wave (km/s) = 4.47988 2.84020 3.75074
# Velocity P-wave (km/s) = 6.31436 5.14626 5.76000
#
# Compressibility (1/GPa) = 0.03741604
#
# Stress axis : x y z
#
# Youngs Moduli (GPa) = 64.38271 60.81677 37.83221
#
# Poissons Ratio (x) = 0.34767 0.25426
# Poissons Ratio (y) = 0.36806 -0.07346
# Poissons Ratio (z) = 0.43270 -0.11809
#
# Static dielectric constant tensor:
#      x y z
#    x 1.693370 0.000000 0.000000 
#    y 0.000000 1.692120 0.000000 
#    z 0.000000 0.000000 1.743130 
# 
# From -- ./inp_files/38129.got.cif
#   From: 2010.05.17/outbox.cif.g08.bks.cpg/sg53_20_cif.got.tgz:38129.got - 2010.06.03 12:45:16.
