data_PCOD9415286
_publ_section_title
;
Structure prediction by ZEFSAII (Michael W. Deem and Ramdas Pophale) SiO2 
 PCOD9415286
Probable space group: P M N A
;
_chemical_formula_sum "Si O2"
_cell_formula_units_Z 64
_cell_length_a 9.024677
_cell_length_b 20.583293
_cell_length_c 19.742022
_cell_angle_alpha 90.000000
_cell_angle_beta 90.000000
_cell_angle_gamma 90.000000
_cell_volume 3667.230052
_symmetry_space_group_name_H-M "P M N A"
_symmetry_group_IT_number 53
_symmetry_cell_setting 'orthorhombic'
loop_
_space_group_symop_operation_xyz
x,y,z
1/2-x,-y,1/2+z
x,-y,-z
1/2-x,y,1/2-z
-x,-y,-z
1/2+x,y,1/2-z
-x,y,z
1/2+x,-y,1/2+z
loop_
_atom_site_type_symbol
_atom_site_label
_atom_site_fract_x
_atom_site_fract_y
_atom_site_fract_z
Si Si1 0.823976 0.842243 0.680070
Si Si2 0.820913 0.098317 0.554661
Si Si3 0.178272 0.604359 0.569905
Si Si4 0.830776 0.765831 0.070560
Si Si5 0.321387 0.490521 0.823671
Si Si6 0.320391 0.957641 0.907249
Si Si7 0.821886 0.630203 0.413608
Si Si8 0.331322 0.738336 0.589897
O O1 0.750000 0.824966 0.750000
O O2 0.771524 0.912804 0.654197
O O3 0.772863 0.789894 0.625713
O O4 0.000000 0.842904 0.685689
O O5 0.749504 0.165002 0.579936
O O6 0.778271 0.079118 0.477136
O O7 0.000000 0.104696 0.556520
O O8 0.774373 0.032654 0.594024
O O9 0.215472 0.543713 0.618120
O O10 0.215267 0.601874 0.489190
O O11 0.263191 0.667098 0.597611
O O12 0.000000 0.613424 0.573368
O O13 0.749072 0.701085 0.096714
O O14 0.000000 0.768508 0.095043
O O15 0.833122 0.754669 0.989551
O O16 0.250000 0.502044 0.750000
O O17 0.500000 0.491411 0.816263
O O18 0.277338 0.421252 0.856235
O O19 0.500000 0.958837 0.908719
O O20 0.000000 0.636580 0.412492
O O21 0.500000 0.741953 0.615577
#
# Coordination Sequence:
#
# PCOD9415286 Si02
#       8
#     8   8   8   8   8   8   8   8
#     4  11  21  34  50  69  97 136 173 207 247 296
#     4   9  15  29  52  75  97 126 163 207 251 300
#     4   9  18  34  56  78 102 135 175 218 257 302
#     4  10  19  30  48  78 109 131 159 208 262 302
#     4  10  21  36  55  79 105 134 171 215 263 315
#     4   8  16  29  49  73  96 125 167 207 244 292
#     4   9  18  34  56  78 101 136 178 215 254 308
#     4  10  20  33  48  72 104 134 167 205 248 301
#
# _framework density 17.451862999999999
#
# number of rings (size 3 to 8) (size 9 to 14) (size 15 to 20)
#    0.000    2.500    1.250    2.250    0.000    4.000 
#    0.000    3.750    0.000    4.500    0.000    1.750 
#    0.000    0.000    0.000    0.000    0.000    0.000 
#
# Total GULP energy -356584.751127 kJ/mol
# GULP energy per Si atom -5571.636736 kJ/mol
# Density = 1.741214 g / cm^3
# Si number density = 17.451863 Si / 1000 Ang^3
#
#
#
# Elastic Constant Matrix: (Units=GPa)
#
#
# Indices 1 2 3 4 5 6 
#
# 1 37.4305 30.2204 11.0957 0.0000 0.0000 0.0000
# 2 30.2204 112.9756 14.8695 0.0000 0.0000 0.0000
# 3 11.0957 14.8695 23.0887 0.0000 0.0000 0.0000
# 4 0.0000 0.0000 0.0000 6.6192 0.0000 0.0000
# 5 0.0000 0.0000 0.0000 0.0000 17.6552 0.0000
# 6 0.0000 0.0000 0.0000 0.0000 0.0000 13.9366
#
#
#
# Elastic Compliance Matrix: (Units=1/GPa)
#
#
# Indices 1 2 3 4 5 6 
#
# 1 0.037107 -0.008281 -0.012500 0.000000 0.000000 0.000000
# 2 -0.008281 0.011519 -0.003439 0.000000 0.000000 0.000000
# 3 -0.012500 -0.003439 0.051533 0.000000 0.000000 0.000000
# 4 0.000000 0.000000 0.000000 0.151075 0.000000 0.000000
# 5 0.000000 0.000000 0.000000 0.000000 0.056641 0.000000
# 6 0.000000 0.000000 0.000000 0.000000 0.000000 0.071753
#
#
# Mechanical properties :
#
#
# Convention : Reuss Voigt Hill
#
# Bulk Modulus (GPa) = 19.33472 31.76289 25.54880
# Shear Modulus (GPa) = 11.22821 15.46282 13.34551
#
# Velocity S-wave (km/s) = 2.53925 2.97985 2.76833
# Velocity P-wave (km/s) = 4.43847 5.48445 4.98894
#
# Compressibility (1/GPa) = 0.05172044
#
# Stress axis : x y z
#
# Youngs Moduli (GPa) = 26.94892 86.81164 19.40509
#
# Poissons Ratio (x) = 0.71887 0.24255
# Poissons Ratio (y) = 0.22316 0.06673
# Poissons Ratio (z) = 0.33685 0.29855
#
# Static dielectric constant tensor:
#      x y z
#    x 1.590090 0.000000 0.000000 
#    y 0.000000 1.602910 0.000000 
#    z 0.000000 0.000000 1.590110 
# 
# From -- ./inp_files/31180.got.cif
#   From: 2010.05.17/outbox.cif.g08.bks.cpg/sg53_16_cif.got.tgz:31180.got - 2010.06.03 12:45:16.
