data_PCOD9415094
_publ_section_title
;
Structure prediction by ZEFSAII (Michael W. Deem and Ramdas Pophale) SiO2 
 PCOD9415094
Probable space group: P M N A
;
_chemical_formula_sum "Si O2"
_cell_formula_units_Z 40
_cell_length_a 11.468209
_cell_length_b 6.752474
_cell_length_c 18.049729
_cell_angle_alpha 90.000000
_cell_angle_beta 90.000000
_cell_angle_gamma 90.000000
_cell_volume 1397.749049
_symmetry_space_group_name_H-M "P M N A"
_symmetry_group_IT_number 53
_symmetry_cell_setting 'orthorhombic'
loop_
_space_group_symop_operation_xyz
x,y,z
1/2-x,-y,1/2+z
x,-y,-z
1/2-x,y,1/2-z
-x,-y,-z
1/2+x,y,1/2-z
-x,y,z
1/2+x,-y,1/2+z
loop_
_atom_site_type_symbol
_atom_site_label
_atom_site_fract_x
_atom_site_fract_y
_atom_site_fract_z
Si Si1 0.500000 0.767521 0.974782
Si Si2 0.000000 0.766445 0.137688
Si Si3 0.500000 0.277986 0.469816
Si Si4 0.000000 0.380076 0.233956
Si Si5 0.250000 0.357397 0.250000
Si Si6 0.749333 0.282511 0.638693
Si Si7 0.000000 0.278113 0.641714
Si Si8 0.748465 0.225607 0.471538
O O1 0.500000 0.659459 0.055135
O O2 0.624918 0.732895 0.937249
O O3 0.500000 0.000000 0.000000
O O4 0.000000 0.828567 0.051067
O O5 0.869874 0.825106 0.163162
O O6 0.000000 0.531199 0.162333
O O7 0.500000 0.500000 0.500000
O O8 0.624155 0.241031 0.432107
O O9 0.121699 0.263432 0.242389
O O10 0.000000 0.543769 0.300115
O O11 0.245109 0.513058 0.317853
O O12 0.738358 0.333856 0.551566
O O13 0.873603 0.175493 0.650486
O O14 0.754668 0.000000 0.500000
#
# Coordination Sequence:
#
# PCOD9415094 Si02
#       8
#     4   4   4   4   4   8   4   8
#     4   8  14  24  39  59  83 110 135 161 199 244
#     4   8  14  23  33  46  68  98 124 152 192 233
#     4  10  19  29  40  56  79 107 138 171 205 243
#     4   8  12  18  29  45  67  95 119 146 189 234
#     4   8  12  18  28  46  72  96 116 144 188 232
#     4   8  13  20  32  50  73  98 121 150 189 230
#     4   8  12  18  30  50  74  98 121 150 188 234
#     4   9  16  27  42  59  80 107 136 165 199 242
#
# _framework density 28.617442
#
# number of rings (size 3 to 8) (size 9 to 14) (size 15 to 20)
#    0.000    3.600    0.000    0.300    0.000    0.000 
#    0.000    0.500    0.000    0.000    0.000    0.000 
#    0.000   24.000    0.000   69.000    0.000   10.400 
#
# Total GULP energy -223204.026745 kJ/mol
# GULP energy per Si atom -5580.100669 kJ/mol
# Density = 2.855231 g / cm^3
# Si number density = 28.617442 Si / 1000 Ang^3
#
#
#
# Elastic Constant Matrix: (Units=GPa)
#
#
# Indices 1 2 3 4 5 6 
#
# 1 459.0356 38.8757 4.5961 0.0000 0.0000 0.0000
# 2 38.8757 63.4166 28.9346 0.0000 0.0000 0.0000
# 3 4.5961 28.9346 123.7416 0.0000 0.0000 0.0000
# 4 0.0000 0.0000 0.0000 27.0157 0.0000 0.0000
# 5 0.0000 0.0000 0.0000 0.0000 16.1156 0.0000
# 6 0.0000 0.0000 0.0000 0.0000 0.0000 12.0068
#
#
#
# Elastic Compliance Matrix: (Units=1/GPa)
#
#
# Indices 1 2 3 4 5 6 
#
# 1 0.002306 -0.001539 0.000274 0.000000 0.000000 0.000000
# 2 -0.001539 0.018679 -0.004311 0.000000 0.000000 0.000000
# 3 0.000274 -0.004311 0.009079 0.000000 0.000000 0.000000
# 4 0.000000 0.000000 0.000000 0.037015 0.000000 0.000000
# 5 0.000000 0.000000 0.000000 0.000000 0.062052 0.000000
# 6 0.000000 0.000000 0.000000 0.000000 0.000000 0.083286
#
#
# Mechanical properties :
#
#
# Convention : Reuss Voigt Hill
#
# Bulk Modulus (GPa) = 52.87174 87.88963 70.38069
# Shear Modulus (GPa) = 21.75122 49.28011 35.51566
#
# Velocity S-wave (km/s) = 2.75993 4.15424 3.52668
# Velocity P-wave (km/s) = 5.35460 7.33409 6.42108
#
# Compressibility (1/GPa) = 0.01891370
#
# Stress axis : x y z
#
# Youngs Moduli (GPa) = 433.64170 53.53677 110.14301
#
# Poissons Ratio (x) = 0.08238 -0.03020
# Poissons Ratio (y) = 0.66726 0.47477
# Poissons Ratio (z) = -0.11888 0.23077
#
# Static dielectric constant tensor:
#      x y z
#    x 2.259200 0.000000 0.000000 
#    y 0.000000 2.330710 0.000000 
#    z 0.000000 0.000000 2.243810 
# 
# From -- ./inp_files/31847.got.cif
#   From: 2010.05.17/outbox.cif.g08.bks.cpg/sg53_16_cif.got.tgz:31847.got - 2010.06.03 12:45:16.
