data_PCOD9415443
_publ_section_title
;
Structure prediction by ZEFSAII (Michael W. Deem and Ramdas Pophale) SiO2 
 PCOD9415443
Probable space group: P M N A
;
_chemical_formula_sum "Si O2"
_cell_formula_units_Z 60
_cell_length_a 9.890558
_cell_length_b 14.539936
_cell_length_c 25.605137
_cell_angle_alpha 90.000000
_cell_angle_beta 90.000000
_cell_angle_gamma 90.000000
_cell_volume 3682.225598
_symmetry_space_group_name_H-M "P M N A"
_symmetry_group_IT_number 53
_symmetry_cell_setting 'orthorhombic'
loop_
_space_group_symop_operation_xyz
x,y,z
1/2-x,-y,1/2+z
x,-y,-z
1/2-x,y,1/2-z
-x,-y,-z
1/2+x,y,1/2-z
-x,y,z
1/2+x,-y,1/2+z
loop_
_atom_site_type_symbol
_atom_site_label
_atom_site_fract_x
_atom_site_fract_y
_atom_site_fract_z
Si Si1 0.250000 0.201951 0.250000
Si Si2 0.152479 0.338481 0.160373
Si Si3 0.159952 0.873451 0.371932
Si Si4 0.343397 0.177593 0.418804
Si Si5 0.159971 0.491652 0.302636
Si Si6 0.653120 0.928038 0.840060
Si Si7 0.158808 0.298905 0.698689
Si Si8 0.341160 0.100230 0.526347
O O1 0.171108 0.269360 0.210078
O O2 0.331008 0.133270 0.211864
O O3 0.166128 0.276214 0.108833
O O4 0.268542 0.414759 0.162368
O O5 0.000000 0.376997 0.162788
O O6 0.196001 0.779902 0.342191
O O7 0.247925 0.887341 0.423621
O O8 0.000000 0.869649 0.384799
O O9 0.179536 0.963169 0.335003
O O10 0.500000 0.147352 0.414850
O O11 0.253226 0.110979 0.383667
O O12 0.307704 0.171100 0.479539
O O13 0.250000 0.487264 0.250000
O O14 0.172606 0.596608 0.322135
O O15 0.000000 0.472942 0.293822
O O16 0.500000 0.917358 0.859020
O O17 0.250000 0.290868 0.750000
O O18 0.000000 0.286769 0.712244
O O19 0.500000 0.109102 0.540218
O O20 0.322670 0.000000 0.500000
#
# Coordination Sequence:
#
# PCOD9415443 Si02
#       8
#     4   8   8   8   8   8   8   8
#     4  10  20  30  46  70 104 138 164 200 238 300
#     4  10  19  31  49  73 102 131 163 203 251 296
#     4  10  21  35  52  75 103 133 170 212 251 292
#     4   9  19  34  50  72 102 132 164 207 249 294
#     4  10  19  32  52  74 100 131 166 206 249 297
#     4  10  20  32  47  71 101 136 171 202 242 294
#     4   9  20  37  54  76 104 134 169 210 251 295
#     4  10  19  34  54  74  99 132 172 211 250 298
#
# _framework density 16.294492999999999
#
# number of rings (size 3 to 8) (size 9 to 14) (size 15 to 20)
#    0.000    2.267    2.000    0.800    0.933    4.533 
#    0.000    0.000    0.000    0.800    0.000    5.600 
#    0.000    0.000    0.000    0.000    0.000    0.000 
#
# Total GULP energy -334281.333257 kJ/mol
# GULP energy per Si atom -5571.355554 kJ/mol
# Density = 1.625741 g / cm^3
# Si number density = 16.294493 Si / 1000 Ang^3
#
#
#
# Elastic Constant Matrix: (Units=GPa)
#
#
# Indices 1 2 3 4 5 6 
#
# 1 78.4143 57.4462 36.6261 0.0000 0.0000 0.0000
# 2 57.4462 98.1373 44.4986 0.0000 0.0000 0.0000
# 3 36.6261 44.4986 66.2329 0.0000 0.0000 0.0000
# 4 0.0000 0.0000 0.0000 19.2119 0.0000 0.0000
# 5 0.0000 0.0000 0.0000 0.0000 21.0785 0.0000
# 6 0.0000 0.0000 0.0000 0.0000 0.0000 17.0077
#
#
#
# Elastic Compliance Matrix: (Units=1/GPa)
#
#
# Indices 1 2 3 4 5 6 
#
# 1 0.023608 -0.011361 -0.005422 0.000000 0.000000 0.000000
# 2 -0.011361 0.020121 -0.007236 0.000000 0.000000 0.000000
# 3 -0.005422 -0.007236 0.022958 0.000000 0.000000 0.000000
# 4 0.000000 0.000000 0.000000 0.052051 0.000000 0.000000
# 5 0.000000 0.000000 0.000000 0.000000 0.047442 0.000000
# 6 0.000000 0.000000 0.000000 0.000000 0.000000 0.058797
#
#
# Mechanical properties :
#
#
# Convention : Reuss Voigt Hill
#
# Bulk Modulus (GPa) = 53.62116 57.76959 55.69537
# Shear Modulus (GPa) = 17.90624 18.40719 18.15672
#
# Velocity S-wave (km/s) = 3.31858 3.36468 3.34171
# Velocity P-wave (km/s) = 6.90384 7.11514 7.01028
#
# Compressibility (1/GPa) = 0.01864935
#
# Stress axis : x y z
#
# Youngs Moduli (GPa) = 42.35763 49.69912 43.55747
#
# Poissons Ratio (x) = 0.56463 0.23619
# Poissons Ratio (y) = 0.48122 0.31518
# Poissons Ratio (z) = 0.22968 0.35962
#
# Static dielectric constant tensor:
#      x y z
#    x 1.555220 0.000000 0.000000 
#    y 0.000000 1.569000 0.000000 
#    z 0.000000 0.000000 1.522720 
# 
# From -- ./inp_files/36423.got.cif
#   From: 2010.05.17/outbox.cif.g08.bks.cpg/sg53_19_cif.got.tgz:36423.got - 2010.06.03 12:45:16.
