data_PCOD9415072
_publ_section_title
;
Structure prediction by ZEFSAII (Michael W. Deem and Ramdas Pophale) SiO2 
 PCOD9415072
Probable space group: P M N A
;
_chemical_formula_sum "Si O2"
_cell_formula_units_Z 48
_cell_length_a 26.992203
_cell_length_b 13.890171
_cell_length_c 5.836266
_cell_angle_alpha 90.000000
_cell_angle_beta 90.000000
_cell_angle_gamma 90.000000
_cell_volume 2188.169707
_symmetry_space_group_name_H-M "P M N A"
_symmetry_group_IT_number 53
_symmetry_cell_setting 'orthorhombic'
loop_
_space_group_symop_operation_xyz
x,y,z
1/2-x,-y,1/2+z
x,-y,-z
1/2-x,y,1/2-z
-x,-y,-z
1/2+x,y,1/2-z
-x,y,z
1/2+x,-y,1/2+z
loop_
_atom_site_type_symbol
_atom_site_label
_atom_site_fract_x
_atom_site_fract_y
_atom_site_fract_z
Si Si1 0.639100 0.955488 0.744496
Si Si2 0.555649 0.859944 0.535590
Si Si3 0.374219 0.245815 0.770725
Si Si4 0.556138 0.665753 0.839112
Si Si5 0.804067 0.235484 0.350823
Si Si6 0.145356 0.596779 0.887339
O O1 0.580383 0.936093 0.707824
O O2 0.661938 0.847633 0.741781
O O3 0.657558 0.000000 0.500000
O O4 0.649291 0.000000 0.000000
O O5 0.500000 0.883006 0.463200
O O6 0.595213 0.843605 0.331789
O O7 0.553584 0.756000 0.662869
O O8 0.362923 0.326042 0.585624
O O9 0.412689 0.292316 0.949997
O O10 0.321324 0.222579 0.886475
O O11 0.500000 0.636729 0.893339
O O12 0.591469 0.584020 0.730862
O O13 0.750000 0.220171 0.250000
O O14 0.820054 0.344506 0.287241
O O15 0.164685 0.500000 0.000000
#
# Coordination Sequence:
#
# PCOD9415072 Si02
#       6
#     8   8   8   8   8   8
#     4  12  26  45  70 103 142 181 238 295 347 417
#     4  10  20  38  64  97 137 182 225 273 342 413
#     4  10  18  40  66  91 135 177 221 282 339 412
#     4   9  18  33  61  94 129 179 224 264 329 409
#     4  11  25  46  67  94 129 177 226 289 359 414
#     4  10  22  41  64  96 132 170 218 285 345 417
#
# _framework density 21.936142
#
# number of rings (size 3 to 8) (size 9 to 14) (size 15 to 20)
#    0.000    1.667    5.000    1.500    0.000    5.667 
#    3.000    0.833    0.000    0.000    0.000    0.000 
#    0.000    0.000    0.000    0.000    0.000    0.000 
#
# Total GULP energy -267448.064423 kJ/mol
# GULP energy per Si atom -5571.834675 kJ/mol
# Density = 2.188621 g / cm^3
# Si number density = 21.936142 Si / 1000 Ang^3
#
#
#
# Elastic Constant Matrix: (Units=GPa)
#
#
# Indices 1 2 3 4 5 6 
#
# 1 120.3897 -0.2060 22.8824 0.0000 0.0000 0.0000
# 2 -0.2060 82.9634 10.6944 0.0000 0.0000 0.0000
# 3 22.8824 10.6944 80.9245 0.0000 0.0000 0.0000
# 4 0.0000 0.0000 0.0000 31.1014 0.0000 0.0000
# 5 0.0000 0.0000 0.0000 0.0000 16.9966 0.0000
# 6 0.0000 0.0000 0.0000 0.0000 0.0000 11.0913
#
#
#
# Elastic Compliance Matrix: (Units=1/GPa)
#
#
# Indices 1 2 3 4 5 6 
#
# 1 0.008788 0.000348 -0.002531 0.000000 0.000000 0.000000
# 2 0.000348 0.012276 -0.001721 0.000000 0.000000 0.000000
# 3 -0.002531 -0.001721 0.013300 0.000000 0.000000 0.000000
# 4 0.000000 0.000000 0.000000 0.032153 0.000000 0.000000
# 5 0.000000 0.000000 0.000000 0.000000 0.058835 0.000000
# 6 0.000000 0.000000 0.000000 0.000000 0.000000 0.090161
#
#
# Mechanical properties :
#
#
# Convention : Reuss Voigt Hill
#
# Bulk Modulus (GPa) = 37.65453 39.00215 38.32834
# Shear Modulus (GPa) = 21.53565 28.56497 25.05031
#
# Velocity S-wave (km/s) = 3.13668 3.61250 3.38296
# Velocity P-wave (km/s) = 5.50646 5.93453 5.72450
#
# Compressibility (1/GPa) = 0.02655723
#
# Stress axis : x y z
#
# Youngs Moduli (GPa) = 113.79145 81.45852 75.18652
#
# Poissons Ratio (x) = -0.02835 0.19029
# Poissons Ratio (y) = -0.03961 0.12938
# Poissons Ratio (z) = 0.28800 0.14017
#
# Static dielectric constant tensor:
#      x y z
#    x 1.804840 0.000000 0.000000 
#    y 0.000000 1.831110 0.000000 
#    z 0.000000 0.000000 1.894930 
# 
# From -- ./inp_files/4467.got.cif
#   From: 2010.05.17/outbox.cif.g08.bks.cpg/sg53_3_cif.got.tgz:4467.got - 2010.06.03 12:45:16.
