data_PCOD9415791
_publ_section_title
;
Structure prediction by ZEFSAII (Michael W. Deem and Ramdas Pophale) SiO2 
 PCOD9415791
Probable space group: P M N A
;
_chemical_formula_sum "Si O2"
_cell_formula_units_Z 64
_cell_length_a 7.605973
_cell_length_b 15.583151
_cell_length_c 25.817980
_cell_angle_alpha 90.000000
_cell_angle_beta 90.000000
_cell_angle_gamma 90.000000
_cell_volume 3060.076745
_symmetry_space_group_name_H-M "P M N A"
_symmetry_group_IT_number 53
_symmetry_cell_setting 'orthorhombic'
loop_
_space_group_symop_operation_xyz
x,y,z
1/2-x,-y,1/2+z
x,-y,-z
1/2-x,y,1/2-z
-x,-y,-z
1/2+x,y,1/2-z
-x,y,z
1/2+x,-y,1/2+z
loop_
_atom_site_type_symbol
_atom_site_label
_atom_site_fract_x
_atom_site_fract_y
_atom_site_fract_z
Si Si1 0.715169 0.756397 0.995210
Si Si2 0.298262 0.936602 0.952370
Si Si3 0.789349 0.860727 0.692675
Si Si4 0.791317 0.561996 0.809000
Si Si5 0.784858 0.034643 0.648144
Si Si6 0.707555 0.714038 0.885857
Si Si7 0.705308 0.219371 0.887827
Si Si8 0.709617 0.367838 0.690735
O O1 0.500000 0.750565 0.998458
O O2 0.777398 0.754632 0.055039
O O3 0.774499 0.848486 0.973090
O O4 0.771291 0.699642 0.945254
O O5 0.500000 0.917030 0.937173
O O6 0.224997 0.988053 0.904591
O O7 0.301475 0.000000 0.000000
O O8 0.750000 0.826643 0.750000
O O9 0.722157 0.796591 0.647178
O O10 0.000000 0.862308 0.687471
O O11 0.727377 0.960357 0.688372
O O12 0.750000 0.587907 0.750000
O O13 0.729361 0.631119 0.850192
O O14 0.721418 0.465051 0.816908
O O15 0.000000 0.557506 0.813491
O O16 0.723626 0.133227 0.641048
O O17 0.000000 0.038735 0.652086
O O18 0.500000 0.729874 0.890814
O O19 0.500000 0.198910 0.897330
O O20 0.718533 0.299286 0.849504
O O21 0.750000 0.343319 0.750000
O O22 0.500000 0.368889 0.684515
#
# Coordination Sequence:
#
# PCOD9415791 Si02
#       8
#     8   8   8   8   8   8   8   8
#     4   9  16  27  47  79 113 143 178 218 258 305
#     4   9  12  20  42  71 101 134 176 220 253 288
#     4  10  20  32  46  69 104 142 178 217 263 313
#     4  10  21  38  60  82 102 131 174 222 271 324
#     4   9  16  27  45  72 104 138 177 218 257 300
#     4  10  19  32  53  80 110 142 175 216 264 313
#     4  10  19  32  55  85 112 140 179 223 264 308
#     4  10  22  41  62  81 103 133 172 220 273 324
#
# _framework density 20.914508999999999
#
# number of rings (size 3 to 8) (size 9 to 14) (size 15 to 20)
#    0.000    2.375    2.500    1.125    0.000    3.500 
#    0.000    3.125    0.000    3.750    0.000    0.875 
#    0.000    0.000    0.000    0.000    0.000    0.000 
#
# Total GULP energy -356376.677539 kJ/mol
# GULP energy per Si atom -5568.385587 kJ/mol
# Density = 2.086691 g / cm^3
# Si number density = 20.914509 Si / 1000 Ang^3
#
#
#
# Elastic Constant Matrix: (Units=GPa)
#
#
# Indices 1 2 3 4 5 6 
#
# 1 33.2550 -12.6134 -7.1783 0.0000 0.0000 0.0000
# 2 -12.6134 97.4272 67.8658 0.0000 0.0000 0.0000
# 3 -7.1783 67.8658 116.7040 0.0000 0.0000 0.0000
# 4 0.0000 0.0000 0.0000 26.5977 0.0000 0.0000
# 5 0.0000 0.0000 0.0000 0.0000 10.1376 0.0000
# 6 0.0000 0.0000 0.0000 0.0000 0.0000 203.2253
#
#
#
# Elastic Compliance Matrix: (Units=1/GPa)
#
#
# Indices 1 2 3 4 5 6 
#
# 1 0.031661 0.004610 -0.000733 0.000000 0.000000 0.000000
# 2 0.004610 0.017924 -0.010140 0.000000 0.000000 0.000000
# 3 -0.000733 -0.010140 0.014420 0.000000 0.000000 0.000000
# 4 0.000000 0.000000 0.000000 0.037597 0.000000 0.000000
# 5 0.000000 0.000000 0.000000 0.000000 0.098642 0.000000
# 6 0.000000 0.000000 0.000000 0.000000 0.000000 0.004921
#
#
# Mechanical properties :
#
#
# Convention : Reuss Voigt Hill
#
# Bulk Modulus (GPa) = 19.42559 38.17049 28.79804
# Shear Modulus (GPa) = 21.29015 61.27962 41.28488
#
# Velocity S-wave (km/s) = 3.19401 5.41882 4.44777
# Velocity P-wave (km/s) = 4.78649 7.57904 6.33847
#
# Compressibility (1/GPa) = 0.05147849
#
# Stress axis : x y z
#
# Youngs Moduli (GPa) = 31.58476 55.79152 69.34842
#
# Poissons Ratio (x) = -0.25718 0.05085
# Poissons Ratio (y) = -0.14560 0.70316
# Poissons Ratio (z) = 0.02316 0.56570
#
# Static dielectric constant tensor:
#      x y z
#    x 1.826100 0.000000 0.000000 
#    y 0.000000 1.766690 0.000000 
#    z 0.000000 0.000000 1.775360 
# 
# From -- ./inp_files/34317.got.cif
#   From: 2010.05.17/outbox.cif.g08.bks.cpg/sg53_18_cif.got.tgz:34317.got - 2010.06.03 12:45:16.
