data_PCOD9415777
_publ_section_title
;
Structure prediction by ZEFSAII (Michael W. Deem and Ramdas Pophale) SiO2 
 PCOD9415777
Probable space group: P M N A
;
_chemical_formula_sum "Si O2"
_cell_formula_units_Z 48
_cell_length_a 8.704698
_cell_length_b 32.333444
_cell_length_c 9.499184
_cell_angle_alpha 90.000000
_cell_angle_beta 90.000000
_cell_angle_gamma 90.000000
_cell_volume 2673.572555
_symmetry_space_group_name_H-M "P M N A"
_symmetry_group_IT_number 53
_symmetry_cell_setting 'orthorhombic'
loop_
_space_group_symop_operation_xyz
x,y,z
1/2-x,-y,1/2+z
x,-y,-z
1/2-x,y,1/2-z
-x,-y,-z
1/2+x,y,1/2-z
-x,y,z
1/2+x,-y,1/2+z
loop_
_atom_site_type_symbol
_atom_site_label
_atom_site_fract_x
_atom_site_fract_y
_atom_site_fract_z
Si Si1 0.185489 0.539592 0.907586
Si Si2 0.684201 0.869451 0.592663
Si Si3 0.684026 0.795704 0.092248
Si Si4 0.814749 0.961700 0.906525
Si Si5 0.815728 0.619082 0.091330
Si Si6 0.684060 0.704554 0.091329
O O1 0.250000 0.538377 0.750000
O O2 0.000000 0.538882 0.899377
O O3 0.234661 0.500000 0.000000
O O4 0.230396 0.580985 0.992299
O O5 0.750000 0.865814 0.750000
O O6 0.500000 0.866811 0.596797
O O7 0.750012 0.832946 0.498380
O O8 0.727169 0.915699 0.539772
O O9 0.750000 0.798140 0.250000
O O10 0.500000 0.798349 0.098675
O O11 0.723230 0.749904 0.031408
O O12 0.750000 0.965581 0.750000
O O13 0.000000 0.963255 0.900461
O O14 0.760048 0.000000 0.000000
O O15 0.750000 0.613884 0.250000
O O16 0.755534 0.662755 0.030119
O O17 0.000000 0.620396 0.101493
O O18 0.750000 0.705628 0.250000
O O19 0.500000 0.700578 0.095490
#
# Coordination Sequence:
#
# PCOD9415777 Si02
#       6
#     8   8   8   8   8   8
#     4  10  22  38  55  78 106 136 172 211 253 302
#     4  10  20  35  54  75 103 138 173 212 258 309
#     4  10  20  34  53  78 106 137 175 217 259 305
#     4   9  19  35  53  75 102 132 168 208 253 305
#     4  10  19  32  53  79 105 135 171 210 253 302
#     4   9  17  30  50  75 103 135 170 209 254 302
#
# _framework density 17.953506000000001
#
# number of rings (size 3 to 8) (size 9 to 14) (size 15 to 20)
#    0.000    2.333    0.000    3.500    0.000    5.333 
#    0.000    2.500    0.000    2.000    0.000    0.000 
#    0.000    0.000    0.000    0.000    0.000    0.000 
#
# Total GULP energy -267670.591212 kJ/mol
# GULP energy per Si atom -5576.470650 kJ/mol
# Density = 1.791264 g / cm^3
# Si number density = 17.953506 Si / 1000 Ang^3
#
#
#
# Elastic Constant Matrix: (Units=GPa)
#
#
# Indices 1 2 3 4 5 6 
#
# 1 47.5775 59.0203 27.4705 0.0000 0.0000 0.0000
# 2 59.0203 230.2222 92.0962 0.0000 0.0000 0.0000
# 3 27.4705 92.0962 78.8495 0.0000 0.0000 0.0000
# 4 0.0000 0.0000 0.0000 33.9085 0.0000 0.0000
# 5 0.0000 0.0000 0.0000 0.0000 27.9927 0.0000
# 6 0.0000 0.0000 0.0000 0.0000 0.0000 34.2377
#
#
#
# Elastic Compliance Matrix: (Units=1/GPa)
#
#
# Indices 1 2 3 4 5 6 
#
# 1 0.031160 -0.006843 -0.002864 0.000000 0.000000 0.000000
# 2 -0.006843 0.009656 -0.008894 0.000000 0.000000 0.000000
# 3 -0.002864 -0.008894 0.024068 0.000000 0.000000 0.000000
# 4 0.000000 0.000000 0.000000 0.029491 0.000000 0.000000
# 5 0.000000 0.000000 0.000000 0.000000 0.035724 0.000000
# 6 0.000000 0.000000 0.000000 0.000000 0.000000 0.029208
#
#
# Mechanical properties :
#
#
# Convention : Reuss Voigt Hill
#
# Bulk Modulus (GPa) = 36.12260 79.31367 57.71813
# Shear Modulus (GPa) = 24.30315 31.09860 27.70087
#
# Velocity S-wave (km/s) = 3.68322 4.16645 3.93227
# Velocity P-wave (km/s) = 6.18481 8.21090 7.26880
#
# Compressibility (1/GPa) = 0.02768350
#
# Stress axis : x y z
#
# Youngs Moduli (GPa) = 32.09220 103.56582 41.54876
#
# Poissons Ratio (x) = 0.70868 0.11898
# Poissons Ratio (y) = 0.21960 0.36953
# Poissons Ratio (z) = 0.09190 0.92110
#
# Static dielectric constant tensor:
#      x y z
#    x 1.606150 0.000000 0.000000 
#    y 0.000000 1.659750 0.000000 
#    z 0.000000 0.000000 1.572760 
# 
# From -- ./inp_files/6743.got.cif
#   From: 2010.05.17/outbox.cif.g08.bks.cpg/sg53_4_cif.got.tgz:6743.got - 2010.06.03 12:45:16.
