data_PCOD9415548
_publ_section_title
;
Structure prediction by ZEFSAII (Michael W. Deem and Ramdas Pophale) SiO2 
 PCOD9415548
Probable space group: P M N A
;
_chemical_formula_sum "Si O2"
_cell_formula_units_Z 64
_cell_length_a 17.022328
_cell_length_b 12.908774
_cell_length_c 15.147604
_cell_angle_alpha 90.000000
_cell_angle_beta 90.000000
_cell_angle_gamma 90.000000
_cell_volume 3328.494894
_symmetry_space_group_name_H-M "P M N A"
_symmetry_group_IT_number 53
_symmetry_cell_setting 'orthorhombic'
loop_
_space_group_symop_operation_xyz
x,y,z
1/2-x,-y,1/2+z
x,-y,-z
1/2-x,y,1/2-z
-x,-y,-z
1/2+x,y,1/2-z
-x,y,z
1/2+x,-y,1/2+z
loop_
_atom_site_type_symbol
_atom_site_label
_atom_site_fract_x
_atom_site_fract_y
_atom_site_fract_z
Si Si1 0.590291 0.092666 0.282921
Si Si2 0.796045 0.722698 0.157918
Si Si3 0.593826 0.324147 0.261735
Si Si4 0.590285 0.263093 0.063542
Si Si5 0.837978 0.589652 0.429612
Si Si6 0.694541 0.047613 0.594475
Si Si7 0.365284 0.047942 0.086753
Si Si8 0.905532 0.450416 0.763817
O O1 0.500000 0.089008 0.313455
O O2 0.621963 0.211072 0.293181
O O3 0.645215 0.014054 0.333404
O O4 0.591600 0.061123 0.179644
O O5 0.750000 0.747248 0.250000
O O6 0.737798 0.656125 0.097033
O O7 0.866727 0.645652 0.185083
O O8 0.817016 0.830344 0.110520
O O9 0.500000 0.322444 0.276551
O O10 0.604986 0.320934 0.155842
O O11 0.622445 0.435078 0.296991
O O12 0.500000 0.225045 0.066417
O O13 0.649503 0.166950 0.059208
O O14 0.601950 0.336587 0.981313
O O15 0.819186 0.500000 0.500000
O O16 0.876777 0.555304 0.337636
O O17 0.786500 0.017429 0.602831
O O18 0.670388 0.000000 0.500000
O O19 0.405563 0.000000 0.000000
O O20 0.000000 0.446242 0.767534
#
# Coordination Sequence:
#
# PCOD9415548 Si02
#       8
#     8   8   8   8   8   8   8   8
#     4  10  21  37  60  88 115 153 201 258 309 359
#     4  10  23  41  57  85 124 158 201 253 306 368
#     4   8  16  33  54  82 116 142 179 239 304 358
#     4  10  19  31  53  88 122 149 188 241 293 364
#     4  11  20  34  57  88 122 159 195 238 300 370
#     4  11  23  42  62  82 116 164 209 256 307 359
#     4  10  20  36  57  86 122 160 192 240 314 374
#     4  10  20  37  60  85 118 162 201 245 304 363
#
# _framework density 19.227910000000001
#
# number of rings (size 3 to 8) (size 9 to 14) (size 15 to 20)
#    0.000    2.000    1.250    4.125    0.000    3.250 
#    4.500    1.250    0.000    0.375    0.000    0.000 
#    0.000    0.000    0.000    0.000    0.000    0.000 
#
# Total GULP energy -356704.398765 kJ/mol
# GULP energy per Si atom -5573.506231 kJ/mol
# Density = 1.918415 g / cm^3
# Si number density = 19.227910 Si / 1000 Ang^3
#
#
#
# Elastic Constant Matrix: (Units=GPa)
#
#
# Indices 1 2 3 4 5 6 
#
# 1 56.7547 56.2449 28.6544 0.0000 0.0000 0.0000
# 2 56.2449 158.9359 51.3859 0.0000 0.0000 0.0000
# 3 28.6544 51.3859 64.8935 0.0000 0.0000 0.0000
# 4 0.0000 0.0000 0.0000 29.9235 0.0000 0.0000
# 5 0.0000 0.0000 0.0000 0.0000 12.6321 0.0000
# 6 0.0000 0.0000 0.0000 0.0000 0.0000 24.6522
#
#
#
# Elastic Compliance Matrix: (Units=1/GPa)
#
#
# Indices 1 2 3 4 5 6 
#
# 1 0.028918 -0.008206 -0.006271 0.000000 0.000000 0.000000
# 2 -0.008206 0.010786 -0.004917 0.000000 0.000000 0.000000
# 3 -0.006271 -0.004917 0.022073 0.000000 0.000000 0.000000
# 4 0.000000 0.000000 0.000000 0.033419 0.000000 0.000000
# 5 0.000000 0.000000 0.000000 0.000000 0.079163 0.000000
# 6 0.000000 0.000000 0.000000 0.000000 0.000000 0.040564
#
#
# Mechanical properties :
#
#
# Convention : Reuss Voigt Hill
#
# Bulk Modulus (GPa) = 43.50151 61.46162 52.48157
# Shear Modulus (GPa) = 19.12967 23.06149 21.09558
#
# Velocity S-wave (km/s) = 3.15761 3.46696 3.31589
# Velocity P-wave (km/s) = 5.99727 6.93257 6.48182
#
# Compressibility (1/GPa) = 0.02298771
#
# Stress axis : x y z
#
# Youngs Moduli (GPa) = 34.58011 92.71593 45.30521
#
# Poissons Ratio (x) = 0.76085 0.28412
# Poissons Ratio (y) = 0.28377 0.22277
# Poissons Ratio (z) = 0.21686 0.45589
#
# Static dielectric constant tensor:
#      x y z
#    x 1.654850 0.000000 0.000000 
#    y 0.000000 1.706840 0.000000 
#    z 0.000000 0.000000 1.678910 
# 
# From -- ./inp_files/23881.got.cif
#   From: 2010.05.17/outbox.cif.g08.bks.cpg/sg53_12_cif.got.tgz:23881.got - 2010.06.03 12:45:16.
