data_PCOD9415490
_publ_section_title
;
Structure prediction by ZEFSAII (Michael W. Deem and Ramdas Pophale) SiO2 
 PCOD9415490
Probable space group: P M N A
;
_chemical_formula_sum "Si O2"
_cell_formula_units_Z 64
_cell_length_a 7.551846
_cell_length_b 24.320352
_cell_length_c 13.722126
_cell_angle_alpha 90.000000
_cell_angle_beta 90.000000
_cell_angle_gamma 90.000000
_cell_volume 2520.254415
_symmetry_space_group_name_H-M "P M N A"
_symmetry_group_IT_number 53
_symmetry_cell_setting 'orthorhombic'
loop_
_space_group_symop_operation_xyz
x,y,z
1/2-x,-y,1/2+z
x,-y,-z
1/2-x,y,1/2-z
-x,-y,-z
1/2+x,y,1/2-z
-x,y,z
1/2+x,-y,1/2+z
loop_
_atom_site_type_symbol
_atom_site_label
_atom_site_fract_x
_atom_site_fract_y
_atom_site_fract_z
Si Si1 0.212585 0.091109 0.866259
Si Si2 0.786918 0.028079 0.133256
Si Si3 0.211541 0.787152 0.137096
Si Si4 0.787924 0.853218 0.864429
Si Si5 0.307616 0.387255 0.645015
Si Si6 0.785663 0.620140 0.924946
Si Si7 0.204248 0.502791 0.613974
Si Si8 0.215909 0.262477 0.054367
O O1 0.250000 0.090564 0.750000
O O2 0.278585 0.151865 0.894894
O O3 0.000000 0.090981 0.882062
O O4 0.278890 0.031542 0.902679
O O5 0.750000 0.028312 0.250000
O O6 0.722121 0.087602 0.096081
O O7 0.000000 0.027880 0.119950
O O8 0.250000 0.777157 0.250000
O O9 0.270189 0.741799 0.059506
O O10 0.000000 0.790259 0.129468
O O11 0.750000 0.854280 0.750000
O O12 0.000000 0.853108 0.881280
O O13 0.720049 0.794896 0.901634
O O14 0.250000 0.365018 0.750000
O O15 0.500000 0.362494 0.629141
O O16 0.219074 0.382791 0.538408
O O17 0.315087 0.453590 0.658678
O O18 0.728652 0.681177 0.894261
O O19 0.000000 0.616345 0.925457
O O20 0.725052 0.567216 0.864478
O O21 0.252065 0.500000 0.500000
O O22 0.000000 0.487842 0.627047
O O23 0.000000 0.262726 0.058794
#
# Coordination Sequence:
#
# PCOD9415490 Si02
#       8
#     8   8   8   8   8   8   8   8
#     4   8  13  22  38  61  88 117 151 193 242 295
#     4   8  13  22  39  63  87 113 148 193 246 298
#     4   9  17  30  47  67  94 129 166 203 245 294
#     4   9  17  31  50  69  91 121 159 204 252 300
#     4  10  19  31  50  76 103 129 158 193 234 281
#     4   9  18  33  51  69  94 131 167 195 232 286
#     4   9  17  31  51  73  96 121 151 189 231 273
#     4   9  18  33  51  70  96 133 171 204 244 293
#
# _framework density 25.394261
#
# number of rings (size 3 to 8) (size 9 to 14) (size 15 to 20)
#    0.000    3.125    0.000    0.750    0.000    2.500 
#    0.000    3.125    0.000    5.250    0.000    0.000 
#    0.000   20.000    0.000    0.000    0.000    0.000 
#
# Total GULP energy -356913.284777 kJ/mol
# GULP energy per Si atom -5576.770075 kJ/mol
# Density = 2.533646 g / cm^3
# Si number density = 25.394261 Si / 1000 Ang^3
#
#
#
# Elastic Constant Matrix: (Units=GPa)
#
#
# Indices 1 2 3 4 5 6 
#
# 1 56.8927 -5.9099 -5.4926 0.0000 0.0000 0.0000
# 2 -5.9099 181.0736 8.5560 0.0000 0.0000 0.0000
# 3 -5.4926 8.5560 58.1578 0.0000 0.0000 0.0000
# 4 0.0000 0.0000 0.0000 6.5996 0.0000 0.0000
# 5 0.0000 0.0000 0.0000 0.0000 0.0059 0.0000
# 6 0.0000 0.0000 0.0000 0.0000 0.0000 4.4839
#
#
#
# Elastic Compliance Matrix: (Units=1/GPa)
#
#
# Indices 1 2 3 4 5 6 
#
# 1 0.017784 0.000505 0.001605 0.000000 0.000000 0.000000
# 2 0.000505 0.005576 -0.000773 0.000000 0.000000 0.000000
# 3 0.001605 -0.000773 0.017460 0.000000 0.000000 0.000000
# 4 0.000000 0.000000 0.000000 0.151525 0.000000 0.000000
# 5 0.000000 0.000000 0.000000 0.000000170.092256 0.000000
# 6 0.000000 0.000000 0.000000 0.000000 0.000000 0.223022
#
#
# Mechanical properties :
#
#
# Convention : Reuss Voigt Hill
#
# Bulk Modulus (GPa) = 22.99141 32.27013 27.63077
# Shear Modulus (GPa) = 0.02932 22.14924 11.08928
#
# Velocity S-wave (km/s) = 0.10757 2.95653 2.09197
# Velocity P-wave (km/s) = 3.01477 4.93862 4.09139
#
# Compressibility (1/GPa) = 0.04349450
#
# Stress axis : x y z
#
# Youngs Moduli (GPa) = 56.22924 179.35315 57.27421
#
# Poissons Ratio (x) = -0.09050 -0.09195
# Poissons Ratio (y) = -0.02837 0.04425
# Poissons Ratio (z) = -0.09027 0.13857
#
# Static dielectric constant tensor:
#      x y z
#    x 1.919520 0.000000 0.000000 
#    y 0.000000 2.057560 0.000000 
#    z 0.000000 0.000000 2.062270 
# 
# From -- ./inp_files/21001.got.cif
#   From: 2010.05.17/outbox.cif.g08.bks.cpg/sg53_11_cif.got.tgz:21001.got - 2010.06.03 12:45:16.
