data_PCOD9415602
_publ_section_title
;
Structure prediction by ZEFSAII (Michael W. Deem and Ramdas Pophale) SiO2 
 PCOD9415602
Probable space group: P M N A
;
_chemical_formula_sum "Si O2"
_cell_formula_units_Z 64
_cell_length_a 25.090656
_cell_length_b 6.731627
_cell_length_c 25.037553
_cell_angle_alpha 90.000000
_cell_angle_beta 90.000000
_cell_angle_gamma 90.000000
_cell_volume 4228.866171
_symmetry_space_group_name_H-M "P M N A"
_symmetry_group_IT_number 53
_symmetry_cell_setting 'orthorhombic'
loop_
_space_group_symop_operation_xyz
x,y,z
1/2-x,-y,1/2+z
x,-y,-z
1/2-x,y,1/2-z
-x,-y,-z
1/2+x,y,1/2-z
-x,y,z
1/2+x,-y,1/2+z
loop_
_atom_site_type_symbol
_atom_site_label
_atom_site_fract_x
_atom_site_fract_y
_atom_site_fract_z
Si Si1 0.796394 0.142131 0.876481
Si Si2 0.339857 0.711437 0.747048
Si Si3 0.560001 0.043611 0.282409
Si Si4 0.939979 0.655575 0.881986
Si Si5 0.381904 0.652474 0.308443
Si Si6 0.641251 0.847347 0.548240
Si Si7 0.733327 0.527281 0.557101
Si Si8 0.745249 0.222580 0.161566
O O1 0.828435 0.240581 0.828209
O O2 0.781613 0.313291 0.918380
O O3 0.835561 0.982808 0.904015
O O4 0.747896 0.008268 0.855554
O O5 0.366736 0.497177 0.738683
O O6 0.302374 0.730731 0.798166
O O7 0.300347 0.740259 0.695423
O O8 0.388996 0.865252 0.748152
O O9 0.500000 0.063627 0.259493
O O10 0.574462 0.815824 0.293767
O O11 0.559623 0.171219 0.337197
O O12 0.903845 0.481843 0.857145
O O13 0.913481 0.747234 0.934158
O O14 0.000000 0.585873 0.890226
O O15 0.683165 0.668075 0.541305
O O16 0.636742 0.000000 0.500000
O O17 0.762835 0.500000 0.500000
O O18 0.757738 0.645445 0.607890
#
# Coordination Sequence:
#
# PCOD9415602 Si02
#       8
#     8   8   8   8   8   8   8   8
#     4  11  18  32  50  67  91 125 162 200 243 293
#     4  10  20  34  48  73 107 126 160 204 251 304
#     4  10  19  32  50  69  91 128 168 201 242 293
#     4  10  20  31  44  65  92 121 166 218 253 288
#     4  11  17  32  52  67  92 127 162 202 245 297
#     4  11  20  30  47  64  88 121 167 214 250 291
#     4  11  20  33  51  70  91 127 169 201 241 296
#     4  10  21  33  48  76 101 128 161 203 253 306
#
# _framework density 15.134081
#
# number of rings (size 3 to 8) (size 9 to 14) (size 15 to 20)
#    0.000    1.500    6.250    1.875    0.000    1.750 
#    0.000    0.000    0.000    1.125    0.000    0.000 
#    0.000    0.500    0.000    3.000    0.000    0.875 
#
# Total GULP energy -356607.709605 kJ/mol
# GULP energy per Si atom -5571.995463 kJ/mol
# Density = 1.509964 g / cm^3
# Si number density = 15.134081 Si / 1000 Ang^3
#
#
#
# Elastic Constant Matrix: (Units=GPa)
#
#
# Indices 1 2 3 4 5 6 
#
# 1 49.9386 14.5926 32.0597 0.0000 0.0000 0.0000
# 2 14.5926 84.5069 22.7584 0.0000 0.0000 0.0000
# 3 32.0597 22.7584 76.0835 0.0000 0.0000 0.0000
# 4 0.0000 0.0000 0.0000 9.4093 0.0000 0.0000
# 5 0.0000 0.0000 0.0000 0.0000 16.3652 0.0000
# 6 0.0000 0.0000 0.0000 0.0000 0.0000 4.9242
#
#
#
# Elastic Compliance Matrix: (Units=1/GPa)
#
#
# Indices 1 2 3 4 5 6 
#
# 1 0.027695 -0.001783 -0.011137 0.000000 0.000000 0.000000
# 2 -0.001783 0.012985 -0.003133 0.000000 0.000000 0.000000
# 3 -0.011137 -0.003133 0.018773 0.000000 0.000000 0.000000
# 4 0.000000 0.000000 0.000000 0.106278 0.000000 0.000000
# 5 0.000000 0.000000 0.000000 0.000000 0.061105 0.000000
# 6 0.000000 0.000000 0.000000 0.000000 0.000000 0.203080
#
#
# Mechanical properties :
#
#
# Convention : Reuss Voigt Hill
#
# Bulk Modulus (GPa) = 36.56543 38.81671 37.69107
# Shear Modulus (GPa) = 10.61260 15.54761 13.08010
#
# Velocity S-wave (km/s) = 2.65096 3.20867 2.94306
# Velocity P-wave (km/s) = 5.79513 6.27946 6.04215
#
# Compressibility (1/GPa) = 0.02734823
#
# Stress axis : x y z
#
# Youngs Moduli (GPa) = 36.10729 77.01228 53.26728
#
# Poissons Ratio (x) = 0.13733 0.59322
# Poissons Ratio (y) = 0.06439 0.16687
# Poissons Ratio (z) = 0.40212 0.24126
#
# Static dielectric constant tensor:
#      x y z
#    x 1.504750 0.000000 0.000000 
#    y 0.000000 1.538420 0.000000 
#    z 0.000000 0.000000 1.515550 
# 
# From -- ./inp_files/37292.got.cif
#   From: 2010.05.17/outbox.cif.g08.bks.cpg/sg53_19_cif.got.tgz:37292.got - 2010.06.03 12:45:16.
