data_PCOD9415367
_publ_section_title
;
Structure prediction by ZEFSAII (Michael W. Deem and Ramdas Pophale) SiO2 
 PCOD9415367
Probable space group: P M N A
;
_chemical_formula_sum "Si O2"
_cell_formula_units_Z 64
_cell_length_a 14.961474
_cell_length_b 8.897710
_cell_length_c 28.366267
_cell_angle_alpha 90.000000
_cell_angle_beta 90.000000
_cell_angle_gamma 90.000000
_cell_volume 3776.198500
_symmetry_space_group_name_H-M "P M N A"
_symmetry_group_IT_number 53
_symmetry_cell_setting 'orthorhombic'
loop_
_space_group_symop_operation_xyz
x,y,z
1/2-x,-y,1/2+z
x,-y,-z
1/2-x,y,1/2-z
-x,-y,-z
1/2+x,y,1/2-z
-x,y,z
1/2+x,-y,1/2+z
loop_
_atom_site_type_symbol
_atom_site_label
_atom_site_fract_x
_atom_site_fract_y
_atom_site_fract_z
Si Si1 0.099923 0.316063 0.826216
Si Si2 0.279050 0.177759 0.864801
Si Si3 0.600542 0.804760 0.778256
Si Si4 0.103434 0.675120 0.824675
Si Si5 0.102700 0.319577 0.444766
Si Si6 0.897385 0.319045 0.555053
Si Si7 0.351065 0.145464 0.766925
Si Si8 0.726531 0.182613 0.134327
O O1 0.180976 0.245255 0.855663
O O2 0.110303 0.495369 0.826114
O O3 0.108416 0.251685 0.772984
O O4 0.000000 0.278650 0.843603
O O5 0.327714 0.240169 0.910683
O O6 0.339553 0.215947 0.818664
O O7 0.271386 0.997753 0.866009
O O8 0.500000 0.757510 0.791366
O O9 0.623842 0.730791 0.728358
O O10 0.669579 0.769233 0.819556
O O11 0.601876 0.984883 0.770767
O O12 0.174831 0.750455 0.859228
O O13 0.000000 0.716993 0.834600
O O14 0.109168 0.500300 0.439973
O O15 0.117282 0.283372 0.499898
O O16 0.173534 0.241996 0.410888
O O17 0.000000 0.276532 0.432812
O O18 0.000000 0.276017 0.566726
O O19 0.250000 0.111288 0.750000
#
# Coordination Sequence:
#
# PCOD9415367 Si02
#       8
#     8   8   8   8   8   8   8   8
#     4  10  20  34  51  72  99 133 173 214 252 295
#     4  10  21  33  50  77 103 134 171 205 252 301
#     4  10  19  31  47  70 102 137 169 203 246 297
#     4  10  21  34  50  72  98 133 175 213 252 295
#     4   9  19  36  56  78 103 134 166 201 248 297
#     4   9  19  36  56  77 104 134 166 203 246 296
#     4   9  18  31  46  69 101 136 169 203 246 295
#     4  11  21  33  51  75 104 135 168 208 250 300
#
# _framework density 16.948262
#
# number of rings (size 3 to 8) (size 9 to 14) (size 15 to 20)
#    0.000    2.250    0.000    4.875    0.000    9.000 
#    0.000    3.750    0.000    0.750    0.000    5.250 
#    0.000    0.000    0.000    0.000    0.000    0.000 
#
# Total GULP energy -357133.190434 kJ/mol
# GULP energy per Si atom -5580.206101 kJ/mol
# Density = 1.690969 g / cm^3
# Si number density = 16.948262 Si / 1000 Ang^3
#
#
#
# Elastic Constant Matrix: (Units=GPa)
#
#
# Indices 1 2 3 4 5 6 
#
# 1 129.1392 50.6915 78.1575 0.0000 0.0000 0.0000
# 2 50.6915 42.7271 40.9326 0.0000 0.0000 0.0000
# 3 78.1575 40.9326 90.7612 0.0000 0.0000 0.0000
# 4 0.0000 0.0000 0.0000 31.4041 0.0000 0.0000
# 5 0.0000 0.0000 0.0000 0.0000 26.7289 0.0000
# 6 0.0000 0.0000 0.0000 0.0000 0.0000 26.5426
#
#
#
# Elastic Compliance Matrix: (Units=1/GPa)
#
#
# Indices 1 2 3 4 5 6 
#
# 1 0.019228 -0.012236 -0.011039 0.000000 0.000000 0.000000
# 2 -0.012236 0.048996 -0.011559 0.000000 0.000000 0.000000
# 3 -0.011039 -0.011559 0.025738 0.000000 0.000000 0.000000
# 4 0.000000 0.000000 0.000000 0.031843 0.000000 0.000000
# 5 0.000000 0.000000 0.000000 0.000000 0.037413 0.000000
# 6 0.000000 0.000000 0.000000 0.000000 0.000000 0.037675
#
#
# Mechanical properties :
#
#
# Convention : Reuss Voigt Hill
#
# Bulk Modulus (GPa) = 41.16806 66.91007 54.03906
# Shear Modulus (GPa) = 17.94304 23.12484 20.53394
#
# Velocity S-wave (km/s) = 3.25729 3.69784 3.48453
# Velocity P-wave (km/s) = 6.20401 7.60241 6.93853
#
# Compressibility (1/GPa) = 0.02429068
#
# Stress axis : x y z
#
# Youngs Moduli (GPa) = 52.00742 20.41000 38.85373
#
# Poissons Ratio (x) = 0.24974 0.42892
# Poissons Ratio (y) = 0.63638 0.44913
# Poissons Ratio (z) = 0.57413 0.23593
#
# Static dielectric constant tensor:
#      x y z
#    x 1.582840 0.000000 0.000000 
#    y 0.000000 1.563490 0.000000 
#    z 0.000000 0.000000 1.557700 
# 
# From -- ./inp_files/38952.got.cif
#   From: 2010.05.17/outbox.cif.g08.bks.cpg/sg53_20_cif.got.tgz:38952.got - 2010.06.03 12:45:16.
