data_PCOD9415025
_publ_section_title
;
Structure prediction by ZEFSAII (Michael W. Deem and Ramdas Pophale) SiO2 
 PCOD9415025
Probable space group: P M N A
;
_chemical_formula_sum "Si O2"
_cell_formula_units_Z 64
_cell_length_a 17.398535
_cell_length_b 20.481495
_cell_length_c 9.182568
_cell_angle_alpha 90.000000
_cell_angle_beta 90.000000
_cell_angle_gamma 90.000000
_cell_volume 3272.189812
_symmetry_space_group_name_H-M "P M N A"
_symmetry_group_IT_number 53
_symmetry_cell_setting 'orthorhombic'
loop_
_space_group_symop_operation_xyz
x,y,z
1/2-x,-y,1/2+z
x,-y,-z
1/2-x,y,1/2-z
-x,-y,-z
1/2+x,y,1/2-z
-x,y,z
1/2+x,-y,1/2+z
loop_
_atom_site_type_symbol
_atom_site_label
_atom_site_fract_x
_atom_site_fract_y
_atom_site_fract_z
Si Si1 0.656779 0.564200 0.913716
Si Si2 0.592507 0.688949 0.070961
Si Si3 0.311799 0.960388 0.366042
Si Si4 0.907169 0.307956 0.907998
Si Si5 0.589214 0.954795 0.855797
Si Si6 0.342030 0.432663 0.423322
Si Si7 0.092588 0.169137 0.525562
Si Si8 0.091270 0.160200 0.874787
O O1 0.635620 0.561850 0.744915
O O2 0.749188 0.568606 0.928602
O O3 0.631129 0.500000 0.000000
O O4 0.620708 0.627742 0.983383
O O5 0.500000 0.692246 0.072143
O O6 0.616415 0.682252 0.239397
O O7 0.620787 0.757207 0.002922
O O8 0.250000 0.935490 0.250000
O O9 0.360440 0.900595 0.430575
O O10 0.275838 0.000000 0.500000
O O11 0.365320 0.009050 0.271678
O O12 0.886673 0.231671 0.936291
O O13 0.000000 0.311500 0.916924
O O14 0.872758 0.366151 0.003929
O O15 0.500000 0.946679 0.809743
O O16 0.622279 0.886085 0.916205
O O17 0.588098 0.000000 0.000000
O O18 0.367785 0.500000 0.500000
O O19 0.103978 0.157556 0.698671
O O20 0.000000 0.167389 0.507197
O O21 0.000000 0.151826 0.898182
#
# Coordination Sequence:
#
# PCOD9415025 Si02
#       8
#     8   8   8   8   8   8   8   8
#     4  10  21  37  57  81 113 154 194 236 281 347
#     4   9  18  34  56  85 116 147 187 236 285 335
#     4  12  26  41  56  82 120 156 196 249 301 348
#     4   9  19  37  61  88 114 144 191 242 286 341
#     4  10  18  34  63  88 109 147 195 236 288 355
#     4  10  21  38  58  82 115 152 195 236 284 340
#     4   8  15  31  59  87 108 141 186 232 280 343
#     4   9  18  38  64  85 112 150 196 241 286 350
#
# _framework density 19.558767
#
# number of rings (size 3 to 8) (size 9 to 14) (size 15 to 20)
#    0.000    2.375    1.250    3.000    0.000    3.500 
#    6.750    0.000    0.000    0.000    0.000    0.000 
#    0.000    0.000    0.000    0.000    0.000    0.000 
#
# Total GULP energy -357044.230190 kJ/mol
# GULP energy per Si atom -5578.816097 kJ/mol
# Density = 1.951425 g / cm^3
# Si number density = 19.558767 Si / 1000 Ang^3
#
#
#
# Elastic Constant Matrix: (Units=GPa)
#
#
# Indices 1 2 3 4 5 6 
#
# 1 21.1702 32.8483 21.6927 0.0000 0.0000 0.0000
# 2 32.8483 170.7156 64.5472 0.0000 0.0000 0.0000
# 3 21.6927 64.5472 70.1858 0.0000 0.0000 0.0000
# 4 0.0000 0.0000 0.0000 27.8535 0.0000 0.0000
# 5 0.0000 0.0000 0.0000 0.0000 21.6321 0.0000
# 6 0.0000 0.0000 0.0000 0.0000 0.0000 125.5853
#
#
#
# Elastic Compliance Matrix: (Units=1/GPa)
#
#
# Indices 1 2 3 4 5 6 
#
# 1 0.077092 -0.008930 -0.015615 0.000000 0.000000 0.000000
# 2 -0.008930 0.010015 -0.006450 0.000000 0.000000 0.000000
# 3 -0.015615 -0.006450 0.025006 0.000000 0.000000 0.000000
# 4 0.000000 0.000000 0.000000 0.035902 0.000000 0.000000
# 5 0.000000 0.000000 0.000000 0.000000 0.046228 0.000000
# 6 0.000000 0.000000 0.000000 0.000000 0.000000 0.007963
#
#
# Mechanical properties :
#
#
# Convention : Reuss Voigt Hill
#
# Bulk Modulus (GPa) = 19.95087 55.58311 37.76699
# Shear Modulus (GPa) = 17.79975 44.54640 31.17307
#
# Velocity S-wave (km/s) = 3.02000 4.77756 3.99659
# Velocity P-wave (km/s) = 4.73108 7.67553 6.37561
#
# Compressibility (1/GPa) = 0.05012312
#
# Stress axis : x y z
#
# Youngs Moduli (GPa) = 12.97150 99.85311 39.99019
#
# Poissons Ratio (x) = 0.89166 0.62445
# Poissons Ratio (y) = 0.11583 0.25794
# Poissons Ratio (z) = 0.20255 0.64407
#
# Static dielectric constant tensor:
#      x y z
#    x 1.697250 0.000000 0.000000 
#    y 0.000000 1.700910 0.000000 
#    z 0.000000 0.000000 1.686200 
# 
# From -- ./inp_files/10242.got.cif
#   From: 2010.05.17/outbox.cif.g08.bks.cpg/sg53_6_cif.got.tgz:10242.got - 2010.06.03 12:45:16.
