data_PCOD9415176
_publ_section_title
;
Structure prediction by ZEFSAII (Michael W. Deem and Ramdas Pophale) SiO2 
 PCOD9415176
Probable space group: P M N A
;
_chemical_formula_sum "Si O2"
_cell_formula_units_Z 64
_cell_length_a 9.049568
_cell_length_b 23.830730
_cell_length_c 17.549113
_cell_angle_alpha 90.000000
_cell_angle_beta 90.000000
_cell_angle_gamma 90.000000
_cell_volume 3784.603306
_symmetry_space_group_name_H-M "P M N A"
_symmetry_group_IT_number 53
_symmetry_cell_setting 'orthorhombic'
loop_
_space_group_symop_operation_xyz
x,y,z
1/2-x,-y,1/2+z
x,-y,-z
1/2-x,y,1/2-z
-x,-y,-z
1/2+x,y,1/2-z
-x,y,z
1/2+x,-y,1/2+z
loop_
_atom_site_type_symbol
_atom_site_label
_atom_site_fract_x
_atom_site_fract_y
_atom_site_fract_z
Si Si1 0.178081 0.542205 0.831850
Si Si2 0.822123 0.129854 0.515356
Si Si3 0.323691 0.637144 0.556671
Si Si4 0.177386 0.740776 0.484646
Si Si5 0.677547 0.060782 0.831490
Si Si6 0.330417 0.963871 0.578229
Si Si7 0.675771 0.318080 0.826201
Si Si8 0.675801 0.422678 0.603633
O O1 0.250000 0.535682 0.750000
O O2 0.226737 0.599566 0.872575
O O3 0.214534 0.487204 0.881924
O O4 0.000000 0.543816 0.825802
O O5 0.777413 0.194659 0.508483
O O6 0.785791 0.104125 0.599251
O O7 0.747643 0.092922 0.449326
O O8 0.000000 0.125663 0.508428
O O9 0.500000 0.645266 0.561474
O O10 0.247540 0.696744 0.543244
O O11 0.295596 0.598916 0.481731
O O12 0.216824 0.718137 0.400371
O O13 0.000000 0.738067 0.491159
O O14 0.750000 0.075075 0.750000
O O15 0.500000 0.058711 0.824361
O O16 0.741083 0.001019 0.860944
O O17 0.500000 0.955518 0.602682
O O18 0.332381 0.000000 0.500000
O O19 0.750000 0.295635 0.750000
O O20 0.500000 0.318694 0.818612
O O21 0.735759 0.380619 0.842029
O O22 0.500000 0.416122 0.617965
#
# Coordination Sequence:
#
# PCOD9415176 Si02
#       8
#     8   8   8   8   8   8   8   8
#     4  10  20  32  48  71  96 121 152 193 243 296
#     4   9  18  33  51  71  97 130 165 200 240 283
#     4   9  18  33  51  70  93 123 159 199 242 287
#     4   9  19  34  50  69  94 126 164 202 238 278
#     4  10  19  31  49  74 105 136 162 193 236 283
#     4   9  17  30  49  73  99 127 161 198 234 276
#     4  10  19  30  44  65  95 128 160 195 236 283
#     4   9  17  31  50  69  91 121 156 194 238 290
#
# _framework density 16.910623999999999
#
# number of rings (size 3 to 8) (size 9 to 14) (size 15 to 20)
#    0.000    2.625    0.000    1.875    0.000    7.000 
#    0.000    0.000    0.000    4.500    0.000    1.750 
#    0.000    0.000    0.000    0.000    0.000    0.000 
#
# Total GULP energy -356773.063169 kJ/mol
# GULP energy per Si atom -5574.579112 kJ/mol
# Density = 1.687213 g / cm^3
# Si number density = 16.910624 Si / 1000 Ang^3
#
#
#
# Elastic Constant Matrix: (Units=GPa)
#
#
# Indices 1 2 3 4 5 6 
#
# 1 29.0471 33.4782 15.3694 0.0000 0.0000 0.0000
# 2 33.4782 137.1902 28.2391 0.0000 0.0000 0.0000
# 3 15.3694 28.2391 24.3663 0.0000 0.0000 0.0000
# 4 0.0000 0.0000 0.0000 11.0489 0.0000 0.0000
# 5 0.0000 0.0000 0.0000 0.0000 23.2701 0.0000
# 6 0.0000 0.0000 0.0000 0.0000 0.0000 24.8173
#
#
#
# Elastic Compliance Matrix: (Units=1/GPa)
#
#
# Indices 1 2 3 4 5 6 
#
# 1 0.058812 -0.008820 -0.026875 0.000000 0.000000 0.000000
# 2 -0.008820 0.010895 -0.007064 0.000000 0.000000 0.000000
# 3 -0.026875 -0.007064 0.066179 0.000000 0.000000 0.000000
# 4 0.000000 0.000000 0.000000 0.090507 0.000000 0.000000
# 5 0.000000 0.000000 0.000000 0.000000 0.042974 0.000000
# 6 0.000000 0.000000 0.000000 0.000000 0.000000 0.040295
#
#
# Mechanical properties :
#
#
# Convention : Reuss Voigt Hill
#
# Bulk Modulus (GPa) = 19.85353 38.30856 29.08104
# Shear Modulus (GPa) = 12.13684 19.39506 15.76595
#
# Velocity S-wave (km/s) = 2.68191 3.39029 3.05669
# Velocity P-wave (km/s) = 4.62125 6.16670 5.44904
#
# Compressibility (1/GPa) = 0.05036888
#
# Stress axis : x y z
#
# Youngs Moduli (GPa) = 17.00323 91.78119 15.11060
#
# Poissons Ratio (x) = 0.80950 0.40610
# Poissons Ratio (y) = 0.14997 0.10674
# Poissons Ratio (z) = 0.45696 0.64833
#
# Static dielectric constant tensor:
#      x y z
#    x 1.568040 0.000000 0.000000 
#    y 0.000000 1.568560 0.000000 
#    z 0.000000 0.000000 1.562990 
# 
# From -- ./inp_files/27032.got.cif
#   From: 2010.05.17/outbox.cif.g08.bks.cpg/sg53_14_cif.got.tgz:27032.got - 2010.06.03 12:45:16.
