data_PCOD9415269
_publ_section_title
;
Structure prediction by ZEFSAII (Michael W. Deem and Ramdas Pophale) SiO2 
 PCOD9415269
Probable space group: P M N A
;
_chemical_formula_sum "Si O2"
_cell_formula_units_Z 64
_cell_length_a 8.767474
_cell_length_b 16.643873
_cell_length_c 23.342333
_cell_angle_alpha 90.000000
_cell_angle_beta 90.000000
_cell_angle_gamma 90.000000
_cell_volume 3406.223496
_symmetry_space_group_name_H-M "P M N A"
_symmetry_group_IT_number 53
_symmetry_cell_setting 'orthorhombic'
loop_
_space_group_symop_operation_xyz
x,y,z
1/2-x,-y,1/2+z
x,-y,-z
1/2-x,y,1/2-z
-x,-y,-z
1/2+x,y,1/2-z
-x,y,z
1/2+x,-y,1/2+z
loop_
_atom_site_type_symbol
_atom_site_label
_atom_site_fract_x
_atom_site_fract_y
_atom_site_fract_z
Si Si1 0.322914 0.520794 0.924144
Si Si2 0.814378 0.019959 0.686903
Si Si3 0.824203 0.679096 0.190600
Si Si4 0.179974 0.181164 0.631293
Si Si5 0.685007 0.045991 0.059385
Si Si6 0.181206 0.798170 0.496246
Si Si7 0.177668 0.375540 0.979355
Si Si8 0.321752 0.485993 0.309423
O O1 0.500000 0.533968 0.938059
O O2 0.211681 0.572896 0.963691
O O3 0.283241 0.544332 0.860197
O O4 0.278893 0.427422 0.934868
O O5 0.750000 0.994955 0.750000
O O6 0.764482 0.112279 0.674134
O O7 0.000000 0.015898 0.689901
O O8 0.769541 0.978089 0.625059
O O9 0.750000 0.705363 0.250000
O O10 0.749220 0.731665 0.141566
O O11 0.810569 0.583289 0.187866
O O12 0.000000 0.699312 0.191286
O O13 0.205244 0.158372 0.565201
O O14 0.000000 0.187678 0.639720
O O15 0.500000 0.037150 0.059147
O O16 0.723073 0.139206 0.045746
O O17 0.736604 0.000000 0.000000
O O18 0.269406 0.714452 0.492319
O O19 0.000000 0.780794 0.500591
O O20 0.000000 0.378392 0.962551
O O21 0.250000 0.459566 0.250000
O O22 0.500000 0.465472 0.315438
#
# Coordination Sequence:
#
# PCOD9415269 Si02
#       8
#     8   8   8   8   8   8   8   8
#     4  11  21  36  57  80 108 142 185 231 275 331
#     4  10  20  34  53  79 108 143 183 225 278 333
#     4  10  20  31  44  64  97 138 178 216 259 315
#     4  10  19  30  48  73 103 136 174 219 268 323
#     4   9  16  33  59  82 106 141 188 235 275 323
#     4  10  19  33  56  82 105 136 183 232 273 326
#     4  11  22  36  54  80 113 146 177 222 284 342
#     4  10  20  34  51  74 104 142 183 225 273 330
#
# _framework density 18.789137
#
# number of rings (size 3 to 8) (size 9 to 14) (size 15 to 20)
#    0.000    1.875    1.250    4.875    0.000    5.500 
#    0.000    0.625    0.000    1.500    0.000    3.500 
#    0.000    0.000    0.000    0.000    0.000    0.000 
#
# Total GULP energy -356572.578494 kJ/mol
# GULP energy per Si atom -5571.446539 kJ/mol
# Density = 1.874637 g / cm^3
# Si number density = 18.789137 Si / 1000 Ang^3
#
#
#
# Elastic Constant Matrix: (Units=GPa)
#
#
# Indices 1 2 3 4 5 6 
#
# 1 22.3626 9.9006 20.5445 0.0000 0.0000 0.0000
# 2 9.9006 42.8995 7.0407 0.0000 0.0000 0.0000
# 3 20.5445 7.0407 95.6647 0.0000 0.0000 0.0000
# 4 0.0000 0.0000 0.0000 22.9500 0.0000 0.0000
# 5 0.0000 0.0000 0.0000 0.0000 22.2116 0.0000
# 6 0.0000 0.0000 0.0000 0.0000 0.0000 14.2758
#
#
#
# Elastic Compliance Matrix: (Units=1/GPa)
#
#
# Indices 1 2 3 4 5 6 
#
# 1 0.061386 -0.012150 -0.012289 0.000000 0.000000 0.000000
# 2 -0.012150 0.026000 0.000696 0.000000 0.000000 0.000000
# 3 -0.012289 0.000696 0.013041 0.000000 0.000000 0.000000
# 4 0.000000 0.000000 0.000000 0.043573 0.000000 0.000000
# 5 0.000000 0.000000 0.000000 0.000000 0.045021 0.000000
# 6 0.000000 0.000000 0.000000 0.000000 0.000000 0.070049
#
#
# Mechanical properties :
#
#
# Convention : Reuss Voigt Hill
#
# Bulk Modulus (GPa) = 18.88892 26.21093 22.54993
# Shear Modulus (GPa) = 15.42236 20.11688 17.76962
#
# Velocity S-wave (km/s) = 2.86809 3.27565 3.07862
# Velocity P-wave (km/s) = 4.58725 5.31854 4.96637
#
# Compressibility (1/GPa) = 0.05294108
#
# Stress axis : x y z
#
# Youngs Moduli (GPa) = 16.29023 38.46124 76.68089
#
# Poissons Ratio (x) = 0.46731 0.94232
# Poissons Ratio (y) = 0.19793 -0.05335
# Poissons Ratio (z) = 0.20019 -0.02676
#
# Static dielectric constant tensor:
#      x y z
#    x 1.629240 0.000000 0.000000 
#    y 0.000000 1.675150 0.000000 
#    z 0.000000 0.000000 1.736870 
# 
# From -- ./inp_files/31256.got.cif
#   From: 2010.05.17/outbox.cif.g08.bks.cpg/sg53_16_cif.got.tgz:31256.got - 2010.06.03 12:45:16.
