data_PCOD9415512
_publ_section_title
;
Structure prediction by ZEFSAII (Michael W. Deem and Ramdas Pophale) SiO2 
 PCOD9415512
Probable space group: P M N A
;
_chemical_formula_sum "Si O2"
_cell_formula_units_Z 64
_cell_length_a 7.693868
_cell_length_b 25.403543
_cell_length_c 15.190166
_cell_angle_alpha 90.000000
_cell_angle_beta 90.000000
_cell_angle_gamma 90.000000
_cell_volume 2968.940830
_symmetry_space_group_name_H-M "P M N A"
_symmetry_group_IT_number 53
_symmetry_cell_setting 'orthorhombic'
loop_
_space_group_symop_operation_xyz
x,y,z
1/2-x,-y,1/2+z
x,-y,-z
1/2-x,y,1/2-z
-x,-y,-z
1/2+x,y,1/2-z
-x,y,z
1/2+x,-y,1/2+z
loop_
_atom_site_type_symbol
_atom_site_label
_atom_site_fract_x
_atom_site_fract_y
_atom_site_fract_z
Si Si1 0.792079 0.908111 0.843357
Si Si2 0.711359 0.982339 0.400567
Si Si3 0.208778 0.134310 0.849717
Si Si4 0.296043 0.720245 0.852196
Si Si5 0.708593 0.404075 0.847790
Si Si6 0.790179 0.180512 0.026586
Si Si7 0.786395 0.621562 0.537669
Si Si8 0.708376 0.475662 0.151655
O O1 0.750000 0.882766 0.750000
O O2 0.728213 0.871740 0.922046
O O3 0.000000 0.911256 0.852566
O O4 0.723004 0.967586 0.845776
O O5 0.500000 0.979840 0.395043
O O6 0.774995 0.925072 0.371169
O O7 0.751831 0.000000 0.500000
O O8 0.250000 0.148797 0.750000
O O9 0.000000 0.132028 0.856695
O O10 0.270260 0.174136 0.925971
O O11 0.250000 0.728260 0.750000
O O12 0.500000 0.712192 0.851399
O O13 0.259531 0.769583 0.915417
O O14 0.220937 0.668232 0.899488
O O15 0.750000 0.383601 0.750000
O O16 0.500000 0.406244 0.852255
O O17 0.775631 0.464527 0.854290
O O18 0.768229 0.374097 0.935627
O O19 0.000000 0.179658 0.026228
O O20 0.730811 0.565688 0.578980
O O21 0.000000 0.621909 0.538517
O O22 0.750000 0.455872 0.250000
O O23 0.500000 0.478662 0.142917
#
# Coordination Sequence:
#
# PCOD9415512 Si02
#       8
#     8   8   8   8   8   8   8   8
#     4  10  19  31  51  76 102 133 168 205 250 306
#     4   9  15  29  52  76 103 138 172 203 250 311
#     4  10  20  35  57  81 107 140 177 218 264 314
#     4  11  23  39  59  81 106 136 172 218 267 314
#     4   9  17  31  51  76 106 139 175 213 255 305
#     4  10  21  38  57  77 103 138 178 217 261 312
#     4   9  18  33  53  76 103 139 178 213 257 313
#     4   9  16  28  49  76 106 139 173 211 256 310
#
# _framework density 21.556508000000001
#
# number of rings (size 3 to 8) (size 9 to 14) (size 15 to 20)
#    0.000    2.375    1.250    1.875    0.000    3.500 
#    0.000    3.125    0.000    6.750    0.000    0.000 
#    0.000    0.000    0.000    0.000    0.000    0.000 
#
# Total GULP energy -357081.094794 kJ/mol
# GULP energy per Si atom -5579.392106 kJ/mol
# Density = 2.150744 g / cm^3
# Si number density = 21.556508 Si / 1000 Ang^3
#
#
#
# Elastic Constant Matrix: (Units=GPa)
#
#
# Indices 1 2 3 4 5 6 
#
# 1 34.0480 5.1467 3.4021 0.0000 0.0000 0.0000
# 2 5.1467 63.0684 56.2238 0.0000 0.0000 0.0000
# 3 3.4021 56.2238 196.1795 0.0000 0.0000 0.0000
# 4 0.0000 0.0000 0.0000 40.1618 0.0000 0.0000
# 5 0.0000 0.0000 0.0000 0.0000 22.2504 0.0000
# 6 0.0000 0.0000 0.0000 0.0000 0.0000 2.2716
#
#
#
# Elastic Compliance Matrix: (Units=1/GPa)
#
#
# Indices 1 2 3 4 5 6 
#
# 1 0.029746 -0.002643 0.000242 0.000000 0.000000 0.000000
# 2 -0.002643 0.021532 -0.006125 0.000000 0.000000 0.000000
# 3 0.000242 -0.006125 0.006849 0.000000 0.000000 0.000000
# 4 0.000000 0.000000 0.000000 0.024899 0.000000 0.000000
# 5 0.000000 0.000000 0.000000 0.000000 0.044943 0.000000
# 6 0.000000 0.000000 0.000000 0.000000 0.000000 0.440209
#
#
# Mechanical properties :
#
#
# Convention : Reuss Voigt Hill
#
# Bulk Modulus (GPa) = 24.34657 46.98233 35.66445
# Shear Modulus (GPa) = 8.34835 28.17166 18.26001
#
# Velocity S-wave (km/s) = 1.97007 3.61899 2.91361
# Velocity P-wave (km/s) = 4.06125 6.26938 5.28199
#
# Compressibility (1/GPa) = 0.04107356
#
# Stress axis : x y z
#
# Youngs Moduli (GPa) = 33.61838 46.44303 146.01567
#
# Poissons Ratio (x) = 0.12274 -0.03527
# Poissons Ratio (y) = 0.08884 0.89435
# Poissons Ratio (z) = -0.00812 0.28447
#
# Static dielectric constant tensor:
#      x y z
#    x 1.808870 0.000000 0.000000 
#    y 0.000000 1.788490 0.000000 
#    z 0.000000 0.000000 1.787160 
# 
# From -- ./inp_files/20980.got.cif
#   From: 2010.05.17/outbox.cif.g08.bks.cpg/sg53_11_cif.got.tgz:20980.got - 2010.06.03 12:45:16.
