data_PCOD9415917
_publ_section_title
;
Structure prediction by ZEFSAII (Michael W. Deem and Ramdas Pophale) SiO2 
 PCOD9415917
Probable space group: P M N A
;
_chemical_formula_sum "Si O2"
_cell_formula_units_Z 40
_cell_length_a 8.545475
_cell_length_b 27.085688
_cell_length_c 9.745809
_cell_angle_alpha 90.000000
_cell_angle_beta 90.000000
_cell_angle_gamma 90.000000
_cell_volume 2255.765630
_symmetry_space_group_name_H-M "P M N A"
_symmetry_group_IT_number 53
_symmetry_cell_setting 'orthorhombic'
loop_
_space_group_symop_operation_xyz
x,y,z
1/2-x,-y,1/2+z
x,-y,-z
1/2-x,y,1/2-z
-x,-y,-z
1/2+x,y,1/2-z
-x,y,z
1/2+x,-y,1/2+z
loop_
_atom_site_type_symbol
_atom_site_label
_atom_site_fract_x
_atom_site_fract_y
_atom_site_fract_z
Si Si1 0.812142 0.545396 0.403922
Si Si2 0.810448 0.045099 0.405691
Si Si3 0.313584 0.348208 0.595580
Si Si4 0.811566 0.847104 0.594308
Si Si5 0.188415 0.261033 0.406105
O O1 0.764119 0.500000 0.500000
O O2 0.750000 0.537810 0.250000
O O3 0.747763 0.598264 0.452629
O O4 0.000000 0.547868 0.400652
O O5 0.750000 0.040341 0.250000
O O6 0.761976 0.099402 0.462611
O O7 0.000000 0.043948 0.401730
O O8 0.755898 0.000000 0.500000
O O9 0.250000 0.341092 0.750000
O O10 0.500000 0.349027 0.599527
O O11 0.254596 0.304672 0.498369
O O12 0.750000 0.847262 0.750000
O O13 0.763132 0.793549 0.537644
O O14 0.000000 0.847007 0.595666
O O15 0.250000 0.265137 0.250000
O O16 0.000000 0.263547 0.404265
#
# Coordination Sequence:
#
# PCOD9415917 Si02
#       5
#     8   8   8   8   8
#     4  10  21  37  57  80 106 136 171 209 250 298
#     4   9  17  30  48  70  97 128 163 203 248 297
#     4  11  22  37  56  77 105 139 172 208 255 305
#     4   8  15  28  47  69  95 128 163 203 248 294
#     4  10  19  33  53  77 103 131 170 214 255 301
#
# _framework density 17.732340000000001
#
# number of rings (size 3 to 8) (size 9 to 14) (size 15 to 20)
#    0.000    2.400    0.000    4.200    0.000    3.600 
#    0.000    3.000    0.000    2.400    0.000    0.000 
#    0.000    0.000    0.000    0.000    0.000    0.000 
#
# Total GULP energy -222921.108299 kJ/mol
# GULP energy per Si atom -5573.027707 kJ/mol
# Density = 1.769198 g / cm^3
# Si number density = 17.732340 Si / 1000 Ang^3
#
#
#
# Elastic Constant Matrix: (Units=GPa)
#
#
# Indices 1 2 3 4 5 6 
#
# 1 55.2993 50.6202 20.9933 0.0000 0.0000 0.0000
# 2 50.6202 236.0615 87.2842 0.0000 0.0000 0.0000
# 3 20.9933 87.2842 52.4834 0.0000 0.0000 0.0000
# 4 0.0000 0.0000 0.0000 36.6985 0.0000 0.0000
# 5 0.0000 0.0000 0.0000 0.0000 26.0209 0.0000
# 6 0.0000 0.0000 0.0000 0.0000 0.0000 -114.9047
#
#
#
# Elastic Compliance Matrix: (Units=1/GPa)
#
#
# Indices 1 2 3 4 5 6 
#
# 1 0.022631 -0.003910 -0.002549 0.000000 0.000000 0.000000
# 2 -0.003910 0.011677 -0.017855 0.000000 0.000000 0.000000
# 3 -0.002549 -0.017855 0.049768 0.000000 0.000000 0.000000
# 4 0.000000 0.000000 0.000000 0.027249 0.000000 0.000000
# 5 0.000000 0.000000 0.000000 0.000000 0.038431 0.000000
# 6 0.000000 0.000000 0.000000 0.000000 0.000000 -0.008703
#
#
# Mechanical properties :
#
#
# Convention : Reuss Voigt Hill
#
# Bulk Modulus (GPa) = 28.21188 73.51552 50.86370
# Shear Modulus (GPa) = 24.81436 1.89270 13.35353
#
# Velocity S-wave (km/s) = 3.74489 1.03426 2.74717
# Velocity P-wave (km/s) = 5.88586 6.55551 6.22969
#
# Compressibility (1/GPa) = 0.03544606
#
# Stress axis : x y z
#
# Youngs Moduli (GPa) = 44.18802 85.64083 20.09330
#
# Poissons Ratio (x) = 0.33488 0.05122
# Poissons Ratio (y) = 0.17279 0.35877
# Poissons Ratio (z) = 0.11264 1.52913
#
# Static dielectric constant tensor:
#      x y z
#    x 1.593950 0.000000 0.000000 
#    y 0.000000 1.656040 0.000000 
#    z 0.000000 0.000000 1.556860 
# 
# From -- ./inp_files/6431.got.cif
#   From: 2010.05.17/outbox.cif.g08.bks.cpg/sg53_4_cif.got.tgz:6431.got - 2010.06.03 12:45:16.
