data_PCOD9415876
_publ_section_title
;
Structure prediction by ZEFSAII (Michael W. Deem and Ramdas Pophale) SiO2 
 PCOD9415876
Probable space group: P M N A
;
_chemical_formula_sum "Si O2"
_cell_formula_units_Z 48
_cell_length_a 8.526446
_cell_length_b 12.142253
_cell_length_c 26.396782
_cell_angle_alpha 90.000000
_cell_angle_beta 90.000000
_cell_angle_gamma 90.000000
_cell_volume 2732.865823
_symmetry_space_group_name_H-M "P M N A"
_symmetry_group_IT_number 53
_symmetry_cell_setting 'orthorhombic'
loop_
_space_group_symop_operation_xyz
x,y,z
1/2-x,-y,1/2+z
x,-y,-z
1/2-x,y,1/2-z
-x,-y,-z
1/2+x,y,1/2-z
-x,y,z
1/2+x,-y,1/2+z
loop_
_atom_site_type_symbol
_atom_site_label
_atom_site_fract_x
_atom_site_fract_y
_atom_site_fract_z
Si Si1 0.812576 0.979076 0.116853
Si Si2 0.681267 0.229971 0.927622
Si Si3 0.184825 0.324801 0.391360
Si Si4 0.183734 0.847169 0.969381
Si Si5 0.685809 0.530371 0.442098
Si Si6 0.188964 0.172690 0.193071
O O1 0.733513 0.860435 0.113502
O O2 0.000000 0.964635 0.119206
O O3 0.779625 0.047333 0.065155
O O4 0.765641 0.061635 0.162063
O O5 0.500000 0.257522 0.921936
O O6 0.778120 0.342856 0.930005
O O7 0.712996 0.171528 0.981541
O O8 0.284142 0.255666 0.432508
O O9 0.225581 0.450655 0.403116
O O10 0.238077 0.275202 0.337706
O O11 0.000000 0.304862 0.398589
O O12 0.000000 0.851343 0.983836
O O13 0.735426 0.500000 0.500000
O O14 0.500000 0.510204 0.438918
O O15 0.250000 0.168788 0.250000
O O16 0.000000 0.180611 0.191430
#
# Coordination Sequence:
#
# PCOD9415876 Si02
#       6
#     8   8   8   8   8   8
#     4   9  20  36  53  75 107 144 181 221 270 329
#     4  12  23  32  49  77 110 146 185 227 270 321
#     4  11  21  34  55  83 113 142 183 233 277 323
#     4  10  19  33  51  73 106 148 186 221 266 321
#     4  11  22  36  55  75 107 154 193 225 270 330
#     4  10  21  39  63  87 111 141 180 227 281 331
#
# _framework density 17.563980000000001
#
# number of rings (size 3 to 8) (size 9 to 14) (size 15 to 20)
#    0.000    1.500    1.667    6.000    0.000    6.667 
#    0.000    0.000    0.000    1.000    0.000    4.667 
#    0.000    0.000    0.000    0.000    0.000    0.000 
#
# Total GULP energy -268076.100348 kJ/mol
# GULP energy per Si atom -5584.918757 kJ/mol
# Density = 1.752400 g / cm^3
# Si number density = 17.563980 Si / 1000 Ang^3
#
#
#
# Elastic Constant Matrix: (Units=GPa)
#
#
# Indices 1 2 3 4 5 6 
#
# 1 37.2047 23.8702 9.9119 0.0000 0.0000 0.0000
# 2 23.8702 93.2527 37.7908 0.0000 0.0000 0.0000
# 3 9.9119 37.7908 79.8782 0.0000 0.0000 0.0000
# 4 0.0000 0.0000 0.0000 7.5149 0.0000 0.0000
# 5 0.0000 0.0000 0.0000 0.0000 19.2257 0.0000
# 6 0.0000 0.0000 0.0000 0.0000 0.0000 15.5370
#
#
#
# Elastic Compliance Matrix: (Units=1/GPa)
#
#
# Indices 1 2 3 4 5 6 
#
# 1 0.032161 -0.008184 -0.000119 0.000000 0.000000 0.000000
# 2 -0.008184 0.015350 -0.006247 0.000000 0.000000 0.000000
# 3 -0.000119 -0.006247 0.015489 0.000000 0.000000 0.000000
# 4 0.000000 0.000000 0.000000 0.133069 0.000000 0.000000
# 5 0.000000 0.000000 0.000000 0.000000 0.052014 0.000000
# 6 0.000000 0.000000 0.000000 0.000000 0.000000 0.064362
#
#
# Mechanical properties :
#
#
# Convention : Reuss Voigt Hill
#
# Bulk Modulus (GPa) = 29.49787 39.27572 34.38679
# Shear Modulus (GPa) = 14.17054 17.70636 15.93845
#
# Velocity S-wave (km/s) = 2.84350 3.17851 3.01566
# Velocity P-wave (km/s) = 5.25468 5.99005 5.63437
#
# Compressibility (1/GPa) = 0.03390075
#
# Stress axis : x y z
#
# Youngs Moduli (GPa) = 31.09373 65.14695 64.56158
#
# Poissons Ratio (x) = 0.53317 0.00767
# Poissons Ratio (y) = 0.25448 0.40329
# Poissons Ratio (z) = 0.00369 0.40694
#
# Static dielectric constant tensor:
#      x y z
#    x 1.584130 0.000000 0.000000 
#    y 0.000000 1.624260 0.000000 
#    z 0.000000 0.000000 1.587200 
# 
# From -- ./inp_files/33887.got.cif
#   From: 2010.05.17/outbox.cif.g08.bks.cpg/sg53_17_cif.got.tgz:33887.got - 2010.06.03 12:45:16.
