data_PCOD9415063
_publ_section_title
;
Structure prediction by ZEFSAII (Michael W. Deem and Ramdas Pophale) SiO2 
 PCOD9415063
Probable space group: P M N A
;
_chemical_formula_sum "Si O2"
_cell_formula_units_Z 48
_cell_length_a 13.817544
_cell_length_b 11.938816
_cell_length_c 14.386154
_cell_angle_alpha 90.000000
_cell_angle_beta 90.000000
_cell_angle_gamma 90.000000
_cell_volume 2373.213555
_symmetry_space_group_name_H-M "P M N A"
_symmetry_group_IT_number 53
_symmetry_cell_setting 'orthorhombic'
loop_
_space_group_symop_operation_xyz
x,y,z
1/2-x,-y,1/2+z
x,-y,-z
1/2-x,y,1/2-z
-x,-y,-z
1/2+x,y,1/2-z
-x,y,z
1/2+x,-y,1/2+z
loop_
_atom_site_type_symbol
_atom_site_label
_atom_site_fract_x
_atom_site_fract_y
_atom_site_fract_z
Si Si1 0.390607 0.958549 0.367949
Si Si2 0.105731 0.520203 0.290932
Si Si3 0.143046 0.223014 0.710100
Si Si4 0.292906 0.201305 0.351737
Si Si5 0.300623 0.551578 0.603376
Si Si6 0.697955 0.882447 0.023726
O O1 0.500000 0.956816 0.404590
O O2 0.391579 0.877364 0.277565
O O3 0.307146 0.907778 0.435167
O O4 0.357092 0.087177 0.348159
O O5 0.100018 0.654203 0.297142
O O6 0.133879 0.503058 0.183136
O O7 0.191114 0.469831 0.356269
O O8 0.000000 0.471041 0.311993
O O9 0.250000 0.244431 0.750000
O O10 0.145389 0.178711 0.605875
O O11 0.250000 0.221017 0.250000
O O12 0.333021 0.318249 0.390951
O O13 0.209217 0.178100 0.426568
O O14 0.308459 0.500000 0.500000
O O15 0.651080 0.000000 0.000000
#
# Coordination Sequence:
#
# PCOD9415063 Si02
#       6
#     8   8   8   8   8   8
#     4  10  21  35  59  96 130 157 197 258 319 373
#     4  11  23  42  66  95 127 164 218 268 311 375
#     4  10  18  37  63  89 120 166 205 253 312 379
#     4  11  21  39  59  87 119 164 208 251 311 378
#     4  11  24  44  67  89 127 174 217 264 322 375
#     4   9  19  34  61  88 118 159 205 243 304 377
#
# _framework density 20.225739999999998
#
# number of rings (size 3 to 8) (size 9 to 14) (size 15 to 20)
#    0.000    1.667    3.333    4.000    2.333    4.333 
#    0.000    0.000    0.000   11.000    0.000    0.000 
#    0.000    0.000    0.000    0.000    0.000    0.000 
#
# Total GULP energy -267362.505314 kJ/mol
# GULP energy per Si atom -5570.052194 kJ/mol
# Density = 2.017971 g / cm^3
# Si number density = 20.225740 Si / 1000 Ang^3
#
#
#
# Elastic Constant Matrix: (Units=GPa)
#
#
# Indices 1 2 3 4 5 6 
#
# 1 48.7222 -2.6627 -34.9253 0.0000 0.0000 0.0000
# 2 -2.6627 98.3115 17.7366 0.0000 0.0000 0.0000
# 3 -34.9253 17.7366 94.4777 0.0000 0.0000 0.0000
# 4 0.0000 0.0000 0.0000 -26.7839 0.0000 0.0000
# 5 0.0000 0.0000 0.0000 0.0000 27.0609 0.0000
# 6 0.0000 0.0000 0.0000 0.0000 0.0000 -2.3308
#
#
#
# Elastic Compliance Matrix: (Units=1/GPa)
#
#
# Indices 1 2 3 4 5 6 
#
# 1 0.028049 -0.001150 0.010585 0.000000 0.000000 0.000000
# 2 -0.001150 0.010575 -0.002410 0.000000 0.000000 0.000000
# 3 0.010585 -0.002410 0.014950 0.000000 0.000000 0.000000
# 4 0.000000 0.000000 0.000000 -0.037336 0.000000 0.000000
# 5 0.000000 0.000000 0.000000 0.000000 0.036954 0.000000
# 6 0.000000 0.000000 0.000000 0.000000 0.000000 -0.429034
#
#
# Mechanical properties :
#
#
# Convention : Reuss Voigt Hill
#
# Bulk Modulus (GPa) = 14.78787 22.42318 18.60553
# Shear Modulus (GPa) = -13.61102 17.01341 1.70119
#
# Velocity S-wave (km/s) = -2.59695 2.90345 0.91811
# Velocity P-wave (km/s) = 1.29032 4.72764 3.21602
#
# Compressibility (1/GPa) = 0.06762297
#
# Stress axis : x y z
#
# Youngs Moduli (GPa) = 35.65187 94.55830 66.89033
#
# Poissons Ratio (x) = 0.10873 -0.70801
# Poissons Ratio (y) = 0.04100 0.16124
# Poissons Ratio (z) = -0.37736 0.22793
#
# Static dielectric constant tensor:
#      x y z
#    x 1.764040 0.000000 0.000000 
#    y 0.000000 1.924570 0.000000 
#    z 0.000000 0.000000 1.638940 
# 
# From -- ./inp_files/22678.got.cif
#   From: 2010.05.17/outbox.cif.g08.bks.cpg/sg53_12_cif.got.tgz:22678.got - 2010.06.03 12:45:16.
