data_PCOD9415281
_publ_section_title
;
Structure prediction by ZEFSAII (Michael W. Deem and Ramdas Pophale) SiO2 
 PCOD9415281
Probable space group: P M N A
;
_chemical_formula_sum "Si O2"
_cell_formula_units_Z 40
_cell_length_a 26.285862
_cell_length_b 16.763853
_cell_length_c 5.050329
_cell_angle_alpha 90.000000
_cell_angle_beta 90.000000
_cell_angle_gamma 90.000000
_cell_volume 2225.439224
_symmetry_space_group_name_H-M "P M N A"
_symmetry_group_IT_number 53
_symmetry_cell_setting 'orthorhombic'
loop_
_space_group_symop_operation_xyz
x,y,z
1/2-x,-y,1/2+z
x,-y,-z
1/2-x,y,1/2-z
-x,-y,-z
1/2+x,y,1/2-z
-x,y,z
1/2+x,-y,1/2+z
loop_
_atom_site_type_symbol
_atom_site_label
_atom_site_fract_x
_atom_site_fract_y
_atom_site_fract_z
Si Si1 0.341563 0.229417 0.134348
Si Si2 0.557337 0.671414 0.857568
Si Si3 0.905853 0.584604 0.147203
Si Si4 0.695748 0.317023 0.646037
Si Si5 0.689403 0.945092 0.750096
O O1 0.398721 0.262910 0.108157
O O2 0.310992 0.283133 0.349822
O O3 0.338646 0.138929 0.227760
O O4 0.316727 0.244549 0.848171
O O5 0.500000 0.698952 0.902845
O O6 0.564532 0.641228 0.558532
O O7 0.569761 0.599700 0.064894
O O8 0.848012 0.616349 0.173785
O O9 0.906824 0.500000 0.000000
O O10 0.750000 0.347327 0.750000
O O11 0.750000 0.926731 0.750000
O O12 0.677653 0.000000 0.500000
O O13 0.678384 0.000000 0.000000
#
# Coordination Sequence:
#
# PCOD9415281 Si02
#       5
#     8   8   8   8   8
#     4  10  20  34  52  74 103 133 170 211 245 300
#     4  10  21  36  55  75  97 133 174 214 259 299
#     4  10  21  35  51  77 105 129 168 215 258 305
#     4  10  19  33  52  73 100 138 172 201 247 304
#     4  10  19  30  48  75 103 131 161 198 249 300
#
# _framework density 17.973977999999999
#
# number of rings (size 3 to 8) (size 9 to 14) (size 15 to 20)
#    0.000    2.000    0.000    4.200    0.000    4.000 
#    0.000    6.000    0.000    1.200    0.000    0.000 
#    0.000    0.000    0.000    0.000    0.000    0.000 
#
# Total GULP energy -223100.776765 kJ/mol
# GULP energy per Si atom -5577.519419 kJ/mol
# Density = 1.793307 g / cm^3
# Si number density = 17.973978 Si / 1000 Ang^3
#
#
#
# Elastic Constant Matrix: (Units=GPa)
#
#
# Indices 1 2 3 4 5 6 
#
# 1 106.2466 21.6038 25.2869 0.0000 0.0000 0.0000
# 2 21.6038 50.7475 4.3049 0.0000 0.0000 0.0000
# 3 25.2869 4.3049 96.0377 0.0000 0.0000 0.0000
# 4 0.0000 0.0000 0.0000 33.2429 0.0000 0.0000
# 5 0.0000 0.0000 0.0000 0.0000 15.5821 0.0000
# 6 0.0000 0.0000 0.0000 0.0000 0.0000 3.2905
#
#
#
# Elastic Compliance Matrix: (Units=1/GPa)
#
#
# Indices 1 2 3 4 5 6 
#
# 1 0.010953 -0.004435 -0.002685 0.000000 0.000000 0.000000
# 2 -0.004435 0.021576 0.000201 0.000000 0.000000 0.000000
# 3 -0.002685 0.000201 0.011111 0.000000 0.000000 0.000000
# 4 0.000000 0.000000 0.000000 0.030082 0.000000 0.000000
# 5 0.000000 0.000000 0.000000 0.000000 0.064176 0.000000
# 6 0.000000 0.000000 0.000000 0.000000 0.000000 0.303904
#
#
# Mechanical properties :
#
#
# Convention : Reuss Voigt Hill
#
# Bulk Modulus (GPa) = 33.55610 39.49144 36.52377
# Shear Modulus (GPa) = 10.73942 23.87885 17.30913
#
# Velocity S-wave (km/s) = 2.44703 3.64885 3.10661
# Velocity P-wave (km/s) = 5.16660 6.30644 5.76476
#
# Compressibility (1/GPa) = 0.02980084
#
# Stress axis : x y z
#
# Youngs Moduli (GPa) = 91.29984 46.34690 90.00431
#
# Poissons Ratio (x) = 0.20555 0.24167
# Poissons Ratio (y) = 0.40491 -0.01805
# Poissons Ratio (z) = 0.24515 -0.00930
#
# Static dielectric constant tensor:
#      x y z
#    x 1.629220 0.000000 0.000000 
#    y 0.000000 1.583100 0.000000 
#    z 0.000000 0.000000 1.615630 
# 
# From -- ./inp_files/3642.got.cif
#   From: 2010.05.17/outbox.cif.g08.bks.cpg/sg53_2_cif.got.tgz:3642.got - 2010.06.03 12:45:16.
