data_PCOD9415841
_publ_section_title
;
Structure prediction by ZEFSAII (Michael W. Deem and Ramdas Pophale) SiO2 
 PCOD9415841
Probable space group: P M N A
;
_chemical_formula_sum "Si O2"
_cell_formula_units_Z 48
_cell_length_a 8.462572
_cell_length_b 13.909504
_cell_length_c 19.591287
_cell_angle_alpha 90.000000
_cell_angle_beta 90.000000
_cell_angle_gamma 90.000000
_cell_volume 2306.093901
_symmetry_space_group_name_H-M "P M N A"
_symmetry_group_IT_number 53
_symmetry_cell_setting 'orthorhombic'
loop_
_space_group_symop_operation_xyz
x,y,z
1/2-x,-y,1/2+z
x,-y,-z
1/2-x,y,1/2-z
-x,-y,-z
1/2+x,y,1/2-z
-x,y,z
1/2+x,-y,1/2+z
loop_
_atom_site_type_symbol
_atom_site_label
_atom_site_fract_x
_atom_site_fract_y
_atom_site_fract_z
Si Si1 0.810851 0.691601 0.453714
Si Si2 0.192691 0.094391 0.540794
Si Si3 0.810630 0.996936 0.674922
Si Si4 0.690375 0.221571 0.172932
Si Si5 0.312191 0.397943 0.414370
Si Si6 0.689463 0.583187 0.327648
O O1 0.756222 0.798155 0.477466
O O2 0.755885 0.614365 0.509739
O O3 0.746533 0.666624 0.378798
O O4 0.000000 0.691649 0.451345
O O5 0.000000 0.094381 0.535176
O O6 0.247328 0.000000 0.500000
O O7 0.239142 0.072888 0.618625
O O8 0.750000 0.017239 0.750000
O O9 0.763512 0.888021 0.654614
O O10 0.000000 0.996417 0.676553
O O11 0.750000 0.237374 0.250000
O O12 0.500000 0.228908 0.169725
O O13 0.765643 0.300884 0.125021
O O14 0.500000 0.407118 0.420468
O O15 0.254913 0.486017 0.367002
O O16 0.750000 0.588629 0.250000
O O17 0.500000 0.582289 0.325353
#
# Coordination Sequence:
#
# PCOD9415841 Si02
#       6
#     8   8   8   8   8   8
#     4  11  23  39  63  91 119 154 194 239 291 346
#     4   9  18  35  58  84 114 150 193 237 283 338
#     4   9  18  33  53  78 111 149 189 235 288 346
#     4  10  19  32  54  84 117 154 195 243 297 350
#     4  11  23  39  60  86 118 155 195 242 293 346
#     4  11  25  44  64  87 118 155 195 240 290 346
#
# _framework density 20.814416000000001
#
# number of rings (size 3 to 8) (size 9 to 14) (size 15 to 20)
#    0.000    1.833    0.000    4.000    0.000   10.000 
#    0.000    3.333    0.000    3.500    0.000    0.000 
#    0.000    0.000    0.000    0.000    0.000    0.000 
#
# Total GULP energy -268134.172642 kJ/mol
# GULP energy per Si atom -5586.128597 kJ/mol
# Density = 2.076704 g / cm^3
# Si number density = 20.814416 Si / 1000 Ang^3
#
#
#
# Elastic Constant Matrix: (Units=GPa)
#
#
# Indices 1 2 3 4 5 6 
#
# 1 29.5240 19.1008 23.6741 0.0000 0.0000 0.0000
# 2 19.1008 103.7884 61.7620 0.0000 0.0000 0.0000
# 3 23.6741 61.7620 112.2477 0.0000 0.0000 0.0000
# 4 0.0000 0.0000 0.0000 37.9847 0.0000 0.0000
# 5 0.0000 0.0000 0.0000 0.0000 34.1033 0.0000
# 6 0.0000 0.0000 0.0000 0.0000 0.0000 14.5940
#
#
#
# Elastic Compliance Matrix: (Units=1/GPa)
#
#
# Indices 1 2 3 4 5 6 
#
# 1 0.041663 -0.003626 -0.006792 0.000000 0.000000 0.000000
# 2 -0.003626 0.014641 -0.007291 0.000000 0.000000 0.000000
# 3 -0.006792 -0.007291 0.014353 0.000000 0.000000 0.000000
# 4 0.000000 0.000000 0.000000 0.026326 0.000000 0.000000
# 5 0.000000 0.000000 0.000000 0.000000 0.029323 0.000000
# 6 0.000000 0.000000 0.000000 0.000000 0.000000 0.068522
#
#
# Mechanical properties :
#
#
# Convention : Reuss Voigt Hill
#
# Bulk Modulus (GPa) = 28.37764 50.51487 39.44626
# Shear Modulus (GPa) = 20.66184 26.73794 23.69989
#
# Velocity S-wave (km/s) = 3.15408 3.58800 3.37802
# Velocity P-wave (km/s) = 5.18918 6.44103 5.84869
#
# Compressibility (1/GPa) = 0.03523901
#
# Stress axis : x y z
#
# Youngs Moduli (GPa) = 24.00229 68.30091 69.67042
#
# Poissons Ratio (x) = 0.24763 0.47321
# Poissons Ratio (y) = 0.08702 0.50799
# Poissons Ratio (z) = 0.16303 0.49800
#
# Static dielectric constant tensor:
#      x y z
#    x 1.709420 0.000000 0.000000 
#    y 0.000000 1.764690 0.000000 
#    z 0.000000 0.000000 1.723460 
# 
# From -- ./inp_files/26210.got.cif
#   From: 2010.05.17/outbox.cif.g08.bks.cpg/sg53_14_cif.got.tgz:26210.got - 2010.06.03 12:45:16.
