data_PCOD9415418
_publ_section_title
;
Structure prediction by ZEFSAII (Michael W. Deem and Ramdas Pophale) SiO2 
 PCOD9415418
Probable space group: P M N A
;
_chemical_formula_sum "Si O2"
_cell_formula_units_Z 56
_cell_length_a 9.855702
_cell_length_b 20.207174
_cell_length_c 15.403801
_cell_angle_alpha 90.000000
_cell_angle_beta 90.000000
_cell_angle_gamma 90.000000
_cell_volume 3067.757624
_symmetry_space_group_name_H-M "P M N A"
_symmetry_group_IT_number 53
_symmetry_cell_setting 'orthorhombic'
loop_
_space_group_symop_operation_xyz
x,y,z
1/2-x,-y,1/2+z
x,-y,-z
1/2-x,y,1/2-z
-x,-y,-z
1/2+x,y,1/2-z
-x,y,z
1/2+x,-y,1/2+z
loop_
_atom_site_type_symbol
_atom_site_label
_atom_site_fract_x
_atom_site_fract_y
_atom_site_fract_z
Si Si1 0.661843 0.166199 0.664583
Si Si2 0.654163 0.920972 0.507447
Si Si3 0.658579 0.284897 0.544638
Si Si4 0.150331 0.577054 0.978303
Si Si5 0.350865 0.257067 0.116583
Si Si6 0.347053 0.401297 0.175975
Si Si7 0.658172 0.889688 0.829913
O O1 0.750000 0.151696 0.750000
O O2 0.500000 0.164959 0.684417
O O3 0.684036 0.115010 0.584382
O O4 0.699501 0.238679 0.625119
O O5 0.500000 0.899418 0.533378
O O6 0.765855 0.905521 0.580073
O O7 0.651575 0.000000 0.500000
O O8 0.500000 0.270123 0.531110
O O9 0.670800 0.365009 0.550087
O O10 0.739710 0.263300 0.458631
O O11 0.000000 0.593252 0.939078
O O12 0.144967 0.500000 0.000000
O O13 0.275251 0.583659 0.914090
O O14 0.500000 0.257216 0.072975
O O15 0.347923 0.321451 0.176909
O O16 0.341557 0.190142 0.170246
O O17 0.250000 0.428131 0.250000
O O18 0.500000 0.425495 0.182628
O O19 0.750000 0.914745 0.750000
O O20 0.500000 0.911492 0.826491
#
# Coordination Sequence:
#
# PCOD9415418 Si02
#       7
#     8   8   8   8   8   8   8
#     4  10  21  37  59  85 111 146 190 238 287 338
#     4  10  22  41  61  82 112 148 187 235 289 344
#     4   9  17  32  55  79 105 141 183 226 276 329
#     4   9  18  33  53  76 105 141 178 222 277 336
#     4   9  18  31  50  78 108 138 173 217 266 320
#     4  10  19  31  48  73 104 136 174 216 263 319
#     4  11  22  35  55  83 115 148 182 223 275 334
#
# _framework density 18.254376000000001
#
# number of rings (size 3 to 8) (size 9 to 14) (size 15 to 20)
#    0.000    2.286    1.429    1.286    0.000    3.429 
#    0.000    2.143    0.000    1.714    0.000    0.000 
#    0.000    0.000    0.000    0.000    0.000    0.000 
#
# Total GULP energy -311763.501851 kJ/mol
# GULP energy per Si atom -5567.205390 kJ/mol
# Density = 1.821283 g / cm^3
# Si number density = 18.254376 Si / 1000 Ang^3
#
#
#
# Elastic Constant Matrix: (Units=GPa)
#
#
# Indices 1 2 3 4 5 6 
#
# 1 131.6247 27.2273 70.8754 0.0000 0.0000 0.0000
# 2 27.2273 75.8822 22.7403 0.0000 0.0000 0.0000
# 3 70.8754 22.7403 90.0484 0.0000 0.0000 0.0000
# 4 0.0000 0.0000 0.0000 1.5168 0.0000 0.0000
# 5 0.0000 0.0000 0.0000 0.0000 29.7764 0.0000
# 6 0.0000 0.0000 0.0000 0.0000 0.0000 11.6726
#
#
#
# Elastic Compliance Matrix: (Units=1/GPa)
#
#
# Indices 1 2 3 4 5 6 
#
# 1 0.013405 -0.001783 -0.010101 0.000000 0.000000 0.000000
# 2 -0.001783 0.014494 -0.002257 0.000000 0.000000 0.000000
# 3 -0.010101 -0.002257 0.019625 0.000000 0.000000 0.000000
# 4 0.000000 0.000000 0.000000 0.659264 0.000000 0.000000
# 5 0.000000 0.000000 0.000000 0.000000 0.033584 0.000000
# 6 0.000000 0.000000 0.000000 0.000000 0.000000 0.085670
#
#
# Mechanical properties :
#
#
# Convention : Reuss Voigt Hill
#
# Bulk Modulus (GPa) = 51.96571 59.91571 55.94071
# Shear Modulus (GPa) = 5.80897 20.37400 13.09149
#
# Velocity S-wave (km/s) = 1.78582 3.34446 2.68091
# Velocity P-wave (km/s) = 5.72552 6.91432 6.34781
#
# Compressibility (1/GPa) = 0.01924346
#
# Stress axis : x y z
#
# Youngs Moduli (GPa) = 74.59925 68.99198 50.95524
#
# Poissons Ratio (x) = 0.12301 0.51468
# Poissons Ratio (y) = 0.13300 0.11501
# Poissons Ratio (z) = 0.75349 0.15572
#
# Static dielectric constant tensor:
#      x y z
#    x 1.649250 0.000000 0.000000 
#    y 0.000000 1.668510 0.000000 
#    z 0.000000 0.000000 1.616780 
# 
# From -- ./inp_files/20518.got.cif
#   From: 2010.05.17/outbox.cif.g08.bks.cpg/sg53_11_cif.got.tgz:20518.got - 2010.06.03 12:45:16.
