data_PCOD9415986
_publ_section_title
;
Structure prediction by ZEFSAII (Michael W. Deem and Ramdas Pophale) SiO2 
 PCOD9415986
Probable space group: P M N A
;
_chemical_formula_sum "Si O2"
_cell_formula_units_Z 64
_cell_length_a 8.822974
_cell_length_b 20.859213
_cell_length_c 19.845943
_cell_angle_alpha 90.000000
_cell_angle_beta 90.000000
_cell_angle_gamma 90.000000
_cell_volume 3652.453184
_symmetry_space_group_name_H-M "P M N A"
_symmetry_group_IT_number 53
_symmetry_cell_setting 'orthorhombic'
loop_
_space_group_symop_operation_xyz
x,y,z
1/2-x,-y,1/2+z
x,-y,-z
1/2-x,y,1/2-z
-x,-y,-z
1/2+x,y,1/2-z
-x,y,z
1/2+x,-y,1/2+z
loop_
_atom_site_type_symbol
_atom_site_label
_atom_site_fract_x
_atom_site_fract_y
_atom_site_fract_z
Si Si1 0.681234 0.934775 0.960331
Si Si2 0.683102 0.565526 0.035378
Si Si3 0.818758 0.183085 0.956594
Si Si4 0.818310 0.766929 0.322310
Si Si5 0.181781 0.104668 0.177868
Si Si6 0.182022 0.744793 0.821042
Si Si7 0.682068 0.616300 0.178081
Si Si8 0.182025 0.687243 0.960712
O O1 0.500000 0.928756 0.955180
O O2 0.751977 0.932796 0.885745
O O3 0.747495 0.875402 0.002490
O O4 0.717191 0.000000 0.000000
O O5 0.500000 0.565727 0.035792
O O6 0.732831 0.575916 0.113018
O O7 0.734730 0.500000 0.000000
O O8 0.739895 0.626112 0.993090
O O9 0.750686 0.191551 0.882368
O O10 0.000000 0.175621 0.954084
O O11 0.784815 0.249153 0.996008
O O12 0.750000 0.784921 0.250000
O O13 0.778019 0.691479 0.333502
O O14 0.000000 0.771859 0.321619
O O15 0.250000 0.084966 0.250000
O O16 0.222703 0.180219 0.168047
O O17 0.000000 0.099882 0.179247
O O18 0.250000 0.724106 0.750000
O O19 0.231590 0.702799 0.884516
O O20 0.000000 0.742442 0.817717
O O21 0.750000 0.596686 0.250000
O O22 0.500000 0.612911 0.182575
O O23 0.000000 0.678393 0.961240
#
# Coordination Sequence:
#
# PCOD9415986 Si02
#       8
#     8   8   8   8   8   8   8   8
#     4  11  24  40  58  84 117 153 193 235 281 338
#     4  10  21  37  55  79 111 146 187 229 276 332
#     4  11  21  36  58  84 113 146 184 233 284 333
#     4  10  19  33  54  83 114 145 185 232 284 340
#     4  10  19  35  58  85 115 148 188 233 282 338
#     4   9  18  33  52  81 112 142 180 226 273 327
#     4   9  18  32  52  78 105 140 181 225 273 328
#     4  10  20  35  55  81 112 141 181 228 275 329
#
# _framework density 17.522469999999998
#
# number of rings (size 3 to 8) (size 9 to 14) (size 15 to 20)
#    0.000    2.000    2.500    1.500    0.000    3.750 
#    0.000    1.250    0.000    6.000    0.000    0.000 
#    0.000    0.000    0.000    0.000    0.000    0.000 
#
# Total GULP energy -357246.698785 kJ/mol
# GULP energy per Si atom -5581.979669 kJ/mol
# Density = 1.748259 g / cm^3
# Si number density = 17.522470 Si / 1000 Ang^3
#
#
#
# Elastic Constant Matrix: (Units=GPa)
#
#
# Indices 1 2 3 4 5 6 
#
# 1 33.6451 43.2856 52.8704 0.0000 0.0000 0.0000
# 2 43.2856 92.6984 75.5140 0.0000 0.0000 0.0000
# 3 52.8704 75.5140 194.6278 0.0000 0.0000 0.0000
# 4 0.0000 0.0000 0.0000 26.2727 0.0000 0.0000
# 5 0.0000 0.0000 0.0000 0.0000 34.5916 0.0000
# 6 0.0000 0.0000 0.0000 0.0000 0.0000 69.9884
#
#
#
# Elastic Compliance Matrix: (Units=1/GPa)
#
#
# Indices 1 2 3 4 5 6 
#
# 1 0.090062 -0.032349 -0.011914 0.000000 0.000000 0.000000
# 2 -0.032349 0.027392 -0.001840 0.000000 0.000000 0.000000
# 3 -0.011914 -0.001840 0.009089 0.000000 0.000000 0.000000
# 4 0.000000 0.000000 0.000000 0.038062 0.000000 0.000000
# 5 0.000000 0.000000 0.000000 0.000000 0.028909 0.000000
# 6 0.000000 0.000000 0.000000 0.000000 0.000000 0.014288
#
#
# Mechanical properties :
#
#
# Convention : Reuss Voigt Hill
#
# Bulk Modulus (GPa) = 29.12411 73.81236 51.46824
# Shear Modulus (GPa) = 16.05371 36.12398 26.08885
#
# Velocity S-wave (km/s) = 3.03013 4.54539 3.86279
# Velocity P-wave (km/s) = 5.37581 8.35244 7.02362
#
# Compressibility (1/GPa) = 0.03433581
#
# Stress axis : x y z
#
# Youngs Moduli (GPa) = 11.10345 36.50656 110.02895
#
# Poissons Ratio (x) = 1.18095 1.31089
# Poissons Ratio (y) = 0.35919 0.20250
# Poissons Ratio (z) = 0.13229 0.06719
#
# Static dielectric constant tensor:
#      x y z
#    x 1.586210 0.000000 0.000000 
#    y 0.000000 1.572240 0.000000 
#    z 0.000000 0.000000 1.596160 
# 
# From -- ./inp_files/26848.got.cif
#   From: 2010.05.17/outbox.cif.g08.bks.cpg/sg53_14_cif.got.tgz:26848.got - 2010.06.03 12:45:16.
