data_PCOD9415891
_publ_section_title
;
Structure prediction by ZEFSAII (Michael W. Deem and Ramdas Pophale) SiO2 
 PCOD9415891
Probable space group: P M N A
;
_chemical_formula_sum "Si O2"
_cell_formula_units_Z 64
_cell_length_a 8.613953
_cell_length_b 22.531458
_cell_length_c 19.300742
_cell_angle_alpha 90.000000
_cell_angle_beta 90.000000
_cell_angle_gamma 90.000000
_cell_volume 3745.982972
_symmetry_space_group_name_H-M "P M N A"
_symmetry_group_IT_number 53
_symmetry_cell_setting 'orthorhombic'
loop_
_space_group_symop_operation_xyz
x,y,z
1/2-x,-y,1/2+z
x,-y,-z
1/2-x,y,1/2-z
-x,-y,-z
1/2+x,y,1/2-z
-x,y,z
1/2+x,-y,1/2+z
loop_
_atom_site_type_symbol
_atom_site_label
_atom_site_fract_x
_atom_site_fract_y
_atom_site_fract_z
Si Si1 0.685422 0.003001 0.325309
Si Si2 0.682230 0.409519 0.538281
Si Si3 0.185917 0.865851 0.173970
Si Si4 0.187075 0.359773 0.175724
Si Si5 0.315058 0.699199 0.963358
Si Si6 0.312846 0.058214 0.041926
Si Si7 0.818259 0.477512 0.109661
Si Si8 0.687771 0.178447 0.966183
O O1 0.750000 0.017365 0.250000
O O2 0.500000 0.004168 0.325492
O O3 0.751333 0.047915 0.381410
O O4 0.735290 0.934583 0.340563
O O5 0.500000 0.397399 0.552287
O O6 0.771088 0.349293 0.521922
O O7 0.745566 0.456458 0.595100
O O8 0.686933 0.444379 0.464751
O O9 0.250000 0.850319 0.250000
O O10 0.248584 0.825845 0.111689
O O11 0.000000 0.864092 0.175566
O O12 0.250000 0.339356 0.250000
O O13 0.240192 0.320880 0.109661
O O14 0.246217 0.427714 0.161398
O O15 0.000000 0.360812 0.176199
O O16 0.500000 0.699527 0.953799
O O17 0.263913 0.763287 0.991429
O O18 0.500000 0.058300 0.042536
O O19 0.260724 0.118759 0.005923
O O20 0.259742 0.000000 0.000000
O O21 0.000000 0.485974 0.126823
O O22 0.500000 0.178329 0.962927
#
# Coordination Sequence:
#
# PCOD9415891 Si02
#       8
#     8   8   8   8   8   8   8   8
#     4  10  20  33  51  76 104 131 161 203 255 315
#     4   8  13  26  47  69  94 124 159 197 241 291
#     4  10  20  33  53  78 103 128 159 201 253 311
#     4  10  19  33  52  74 102 136 176 218 260 303
#     4  10  20  33  49  73 104 137 175 216 258 304
#     4  10  19  33  54  75  99 132 169 212 265 313
#     4   7  12  24  45  70  94 122 156 197 243 290
#     4  10  21  36  53  75 104 137 174 216 258 308
#
# _framework density 17.084968
#
# number of rings (size 3 to 8) (size 9 to 14) (size 15 to 20)
#    0.000    2.625    1.250    3.000    0.000    2.750 
#    0.000    6.250    0.000    0.750    0.000    3.500 
#    0.000    0.000    0.000    0.000    0.000    0.000 
#
# Total GULP energy -356452.489968 kJ/mol
# GULP energy per Si atom -5569.570156 kJ/mol
# Density = 1.704608 g / cm^3
# Si number density = 17.084968 Si / 1000 Ang^3
#
#
#
# Elastic Constant Matrix: (Units=GPa)
#
#
# Indices 1 2 3 4 5 6 
#
# 1 21.9433 28.9549 22.2211 0.0000 0.0000 0.0000
# 2 28.9549 119.4281 65.2891 0.0000 0.0000 0.0000
# 3 22.2211 65.2891 110.0817 0.0000 0.0000 0.0000
# 4 0.0000 0.0000 0.0000 21.9579 0.0000 0.0000
# 5 0.0000 0.0000 0.0000 0.0000 20.6922 0.0000
# 6 0.0000 0.0000 0.0000 0.0000 0.0000 19.2964
#
#
#
# Elastic Compliance Matrix: (Units=1/GPa)
#
#
# Indices 1 2 3 4 5 6 
#
# 1 0.069570 -0.013599 -0.005978 0.000000 0.000000 0.000000
# 2 -0.013599 0.015049 -0.006180 0.000000 0.000000 0.000000
# 3 -0.005978 -0.006180 0.013956 0.000000 0.000000 0.000000
# 4 0.000000 0.000000 0.000000 0.045542 0.000000 0.000000
# 5 0.000000 0.000000 0.000000 0.000000 0.048327 0.000000
# 6 0.000000 0.000000 0.000000 0.000000 0.000000 0.051823
#
#
# Mechanical properties :
#
#
# Convention : Reuss Voigt Hill
#
# Bulk Modulus (GPa) = 21.24913 53.82036 37.53475
# Shear Modulus (GPa) = 16.05298 21.38851 18.72074
#
# Velocity S-wave (km/s) = 3.06861 3.54205 3.31379
# Velocity P-wave (km/s) = 5.00195 6.94968 6.05465
#
# Compressibility (1/GPa) = 0.04706074
#
# Stress axis : x y z
#
# Youngs Moduli (GPa) = 14.37404 66.44977 71.65153
#
# Poissons Ratio (x) = 0.90365 0.42833
# Poissons Ratio (y) = 0.19547 0.44283
# Poissons Ratio (z) = 0.08593 0.41069
#
# Static dielectric constant tensor:
#      x y z
#    x 1.578760 0.000000 0.000000 
#    y 0.000000 1.603920 0.000000 
#    z 0.000000 0.000000 1.587740 
# 
# From -- ./inp_files/26880.got.cif
#   From: 2010.05.17/outbox.cif.g08.bks.cpg/sg53_14_cif.got.tgz:26880.got - 2010.06.03 12:45:16.
