data_PCOD9415479
_publ_section_title
;
Structure prediction by ZEFSAII (Michael W. Deem and Ramdas Pophale) SiO2 
 PCOD9415479
Probable space group: P M N A
;
_chemical_formula_sum "Si O2"
_cell_formula_units_Z 56
_cell_length_a 14.107755
_cell_length_b 15.283092
_cell_length_c 9.915614
_cell_angle_alpha 90.000000
_cell_angle_beta 90.000000
_cell_angle_gamma 90.000000
_cell_volume 2137.906700
_symmetry_space_group_name_H-M "P M N A"
_symmetry_group_IT_number 53
_symmetry_cell_setting 'orthorhombic'
loop_
_space_group_symop_operation_xyz
x,y,z
1/2-x,-y,1/2+z
x,-y,-z
1/2-x,y,1/2-z
-x,-y,-z
1/2+x,y,1/2-z
-x,y,z
1/2+x,-y,1/2+z
loop_
_atom_site_type_symbol
_atom_site_label
_atom_site_fract_x
_atom_site_fract_y
_atom_site_fract_z
Si Si1 0.885968 0.077889 0.399358
Si Si2 0.888573 0.643750 0.416379
Si Si3 0.116600 0.271770 0.319517
Si Si4 0.352151 0.649638 0.539915
Si Si5 0.884936 0.967334 0.142561
Si Si6 0.109832 0.776856 0.202490
Si Si7 0.342638 0.512228 0.311833
O O1 0.856469 0.179383 0.390634
O O2 0.000000 0.082986 0.419605
O O3 0.854884 0.000000 0.500000
O O4 0.863807 0.038273 0.254100
O O5 0.852257 0.655039 0.568892
O O6 0.846329 0.721661 0.324632
O O7 0.887134 0.561164 0.315702
O O8 0.000000 0.659639 0.436318
O O9 0.161186 0.289394 0.172620
O O10 0.000000 0.271703 0.299132
O O11 0.392990 0.719071 0.432902
O O12 0.306396 0.584859 0.421525
O O13 0.398889 0.565764 0.617980
O O14 0.848093 0.871439 0.177346
O O15 0.000000 0.960726 0.136141
O O16 0.851285 0.000000 0.000000
O O17 0.000000 0.790912 0.242767
O O18 0.250000 0.468904 0.250000
#
# Coordination Sequence:
#
# PCOD9415479 Si02
#       7
#     8   8   8   8   8   8   8
#     4   9  16  26  42  68 109 158 194 219 263 325
#     4   9  19  34  54  79 111 149 184 226 284 342
#     4  10  19  31  49  80 119 153 190 237 281 331
#     4  10  21  35  55  77 100 137 180 229 284 332
#     4   9  15  22  37  63  99 143 180 214 260 313
#     4   9  16  29  47  72 109 145 178 217 266 328
#     4  10  23  42  59  78 107 143 188 239 291 348
#
# _framework density 26.193847000000002
#
# number of rings (size 3 to 8) (size 9 to 14) (size 15 to 20)
#    0.000    2.571    0.000    2.143    0.000   10.286 
#    0.000    6.429    0.000    0.000    0.000    0.000 
#    0.000  104.000    0.000    0.000    0.000    0.000 
#
# Total GULP energy -312048.718725 kJ/mol
# GULP energy per Si atom -5572.298549 kJ/mol
# Density = 2.613423 g / cm^3
# Si number density = 26.193847 Si / 1000 Ang^3
#
#
#
# Elastic Constant Matrix: (Units=GPa)
#
#
# Indices 1 2 3 4 5 6 
#
# 1 66.7912 28.1294 42.5215 0.0000 0.0000 0.0000
# 2 28.1294 141.1563 36.6896 0.0000 0.0000 0.0000
# 3 42.5215 36.6896 174.7405 0.0000 0.0000 0.0000
# 4 0.0000 0.0000 0.0000 65.1513 0.0000 0.0000
# 5 0.0000 0.0000 0.0000 0.0000 31.7140 0.0000
# 6 0.0000 0.0000 0.0000 0.0000 0.0000 14.0536
#
#
#
# Elastic Compliance Matrix: (Units=1/GPa)
#
#
# Indices 1 2 3 4 5 6 
#
# 1 0.018628 -0.002680 -0.003970 0.000000 0.000000 0.000000
# 2 -0.002680 0.007879 -0.001002 0.000000 0.000000 0.000000
# 3 -0.003970 -0.001002 0.006899 0.000000 0.000000 0.000000
# 4 0.000000 0.000000 0.000000 0.015349 0.000000 0.000000
# 5 0.000000 0.000000 0.000000 0.000000 0.031532 0.000000
# 6 0.000000 0.000000 0.000000 0.000000 0.000000 0.071156
#
#
# Mechanical properties :
#
#
# Convention : Reuss Voigt Hill
#
# Bulk Modulus (GPa) = 55.24442 66.37432 60.80937
# Shear Modulus (GPa) = 28.93806 40.54027 34.73916
#
# Velocity S-wave (km/s) = 3.32741 3.93835 3.64570
# Velocity P-wave (km/s) = 5.99154 6.78789 6.40211
#
# Compressibility (1/GPa) = 0.01810137
#
# Stress axis : x y z
#
# Youngs Moduli (GPa) = 53.68127 126.92076 144.94195
#
# Poissons Ratio (x) = 0.34018 0.57546
# Poissons Ratio (y) = 0.14388 0.14524
# Poissons Ratio (z) = 0.21313 0.12719
#
# Static dielectric constant tensor:
#      x y z
#    x 2.317370 0.000000 0.000000 
#    y 0.000000 1.998990 0.000000 
#    z 0.000000 0.000000 2.029150 
# 
# From -- ./inp_files/11069.got.cif
#   From: 2010.05.17/outbox.cif.g08.bks.cpg/sg53_6_cif.got.tgz:11069.got - 2010.06.03 12:45:16.
