data_PCOD9415739
_publ_section_title
;
Structure prediction by ZEFSAII (Michael W. Deem and Ramdas Pophale) SiO2 
 PCOD9415739
Probable space group: P M N A
;
_chemical_formula_sum "Si O2"
_cell_formula_units_Z 56
_cell_length_a 14.766073
_cell_length_b 20.145437
_cell_length_c 9.200281
_cell_angle_alpha 90.000000
_cell_angle_beta 90.000000
_cell_angle_gamma 90.000000
_cell_volume 2736.798328
_symmetry_space_group_name_H-M "P M N A"
_symmetry_group_IT_number 53
_symmetry_cell_setting 'orthorhombic'
loop_
_space_group_symop_operation_xyz
x,y,z
1/2-x,-y,1/2+z
x,-y,-z
1/2-x,y,1/2-z
-x,-y,-z
1/2+x,y,1/2-z
-x,y,z
1/2+x,-y,1/2+z
loop_
_atom_site_type_symbol
_atom_site_label
_atom_site_fract_x
_atom_site_fract_y
_atom_site_fract_z
Si Si1 0.349118 0.356218 0.813460
Si Si2 0.106594 0.507484 0.157418
Si Si3 0.349520 0.790224 0.178583
Si Si4 0.396526 0.904966 0.390802
Si Si5 0.104353 0.570740 0.583053
Si Si6 0.895344 0.024203 0.331847
Si Si7 0.732242 0.854933 0.899774
O O1 0.250000 0.350713 0.750000
O O2 0.389383 0.418692 0.724693
O O3 0.391280 0.283067 0.807221
O O4 0.345309 0.378528 0.980538
O O5 0.144108 0.451414 0.264201
O O6 0.000000 0.491834 0.147214
O O7 0.149695 0.500000 0.000000
O O8 0.250000 0.787405 0.250000
O O9 0.399158 0.845973 0.272093
O O10 0.328797 0.814713 0.015573
O O11 0.500000 0.914124 0.447936
O O12 0.320048 0.883885 0.509903
O O13 0.370919 0.969599 0.292255
O O14 0.100466 0.500000 0.500000
O O15 0.000000 0.593965 0.595513
O O16 0.828288 0.085383 0.336898
O O17 0.000000 0.042383 0.304123
O O18 0.891576 0.000000 0.500000
O O19 0.750000 0.814756 0.750000
#
# Coordination Sequence:
#
# PCOD9415739 Si02
#       7
#     8   8   8   8   8   8   8
#     4  10  19  32  52  79 108 143 187 228 278 341
#     4   9  18  33  53  79 108 139 180 229 282 339
#     4   9  20  38  56  78 110 152 194 234 287 349
#     4  10  22  40  62  89 119 156 202 248 295 360
#     4   8  15  30  50  72 102 136 172 216 267 324
#     4  10  21  36  59  92 121 149 196 248 299 361
#     4  11  24  38  63  86 120 160 197 249 311 353
#
# _framework density 20.461866000000001
#
# number of rings (size 3 to 8) (size 9 to 14) (size 15 to 20)
#    0.000    2.429    1.429    1.286    2.000    3.429 
#    0.000    5.714    0.000    2.571    0.000    0.000 
#    0.000    0.000    0.000    0.000    0.000    0.000 
#
# Total GULP energy -311961.077256 kJ/mol
# GULP energy per Si atom -5570.733522 kJ/mol
# Density = 2.041529 g / cm^3
# Si number density = 20.461866 Si / 1000 Ang^3
#
#
#
# Elastic Constant Matrix: (Units=GPa)
#
#
# Indices 1 2 3 4 5 6 
#
# 1 61.1138 9.0658 24.2728 0.0000 0.0000 0.0000
# 2 9.0658 90.8858 42.2649 0.0000 0.0000 0.0000
# 3 24.2728 42.2649 156.8606 0.0000 0.0000 0.0000
# 4 0.0000 0.0000 0.0000 9.5824 0.0000 0.0000
# 5 0.0000 0.0000 0.0000 0.0000 15.9087 0.0000
# 6 0.0000 0.0000 0.0000 0.0000 0.0000 38.7529
#
#
#
# Elastic Compliance Matrix: (Units=1/GPa)
#
#
# Indices 1 2 3 4 5 6 
#
# 1 0.017459 -0.000555 -0.002552 0.000000 0.000000 0.000000
# 2 -0.000555 0.012597 -0.003308 0.000000 0.000000 0.000000
# 3 -0.002552 -0.003308 0.007661 0.000000 0.000000 0.000000
# 4 0.000000 0.000000 0.000000 0.104358 0.000000 0.000000
# 5 0.000000 0.000000 0.000000 0.000000 0.062859 0.000000
# 6 0.000000 0.000000 0.000000 0.000000 0.000000 0.025805
#
#
# Mechanical properties :
#
#
# Convention : Reuss Voigt Hill
#
# Bulk Modulus (GPa) = 40.18209 51.11859 45.65034
# Shear Modulus (GPa) = 19.85199 28.39923 24.12561
#
# Velocity S-wave (km/s) = 3.11817 3.72951 3.43746
# Velocity P-wave (km/s) = 5.71351 6.60169 6.17359
#
# Compressibility (1/GPa) = 0.02488671
#
# Stress axis : x y z
#
# Youngs Moduli (GPa) = 57.27759 79.38658 130.52469
#
# Poissons Ratio (x) = 0.04403 0.33312
# Poissons Ratio (y) = 0.03177 0.43181
# Poissons Ratio (z) = 0.14618 0.26263
#
# Static dielectric constant tensor:
#      x y z
#    x 1.996830 0.000000 0.000000 
#    y 0.000000 1.755290 0.000000 
#    z 0.000000 0.000000 1.841050 
# 
# From -- ./inp_files/8846.got.cif
#   From: 2010.05.17/outbox.cif.g08.bks.cpg/sg53_5_cif.got.tgz:8846.got - 2010.06.03 12:45:16.
