data_PCOD9415321
_publ_section_title
;
Structure prediction by ZEFSAII (Michael W. Deem and Ramdas Pophale) SiO2 
 PCOD9415321
Probable space group: P M N A
;
_chemical_formula_sum "Si O2"
_cell_formula_units_Z 64
_cell_length_a 8.520038
_cell_length_b 17.306834
_cell_length_c 24.221743
_cell_angle_alpha 90.000000
_cell_angle_beta 90.000000
_cell_angle_gamma 90.000000
_cell_volume 3571.614288
_symmetry_space_group_name_H-M "P M N A"
_symmetry_group_IT_number 53
_symmetry_cell_setting 'orthorhombic'
loop_
_space_group_symop_operation_xyz
x,y,z
1/2-x,-y,1/2+z
x,-y,-z
1/2-x,y,1/2-z
-x,-y,-z
1/2+x,y,1/2-z
-x,y,z
1/2+x,-y,1/2+z
loop_
_atom_site_type_symbol
_atom_site_label
_atom_site_fract_x
_atom_site_fract_y
_atom_site_fract_z
Si Si1 0.687614 0.201889 0.592868
Si Si2 0.311046 0.433127 0.308845
Si Si3 0.689718 0.087373 0.988170
Si Si4 0.691347 0.222211 0.072189
Si Si5 0.814300 0.338943 0.515457
Si Si6 0.311180 0.560175 0.393222
Si Si7 0.812533 0.302419 0.811124
Si Si8 0.812086 0.258229 0.307831
O O1 0.500000 0.210535 0.585771
O O2 0.743391 0.120960 0.568854
O O3 0.772114 0.267316 0.555901
O O4 0.727245 0.224256 0.655535
O O5 0.250000 0.466616 0.250000
O O6 0.500000 0.432645 0.306675
O O7 0.260706 0.481715 0.362771
O O8 0.246951 0.346484 0.311773
O O9 0.500000 0.089389 0.985943
O O10 0.740599 0.148682 0.035472
O O11 0.738997 0.000000 0.000000
O O12 0.500000 0.223185 0.070986
O O13 0.740851 0.217855 0.135609
O O14 0.742873 0.302950 0.042878
O O15 0.745646 0.413961 0.546190
O O16 0.000000 0.349437 0.512076
O O17 0.500000 0.560550 0.395376
O O18 0.259020 0.626835 0.349968
O O19 0.750000 0.305959 0.750000
O O20 0.000000 0.308237 0.808646
O O21 0.750000 0.225578 0.250000
O O22 0.000000 0.258683 0.305981
#
# Coordination Sequence:
#
# PCOD9415321 Si02
#       8
#     8   8   8   8   8   8   8   8
#     4   9  17  29  43  64  96 125 149 184 228 270
#     4  10  19  31  46  65  91 122 161 205 247 286
#     4   9  17  31  53  78  97 116 148 185 222 272
#     4   8  16  31  50  72  96 120 147 187 233 275
#     4   9  16  28  47  68  89 119 158 192 229 278
#     4   9  18  30  42  62  93 123 153 197 245 282
#     4   9  17  27  40  60  86 119 156 188 221 262
#     4  10  19  33  51  69  92 120 155 196 236 278
#
# _framework density 17.919066999999998
#
# number of rings (size 3 to 8) (size 9 to 14) (size 15 to 20)
#    0.000    2.875    0.000    4.125    0.000    3.750 
#    0.000    6.875    0.000    4.500    0.000    3.500 
#    0.000    0.000    0.000    0.000    0.000    0.000 
#
# Total GULP energy -356368.676391 kJ/mol
# GULP energy per Si atom -5568.260569 kJ/mol
# Density = 1.787828 g / cm^3
# Si number density = 17.919067 Si / 1000 Ang^3
#
#
#
# Elastic Constant Matrix: (Units=GPa)
#
#
# Indices 1 2 3 4 5 6 
#
# 1 19.7146 4.8956 10.8241 0.0000 0.0000 0.0000
# 2 4.8956 41.9020 18.2745 0.0000 0.0000 0.0000
# 3 10.8241 18.2745 93.3515 0.0000 0.0000 0.0000
# 4 0.0000 0.0000 0.0000 19.1692 0.0000 0.0000
# 5 0.0000 0.0000 0.0000 0.0000 24.1244 0.0000
# 6 0.0000 0.0000 0.0000 0.0000 0.0000 30.1554
#
#
#
# Elastic Compliance Matrix: (Units=1/GPa)
#
#
# Indices 1 2 3 4 5 6 
#
# 1 0.054769 -0.003968 -0.005574 0.000000 0.000000 0.000000
# 2 -0.003968 0.026380 -0.004704 0.000000 0.000000 0.000000
# 3 -0.005574 -0.004704 0.012279 0.000000 0.000000 0.000000
# 4 0.000000 0.000000 0.000000 0.052167 0.000000 0.000000
# 5 0.000000 0.000000 0.000000 0.000000 0.041452 0.000000
# 6 0.000000 0.000000 0.000000 0.000000 0.000000 0.033162
#
#
# Mechanical properties :
#
#
# Convention : Reuss Voigt Hill
#
# Bulk Modulus (GPa) = 15.39950 24.77297 20.08624
# Shear Modulus (GPa) = 18.49471 22.75471 20.62471
#
# Velocity S-wave (km/s) = 3.21616 3.56738 3.39631
# Velocity P-wave (km/s) = 4.73330 5.55186 5.15884
#
# Compressibility (1/GPa) = 0.06493718
#
# Stress axis : x y z
#
# Youngs Moduli (GPa) = 18.25834 37.90693 81.43749
#
# Poissons Ratio (x) = 0.15042 0.45391
# Poissons Ratio (y) = 0.07245 0.38309
# Poissons Ratio (z) = 0.10177 0.17832
#
# Static dielectric constant tensor:
#      x y z
#    x 1.614790 0.000000 0.000000 
#    y 0.000000 1.623470 0.000000 
#    z 0.000000 0.000000 1.661010 
# 
# From -- ./inp_files/34435.got.cif
#   From: 2010.05.17/outbox.cif.g08.bks.cpg/sg53_18_cif.got.tgz:34435.got - 2010.06.03 12:45:16.
