data_PCOD9415156
_publ_section_title
;
Structure prediction by ZEFSAII (Michael W. Deem and Ramdas Pophale) SiO2 
 PCOD9415156
Probable space group: P M N A
;
_chemical_formula_sum "Si O2"
_cell_formula_units_Z 48
_cell_length_a 14.354301
_cell_length_b 5.203717
_cell_length_c 28.014689
_cell_angle_alpha 90.000000
_cell_angle_beta 90.000000
_cell_angle_gamma 90.000000
_cell_volume 2092.577369
_symmetry_space_group_name_H-M "P M N A"
_symmetry_group_IT_number 53
_symmetry_cell_setting 'orthorhombic'
loop_
_space_group_symop_operation_xyz
x,y,z
1/2-x,-y,1/2+z
x,-y,-z
1/2-x,y,1/2-z
-x,-y,-z
1/2+x,y,1/2-z
-x,y,z
1/2+x,-y,1/2+z
loop_
_atom_site_type_symbol
_atom_site_label
_atom_site_fract_x
_atom_site_fract_y
_atom_site_fract_z
Si Si1 0.631759 0.474492 0.853440
Si Si2 0.145353 0.567881 0.134206
Si Si3 0.309988 0.760431 0.468968
Si Si4 0.138339 0.936314 0.810136
Si Si5 0.900460 0.294194 0.542864
Si Si6 0.635709 0.967740 0.798631
O O1 0.743747 0.460614 0.857763
O O2 0.598230 0.434941 0.906669
O O3 0.601981 0.744535 0.832926
O O4 0.606167 0.244382 0.817806
O O5 0.138347 0.674125 0.079888
O O6 0.110997 0.292237 0.153563
O O7 0.109113 0.792394 0.168149
O O8 0.307364 0.500000 0.500000
O O9 0.201561 0.839118 0.457212
O O10 0.348634 0.000000 0.500000
O O11 0.107783 0.908877 0.755510
O O12 0.251356 0.952456 0.804359
O O13 0.899303 0.500000 0.500000
O O14 0.000000 0.148851 0.540864
#
# Coordination Sequence:
#
# PCOD9415156 Si02
#       6
#     8   8   8   8   8   8
#     4   9  17  28  40  55  74  93 118 156 203 247
#     4   9  16  25  38  56  75  96 122 151 186 231
#     4  10  19  30  42  56  77 104 133 168 208 240
#     4   9  15  24  39  57  75  93 115 143 183 240
#     4   9  19  33  46  58  73  99 138 180 218 253
#     4   9  16  26  40  57  75  93 111 142 195 248
#
# _framework density 22.938222
#
# number of rings (size 3 to 8) (size 9 to 14) (size 15 to 20)
#    0.000    2.833    0.000    2.000    0.000   12.333 
#    0.000    4.167    0.000    0.000    0.000    0.000 
#    0.000    0.000    0.000    0.000    0.000    0.000 
#
# Total GULP energy -267766.721706 kJ/mol
# GULP energy per Si atom -5578.473369 kJ/mol
# Density = 2.288601 g / cm^3
# Si number density = 22.938222 Si / 1000 Ang^3
#
#
#
# Elastic Constant Matrix: (Units=GPa)
#
#
# Indices 1 2 3 4 5 6 
#
# 1 70.2923 -6.5566 2.4878 0.0000 0.0000 0.0000
# 2 -6.5566 48.6324 -27.9221 0.0000 0.0000 0.0000
# 3 2.4878 -27.9221 84.2769 0.0000 0.0000 0.0000
# 4 0.0000 0.0000 0.0000 45.3771 0.0000 0.0000
# 5 0.0000 0.0000 0.0000 0.0000 -16.3837 0.0000
# 6 0.0000 0.0000 0.0000 0.0000 0.0000 -20.3330
#
#
#
# Elastic Compliance Matrix: (Units=1/GPa)
#
#
# Indices 1 2 3 4 5 6 
#
# 1 0.014412 0.002098 0.000270 0.000000 0.000000 0.000000
# 2 0.002098 0.025698 0.008452 0.000000 0.000000 0.000000
# 3 0.000270 0.008452 0.014658 0.000000 0.000000 0.000000
# 4 0.000000 0.000000 0.000000 0.022038 0.000000 0.000000
# 5 0.000000 0.000000 0.000000 0.000000 -0.061036 0.000000
# 6 0.000000 0.000000 0.000000 0.000000 0.000000 -0.049181
#
#
# Mechanical properties :
#
#
# Convention : Reuss Voigt Hill
#
# Bulk Modulus (GPa) = 13.08763 15.46885 14.27824
# Shear Modulus (GPa) = -169.02493 17.41159 -75.80667
#
# Velocity S-wave (km/s) = -8.59343 2.75810 -5.75499
# Velocity P-wave (km/s) = 9.63040 4.11110 6.15806
#
# Compressibility (1/GPa) = 0.07640801
#
# Stress axis : x y z
#
# Youngs Moduli (GPa) = 69.38444 38.91341 68.22198
#
# Poissons Ratio (x) = -0.08164 -0.01839
# Poissons Ratio (y) = -0.14556 -0.57663
# Poissons Ratio (z) = -0.01871 -0.32890
#
# Static dielectric constant tensor:
#      x y z
#    x 1.932160 0.000000 0.000000 
#    y 0.000000 1.891710 0.000000 
#    z 0.000000 0.000000 1.841010 
# 
# From -- ./inp_files/35480.got.cif
#   From: 2010.05.17/outbox.cif.g08.bks.cpg/sg53_18_cif.got.tgz:35480.got - 2010.06.03 12:45:16.
