data_PCOD9415235
_publ_section_title
;
Structure prediction by ZEFSAII (Michael W. Deem and Ramdas Pophale) SiO2 
 PCOD9415235
Probable space group: P M N A
;
_chemical_formula_sum "Si O2"
_cell_formula_units_Z 48
_cell_length_a 9.190246
_cell_length_b 12.109638
_cell_length_c 26.397948
_cell_angle_alpha 90.000000
_cell_angle_beta 90.000000
_cell_angle_gamma 90.000000
_cell_volume 2937.842210
_symmetry_space_group_name_H-M "P M N A"
_symmetry_group_IT_number 53
_symmetry_cell_setting 'orthorhombic'
loop_
_space_group_symop_operation_xyz
x,y,z
1/2-x,-y,1/2+z
x,-y,-z
1/2-x,y,1/2-z
-x,-y,-z
1/2+x,y,1/2-z
-x,y,z
1/2+x,-y,1/2+z
loop_
_atom_site_type_symbol
_atom_site_label
_atom_site_fract_x
_atom_site_fract_y
_atom_site_fract_z
Si Si1 0.172259 0.052559 0.945272
Si Si2 0.826062 0.484113 0.885474
Si Si3 0.326804 0.668408 0.696306
Si Si4 0.669698 0.648418 0.958784
Si Si5 0.170139 0.717650 0.425651
Si Si6 0.671973 0.826779 0.605812
O O1 0.259468 0.161865 0.931193
O O2 0.000000 0.079170 0.948798
O O3 0.192183 0.956008 0.903809
O O4 0.213877 0.000000 0.000000
O O5 0.786883 0.560369 0.837083
O O6 0.766265 0.553981 0.933213
O O7 0.753166 0.364360 0.887718
O O8 0.000000 0.475618 0.888071
O O9 0.250000 0.672068 0.750000
O O10 0.500000 0.665352 0.703732
O O11 0.294721 0.774386 0.660520
O O12 0.500000 0.629001 0.946467
O O13 0.728661 0.760718 0.933630
O O14 0.682593 0.662183 0.018679
O O15 0.000000 0.725454 0.413064
O O16 0.500000 0.802366 0.595472
#
# Coordination Sequence:
#
# PCOD9415235 Si02
#       6
#     8   8   8   8   8   8
#     4  10  19  32  52  73 100 142 182 210 243 296
#     4  10  21  35  51  72  99 132 172 211 251 305
#     4   9  19  35  56  79 100 124 160 212 264 309
#     4  10  19  30  46  71 104 137 168 207 252 295
#     4  11  22  32  46  72 107 140 172 209 251 299
#     4   9  18  33  51  75 103 133 174 212 246 297
#
# _framework density 16.338521
#
# number of rings (size 3 to 8) (size 9 to 14) (size 15 to 20)
#    0.000    2.167    1.667    3.000    0.000    8.333 
#    0.000    0.000    0.000    1.000    0.000    2.333 
#    0.000    0.000    0.000    0.000    0.000    0.000 
#
# Total GULP energy -267704.401498 kJ/mol
# GULP energy per Si atom -5577.175031 kJ/mol
# Density = 1.630133 g / cm^3
# Si number density = 16.338521 Si / 1000 Ang^3
#
#
#
# Elastic Constant Matrix: (Units=GPa)
#
#
# Indices 1 2 3 4 5 6 
#
# 1 62.3550 53.3973 47.1813 0.0000 0.0000 0.0000
# 2 53.3973 115.2587 51.4609 0.0000 0.0000 0.0000
# 3 47.1813 51.4609 85.4550 0.0000 0.0000 0.0000
# 4 0.0000 0.0000 0.0000 9.0157 0.0000 0.0000
# 5 0.0000 0.0000 0.0000 0.0000 25.0033 0.0000
# 6 0.0000 0.0000 0.0000 0.0000 0.0000 13.8201
#
#
#
# Elastic Compliance Matrix: (Units=1/GPa)
#
#
# Indices 1 2 3 4 5 6 
#
# 1 0.034605 -0.010260 -0.012927 0.000000 0.000000 0.000000
# 2 -0.010260 0.014909 -0.003313 0.000000 0.000000 0.000000
# 3 -0.012927 -0.003313 0.020835 0.000000 0.000000 0.000000
# 4 0.000000 0.000000 0.000000 0.110917 0.000000 0.000000
# 5 0.000000 0.000000 0.000000 0.000000 0.039995 0.000000
# 6 0.000000 0.000000 0.000000 0.000000 0.000000 0.072358
#
#
# Mechanical properties :
#
#
# Convention : Reuss Voigt Hill
#
# Bulk Modulus (GPa) = 57.64688 63.01638 60.33163
# Shear Modulus (GPa) = 14.18832 16.96978 15.57905
#
# Velocity S-wave (km/s) = 2.95005 3.22628 3.09126
# Velocity P-wave (km/s) = 6.85297 7.24786 7.05318
#
# Compressibility (1/GPa) = 0.01734699
#
# Stress axis : x y z
#
# Youngs Moduli (GPa) = 28.89765 67.07486 47.99654
#
# Poissons Ratio (x) = 0.68818 0.62047
# Poissons Ratio (y) = 0.29649 0.15903
# Poissons Ratio (z) = 0.37357 0.22224
#
# Static dielectric constant tensor:
#      x y z
#    x 1.547450 0.000000 0.000000 
#    y 0.000000 1.564320 0.000000 
#    z 0.000000 0.000000 1.531940 
# 
# From -- ./inp_files/33833.got.cif
#   From: 2010.05.17/outbox.cif.g08.bks.cpg/sg53_17_cif.got.tgz:33833.got - 2010.06.03 12:45:16.
