data_PCOD9415510
_publ_section_title
;
Structure prediction by ZEFSAII (Michael W. Deem and Ramdas Pophale) SiO2 
 PCOD9415510
Probable space group: P M N A
;
_chemical_formula_sum "Si O2"
_cell_formula_units_Z 64
_cell_length_a 19.181383
_cell_length_b 21.064458
_cell_length_c 8.259482
_cell_angle_alpha 90.000000
_cell_angle_beta 90.000000
_cell_angle_gamma 90.000000
_cell_volume 3337.206011
_symmetry_space_group_name_H-M "P M N A"
_symmetry_group_IT_number 53
_symmetry_cell_setting 'orthorhombic'
loop_
_space_group_symop_operation_xyz
x,y,z
1/2-x,-y,1/2+z
x,-y,-z
1/2-x,y,1/2-z
-x,-y,-z
1/2+x,y,1/2-z
-x,y,z
1/2+x,-y,1/2+z
loop_
_atom_site_type_symbol
_atom_site_label
_atom_site_fract_x
_atom_site_fract_y
_atom_site_fract_z
Si Si1 0.328588 0.759765 0.695591
Si Si2 0.421432 0.500000 0.193130
Si Si3 0.580281 0.121774 0.698037
Si Si4 0.671707 0.616058 0.693583
Si Si5 0.919719 0.121774 0.198037
Si Si6 0.828588 0.759765 0.195591
Si Si7 0.330021 0.000000 0.304391
Si Si8 0.671707 0.383942 0.693583
O O1 0.250000 0.775541 0.750000
O O2 0.344530 0.687885 0.751424
O O3 0.383011 0.812899 0.750792
O O4 0.329398 0.759540 0.500000
O O5 0.500000 0.500000 0.258452
O O6 0.380627 0.437297 0.246954
O O7 0.380627 0.562703 0.246954
O O8 0.423813 0.500000 0.000000
O O9 0.500000 0.116394 0.750509
O O10 0.579719 0.121500 0.500000
O O11 0.616989 0.187101 0.750792
O O12 0.627725 0.062435 0.749878
O O13 0.750000 0.600781 0.750000
O O14 0.670796 0.616520 0.500000
O O15 0.872275 0.062435 0.249878
O O16 0.000000 0.116394 0.250509
O O17 0.750000 0.775541 0.250000
O O18 0.844530 0.687885 0.251424
O O19 0.250000 0.000000 0.250000
O O20 0.330383 0.000000 0.500000
O O21 0.750000 0.399219 0.750000
#
# Coordination Sequence:
#
# PCOD9415510 Si02
#       8
#     8   8   8   8   8   8   8   8
#     4   9  18  32  52  76 101 131 166 207 250 294
#     4  11  24  39  54  75 105 137 168 209 260 309
#     4   9  17  30  49  74 102 132 169 209 248 293
#     4  10  20  35  56  79 103 134 172 212 254 303
#     4   9  17  30  49  74 102 132 169 209 248 293
#     4   9  18  32  52  76 101 131 166 207 250 294
#     4  10  19  31  51  75  99 132 170 210 252 294
#     4  10  20  35  56  79 103 134 172 212 254 303
#
# _framework density 19.177720000000001
#
# number of rings (size 3 to 8) (size 9 to 14) (size 15 to 20)
#    0.000    2.375    0.000    2.625    0.000    4.500 
#    0.000    2.500    0.000    3.750    0.000    0.000 
#    0.000    0.000    0.000    0.000    0.000    0.000 
#
# Total GULP energy -357276.209876 kJ/mol
# GULP energy per Si atom -5582.440779 kJ/mol
# Density = 1.913407 g / cm^3
# Si number density = 19.177720 Si / 1000 Ang^3
#
#
#
# Elastic Constant Matrix: (Units=GPa)
#
#
# Indices 1 2 3 4 5 6 
#
# 1 198.9212 145.5035 16.1077 0.0000 0.0000 0.0000
# 2 145.5035 162.6568 18.5531 0.0000 0.0000 0.0000
# 3 16.1077 18.5531 15.5642 0.0000 0.0000 0.0000
# 4 0.0000 0.0000 0.0000 -37.3974 0.0000 0.0000
# 5 0.0000 0.0000 0.0000 0.0000 24.4669 0.0000
# 6 0.0000 0.0000 0.0000 0.0000 0.0000 -3.1537
#
#
#
# Elastic Compliance Matrix: (Units=1/GPa)
#
#
# Indices 1 2 3 4 5 6 
#
# 1 0.014547 -0.013073 0.000529 0.000000 0.000000 0.000000
# 2 -0.013073 0.018864 -0.008957 0.000000 0.000000 0.000000
# 3 0.000529 -0.008957 0.074380 0.000000 0.000000 0.000000
# 4 0.000000 0.000000 0.000000 -0.026740 0.000000 0.000000
# 5 0.000000 0.000000 0.000000 0.000000 0.040871 0.000000
# 6 0.000000 0.000000 0.000000 0.000000 0.000000 -0.317091
#
#
# Mechanical properties :
#
#
# Convention : Reuss Voigt Hill
#
# Bulk Modulus (GPa) = 15.43498 81.94120 48.68809
# Shear Modulus (GPa) = -38.29346 9.91502 -14.18922
#
# Velocity S-wave (km/s) = -4.47337 2.27625 -2.72303
# Velocity P-wave (km/s) = 4.31457 7.05184 3.94417
#
# Compressibility (1/GPa) = 0.06478791
#
# Stress axis : x y z
#
# Youngs Moduli (GPa) = 68.74430 53.01142 13.44454
#
# Poissons Ratio (x) = 0.69301 -0.00711
# Poissons Ratio (y) = 0.89869 0.12042
# Poissons Ratio (z) = -0.03635 0.47482
#
# Static dielectric constant tensor:
#      x y z
#    x 1.631820 0.000000 0.000000 
#    y 0.000000 1.674360 0.000000 
#    z 0.000000 0.000000 1.670310 
# 
# From -- ./inp_files/10198.got.cif
#   From: 2010.05.17/outbox.cif.g08.bks.cpg/sg53_6_cif.got.tgz:10198.got - 2010.06.03 12:45:16.
