data_PCOD9415085
_publ_section_title
;
Structure prediction by ZEFSAII (Michael W. Deem and Ramdas Pophale) SiO2 
 PCOD9415085
Probable space group: P M N A
;
_chemical_formula_sum "Si O2"
_cell_formula_units_Z 64
_cell_length_a 8.723686
_cell_length_b 18.983588
_cell_length_c 26.929330
_cell_angle_alpha 90.000000
_cell_angle_beta 90.000000
_cell_angle_gamma 90.000000
_cell_volume 4459.681807
_symmetry_space_group_name_H-M "P M N A"
_symmetry_group_IT_number 53
_symmetry_cell_setting 'orthorhombic'
loop_
_space_group_symop_operation_xyz
x,y,z
1/2-x,-y,1/2+z
x,-y,-z
1/2-x,y,1/2-z
-x,-y,-z
1/2+x,y,1/2-z
-x,y,z
1/2+x,-y,1/2+z
loop_
_atom_site_type_symbol
_atom_site_label
_atom_site_fract_x
_atom_site_fract_y
_atom_site_fract_z
Si Si1 0.321431 0.456139 0.551727
Si Si2 0.683060 0.831598 0.695796
Si Si3 0.314381 0.324977 0.494574
Si Si4 0.313882 0.590211 0.605944
Si Si5 0.316710 0.677221 0.804286
Si Si6 0.823298 0.043338 0.948089
Si Si7 0.182906 0.084830 0.394932
Si Si8 0.183222 0.830907 0.504469
O O1 0.320013 0.500000 0.500000
O O2 0.500000 0.445158 0.564702
O O3 0.257215 0.379966 0.536824
O O4 0.258592 0.511194 0.591899
O O5 0.750000 0.849858 0.750000
O O6 0.500000 0.826781 0.698481
O O7 0.751293 0.754683 0.682648
O O8 0.735192 0.885918 0.653794
O O9 0.500000 0.322288 0.497264
O O10 0.276623 0.359539 0.441100
O O11 0.247470 0.247526 0.499044
O O12 0.500000 0.589201 0.610075
O O13 0.240316 0.622348 0.654804
O O14 0.250000 0.659996 0.750000
O O15 0.500000 0.680445 0.802377
O O16 0.749257 0.117875 0.961974
O O17 0.000000 0.051285 0.933260
O O18 0.733955 0.993926 0.909615
O O19 0.819147 0.000000 0.000000
O O20 0.225491 0.134588 0.442068
O O21 0.000000 0.088097 0.388865
O O22 0.000000 0.830763 0.501651
#
# Coordination Sequence:
#
# PCOD9415085 Si02
#       8
#     8   8   8   8   8   8   8   8
#     4   7  12  24  41  60  81 107 139 172 205 244
#     4  11  21  33  47  63  84 111 144 179 214 248
#     4   9  16  26  42  62  84 112 144 174 204 246
#     4   9  16  28  45  62  82 110 143 176 211 249
#     4  11  21  32  44  60  83 110 142 178 215 250
#     4   9  17  29  44  61  81 108 143 178 210 248
#     4  10  19  31  45  62  86 114 143 174 212 254
#     4  10  19  28  40  60  87 116 143 175 213 250
#
# _framework density 14.350799
#
# number of rings (size 3 to 8) (size 9 to 14) (size 15 to 20)
#    0.000    2.500    0.000    6.375    0.000    5.500 
#    0.000    0.625    0.000    2.250    0.000    0.000 
#    0.000    1.000    0.000    8.500    0.000    4.500 
#
# Total GULP energy -356626.757848 kJ/mol
# GULP energy per Si atom -5572.293091 kJ/mol
# Density = 1.431814 g / cm^3
# Si number density = 14.350799 Si / 1000 Ang^3
#
#
#
# Elastic Constant Matrix: (Units=GPa)
#
#
# Indices 1 2 3 4 5 6 
#
# 1 63.9269 36.8071 33.8562 0.0000 0.0000 0.0000
# 2 36.8071 109.5298 45.2627 0.0000 0.0000 0.0000
# 3 33.8562 45.2627 66.6247 0.0000 0.0000 0.0000
# 4 0.0000 0.0000 0.0000 25.2983 0.0000 0.0000
# 5 0.0000 0.0000 0.0000 0.0000 16.7189 0.0000
# 6 0.0000 0.0000 0.0000 0.0000 0.0000 17.9945
#
#
#
# Elastic Compliance Matrix: (Units=1/GPa)
#
#
# Indices 1 2 3 4 5 6 
#
# 1 0.022572 -0.003956 -0.008783 0.000000 0.000000 0.000000
# 2 -0.003956 0.013387 -0.007084 0.000000 0.000000 0.000000
# 3 -0.008783 -0.007084 0.024285 0.000000 0.000000 0.000000
# 4 0.000000 0.000000 0.000000 0.039528 0.000000 0.000000
# 5 0.000000 0.000000 0.000000 0.000000 0.059813 0.000000
# 6 0.000000 0.000000 0.000000 0.000000 0.000000 0.055572
#
#
# Mechanical properties :
#
#
# Convention : Reuss Voigt Hill
#
# Bulk Modulus (GPa) = 48.54777 52.43705 50.49241
# Shear Modulus (GPa) = 19.10805 20.27937 19.69371
#
# Velocity S-wave (km/s) = 3.65293 3.76322 3.70849
# Velocity P-wave (km/s) = 7.18990 7.44992 7.32106
#
# Compressibility (1/GPa) = 0.02059827
#
# Stress axis : x y z
#
# Youngs Moduli (GPa) = 44.30283 74.70011 41.17687
#
# Poissons Ratio (x) = 0.29550 0.36165
# Poissons Ratio (y) = 0.17525 0.29171
# Poissons Ratio (z) = 0.38910 0.52921
#
# Static dielectric constant tensor:
#      x y z
#    x 1.480730 0.000000 0.000000 
#    y 0.000000 1.476420 0.000000 
#    z 0.000000 0.000000 1.458580 
# 
# From -- ./inp_files/34463.got.cif
#   From: 2010.05.17/outbox.cif.g08.bks.cpg/sg53_18_cif.got.tgz:34463.got - 2010.06.03 12:45:16.
