data_PCOD9415130
_publ_section_title
;
Structure prediction by ZEFSAII (Michael W. Deem and Ramdas Pophale) SiO2 
 PCOD9415130
Probable space group: P M N A
;
_chemical_formula_sum "Si O2"
_cell_formula_units_Z 56
_cell_length_a 8.540321
_cell_length_b 19.922251
_cell_length_c 18.775186
_cell_angle_alpha 90.000000
_cell_angle_beta 90.000000
_cell_angle_gamma 90.000000
_cell_volume 3194.455555
_symmetry_space_group_name_H-M "P M N A"
_symmetry_group_IT_number 53
_symmetry_cell_setting 'orthorhombic'
loop_
_space_group_symop_operation_xyz
x,y,z
1/2-x,-y,1/2+z
x,-y,-z
1/2-x,y,1/2-z
-x,-y,-z
1/2+x,y,1/2-z
-x,y,z
1/2+x,-y,1/2+z
loop_
_atom_site_type_symbol
_atom_site_label
_atom_site_fract_x
_atom_site_fract_y
_atom_site_fract_z
Si Si1 0.312238 0.359137 0.826885
Si Si2 0.187364 0.052582 0.331101
Si Si3 0.809213 0.427865 0.526958
Si Si4 0.189475 0.290183 0.458523
Si Si5 0.311119 0.799228 0.830160
Si Si6 0.688016 0.226542 0.601701
Si Si7 0.687379 0.913478 0.330854
O O1 0.250000 0.380244 0.750000
O O2 0.500000 0.357286 0.825831
O O3 0.262495 0.406806 0.892831
O O4 0.250643 0.284776 0.846076
O O5 0.250000 0.053084 0.250000
O O6 0.233387 0.126304 0.359079
O O7 0.000000 0.048033 0.330574
O O8 0.254267 0.984066 0.363312
O O9 0.753287 0.500000 0.500000
O O10 0.760777 0.366321 0.475844
O O11 0.000000 0.429424 0.526665
O O12 0.242867 0.258044 0.384429
O O13 0.248546 0.245348 0.524038
O O14 0.000000 0.289240 0.459486
O O15 0.250000 0.791238 0.750000
O O16 0.500000 0.797889 0.827066
O O17 0.500000 0.228983 0.601812
O O18 0.738469 0.152847 0.627076
O O19 0.750000 0.908453 0.250000
O O20 0.500000 0.915011 0.328083
#
# Coordination Sequence:
#
# PCOD9415130 Si02
#       7
#     8   8   8   8   8   8   8
#     4  10  19  31  50  74 100 131 165 201 238 281
#     4   9  16  27  44  64  88 119 155 195 237 280
#     4   8  15  30  52  74  96 127 162 193 232 282
#     4   9  18  33  52  72  95 124 159 196 236 287
#     4   9  18  32  50  72  94 120 157 199 241 283
#     4  10  20  32  47  69  97 127 160 198 240 286
#     4  10  19  29  43  65  92 122 157 196 237 281
#
# _framework density 17.530373000000001
#
# number of rings (size 3 to 8) (size 9 to 14) (size 15 to 20)
#    0.000    2.714    0.000    3.857    0.000    4.571 
#    0.000    1.429    0.000   15.000    0.000    0.000 
#    0.000    0.000    0.000    0.000    0.000    0.000 
#
# Total GULP energy -312040.715314 kJ/mol
# GULP energy per Si atom -5572.155631 kJ/mol
# Density = 1.749047 g / cm^3
# Si number density = 17.530373 Si / 1000 Ang^3
#
#
#
# Elastic Constant Matrix: (Units=GPa)
#
#
# Indices 1 2 3 4 5 6 
#
# 1 21.1605 27.1672 14.3734 0.0000 0.0000 0.0000
# 2 27.1672 170.5244 91.6204 0.0000 0.0000 0.0000
# 3 14.3734 91.6204 91.9022 0.0000 0.0000 0.0000
# 4 0.0000 0.0000 0.0000 21.2269 0.0000 0.0000
# 5 0.0000 0.0000 0.0000 0.0000 21.2308 0.0000
# 6 0.0000 0.0000 0.0000 0.0000 0.0000 14.1203
#
#
#
# Elastic Compliance Matrix: (Units=1/GPa)
#
#
# Indices 1 2 3 4 5 6 
#
# 1 0.059413 -0.009632 0.000311 0.000000 0.000000 0.000000
# 2 -0.009632 0.014190 -0.012640 0.000000 0.000000 0.000000
# 3 0.000311 -0.012640 0.023434 0.000000 0.000000 0.000000
# 4 0.000000 0.000000 0.000000 0.047110 0.000000 0.000000
# 5 0.000000 0.000000 0.000000 0.000000 0.047101 0.000000
# 6 0.000000 0.000000 0.000000 0.000000 0.000000 0.070820
#
#
# Mechanical properties :
#
#
# Convention : Reuss Voigt Hill
#
# Bulk Modulus (GPa) = 18.82751 61.10102 39.96427
# Shear Modulus (GPa) = 15.44649 21.34400 18.39524
#
# Velocity S-wave (km/s) = 2.97160 3.49312 3.24286
# Velocity P-wave (km/s) = 4.74733 7.15536 6.07192
#
# Compressibility (1/GPa) = 0.05311376
#
# Stress axis : x y z
#
# Youngs Moduli (GPa) = 16.83120 70.47055 42.67286
#
# Poissons Ratio (x) = 0.67880 -0.01326
# Poissons Ratio (y) = 0.16212 0.53940
# Poissons Ratio (z) = -0.00523 0.89077
#
# Static dielectric constant tensor:
#      x y z
#    x 1.832230 0.000000 0.000000 
#    y 0.000000 1.624340 0.000000 
#    z 0.000000 0.000000 1.579250 
# 
# From -- ./inp_files/26721.got.cif
#   From: 2010.05.17/outbox.cif.g08.bks.cpg/sg53_14_cif.got.tgz:26721.got - 2010.06.03 12:45:16.
