data_PCOD9415328
_publ_section_title
;
Structure prediction by ZEFSAII (Michael W. Deem and Ramdas Pophale) SiO2 
 PCOD9415328
Probable space group: P M N A
;
_chemical_formula_sum "Si O2"
_cell_formula_units_Z 64
_cell_length_a 8.297136
_cell_length_b 16.248585
_cell_length_c 29.539133
_cell_angle_alpha 90.000000
_cell_angle_beta 90.000000
_cell_angle_gamma 90.000000
_cell_volume 3982.369009
_symmetry_space_group_name_H-M "P M N A"
_symmetry_group_IT_number 53
_symmetry_cell_setting 'orthorhombic'
loop_
_space_group_symop_operation_xyz
x,y,z
1/2-x,-y,1/2+z
x,-y,-z
1/2-x,y,1/2-z
-x,-y,-z
1/2+x,y,1/2-z
-x,y,z
1/2+x,-y,1/2+z
loop_
_atom_site_type_symbol
_atom_site_label
_atom_site_fract_x
_atom_site_fract_y
_atom_site_fract_z
Si Si1 0.806775 0.499369 0.801582
Si Si2 0.195281 0.180762 0.802098
Si Si3 0.194347 0.999047 0.197897
Si Si4 0.303641 0.593147 0.948532
Si Si5 0.806987 0.178732 0.197978
Si Si6 0.192774 0.661106 0.645812
Si Si7 0.305611 0.401935 0.950391
Si Si8 0.805926 0.339322 0.857205
O O1 0.750000 0.493149 0.750000
O O2 0.747577 0.583699 0.824090
O O3 0.747704 0.420656 0.830409
O O4 0.000000 0.499312 0.802347
O O5 0.250000 0.190349 0.750000
O O6 0.252818 0.256837 0.832365
O O7 0.000000 0.181657 0.802070
O O8 0.248706 0.090319 0.819821
O O9 0.250000 0.998876 0.250000
O O10 0.249280 0.088426 0.180341
O O11 0.000000 0.999102 0.196022
O O12 0.500000 0.594010 0.948653
O O13 0.247696 0.645043 0.905479
O O14 0.256002 0.497369 0.942635
O O15 0.252115 0.620766 0.998695
O O16 0.750000 0.188780 0.250000
O O17 0.749323 0.254181 0.167816
O O18 0.000000 0.178987 0.198618
O O19 0.000000 0.661108 0.645012
O O20 0.500000 0.400279 0.949612
O O21 0.242744 0.347710 0.909338
O O22 0.000000 0.339294 0.854711
#
# Coordination Sequence:
#
# PCOD9415328 Si02
#       8
#     8   8   8   8   8   8   8   8
#     4  11  22  33  43  60  90 125 156 183 212 253
#     4   9  17  30  46  66  92 121 152 185 220 263
#     4   8  15  28  46  64  86 116 148 184 224 261
#     4   8  16  30  49  68  85 111 149 189 225 265
#     4  10  19  31  46  67  92 119 151 186 223 265
#     4  11  20  32  48  66  88 118 151 184 223 265
#     4   9  16  31  51  67  85 113 150 187 223 269
#     4  10  20  31  44  67  95 119 147 184 225 262
#
# _framework density 16.070837000000001
#
# number of rings (size 3 to 8) (size 9 to 14) (size 15 to 20)
#    0.000    2.500    1.250    2.625    0.000    1.500 
#    0.000    2.500    0.000    0.000    0.000    0.875 
#    0.000    7.000    0.000    0.000    0.000    0.000 
#
# Total GULP energy -356604.961869 kJ/mol
# GULP energy per Si atom -5571.952529 kJ/mol
# Density = 1.603426 g / cm^3
# Si number density = 16.070837 Si / 1000 Ang^3
#
#
#
# Elastic Constant Matrix: (Units=GPa)
#
#
# Indices 1 2 3 4 5 6 
#
# 1 15.8945 19.2457 11.5010 0.0000 0.0000 0.0000
# 2 19.2457 146.6810 71.7222 0.0000 0.0000 0.0000
# 3 11.5010 71.7222 114.2743 0.0000 0.0000 0.0000
# 4 0.0000 0.0000 0.0000 8.1166 0.0000 0.0000
# 5 0.0000 0.0000 0.0000 0.0000 18.8152 0.0000
# 6 0.0000 0.0000 0.0000 0.0000 0.0000 -0.2365
#
#
#
# Elastic Compliance Matrix: (Units=1/GPa)
#
#
# Indices 1 2 3 4 5 6 
#
# 1 0.075108 -0.008885 -0.001982 0.000000 0.000000 0.000000
# 2 -0.008885 0.010887 -0.005939 0.000000 0.000000 0.000000
# 3 -0.001982 -0.005939 0.012678 0.000000 0.000000 0.000000
# 4 0.000000 0.000000 0.000000 0.123205 0.000000 0.000000
# 5 0.000000 0.000000 0.000000 0.000000 0.053149 0.000000
# 6 0.000000 0.000000 0.000000 0.000000 0.000000 -4.227761
#
#
# Mechanical properties :
#
#
# Convention : Reuss Voigt Hill
#
# Bulk Modulus (GPa) = 15.37053 53.53197 34.45125
# Shear Modulus (GPa) = -1.28290 16.96444 7.84077
#
# Velocity S-wave (km/s) = -0.89443 3.25253 2.21122
# Velocity P-wave (km/s) = 2.91862 6.89112 5.29178
#
# Compressibility (1/GPa) = 0.06505957
#
# Stress axis : x y z
#
# Youngs Moduli (GPa) = 13.31417 91.85002 78.87765
#
# Poissons Ratio (x) = 0.81613 0.15636
# Poissons Ratio (y) = 0.11830 0.46845
# Poissons Ratio (z) = 0.02639 0.54549
#
# Static dielectric constant tensor:
#      x y z
#    x 1.556660 0.000000 0.000000 
#    y 0.000000 1.565300 0.000000 
#    z 0.000000 0.000000 1.521560 
# 
# From -- ./inp_files/38480.got.cif
#   From: 2010.05.17/outbox.cif.g08.bks.cpg/sg53_20_cif.got.tgz:38480.got - 2010.06.03 12:45:16.
