data_PCOD9415303
_publ_section_title
;
Structure prediction by ZEFSAII (Michael W. Deem and Ramdas Pophale) SiO2 
 PCOD9415303
Probable space group: P M N A
;
_chemical_formula_sum "Si O2"
_cell_formula_units_Z 64
_cell_length_a 8.760856
_cell_length_b 22.391719
_cell_length_c 19.221870
_cell_angle_alpha 90.000000
_cell_angle_beta 90.000000
_cell_angle_gamma 90.000000
_cell_volume 3770.766266
_symmetry_space_group_name_H-M "P M N A"
_symmetry_group_IT_number 53
_symmetry_cell_setting 'orthorhombic'
loop_
_space_group_symop_operation_xyz
x,y,z
1/2-x,-y,1/2+z
x,-y,-z
1/2-x,y,1/2-z
-x,-y,-z
1/2+x,y,1/2-z
-x,y,z
1/2+x,-y,1/2+z
loop_
_atom_site_type_symbol
_atom_site_label
_atom_site_fract_x
_atom_site_fract_y
_atom_site_fract_z
Si Si1 0.818762 0.393212 0.677428
Si Si2 0.183971 0.191004 0.073434
Si Si3 0.817425 0.907578 0.673272
Si Si4 0.316983 0.686694 0.523768
Si Si5 0.184079 0.019557 0.578227
Si Si6 0.814916 0.563727 0.030652
Si Si7 0.181392 0.266546 0.620464
Si Si8 0.817928 0.851050 0.084365
O O1 0.750000 0.415536 0.750000
O O2 0.748398 0.422444 0.607739
O O3 0.790427 0.321490 0.672294
O O4 0.000000 0.402311 0.676261
O O5 0.259407 0.149533 0.130561
O O6 0.234725 0.260669 0.075496
O O7 0.000000 0.188552 0.080234
O O8 0.221804 0.165292 0.996329
O O9 0.750000 0.908407 0.750000
O O10 0.000000 0.906497 0.676167
O O11 0.770985 0.966812 0.630523
O O12 0.500000 0.685894 0.528366
O O13 0.265234 0.618010 0.520800
O O14 0.267736 0.711675 0.448822
O O15 0.256852 0.082811 0.597425
O O16 0.000000 0.025513 0.578915
O O17 0.229188 0.000000 0.500000
O O18 0.000000 0.564668 0.034774
O O19 0.767515 0.500000 0.000000
O O20 0.244357 0.200234 0.632758
O O21 0.000000 0.263341 0.608234
O O22 0.000000 0.848500 0.090736
#
# Coordination Sequence:
#
# PCOD9415303 Si02
#       8
#     8   8   8   8   8   8   8   8
#     4  10  20  33  51  75 104 141 180 221 264 312
#     4   9  17  30  49  73  99 126 159 202 249 296
#     4  11  23  37  53  72  98 130 164 209 261 313
#     4   8  15  28  47  74 103 129 161 201 245 293
#     4  10  20  35  53  74  99 129 169 214 258 307
#     4   9  17  31  53  80 111 145 178 214 258 308
#     4   9  17  29  46  70  99 129 163 204 251 299
#     4  10  19  30  50  77 101 127 162 208 253 299
#
# _framework density 16.972677000000001
#
# number of rings (size 3 to 8) (size 9 to 14) (size 15 to 20)
#    0.000    2.500    1.250    2.250    0.000    5.000 
#    0.000    0.625    0.000    0.750    0.000    0.000 
#    0.000    0.000    0.000    0.000    0.000    0.000 
#
# Total GULP energy -356490.886912 kJ/mol
# GULP energy per Si atom -5570.170108 kJ/mol
# Density = 1.693405 g / cm^3
# Si number density = 16.972677 Si / 1000 Ang^3
#
#
#
# Elastic Constant Matrix: (Units=GPa)
#
#
# Indices 1 2 3 4 5 6 
#
# 1 -201.0336 -41.7983 -46.0049 0.0000 0.0000 0.0000
# 2 -41.7983 140.7260 31.5008 0.0000 0.0000 0.0000
# 3 -46.0049 31.5008 55.1570 0.0000 0.0000 0.0000
# 4 0.0000 0.0000 0.0000 -47.0905 0.0000 0.0000
# 5 0.0000 0.0000 0.0000 0.0000 17.9924 0.0000
# 6 0.0000 0.0000 0.0000 0.0000 0.0000 21.4789
#
#
#
# Elastic Compliance Matrix: (Units=1/GPa)
#
#
# Indices 1 2 3 4 5 6 
#
# 1 -0.004143 -0.000524 -0.003156 0.000000 0.000000 0.000000
# 2 -0.000524 0.008081 -0.005052 0.000000 0.000000 0.000000
# 3 -0.003156 -0.005052 0.018383 0.000000 0.000000 0.000000
# 4 0.000000 0.000000 0.000000 -0.021236 0.000000 0.000000
# 5 0.000000 0.000000 0.000000 0.000000 0.055579 0.000000
# 6 0.000000 0.000000 0.000000 0.000000 0.000000 0.046557
#
#
# Mechanical properties :
#
#
# Convention : Reuss Voigt Hill
#
# Bulk Modulus (GPa) = 205.94299 -13.08394 96.42953
# Shear Modulus (GPa) = 40.88110 1.88629 21.38370
#
# Velocity S-wave (km/s) = 4.91312 1.05536 3.55334
# Velocity P-wave (km/s) = 12.40106 2.49810 8.58912
#
# Compressibility (1/GPa) = 0.00485571
#
# Stress axis : x y z
#
# Youngs Moduli (GPa) = -241.36861 123.74226 54.39819
#
# Poissons Ratio (x) = 0.06485 0.17170
# Poissons Ratio (y) = -0.12649 0.27484
# Poissons Ratio (z) = -0.76183 0.62520
#
# Static dielectric constant tensor:
#      x y z
#    x 1.562560 0.000000 0.000000 
#    y 0.000000 1.611290 0.000000 
#    z 0.000000 0.000000 1.544410 
# 
# From -- ./inp_files/27059.got.cif
#   From: 2010.05.17/outbox.cif.g08.bks.cpg/sg53_14_cif.got.tgz:27059.got - 2010.06.03 12:45:16.
