data_PCOD9415305
_publ_section_title
;
Structure prediction by ZEFSAII (Michael W. Deem and Ramdas Pophale) SiO2 
 PCOD9415305
Probable space group: P M N A
;
_chemical_formula_sum "Si O2"
_cell_formula_units_Z 64
_cell_length_a 9.750152
_cell_length_b 19.172368
_cell_length_c 18.544210
_cell_angle_alpha 90.000000
_cell_angle_beta 90.000000
_cell_angle_gamma 90.000000
_cell_volume 3466.534121
_symmetry_space_group_name_H-M "P M N A"
_symmetry_group_IT_number 53
_symmetry_cell_setting 'orthorhombic'
loop_
_space_group_symop_operation_xyz
x,y,z
1/2-x,-y,1/2+z
x,-y,-z
1/2-x,y,1/2-z
-x,-y,-z
1/2+x,y,1/2-z
-x,y,z
1/2+x,-y,1/2+z
loop_
_atom_site_type_symbol
_atom_site_label
_atom_site_fract_x
_atom_site_fract_y
_atom_site_fract_z
Si Si1 0.338249 0.212235 0.573108
Si Si2 0.656023 0.720347 0.185304
Si Si3 0.651197 0.444976 0.811443
Si Si4 0.159160 0.080429 0.581786
Si Si5 0.837344 0.352039 0.177581
Si Si6 0.839186 0.207097 0.100019
Si Si7 0.342686 0.923893 0.906518
Si Si8 0.347058 0.509209 0.585385
O O1 0.500000 0.217594 0.590732
O O2 0.243608 0.268230 0.613163
O O3 0.269510 0.139587 0.599297
O O4 0.324427 0.217695 0.486574
O O5 0.750000 0.749844 0.250000
O O6 0.500000 0.748296 0.182193
O O7 0.642511 0.637800 0.198167
O O8 0.750000 0.474246 0.750000
O O9 0.500000 0.475562 0.807749
O O10 0.727786 0.460998 0.884786
O O11 0.159622 0.077772 0.494212
O O12 0.000000 0.095855 0.602080
O O13 0.196157 0.003726 0.611275
O O14 0.750000 0.363052 0.250000
O O15 0.799398 0.277646 0.141536
O O16 0.820763 0.413749 0.118214
O O17 0.000000 0.350132 0.194813
O O18 0.752279 0.138697 0.120022
O O19 0.000000 0.194155 0.113474
O O20 0.500000 0.912681 0.884098
O O21 0.349250 0.500000 0.500000
O O22 0.500000 0.488052 0.612064
#
# Coordination Sequence:
#
# PCOD9415305 Si02
#       8
#     8   8   8   8   8   8   8   8
#     4  10  19  30  50  78 107 141 179 224 272 323
#     4  10  21  36  53  75 104 140 177 217 265 319
#     4  10  21  37  57  80 107 140 180 223 267 321
#     4   8  14  26  44  69 104 141 174 218 269 322
#     4  10  22  40  58  81 110 146 186 221 271 328
#     4   9  19  33  51  77 108 138 174 224 272 320
#     4   8  14  26  46  72 102 137 178 218 266 320
#     4  10  22  38  60  85 111 145 180 222 275 328
#
# _framework density 18.462243999999998
#
# number of rings (size 3 to 8) (size 9 to 14) (size 15 to 20)
#    0.000    2.625    0.000    2.250    1.750    4.750 
#    0.000    2.500    0.000    0.750    0.000    1.750 
#    0.000    0.000    0.000    0.000    0.000    0.000 
#
# Total GULP energy -356514.266301 kJ/mol
# GULP energy per Si atom -5570.535411 kJ/mol
# Density = 1.842022 g / cm^3
# Si number density = 18.462244 Si / 1000 Ang^3
#
#
#
# Elastic Constant Matrix: (Units=GPa)
#
#
# Indices 1 2 3 4 5 6 
#
# 1 121.6569 41.6409 46.0148 0.0000 0.0000 0.0000
# 2 41.6409 77.3584 26.7386 0.0000 0.0000 0.0000
# 3 46.0148 26.7386 53.5166 0.0000 0.0000 0.0000
# 4 0.0000 0.0000 0.0000 4.6954 0.0000 0.0000
# 5 0.0000 0.0000 0.0000 0.0000 20.2435 0.0000
# 6 0.0000 0.0000 0.0000 0.0000 0.0000 41.2922
#
#
#
# Elastic Compliance Matrix: (Units=1/GPa)
#
#
# Indices 1 2 3 4 5 6 
#
# 1 0.013045 -0.003802 -0.009317 0.000000 0.000000 0.000000
# 2 -0.003802 0.016733 -0.005092 0.000000 0.000000 0.000000
# 3 -0.009317 -0.005092 0.029241 0.000000 0.000000 0.000000
# 4 0.000000 0.000000 0.000000 0.212973 0.000000 0.000000
# 5 0.000000 0.000000 0.000000 0.000000 0.049399 0.000000
# 6 0.000000 0.000000 0.000000 0.000000 0.000000 0.024218
#
#
# Mechanical properties :
#
#
# Convention : Reuss Voigt Hill
#
# Bulk Modulus (GPa) = 44.25116 53.48006 48.86561
# Shear Modulus (GPa) = 12.83493 22.45541 17.64517
#
# Velocity S-wave (km/s) = 2.63952 3.49132 3.09486
# Velocity P-wave (km/s) = 5.77148 6.72923 6.26867
#
# Compressibility (1/GPa) = 0.02259828
#
# Stress axis : x y z
#
# Youngs Moduli (GPa) = 76.65726 59.76173 34.19884
#
# Poissons Ratio (x) = 0.22719 0.31863
# Poissons Ratio (y) = 0.29142 0.17413
# Poissons Ratio (z) = 0.71422 0.30429
#
# Static dielectric constant tensor:
#      x y z
#    x 1.643100 0.000000 0.000000 
#    y 0.000000 1.669410 0.000000 
#    z 0.000000 0.000000 1.658830 
# 
# From -- ./inp_files/31193.got.cif
#   From: 2010.05.17/outbox.cif.g08.bks.cpg/sg53_16_cif.got.tgz:31193.got - 2010.06.03 12:45:16.
