data_PCOD9415738
_publ_section_title
;
Structure prediction by ZEFSAII (Michael W. Deem and Ramdas Pophale) SiO2 
 PCOD9415738
Probable space group: P M N A
;
_chemical_formula_sum "Si O2"
_cell_formula_units_Z 48
_cell_length_a 17.982374
_cell_length_b 16.371233
_cell_length_c 8.144259
_cell_angle_alpha 90.000000
_cell_angle_beta 90.000000
_cell_angle_gamma 90.000000
_cell_volume 2397.618009
_symmetry_space_group_name_H-M "P M N A"
_symmetry_group_IT_number 53
_symmetry_cell_setting 'orthorhombic'
loop_
_space_group_symop_operation_xyz
x,y,z
1/2-x,-y,1/2+z
x,-y,-z
1/2-x,y,1/2-z
-x,-y,-z
1/2+x,y,1/2-z
-x,y,z
1/2+x,-y,1/2+z
loop_
_atom_site_type_symbol
_atom_site_label
_atom_site_fract_x
_atom_site_fract_y
_atom_site_fract_z
Si Si1 0.164420 0.992064 0.692814
Si Si2 0.834115 0.502256 0.198250
Si Si3 0.835576 0.831161 0.191211
Si Si4 0.589097 0.163914 0.341656
Si Si5 0.585342 0.333631 0.700959
Si Si6 0.915202 0.659060 0.799319
O O1 0.250000 0.978942 0.750000
O O2 0.135966 0.079698 0.755952
O O3 0.166816 0.000000 0.500000
O O4 0.112909 0.917596 0.748725
O O5 0.750000 0.512940 0.250000
O O6 0.879380 0.581255 0.257507
O O7 0.864198 0.414852 0.258276
O O8 0.839925 0.500000 0.000000
O O9 0.750000 0.829072 0.250000
O O10 0.873408 0.748515 0.256858
O O11 0.856062 0.831028 0.998398
O O12 0.500000 0.163214 0.385533
O O13 0.601755 0.248694 0.243509
O O14 0.500000 0.329079 0.749424
O O15 0.588229 0.336036 0.499907
O O16 0.000000 0.638961 0.756545
#
# Coordination Sequence:
#
# PCOD9415738 Si02
#       6
#     8   8   8   8   8   8
#     4  11  23  39  58  82 113 149 190 235 285 338
#     4  10  19  32  52  79 108 138 177 221 265 320
#     4  10  19  34  56  83 113 146 186 229 278 335
#     4  10  21  38  60  85 114 149 189 235 285 336
#     4   9  17  31  54  80 106 140 181 225 270 320
#     4   8  16  32  54  79 105 138 181 224 268 320
#
# _framework density 20.019869
#
# number of rings (size 3 to 8) (size 9 to 14) (size 15 to 20)
#    0.000    2.333    0.000    5.000    0.000    5.000 
#    0.000    5.000    0.000    4.000    0.000    0.000 
#    0.000    0.000    0.000    0.000    0.000    0.000 
#
# Total GULP energy -267637.597094 kJ/mol
# GULP energy per Si atom -5575.783273 kJ/mol
# Density = 1.997430 g / cm^3
# Si number density = 20.019869 Si / 1000 Ang^3
#
#
#
# Elastic Constant Matrix: (Units=GPa)
#
#
# Indices 1 2 3 4 5 6 
#
# 1 101.9894 86.9689 18.4416 0.0000 0.0000 0.0000
# 2 86.9689 204.4197 17.0268 0.0000 0.0000 0.0000
# 3 18.4416 17.0268 25.5094 0.0000 0.0000 0.0000
# 4 0.0000 0.0000 0.0000 -11.7372 0.0000 0.0000
# 5 0.0000 0.0000 0.0000 0.0000 -140.1586 0.0000
# 6 0.0000 0.0000 0.0000 0.0000 0.0000 34.5670
#
#
#
# Elastic Compliance Matrix: (Units=1/GPa)
#
#
# Indices 1 2 3 4 5 6 
#
# 1 0.016727 -0.006469 -0.007775 0.000000 0.000000 0.000000
# 2 -0.006469 0.007682 -0.000451 0.000000 0.000000 0.000000
# 3 -0.007775 -0.000451 0.045123 0.000000 0.000000 0.000000
# 4 0.000000 0.000000 0.000000 -0.085199 0.000000 0.000000
# 5 0.000000 0.000000 0.000000 0.000000 -0.007135 0.000000
# 6 0.000000 0.000000 0.000000 0.000000 0.000000 0.028929
#
#
# Mechanical properties :
#
#
# Convention : Reuss Voigt Hill
#
# Bulk Modulus (GPa) = 24.91114 64.08813 44.49963
# Shear Modulus (GPa) = 102.25907 -9.50034 46.37936
#
# Velocity S-wave (km/s) = 7.15470 -2.18077 4.81840
# Velocity P-wave (km/s) = 8.98460 5.07353 7.29602
#
# Compressibility (1/GPa) = 0.04014268
#
# Stress axis : x y z
#
# Youngs Moduli (GPa) = 59.78437 130.18276 22.16185
#
# Poissons Ratio (x) = 0.84212 0.17230
# Poissons Ratio (y) = 0.38673 0.00999
# Poissons Ratio (z) = 0.46480 0.05868
#
# Static dielectric constant tensor:
#      x y z
#    x 1.718990 0.000000 0.000000 
#    y 0.000000 1.768340 0.000000 
#    z 0.000000 0.000000 1.745670 
# 
# From -- ./inp_files/9912.got.cif
#   From: 2010.05.17/outbox.cif.g08.bks.cpg/sg53_5_cif.got.tgz:9912.got - 2010.06.03 12:45:16.
