data_PCOD9415607
_publ_section_title
;
Structure prediction by ZEFSAII (Michael W. Deem and Ramdas Pophale) SiO2 
 PCOD9415607
Probable space group: P M N A
;
_chemical_formula_sum "Si O2"
_cell_formula_units_Z 64
_cell_length_a 9.401927
_cell_length_b 19.274394
_cell_length_c 19.273258
_cell_angle_alpha 90.000000
_cell_angle_beta 90.000000
_cell_angle_gamma 90.000000
_cell_volume 3492.631305
_symmetry_space_group_name_H-M "P M N A"
_symmetry_group_IT_number 53
_symmetry_cell_setting 'orthorhombic'
loop_
_space_group_symop_operation_xyz
x,y,z
1/2-x,-y,1/2+z
x,-y,-z
1/2-x,y,1/2-z
-x,-y,-z
1/2+x,y,1/2-z
-x,y,z
1/2+x,-y,1/2+z
loop_
_atom_site_type_symbol
_atom_site_label
_atom_site_fract_x
_atom_site_fract_y
_atom_site_fract_z
Si Si1 0.831117 0.602109 0.586235
Si Si2 0.329862 0.653940 0.070189
Si Si3 0.170297 0.534433 0.323631
Si Si4 0.830821 0.074008 0.535105
Si Si5 0.334152 0.989925 0.178949
Si Si6 0.658382 0.730682 0.621854
Si Si7 0.840198 0.214685 0.967339
Si Si8 0.167957 0.141681 0.321341
O O1 0.800607 0.613942 0.503749
O O2 0.802440 0.527954 0.621325
O O3 0.737217 0.657845 0.627638
O O4 0.000000 0.616300 0.594238
O O5 0.500000 0.665345 0.070844
O O6 0.291231 0.604339 0.134339
O O7 0.251130 0.728069 0.074113
O O8 0.250000 0.526901 0.250000
O O9 0.000000 0.534951 0.311045
O O10 0.810132 0.063940 0.617790
O O11 0.741171 0.142486 0.518072
O O12 0.000000 0.084636 0.520539
O O13 0.791114 0.000000 0.500000
O O14 0.250000 0.979192 0.250000
O O15 0.500000 0.989843 0.197703
O O16 0.308190 0.066263 0.144788
O O17 0.500000 0.731994 0.653617
O O18 0.644285 0.747373 0.540967
O O19 0.759456 0.791658 0.647245
O O20 0.000000 0.202353 0.939462
O O21 0.250000 0.131977 0.250000
O O22 0.000000 0.152069 0.314029
#
# Coordination Sequence:
#
# PCOD9415607 Si02
#       8
#     8   8   8   8   8   8   8   8
#     4   9  18  34  56  79 104 138 179 219 260 310
#     4   9  18  36  60  80 102 138 182 221 258 310
#     4  10  21  36  56  83 111 139 174 219 269 318
#     4  10  20  35  56  81 108 139 177 220 266 318
#     4   9  19  34  52  74 100 133 173 216 262 315
#     4  10  20  33  49  74 107 138 171 212 259 313
#     4  10  21  35  53  80 109 136 172 220 269 314
#     4  10  19  32  50  71  98 135 176 215 259 312
#
# _framework density 18.324292
#
# number of rings (size 3 to 8) (size 9 to 14) (size 15 to 20)
#    0.000    2.375    0.000    2.250    0.000    6.750 
#    0.000    1.875    0.000    3.750    0.000    0.000 
#    0.000    0.000    0.000    0.000    0.000    0.000 
#
# Total GULP energy -356400.991091 kJ/mol
# GULP energy per Si atom -5568.765486 kJ/mol
# Density = 1.828259 g / cm^3
# Si number density = 18.324292 Si / 1000 Ang^3
#
#
#
# Elastic Constant Matrix: (Units=GPa)
#
#
# Indices 1 2 3 4 5 6 
#
# 1 69.7834 55.7425 28.0659 0.0000 0.0000 0.0000
# 2 55.7425 110.1341 25.4779 0.0000 0.0000 0.0000
# 3 28.0659 25.4779 47.4244 0.0000 0.0000 0.0000
# 4 0.0000 0.0000 0.0000 26.7036 0.0000 0.0000
# 5 0.0000 0.0000 0.0000 0.0000 24.6611 0.0000
# 6 0.0000 0.0000 0.0000 0.0000 0.0000 33.3071
#
#
#
# Elastic Compliance Matrix: (Units=1/GPa)
#
#
# Indices 1 2 3 4 5 6 
#
# 1 0.027756 -0.011703 -0.010139 0.000000 0.000000 0.000000
# 2 -0.011703 0.015303 -0.001295 0.000000 0.000000 0.000000
# 3 -0.010139 -0.001295 0.027782 0.000000 0.000000 0.000000
# 4 0.000000 0.000000 0.000000 0.037448 0.000000 0.000000
# 5 0.000000 0.000000 0.000000 0.000000 0.040550 0.000000
# 6 0.000000 0.000000 0.000000 0.000000 0.000000 0.030024
#
#
# Mechanical properties :
#
#
# Convention : Reuss Voigt Hill
#
# Bulk Modulus (GPa) = 40.70528 49.54608 45.12568
# Shear Modulus (GPa) = 21.42934 24.80475 23.11704
#
# Velocity S-wave (km/s) = 3.42343 3.68319 3.55569
# Velocity P-wave (km/s) = 6.15537 6.72198 6.44491
#
# Compressibility (1/GPa) = 0.02456684
#
# Stress axis : x y z
#
# Youngs Moduli (GPa) = 36.02855 65.34842 35.99401
#
# Poissons Ratio (x) = 0.76475 0.36494
# Poissons Ratio (y) = 0.42163 0.04663
# Poissons Ratio (z) = 0.36529 0.08465
#
# Static dielectric constant tensor:
#      x y z
#    x 1.639640 0.000000 0.000000 
#    y 0.000000 1.659510 0.000000 
#    z 0.000000 0.000000 1.645080 
# 
# From -- ./inp_files/31216.got.cif
#   From: 2010.05.17/outbox.cif.g08.bks.cpg/sg53_16_cif.got.tgz:31216.got - 2010.06.03 12:45:16.
