data_PCOD9415277
_publ_section_title
;
Structure prediction by ZEFSAII (Michael W. Deem and Ramdas Pophale) SiO2 
 PCOD9415277
Probable space group: P M N A
;
_chemical_formula_sum "Si O2"
_cell_formula_units_Z 56
_cell_length_a 14.343846
_cell_length_b 5.649966
_cell_length_c 31.603232
_cell_angle_alpha 90.000000
_cell_angle_beta 90.000000
_cell_angle_gamma 90.000000
_cell_volume 2561.196782
_symmetry_space_group_name_H-M "P M N A"
_symmetry_group_IT_number 53
_symmetry_cell_setting 'orthorhombic'
loop_
_space_group_symop_operation_xyz
x,y,z
1/2-x,-y,1/2+z
x,-y,-z
1/2-x,y,1/2-z
-x,-y,-z
1/2+x,y,1/2-z
-x,y,z
1/2+x,-y,1/2+z
loop_
_atom_site_type_symbol
_atom_site_label
_atom_site_fract_x
_atom_site_fract_y
_atom_site_fract_z
Si Si1 0.712401 0.744575 0.635794
Si Si2 0.889663 0.707085 0.256273
Si Si3 0.605477 0.976325 0.158325
Si Si4 0.098974 0.301098 0.463833
Si Si5 0.889488 0.794033 0.780631
Si Si6 0.283201 0.004354 0.455069
Si Si7 0.684256 0.641055 0.095042
O O1 0.631885 0.765918 0.669909
O O2 0.688811 0.873004 0.590389
O O3 0.741824 0.475689 0.626551
O O4 0.805823 0.851548 0.658027
O O5 0.882668 0.776466 0.305553
O O6 0.854260 0.446706 0.242746
O O7 0.000000 0.697165 0.246040
O O8 0.852299 0.946715 0.233552
O O9 0.500000 0.074275 0.162869
O O10 0.621269 0.845981 0.113949
O O11 0.097410 0.500000 0.500000
O O12 0.189936 0.146871 0.466656
O O13 0.114818 0.439784 0.420297
O O14 0.000000 0.173697 0.463976
O O15 0.000000 0.803649 0.772105
O O16 0.338723 0.000000 0.500000
O O17 0.248472 0.744214 0.442158
#
# Coordination Sequence:
#
# PCOD9415277 Si02
#       7
#     8   8   8   8   8   8   8
#     4  10  24  37  59  91 117 158 210 251 314 372
#     4   9  21  40  66  90 121 165 204 250 314 368
#     4  10  22  39  56  85 126 166 202 247 298 362
#     4  10  19  30  48  74 105 152 206 249 294 352
#     4  10  22  44  68  93 124 157 206 264 317 374
#     4  10  20  36  53  76 114 153 196 249 306 368
#     4  10  21  35  52  77 114 156 205 248 299 360
#
# _framework density 21.864778999999999
#
# number of rings (size 3 to 8) (size 9 to 14) (size 15 to 20)
#    0.000    2.143    1.429    0.429    6.000    7.143 
#    0.000    0.000    0.000    0.429    0.000    1.000 
#    0.000    0.000    0.000    0.000    0.000    0.000 
#
# Total GULP energy -311990.194697 kJ/mol
# GULP energy per Si atom -5571.253477 kJ/mol
# Density = 2.181501 g / cm^3
# Si number density = 21.864779 Si / 1000 Ang^3
#
#
#
# Elastic Constant Matrix: (Units=GPa)
#
#
# Indices 1 2 3 4 5 6 
#
# 1 27.0406 10.6434 0.9379 0.0000 0.0000 0.0000
# 2 10.6434 77.1310 6.5331 0.0000 0.0000 0.0000
# 3 0.9379 6.5331 78.6260 0.0000 0.0000 0.0000
# 4 0.0000 0.0000 0.0000 270.2331 0.0000 0.0000
# 5 0.0000 0.0000 0.0000 0.0000 3.0732 0.0000
# 6 0.0000 0.0000 0.0000 0.0000 0.0000 -9.5621
#
#
#
# Elastic Compliance Matrix: (Units=1/GPa)
#
#
# Indices 1 2 3 4 5 6 
#
# 1 0.039105 -0.005395 -0.000018 0.000000 0.000000 0.000000
# 2 -0.005395 0.013801 -0.001082 0.000000 0.000000 0.000000
# 3 -0.000018 -0.001082 0.012809 0.000000 0.000000 0.000000
# 4 0.000000 0.000000 0.000000 0.003701 0.000000 0.000000
# 5 0.000000 0.000000 0.000000 0.000000 0.325396 0.000000
# 6 0.000000 0.000000 0.000000 0.000000 0.000000 -0.104579
#
#
# Mechanical properties :
#
#
# Convention : Reuss Voigt Hill
#
# Bulk Modulus (GPa) = 18.96650 24.33628 21.65139
# Shear Modulus (GPa) = 15.58611 63.72771 39.65691
#
# Velocity S-wave (km/s) = 2.67281 5.40459 4.26342
# Velocity P-wave (km/s) = 4.26831 7.07818 5.84462
#
# Compressibility (1/GPa) = 0.05272453
#
# Stress axis : x y z
#
# Youngs Moduli (GPa) = 25.57186 72.45829 78.07256
#
# Poissons Ratio (x) = 0.39089 0.00142
# Poissons Ratio (y) = 0.13795 0.08450
# Poissons Ratio (z) = 0.00047 0.07843
#
# Static dielectric constant tensor:
#      x y z
#    x 1.769750 0.000000 0.000000 
#    y 0.000000 1.892540 0.000000 
#    z 0.000000 0.000000 1.892650 
# 
# From -- ./inp_files/38874.got.cif
#   From: 2010.05.17/outbox.cif.g08.bks.cpg/sg53_20_cif.got.tgz:38874.got - 2010.06.03 12:45:16.
