data_PCOD9415275
_publ_section_title
;
Structure prediction by ZEFSAII (Michael W. Deem and Ramdas Pophale) SiO2 
 PCOD9415275
Probable space group: P M N A
;
_chemical_formula_sum "Si O2"
_cell_formula_units_Z 64
_cell_length_a 8.619901
_cell_length_b 22.579823
_cell_length_c 18.552489
_cell_angle_alpha 90.000000
_cell_angle_beta 90.000000
_cell_angle_gamma 90.000000
_cell_volume 3610.979259
_symmetry_space_group_name_H-M "P M N A"
_symmetry_group_IT_number 53
_symmetry_cell_setting 'orthorhombic'
loop_
_space_group_symop_operation_xyz
x,y,z
1/2-x,-y,1/2+z
x,-y,-z
1/2-x,y,1/2-z
-x,-y,-z
1/2+x,y,1/2-z
-x,y,z
1/2+x,-y,1/2+z
loop_
_atom_site_type_symbol
_atom_site_label
_atom_site_fract_x
_atom_site_fract_y
_atom_site_fract_z
Si Si1 0.187502 0.434604 0.975958
Si Si2 0.314462 0.759088 0.670952
Si Si3 0.310526 0.876462 0.589998
Si Si4 0.818768 0.995188 0.087563
Si Si5 0.688007 0.865960 0.421710
Si Si6 0.685349 0.624429 0.326321
Si Si7 0.814639 0.741723 0.392842
Si Si8 0.814774 0.318529 0.455746
O O1 0.234468 0.415794 0.894663
O O2 0.000000 0.431948 0.978944
O O3 0.236372 0.500000 0.000000
O O4 0.255314 0.384229 0.027687
O O5 0.250000 0.748606 0.750000
O O6 0.500000 0.759847 0.672576
O O7 0.259637 0.822849 0.640252
O O8 0.258727 0.710151 0.614486
O O9 0.500000 0.878598 0.590642
O O10 0.267290 0.863867 0.506718
O O11 0.252270 0.941812 0.612685
O O12 0.755200 0.930281 0.106434
O O13 0.000000 0.994153 0.108679
O O14 0.815714 0.000000 0.000000
O O15 0.500000 0.865305 0.418944
O O16 0.752179 0.807952 0.382970
O O17 0.750000 0.603466 0.250000
O O18 0.745241 0.690981 0.341955
O O19 0.000000 0.625227 0.175858
O O20 0.770601 0.720626 0.473975
O O21 0.000000 0.741004 0.386789
O O22 0.000000 0.318081 0.450186
#
# Coordination Sequence:
#
# PCOD9415275 Si02
#       8
#     8   8   8   8   8   8   8   8
#     4   9  19  37  61  86 111 143 178 210 250 302
#     4  11  21  33  50  71  99 135 177 222 270 321
#     4   8  14  25  43  66  92 124 165 216 266 315
#     4   7  11  20  38  65  91 116 156 209 257 310
#     4   9  14  24  45  71  95 123 166 213 262 314
#     4  10  20  35  56  81 110 140 173 210 252 302
#     4  10  19  30  48  74 105 136 169 211 257 306
#     4  10  20  34  52  76 105 136 172 215 259 302
#
# _framework density 17.723724000000001
#
# number of rings (size 3 to 8) (size 9 to 14) (size 15 to 20)
#    0.000    2.750    1.250    3.000    0.000    1.750 
#    0.000    0.625    0.000    7.125    0.000    1.750 
#    0.000    0.000    0.000    0.000    0.000    0.000 
#
# Total GULP energy -356651.438975 kJ/mol
# GULP energy per Si atom -5572.678734 kJ/mol
# Density = 1.768338 g / cm^3
# Si number density = 17.723724 Si / 1000 Ang^3
#
#
#
# Elastic Constant Matrix: (Units=GPa)
#
#
# Indices 1 2 3 4 5 6 
#
# 1 19.5948 30.6898 24.1902 0.0000 0.0000 0.0000
# 2 30.6898 158.7023 53.4636 0.0000 0.0000 0.0000
# 3 24.1902 53.4636 86.6254 0.0000 0.0000 0.0000
# 4 0.0000 0.0000 0.0000 14.5697 0.0000 0.0000
# 5 0.0000 0.0000 0.0000 0.0000 19.2843 0.0000
# 6 0.0000 0.0000 0.0000 0.0000 0.0000 0.9509
#
#
#
# Elastic Compliance Matrix: (Units=1/GPa)
#
#
# Indices 1 2 3 4 5 6 
#
# 1 0.092049 -0.011540 -0.018582 0.000000 0.000000 0.000000
# 2 -0.011540 0.009402 -0.002580 0.000000 0.000000 0.000000
# 3 -0.018582 -0.002580 0.018325 0.000000 0.000000 0.000000
# 4 0.000000 0.000000 0.000000 0.068636 0.000000 0.000000
# 5 0.000000 0.000000 0.000000 0.000000 0.051856 0.000000
# 6 0.000000 0.000000 0.000000 0.000000 0.000000 1.051634
#
#
# Mechanical properties :
#
#
# Convention : Reuss Voigt Hill
#
# Bulk Modulus (GPa) = 18.39216 53.51218 35.95217
# Shear Modulus (GPa) = 3.63522 17.39957 10.51740
#
# Velocity S-wave (km/s) = 1.43370 3.13663 2.43864
# Velocity P-wave (km/s) = 3.62496 6.58603 5.31583
#
# Compressibility (1/GPa) = 0.05437100
#
# Stress axis : x y z
#
# Youngs Moduli (GPa) = 10.86377 106.36089 54.56898
#
# Poissons Ratio (x) = 1.22745 1.01402
# Poissons Ratio (y) = 0.12537 0.14079
# Poissons Ratio (z) = 0.20187 0.27441
#
# Static dielectric constant tensor:
#      x y z
#    x 1.590920 0.000000 0.000000 
#    y 0.000000 1.625890 0.000000 
#    z 0.000000 0.000000 1.588840 
# 
# From -- ./inp_files/26767.got.cif
#   From: 2010.05.17/outbox.cif.g08.bks.cpg/sg53_14_cif.got.tgz:26767.got - 2010.06.03 12:45:16.
