data_PCOD9415585
_publ_section_title
;
Structure prediction by ZEFSAII (Michael W. Deem and Ramdas Pophale) SiO2 
 PCOD9415585
Probable space group: P M N A
;
_chemical_formula_sum "Si O2"
_cell_formula_units_Z 64
_cell_length_a 7.801063
_cell_length_b 15.533130
_cell_length_c 25.852222
_cell_angle_alpha 90.000000
_cell_angle_beta 90.000000
_cell_angle_gamma 90.000000
_cell_volume 3132.641080
_symmetry_space_group_name_H-M "P M N A"
_symmetry_group_IT_number 53
_symmetry_cell_setting 'orthorhombic'
loop_
_space_group_symop_operation_xyz
x,y,z
1/2-x,-y,1/2+z
x,-y,-z
1/2-x,y,1/2-z
-x,-y,-z
1/2+x,y,1/2-z
-x,y,z
1/2+x,-y,1/2+z
loop_
_atom_site_type_symbol
_atom_site_label
_atom_site_fract_x
_atom_site_fract_y
_atom_site_fract_z
Si Si1 0.696876 0.929699 0.955832
Si Si2 0.205434 0.770551 0.111032
Si Si3 0.706064 0.566854 0.691106
Si Si4 0.789111 0.280087 0.117201
Si Si5 0.201615 0.963367 0.361287
Si Si6 0.793436 0.371961 0.808960
Si Si7 0.305456 0.247813 0.494733
Si Si8 0.296207 0.873568 0.692754
O O1 0.500000 0.900384 0.944985
O O2 0.805026 0.851115 0.976607
O O3 0.777059 0.978899 0.907523
O O4 0.685166 0.000000 0.000000
O O5 0.235230 0.865923 0.134293
O O6 0.271380 0.698116 0.150351
O O7 0.000000 0.762440 0.107197
O O8 0.273358 0.755003 0.052409
O O9 0.750000 0.590254 0.750000
O O10 0.500000 0.564606 0.687069
O O11 0.766723 0.638735 0.651277
O O12 0.770206 0.469474 0.681675
O O13 0.729017 0.289137 0.057667
O O14 0.734500 0.193117 0.148051
O O15 0.000000 0.277643 0.115758
O O16 0.000000 0.956654 0.371105
O O17 0.228825 0.028477 0.313791
O O18 0.750000 0.348417 0.750000
O O19 0.000000 0.373673 0.812957
O O20 0.500000 0.281188 0.499811
O O21 0.250000 0.840844 0.750000
O O22 0.500000 0.876871 0.688834
#
# Coordination Sequence:
#
# PCOD9415585 Si02
#       8
#     8   8   8   8   8   8   8   8
#     4  10  19  32  49  72 101 132 174 220 257 297
#     4  10  21  35  53  78 107 138 177 220 260 311
#     4   9  17  33  56  79 104 132 170 216 260 310
#     4   9  18  32  52  78 106 137 171 211 258 312
#     4  11  22  35  52  74 102 138 177 217 262 307
#     4   9  19  36  57  80 103 132 170 216 264 309
#     4  10  19  32  51  75 105 140 175 209 256 313
#     4  11  22  36  52  74 106 140 177 218 263 314
#
# _framework density 20.430043999999999
#
# number of rings (size 3 to 8) (size 9 to 14) (size 15 to 20)
#    0.000    2.125    2.500    1.125    0.000    1.750 
#    0.000    3.125    0.000    3.750    0.000    0.000 
#    0.000    6.000    0.000    0.000    0.000    0.000 
#
# Total GULP energy -356744.391858 kJ/mol
# GULP energy per Si atom -5574.131123 kJ/mol
# Density = 2.038354 g / cm^3
# Si number density = 20.430044 Si / 1000 Ang^3
#
#
#
# Elastic Constant Matrix: (Units=GPa)
#
#
# Indices 1 2 3 4 5 6 
#
# 1 31.1642 5.7951 5.7141 0.0000 0.0000 0.0000
# 2 5.7951 125.2670 92.0894 0.0000 0.0000 0.0000
# 3 5.7141 92.0894 128.5764 0.0000 0.0000 0.0000
# 4 0.0000 0.0000 0.0000 37.0507 0.0000 0.0000
# 5 0.0000 0.0000 0.0000 0.0000 22.6392 0.0000
# 6 0.0000 0.0000 0.0000 0.0000 0.0000 5.5181
#
#
#
# Elastic Compliance Matrix: (Units=1/GPa)
#
#
# Indices 1 2 3 4 5 6 
#
# 1 0.032403 -0.000930 -0.000774 0.000000 0.000000 0.000000
# 2 -0.000930 0.016887 -0.012054 0.000000 0.000000 0.000000
# 3 -0.000774 -0.012054 0.016445 0.000000 0.000000 0.000000
# 4 0.000000 0.000000 0.000000 0.026990 0.000000 0.000000
# 5 0.000000 0.000000 0.000000 0.000000 0.044171 0.000000
# 6 0.000000 0.000000 0.000000 0.000000 0.000000 0.181223
#
#
# Mechanical properties :
#
#
# Convention : Reuss Voigt Hill
#
# Bulk Modulus (GPa) = 26.16445 54.68944 40.42695
# Shear Modulus (GPa) = 13.95188 25.13552 19.54370
#
# Velocity S-wave (km/s) = 2.61609 3.51140 3.09628
# Velocity P-wave (km/s) = 4.68614 6.57778 5.71082
#
# Compressibility (1/GPa) = 0.03821979
#
# Stress axis : x y z
#
# Youngs Moduli (GPa) = 30.86143 59.21664 60.80892
#
# Poissons Ratio (x) = 0.05508 0.04705
# Poissons Ratio (y) = 0.02871 0.73297
# Poissons Ratio (z) = 0.02388 0.71378
#
# Static dielectric constant tensor:
#      x y z
#    x 1.798360 0.000000 0.000000 
#    y 0.000000 1.724940 0.000000 
#    z 0.000000 0.000000 1.771230 
# 
# From -- ./inp_files/34322.got.cif
#   From: 2010.05.17/outbox.cif.g08.bks.cpg/sg53_18_cif.got.tgz:34322.got - 2010.06.03 12:45:16.
