data_PCOD9415822
_publ_section_title
;
Structure prediction by ZEFSAII (Michael W. Deem and Ramdas Pophale) SiO2 
 PCOD9415822
Probable space group: P M N A
;
_chemical_formula_sum "Si O2"
_cell_formula_units_Z 60
_cell_length_a 9.088404
_cell_length_b 20.193197
_cell_length_c 17.062519
_cell_angle_alpha 90.000000
_cell_angle_beta 90.000000
_cell_angle_gamma 90.000000
_cell_volume 3131.380583
_symmetry_space_group_name_H-M "P M N A"
_symmetry_group_IT_number 53
_symmetry_cell_setting 'orthorhombic'
loop_
_space_group_symop_operation_xyz
x,y,z
1/2-x,-y,1/2+z
x,-y,-z
1/2-x,y,1/2-z
-x,-y,-z
1/2+x,y,1/2-z
-x,y,z
1/2+x,-y,1/2+z
loop_
_atom_site_type_symbol
_atom_site_label
_atom_site_fract_x
_atom_site_fract_y
_atom_site_fract_z
Si Si1 0.331741 0.390108 0.129575
Si Si2 0.750000 0.722460 0.750000
Si Si3 0.822903 0.628627 0.036841
Si Si4 0.824146 0.525355 0.171700
Si Si5 0.177747 0.039120 0.164676
Si Si6 0.828167 0.179975 0.110738
Si Si7 0.821143 0.226596 0.944074
Si Si8 0.177439 0.106520 0.835310
O O1 0.500000 0.411118 0.118996
O O2 0.329626 0.328955 0.190851
O O3 0.237376 0.451480 0.161442
O O4 0.259120 0.373267 0.046041
O O5 0.679995 0.773300 0.687028
O O6 0.788056 0.568162 0.094510
O O7 0.783587 0.698333 0.077813
O O8 0.000000 0.627472 0.022092
O O9 0.750000 0.553902 0.250000
O O10 0.000000 0.524072 0.180332
O O11 0.250000 0.039260 0.250000
O O12 0.232777 0.106163 0.123777
O O13 0.000000 0.043416 0.171970
O O14 0.210619 0.966586 0.129422
O O15 0.000000 0.170358 0.094479
O O16 0.766694 0.213730 0.032699
O O17 0.770979 0.167373 0.888467
O O18 0.000000 0.224313 0.943284
O O19 0.250000 0.110407 0.750000
O O20 0.000000 0.110223 0.827345
#
# Coordination Sequence:
#
# PCOD9415822 Si02
#       8
#     8   4   8   8   8   8   8   8
#     4  12  25  39  61  90 119 151 189 236 287 345
#     4  12  22  36  58  84 118 148 184 228 280 340
#     4  10  22  41  62  84 116 156 194 235 289 343
#     4  11  24  41  63  88 115 152 195 239 287 342
#     4   9  17  30  50  79 109 144 184 228 273 327
#     4  10  19  32  54  81 111 147 185 226 277 333
#     4   9  18  34  56  81 109 146 188 233 278 329
#     4   9  18  33  55  80 109 144 189 233 278 330
#
# _framework density 19.160879000000001
#
# number of rings (size 3 to 8) (size 9 to 14) (size 15 to 20)
#    0.000    1.867    2.667    1.600    0.000    4.800 
#    0.000    3.333    0.000    0.000    0.000    3.733 
#    0.000    0.000    0.000    0.000    0.000    0.000 
#
# Total GULP energy -334292.183130 kJ/mol
# GULP energy per Si atom -5571.536385 kJ/mol
# Density = 1.911727 g / cm^3
# Si number density = 19.160879 Si / 1000 Ang^3
#
#
#
# Elastic Constant Matrix: (Units=GPa)
#
#
# Indices 1 2 3 4 5 6 
#
# 1 29.7542 19.3919 20.2667 0.0000 0.0000 0.0000
# 2 19.3919 125.5963 50.0350 0.0000 0.0000 0.0000
# 3 20.2667 50.0350 82.9348 0.0000 0.0000 0.0000
# 4 0.0000 0.0000 0.0000 34.8746 0.0000 0.0000
# 5 0.0000 0.0000 0.0000 0.0000 22.1221 0.0000
# 6 0.0000 0.0000 0.0000 0.0000 0.0000 12.9194
#
#
#
# Elastic Compliance Matrix: (Units=1/GPa)
#
#
# Indices 1 2 3 4 5 6 
#
# 1 0.041214 -0.003095 -0.008204 0.000000 0.000000 0.000000
# 2 -0.003095 0.010714 -0.005707 0.000000 0.000000 0.000000
# 3 -0.008204 -0.005707 0.017506 0.000000 0.000000 0.000000
# 4 0.000000 0.000000 0.000000 0.028674 0.000000 0.000000
# 5 0.000000 0.000000 0.000000 0.000000 0.045204 0.000000
# 6 0.000000 0.000000 0.000000 0.000000 0.000000 0.077403
#
#
# Mechanical properties :
#
#
# Convention : Reuss Voigt Hill
#
# Bulk Modulus (GPa) = 28.23226 46.40805 37.32016
# Shear Modulus (GPa) = 18.75935 23.88933 21.32434
#
# Velocity S-wave (km/s) = 3.13236 3.53480 3.33965
# Velocity P-wave (km/s) = 5.27717 6.39786 5.86435
#
# Compressibility (1/GPa) = 0.03542047
#
# Stress axis : x y z
#
# Youngs Moduli (GPa) = 24.26355 93.34011 57.12426
#
# Poissons Ratio (x) = 0.28889 0.46866
# Poissons Ratio (y) = 0.07510 0.32602
# Poissons Ratio (z) = 0.19906 0.53271
#
# Static dielectric constant tensor:
#      x y z
#    x 1.658810 0.000000 0.000000 
#    y 0.000000 1.708450 0.000000 
#    z 0.000000 0.000000 1.658350 
# 
# From -- ./inp_files/26570.got.cif
#   From: 2010.05.17/outbox.cif.g08.bks.cpg/sg53_14_cif.got.tgz:26570.got - 2010.06.03 12:45:16.
