data_PCOD9415507
_publ_section_title
;
Structure prediction by ZEFSAII (Michael W. Deem and Ramdas Pophale) SiO2 
 PCOD9415507
Probable space group: P M N A
;
_chemical_formula_sum "Si O2"
_cell_formula_units_Z 64
_cell_length_a 13.932828
_cell_length_b 19.129621
_cell_length_c 12.501495
_cell_angle_alpha 90.000000
_cell_angle_beta 90.000000
_cell_angle_gamma 90.000000
_cell_volume 3332.019951
_symmetry_space_group_name_H-M "P M N A"
_symmetry_group_IT_number 53
_symmetry_cell_setting 'orthorhombic'
loop_
_space_group_symop_operation_xyz
x,y,z
1/2-x,-y,1/2+z
x,-y,-z
1/2-x,y,1/2-z
-x,-y,-z
1/2+x,y,1/2-z
-x,y,z
1/2+x,-y,1/2+z
loop_
_atom_site_type_symbol
_atom_site_label
_atom_site_fract_x
_atom_site_fract_y
_atom_site_fract_z
Si Si1 0.115491 0.815777 0.016853
Si Si2 0.393642 0.546199 0.606771
Si Si3 0.807649 0.949518 0.906068
Si Si4 0.392407 0.298738 0.895744
Si Si5 0.615417 0.838822 0.234943
Si Si6 0.302023 0.334524 0.494756
Si Si7 0.857874 0.592230 0.213379
Si Si8 0.386284 0.002385 0.817588
O O1 0.144959 0.828258 0.141541
O O2 0.148073 0.739563 0.979383
O O3 0.000000 0.823276 0.010924
O O4 0.167535 0.872313 0.943292
O O5 0.377041 0.500000 0.500000
O O6 0.500000 0.577430 0.600655
O O7 0.319243 0.609431 0.599236
O O8 0.393702 0.486645 0.697167
O O9 0.864858 0.971176 0.799765
O O10 0.693822 0.963529 0.888750
O O11 0.841888 0.000000 0.000000
O O12 0.500000 0.288158 0.940444
O O13 0.357507 0.227303 0.837929
O O14 0.309492 0.322970 0.976314
O O15 0.400293 0.357209 0.802870
O O16 0.500000 0.837761 0.236888
O O17 0.641147 0.915113 0.189456
O O18 0.354355 0.366924 0.600614
O O19 0.750000 0.583171 0.250000
O O20 0.500000 0.995607 0.845057
#
# Coordination Sequence:
#
# PCOD9415507 Si02
#       8
#     8   8   8   8   8   8   8   8
#     4  11  21  34  55  83 113 142 184 239 290 336
#     4   9  17  30  50  75 104 137 175 216 259 312
#     4  11  23  36  58  85 112 151 195 244 290 350
#     4  10  19  31  50  82 116 145 173 216 281 348
#     4   9  18  31  54  81 110 144 179 222 286 347
#     4  10  20  31  51  79 109 142 179 226 275 330
#     4   9  17  30  51  79 111 143 174 219 272 331
#     4  10  22  40  58  81 115 155 196 243 292 351
#
# _framework density 19.207567999999998
#
# number of rings (size 3 to 8) (size 9 to 14) (size 15 to 20)
#    0.000    2.125    2.500    1.125    1.750    1.750 
#    0.000    0.625    2.750   10.125    0.000    0.000 
#    0.000    0.000    0.000    0.000    0.000    0.000 
#
# Total GULP energy -356865.690780 kJ/mol
# GULP energy per Si atom -5576.026418 kJ/mol
# Density = 1.916385 g / cm^3
# Si number density = 19.207568 Si / 1000 Ang^3
#
#
#
# Elastic Constant Matrix: (Units=GPa)
#
#
# Indices 1 2 3 4 5 6 
#
# 1 124.0166 70.0029 14.7785 0.0000 0.0000 0.0000
# 2 70.0029 144.6976 40.8726 0.0000 0.0000 0.0000
# 3 14.7785 40.8726 23.7442 0.0000 0.0000 0.0000
# 4 0.0000 0.0000 0.0000 25.1726 0.0000 0.0000
# 5 0.0000 0.0000 0.0000 0.0000 -131.1612 0.0000
# 6 0.0000 0.0000 0.0000 0.0000 0.0000 23.0143
#
#
#
# Elastic Compliance Matrix: (Units=1/GPa)
#
#
# Indices 1 2 3 4 5 6 
#
# 1 0.011350 -0.006804 0.004648 0.000000 0.000000 0.000000
# 2 -0.006804 0.017530 -0.025941 0.000000 0.000000 0.000000
# 3 0.004648 -0.025941 0.083877 0.000000 0.000000 0.000000
# 4 0.000000 0.000000 0.000000 0.039726 0.000000 0.000000
# 5 0.000000 0.000000 0.000000 0.000000 -0.007624 0.000000
# 6 0.000000 0.000000 0.000000 0.000000 0.000000 0.043451
#
#
# Mechanical properties :
#
#
# Convention : Reuss Voigt Hill
#
# Bulk Modulus (GPa) = 17.67950 60.41849 39.04900
# Shear Modulus (GPa) = 18.98545 -5.47457 6.75544
#
# Velocity S-wave (km/s) = 3.14735 -1.69009 1.87742
# Velocity P-wave (km/s) = 4.73626 5.26453 5.00737
#
# Compressibility (1/GPa) = 0.05656269
#
# Stress axis : x y z
#
# Youngs Moduli (GPa) = 88.10463 57.04453 11.92218
#
# Poissons Ratio (x) = 0.38812 -0.05541
# Poissons Ratio (y) = 0.59945 0.30928
# Poissons Ratio (z) = -0.40947 1.47980
#
# Static dielectric constant tensor:
#      x y z
#    x 1.682040 0.000000 0.000000 
#    y 0.000000 1.722240 0.000000 
#    z 0.000000 0.000000 1.678820 
# 
# From -- ./inp_files/16267.got.cif
#   From: 2010.05.17/outbox.cif.g08.bks.cpg/sg53_9_cif.got.tgz:16267.got - 2010.06.03 12:45:16.
