data_PCOD9415938
_publ_section_title
;
Structure prediction by ZEFSAII (Michael W. Deem and Ramdas Pophale) SiO2 
 PCOD9415938
Probable space group: P M N A
;
_chemical_formula_sum "Si O2"
_cell_formula_units_Z 64
_cell_length_a 9.069912
_cell_length_b 21.434642
_cell_length_c 20.391668
_cell_angle_alpha 90.000000
_cell_angle_beta 90.000000
_cell_angle_gamma 90.000000
_cell_volume 3964.350634
_symmetry_space_group_name_H-M "P M N A"
_symmetry_group_IT_number 53
_symmetry_cell_setting 'orthorhombic'
loop_
_space_group_symop_operation_xyz
x,y,z
1/2-x,-y,1/2+z
x,-y,-z
1/2-x,y,1/2-z
-x,-y,-z
1/2+x,y,1/2-z
-x,y,z
1/2+x,-y,1/2+z
loop_
_atom_site_type_symbol
_atom_site_label
_atom_site_fract_x
_atom_site_fract_y
_atom_site_fract_z
Si Si1 0.822595 0.059326 0.954150
Si Si2 0.824586 0.126506 0.319523
Si Si3 0.823104 0.440589 0.454791
Si Si4 0.175616 0.022269 0.680423
Si Si5 0.834393 0.690786 0.687690
Si Si6 0.336515 0.542133 0.811359
Si Si7 0.675132 0.312355 0.450383
Si Si8 0.322942 0.825400 0.547938
O O1 0.000000 0.057719 0.944607
O O2 0.744877 0.054550 0.883692
O O3 0.784693 0.121127 0.995624
O O4 0.783054 0.000000 0.000000
O O5 0.750000 0.142916 0.250000
O O6 0.798129 0.052158 0.328611
O O7 0.756573 0.160938 0.382763
O O8 0.000000 0.136151 0.316060
O O9 0.799357 0.500000 0.500000
O O10 0.764664 0.460023 0.382844
O O11 0.751891 0.375228 0.476497
O O12 0.000000 0.429738 0.448154
O O13 0.250000 0.040045 0.750000
O O14 0.000000 0.032498 0.683678
O O15 0.750000 0.717654 0.750000
O O16 0.850975 0.616551 0.699777
O O17 0.734979 0.694919 0.623670
O O18 0.000000 0.715727 0.678466
O O19 0.250000 0.515407 0.750000
O O20 0.500000 0.514596 0.814693
O O21 0.500000 0.321284 0.451212
O O22 0.710369 0.244048 0.479209
O O23 0.500000 0.828319 0.559544
#
# Coordination Sequence:
#
# PCOD9415938 Si02
#       8
#     8   8   8   8   8   8   8   8
#     4  10  19  33  54  74  97 131 167 205 251 297
#     4  10  20  32  48  69  97 133 171 208 244 287
#     4   9  18  33  51  70  94 126 162 200 242 288
#     4  10  20  33  51  75 101 128 164 209 253 297
#     4   9  16  27  43  62  87 122 162 197 232 273
#     4   8  14  24  40  63  89 116 146 182 222 266
#     4  10  20  32  46  67  96 126 160 200 242 292
#     4  10  21  35  49  69  98 132 167 205 251 299
#
# _framework density 16.143879999999999
#
# number of rings (size 3 to 8) (size 9 to 14) (size 15 to 20)
#    0.000    2.500    1.250    2.250    0.000    6.500 
#    0.000    0.000    0.000    0.000    0.000    0.875 
#    0.000    4.000    0.000    0.000    0.000    0.000 
#
# Total GULP energy -356537.015304 kJ/mol
# GULP energy per Si atom -5570.890864 kJ/mol
# Density = 1.610714 g / cm^3
# Si number density = 16.143880 Si / 1000 Ang^3
#
#
#
# Elastic Constant Matrix: (Units=GPa)
#
#
# Indices 1 2 3 4 5 6 
#
# 1 49.3222 41.6441 42.5850 0.0000 0.0000 0.0000
# 2 41.6441 99.2923 51.2220 0.0000 0.0000 0.0000
# 3 42.5850 51.2220 90.5122 0.0000 0.0000 0.0000
# 4 0.0000 0.0000 0.0000 5.2470 0.0000 0.0000
# 5 0.0000 0.0000 0.0000 0.0000 25.3444 0.0000
# 6 0.0000 0.0000 0.0000 0.0000 0.0000 5.6198
#
#
#
# Elastic Compliance Matrix: (Units=1/GPa)
#
#
# Indices 1 2 3 4 5 6 
#
# 1 0.040147 -0.010019 -0.013219 0.000000 0.000000 0.000000
# 2 -0.010019 0.016724 -0.004751 0.000000 0.000000 0.000000
# 3 -0.013219 -0.004751 0.019956 0.000000 0.000000 0.000000
# 4 0.000000 0.000000 0.000000 0.190585 0.000000 0.000000
# 5 0.000000 0.000000 0.000000 0.000000 0.039456 0.000000
# 6 0.000000 0.000000 0.000000 0.000000 0.000000 0.177941
#
#
# Mechanical properties :
#
#
# Convention : Reuss Voigt Hill
#
# Bulk Modulus (GPa) = 47.96062 56.66988 52.31525
# Shear Modulus (GPa) = 9.12847 14.15397 11.64122
#
# Velocity S-wave (km/s) = 2.38049 2.96419 2.68823
# Velocity P-wave (km/s) = 6.10969 6.84795 6.48933
#
# Compressibility (1/GPa) = 0.02085044
#
# Stress axis : x y z
#
# Youngs Moduli (GPa) = 24.90818 59.79451 50.11007
#
# Poissons Ratio (x) = 0.59907 0.66241
# Poissons Ratio (y) = 0.24955 0.23805
# Poissons Ratio (z) = 0.32926 0.28406
#
# Static dielectric constant tensor:
#      x y z
#    x 1.560940 0.000000 0.000000 
#    y 0.000000 1.561790 0.000000 
#    z 0.000000 0.000000 1.543490 
# 
# From -- ./inp_files/27063.got.cif
#   From: 2010.05.17/outbox.cif.g08.bks.cpg/sg53_14_cif.got.tgz:27063.got - 2010.06.03 12:45:16.
