data_PCOD9415539
_publ_section_title
;
Structure prediction by ZEFSAII (Michael W. Deem and Ramdas Pophale) SiO2 
 PCOD9415539
Probable space group: P M N A
;
_chemical_formula_sum "Si O2"
_cell_formula_units_Z 56
_cell_length_a 14.486870
_cell_length_b 14.155711
_cell_length_c 16.107647
_cell_angle_alpha 90.000000
_cell_angle_beta 90.000000
_cell_angle_gamma 90.000000
_cell_volume 3303.226500
_symmetry_space_group_name_H-M "P M N A"
_symmetry_group_IT_number 53
_symmetry_cell_setting 'orthorhombic'
loop_
_space_group_symop_operation_xyz
x,y,z
1/2-x,-y,1/2+z
x,-y,-z
1/2-x,y,1/2-z
-x,-y,-z
1/2+x,y,1/2-z
-x,y,z
1/2+x,-y,1/2+z
loop_
_atom_site_type_symbol
_atom_site_label
_atom_site_fract_x
_atom_site_fract_y
_atom_site_fract_z
Si Si1 0.263871 0.208722 0.128862
Si Si2 0.752170 0.896687 0.461371
Si Si3 0.108993 0.403530 0.605247
Si Si4 0.894831 0.137055 0.243474
Si Si5 0.610531 0.385734 0.094202
Si Si6 0.394635 0.795580 0.155252
Si Si7 0.152609 0.070951 0.797764
O O1 0.339181 0.137373 0.169642
O O2 0.171661 0.199944 0.184503
O O3 0.320381 0.306399 0.127922
O O4 0.238343 0.174910 0.037066
O O5 0.839183 0.860212 0.408849
O O6 0.671537 0.902746 0.392786
O O7 0.765635 0.000000 0.500000
O O8 0.117743 0.385522 0.506371
O O9 0.142028 0.509675 0.622940
O O10 0.145695 0.310830 0.652054
O O11 0.000000 0.409252 0.623437
O O12 0.000000 0.170634 0.251057
O O13 0.895348 0.030288 0.209374
O O14 0.500000 0.370990 0.112732
O O15 0.500000 0.789908 0.126778
O O16 0.391786 0.845000 0.244740
O O17 0.250000 0.056934 0.750000
#
# Coordination Sequence:
#
# PCOD9415539 Si02
#       7
#     8   8   8   8   8   8   8
#     4  11  20  35  55  80 104 139 181 223 270 320
#     4  11  20  33  53  74 105 144 183 225 258 315
#     4   8  15  28  49  81 112 139 171 216 276 329
#     4  11  22  37  55  76 108 146 178 220 273 324
#     4   9  16  29  52  81 113 139 172 223 272 323
#     4  10  19  31  52  81 112 142 175 220 274 324
#     4  10  19  35  49  71 110 145 174 216 265 318
#
# _framework density 16.953119999999998
#
# number of rings (size 3 to 8) (size 9 to 14) (size 15 to 20)
#    0.000    2.000    4.286    2.571    0.000    0.857 
#    0.000    2.143    9.429    0.000    0.000    2.000 
#    0.000    0.000    0.000    0.429    0.000    0.000 
#
# Total GULP energy -311772.470709 kJ/mol
# GULP energy per Si atom -5567.365548 kJ/mol
# Density = 1.691453 g / cm^3
# Si number density = 16.953120 Si / 1000 Ang^3
#
#
#
# Elastic Constant Matrix: (Units=GPa)
#
#
# Indices 1 2 3 4 5 6 
#
# 1 51.4564 0.3791 9.3354 0.0000 0.0000 0.0000
# 2 0.3791 95.9791 25.0523 0.0000 0.0000 0.0000
# 3 9.3354 25.0523 79.6394 0.0000 0.0000 0.0000
# 4 0.0000 0.0000 0.0000 23.8185 0.0000 0.0000
# 5 0.0000 0.0000 0.0000 0.0000 10.8748 0.0000
# 6 0.0000 0.0000 0.0000 0.0000 0.0000 21.8775
#
#
#
# Elastic Compliance Matrix: (Units=1/GPa)
#
#
# Indices 1 2 3 4 5 6 
#
# 1 0.019886 0.000577 -0.002513 0.000000 0.000000 0.000000
# 2 0.000577 0.011368 -0.003644 0.000000 0.000000 0.000000
# 3 -0.002513 -0.003644 0.013997 0.000000 0.000000 0.000000
# 4 0.000000 0.000000 0.000000 0.041984 0.000000 0.000000
# 5 0.000000 0.000000 0.000000 0.000000 0.091956 0.000000
# 6 0.000000 0.000000 0.000000 0.000000 0.000000 0.045709
#
#
# Mechanical properties :
#
#
# Convention : Reuss Voigt Hill
#
# Bulk Modulus (GPa) = 29.33182 32.95649 31.14416
# Shear Modulus (GPa) = 20.20840 24.13469 22.17155
#
# Velocity S-wave (km/s) = 3.45631 3.77717 3.62030
# Velocity P-wave (km/s) = 5.76779 6.20522 5.99049
#
# Compressibility (1/GPa) = 0.03409266
#
# Stress axis : x y z
#
# Youngs Moduli (GPa) = 50.28789 87.96851 71.44231
#
# Poissons Ratio (x) = -0.05078 0.17950
# Poissons Ratio (y) = -0.02903 0.26031
# Poissons Ratio (z) = 0.12635 0.32052
#
# Static dielectric constant tensor:
#      x y z
#    x 1.571940 0.000000 0.000000 
#    y 0.000000 1.623940 0.000000 
#    z 0.000000 0.000000 1.586040 
# 
# From -- ./inp_files/22954.got.cif
#   From: 2010.05.17/outbox.cif.g08.bks.cpg/sg53_12_cif.got.tgz:22954.got - 2010.06.03 12:45:16.
