data_PCOD9415098
_publ_section_title
;
Structure prediction by ZEFSAII (Michael W. Deem and Ramdas Pophale) SiO2 
 PCOD9415098
Probable space group: P M N A
;
_chemical_formula_sum "Si O2"
_cell_formula_units_Z 64
_cell_length_a 8.525340
_cell_length_b 12.817651
_cell_length_c 31.976972
_cell_angle_alpha 90.000000
_cell_angle_beta 90.000000
_cell_angle_gamma 90.000000
_cell_volume 3494.278268
_symmetry_space_group_name_H-M "P M N A"
_symmetry_group_IT_number 53
_symmetry_cell_setting 'orthorhombic'
loop_
_space_group_symop_operation_xyz
x,y,z
1/2-x,-y,1/2+z
x,-y,-z
1/2-x,y,1/2-z
-x,-y,-z
1/2+x,y,1/2-z
-x,y,z
1/2+x,-y,1/2+z
loop_
_atom_site_type_symbol
_atom_site_label
_atom_site_fract_x
_atom_site_fract_y
_atom_site_fract_z
Si Si1 0.180490 0.071748 0.882077
Si Si2 0.690478 0.696930 0.386543
Si Si3 0.811672 0.156557 0.371188
Si Si4 0.188022 0.308122 0.296169
Si Si5 0.311938 0.659299 0.930729
Si Si6 0.312249 0.691292 0.483374
Si Si7 0.323322 0.905984 0.031628
Si Si8 0.188593 0.520309 0.854637
O O1 0.246669 0.188115 0.872186
O O2 0.198982 0.073709 0.932212
O O3 0.000000 0.068163 0.869006
O O4 0.258439 0.963018 0.869263
O O5 0.500000 0.703633 0.386876
O O6 0.734446 0.669314 0.434950
O O7 0.736400 0.600580 0.357617
O O8 0.761702 0.220259 0.329858
O O9 0.760038 0.227529 0.411127
O O10 0.000000 0.156756 0.372862
O O11 0.250000 0.287588 0.250000
O O12 0.251685 0.416937 0.314550
O O13 0.000000 0.310871 0.296056
O O14 0.500000 0.660286 0.934189
O O15 0.239999 0.628407 0.975613
O O16 0.259267 0.578499 0.895095
O O17 0.500000 0.699153 0.483884
O O18 0.226581 0.801239 0.491189
O O19 0.500000 0.895611 0.049542
O O20 0.324979 0.000000 0.000000
O O21 0.000000 0.526383 0.856715
#
# Coordination Sequence:
#
# PCOD9415098 Si02
#       8
#     8   8   8   8   8   8   8   8
#     4  10  19  31  49  72  98 131 172 210 246 295
#     4   8  18  34  49  70 101 137 177 220 259 298
#     4   9  19  34  51  74 106 136 162 202 254 305
#     4  10  21  38  60  87 113 132 158 199 250 306
#     4  10  20  33  47  70 104 136 173 222 271 312
#     4  10  19  31  46  66  94 132 180 224 262 305
#     4  10  19  29  41  60  91 130 170 215 263 301
#     4  10  19  35  57  76 100 136 174 211 257 307
#
# _framework density 18.315655
#
# number of rings (size 3 to 8) (size 9 to 14) (size 15 to 20)
#    0.000    2.375    0.000    4.500    0.000    7.500 
#    0.000   10.000    0.000    0.750    0.000    1.750 
#    0.000    0.000    0.000    0.000    0.000    0.000 
#
# Total GULP energy -356544.188113 kJ/mol
# GULP energy per Si atom -5571.002939 kJ/mol
# Density = 1.827397 g / cm^3
# Si number density = 18.315655 Si / 1000 Ang^3
#
#
#
# Elastic Constant Matrix: (Units=GPa)
#
#
# Indices 1 2 3 4 5 6 
#
# 1 27.0475 5.4367 5.8666 0.0000 0.0000 0.0000
# 2 5.4367 101.9107 31.2057 0.0000 0.0000 0.0000
# 3 5.8666 31.2057 63.1086 0.0000 0.0000 0.0000
# 4 0.0000 0.0000 0.0000 14.6982 0.0000 0.0000
# 5 0.0000 0.0000 0.0000 0.0000 21.6299 0.0000
# 6 0.0000 0.0000 0.0000 0.0000 0.0000 26.1157
#
#
#
# Elastic Compliance Matrix: (Units=1/GPa)
#
#
# Indices 1 2 3 4 5 6 
#
# 1 0.037839 -0.001110 -0.002969 0.000000 0.000000 0.000000
# 2 -0.001110 0.011596 -0.005631 0.000000 0.000000 0.000000
# 3 -0.002969 -0.005631 0.018906 0.000000 0.000000 0.000000
# 4 0.000000 0.000000 0.000000 0.068036 0.000000 0.000000
# 5 0.000000 0.000000 0.000000 0.000000 0.046232 0.000000
# 6 0.000000 0.000000 0.000000 0.000000 0.000000 0.038291
#
#
# Mechanical properties :
#
#
# Convention : Reuss Voigt Hill
#
# Bulk Modulus (GPa) = 20.44052 30.78720 25.61386
# Shear Modulus (GPa) = 19.48364 22.45928 20.97146
#
# Velocity S-wave (km/s) = 3.26509 3.50556 3.38746
# Velocity P-wave (km/s) = 5.03972 5.76463 5.41432
#
# Compressibility (1/GPa) = 0.04892244
#
# Stress axis : x y z
#
# Youngs Moduli (GPa) = 26.42780 86.23764 52.89344
#
# Poissons Ratio (x) = 0.09568 0.15704
# Poissons Ratio (y) = 0.02932 0.29783
# Poissons Ratio (z) = 0.07846 0.48558
#
# Static dielectric constant tensor:
#      x y z
#    x 1.630210 0.000000 0.000000 
#    y 0.000000 1.693560 0.000000 
#    z 0.000000 0.000000 1.627800 
# 
# From -- ./inp_files/38120.got.cif
#   From: 2010.05.17/outbox.cif.g08.bks.cpg/sg53_20_cif.got.tgz:38120.got - 2010.06.03 12:45:16.
