data_PCOD9415503
_publ_section_title
;
Structure prediction by ZEFSAII (Michael W. Deem and Ramdas Pophale) SiO2 
 PCOD9415503
Probable space group: P M N A
;
_chemical_formula_sum "Si O2"
_cell_formula_units_Z 40
_cell_length_a 28.485673
_cell_length_b 7.177817
_cell_length_c 8.325304
_cell_angle_alpha 90.000000
_cell_angle_beta 90.000000
_cell_angle_gamma 90.000000
_cell_volume 1702.232849
_symmetry_space_group_name_H-M "P M N A"
_symmetry_group_IT_number 53
_symmetry_cell_setting 'orthorhombic'
loop_
_space_group_symop_operation_xyz
x,y,z
1/2-x,-y,1/2+z
x,-y,-z
1/2-x,y,1/2-z
-x,-y,-z
1/2+x,y,1/2-z
-x,y,z
1/2+x,-y,1/2+z
loop_
_atom_site_type_symbol
_atom_site_label
_atom_site_fract_x
_atom_site_fract_y
_atom_site_fract_z
Si Si1 0.000000 0.971900 0.311441
Si Si2 0.100000 0.031097 0.810400
Si Si3 0.299454 0.469860 0.809458
Si Si4 0.899723 0.535943 0.305794
Si Si5 0.700023 0.971297 0.188598
Si Si6 0.500000 0.470112 0.806161
O O1 0.950032 0.046909 0.250243
O O2 0.000000 0.751239 0.275374
O O3 0.000000 0.000000 0.500000
O O4 0.100156 0.244348 0.740901
O O5 0.150234 0.953568 0.751271
O O6 0.099766 0.000000 0.000000
O O7 0.250000 0.546656 0.750000
O O8 0.349728 0.539161 0.744056
O O9 0.299490 0.249236 0.773467
O O10 0.300056 0.500000 0.000000
O O11 0.899793 0.500000 0.500000
O O12 0.949684 0.460307 0.243965
O O13 0.750000 0.045982 0.250000
O O14 0.699487 0.000000 0.000000
O O15 0.500000 0.500000 0.000000
#
# Coordination Sequence:
#
# PCOD9415503 Si02
#       6
#     4   8   8   8   8   4
#     4  10  19  31  50  79 107 136 177 224 272 327
#     4  10  19  32  51  78 108 138 176 226 278 330
#     4   9  18  32  49  70  97 128 167 212 256 309
#     4   8  15  29  49  72  96 131 174 214 261 327
#     4  10  20  34  52  75 104 138 175 220 272 331
#     4   8  14  27  50  71  90 126 171 208 251 315
#
# _framework density 23.498546999999999
#
# number of rings (size 3 to 8) (size 9 to 14) (size 15 to 20)
#    0.000    2.800    0.000    1.500    0.000    0.800 
#    0.000    0.000    0.000    0.000    0.000   38.500 
#    0.000    0.000    0.000    0.000    0.000    0.000 
#
# Total GULP energy -222890.150086 kJ/mol
# GULP energy per Si atom -5572.253752 kJ/mol
# Density = 2.344506 g / cm^3
# Si number density = 23.498547 Si / 1000 Ang^3
#
#
#
# Elastic Constant Matrix: (Units=GPa)
#
#
# Indices 1 2 3 4 5 6 
#
# 1 378.8912 17.7734 73.3105 0.0000 0.0000 0.0000
# 2 17.7734 139.4167 -7.3647 0.0000 0.0000 0.0000
# 3 73.3105 -7.3647 97.6386 0.0000 0.0000 0.0000
# 4 0.0000 0.0000 0.0000 11.4903 0.0000 0.0000
# 5 0.0000 0.0000 0.0000 0.0000 -14.8713 0.0000
# 6 0.0000 0.0000 0.0000 0.0000 0.0000 -83.2343
#
#
#
# Elastic Compliance Matrix: (Units=1/GPa)
#
#
# Indices 1 2 3 4 5 6 
#
# 1 0.003126 -0.000525 -0.002386 0.000000 0.000000 0.000000
# 2 -0.000525 0.007289 0.000944 0.000000 0.000000 0.000000
# 3 -0.002386 0.000944 0.012105 0.000000 0.000000 0.000000
# 4 0.000000 0.000000 0.000000 0.087030 0.000000 0.000000
# 5 0.000000 0.000000 0.000000 0.000000 -0.067243 0.000000
# 6 0.000000 0.000000 0.000000 0.000000 0.000000 -0.012014
#
#
# Mechanical properties :
#
#
# Convention : Reuss Voigt Hill
#
# Bulk Modulus (GPa) = 53.80570 87.04275 70.42422
# Shear Modulus (GPa) = 123.69568 18.15876 70.92722
#
# Velocity S-wave (km/s) = 7.26319 2.78287 5.49993
# Velocity P-wave (km/s) = 9.65846 6.88825 8.38850
#
# Compressibility (1/GPa) = 0.01858539
#
# Stress axis : x y z
#
# Youngs Moduli (GPa) = 319.93653 137.18442 82.61174
#
# Poissons Ratio (x) = 0.07196 0.19714
# Poissons Ratio (y) = 0.16782 -0.07796
# Poissons Ratio (z) = 0.76349 -0.12946
#
# Static dielectric constant tensor:
#      x y z
#    x 1.940870 0.000000 0.000000 
#    y 0.000000 1.865760 0.000000 
#    z 0.000000 0.000000 1.715660 
# 
# From -- ./inp_files/12336.got.cif
#   From: 2010.05.17/outbox.cif.g08.bks.cpg/sg53_7_cif.got.tgz:12336.got - 2010.06.03 12:45:16.
