data_PCOD9415441
_publ_section_title
;
Structure prediction by ZEFSAII (Michael W. Deem and Ramdas Pophale) SiO2 
 PCOD9415441
Probable space group: P M N A
;
_chemical_formula_sum "Si O2"
_cell_formula_units_Z 64
_cell_length_a 9.508792
_cell_length_b 12.267781
_cell_length_c 31.898831
_cell_angle_alpha 90.000000
_cell_angle_beta 90.000000
_cell_angle_gamma 90.000000
_cell_volume 3721.055347
_symmetry_space_group_name_H-M "P M N A"
_symmetry_group_IT_number 53
_symmetry_cell_setting 'orthorhombic'
loop_
_space_group_symop_operation_xyz
x,y,z
1/2-x,-y,1/2+z
x,-y,-z
1/2-x,y,1/2-z
-x,-y,-z
1/2+x,y,1/2-z
-x,y,z
1/2+x,-y,1/2+z
loop_
_atom_site_type_symbol
_atom_site_label
_atom_site_fract_x
_atom_site_fract_y
_atom_site_fract_z
Si Si1 0.833536 0.813844 0.206774
Si Si2 0.334988 0.447520 0.707695
Si Si3 0.329915 0.988658 0.951449
Si Si4 0.663535 0.565282 0.863812
Si Si5 0.163622 0.861247 0.373659
Si Si6 0.167996 0.743017 0.572832
Si Si7 0.655977 0.642317 0.078476
Si Si8 0.839360 0.630930 0.000493
O O1 0.750000 0.837205 0.250000
O O2 0.821465 0.682673 0.199475
O O3 0.760031 0.872729 0.167259
O O4 0.000000 0.838602 0.210356
O O5 0.250000 0.469582 0.750000
O O6 0.500000 0.470788 0.712250
O O7 0.265656 0.519443 0.671421
O O8 0.500000 0.998868 0.953921
O O9 0.287073 0.075754 0.915810
O O10 0.296307 0.869595 0.932980
O O11 0.279089 0.000000 0.000000
O O12 0.500000 0.566142 0.849647
O O13 0.700830 0.682420 0.883470
O O14 0.671160 0.476353 0.901289
O O15 0.162093 0.733733 0.385937
O O16 0.000000 0.892917 0.365181
O O17 0.247451 0.679056 0.536540
O O18 0.000000 0.732045 0.567179
O O19 0.500000 0.649636 0.058650
O O20 0.772757 0.665727 0.044353
O O21 0.000000 0.665925 0.996276
O O22 0.833838 0.500000 0.000000
#
# Coordination Sequence:
#
# PCOD9415441 Si02
#       8
#     8   8   8   8   8   8   8   8
#     4  10  20  33  52  80 112 143 174 214 265 321
#     4  10  20  33  52  77 110 145 173 208 257 317
#     4   9  18  34  56  79 103 138 185 228 265 312
#     4  10  19  31  50  76 104 133 170 213 258 312
#     4  10  19  33  55  79 105 138 176 220 265 313
#     4  10  20  35  54  74 100 136 177 217 258 310
#     4  10  19  31  49  73 101 135 171 209 256 310
#     4  11  22  32  45  69 102 135 169 213 260 304
#
# _framework density 17.199421999999998
#
# number of rings (size 3 to 8) (size 9 to 14) (size 15 to 20)
#    0.000    2.000    2.500    1.875    0.000    5.000 
#    0.000    0.625    0.000    2.250    0.000    0.000 
#    0.000    0.000    0.000    0.000    0.000    0.000 
#
# Total GULP energy -356799.237876 kJ/mol
# GULP energy per Si atom -5574.988092 kJ/mol
# Density = 1.716028 g / cm^3
# Si number density = 17.199422 Si / 1000 Ang^3
#
#
#
# Elastic Constant Matrix: (Units=GPa)
#
#
# Indices 1 2 3 4 5 6 
#
# 1 67.3336 26.2886 60.5419 0.0000 0.0000 0.0000
# 2 26.2886 60.0372 34.2293 0.0000 0.0000 0.0000
# 3 60.5419 34.2293 110.1111 0.0000 0.0000 0.0000
# 4 0.0000 0.0000 0.0000 26.0075 0.0000 0.0000
# 5 0.0000 0.0000 0.0000 0.0000 20.2744 0.0000
# 6 0.0000 0.0000 0.0000 0.0000 0.0000 8.1275
#
#
#
# Elastic Compliance Matrix: (Units=1/GPa)
#
#
# Indices 1 2 3 4 5 6 
#
# 1 0.030380 -0.004593 -0.015276 0.000000 0.000000 0.000000
# 2 -0.004593 0.020939 -0.003984 0.000000 0.000000 0.000000
# 3 -0.015276 -0.003984 0.018719 0.000000 0.000000 0.000000
# 4 0.000000 0.000000 0.000000 0.038450 0.000000 0.000000
# 5 0.000000 0.000000 0.000000 0.000000 0.049323 0.000000
# 6 0.000000 0.000000 0.000000 0.000000 0.000000 0.123039
#
#
# Mechanical properties :
#
#
# Convention : Reuss Voigt Hill
#
# Bulk Modulus (GPa) = 44.77777 53.28905 49.03341
# Shear Modulus (GPa) = 14.88099 18.64335 16.76217
#
# Velocity S-wave (km/s) = 2.94462 3.29591 3.12521
# Velocity P-wave (km/s) = 6.13613 6.74792 6.44928
#
# Compressibility (1/GPa) = 0.02233251
#
# Stress axis : x y z
#
# Youngs Moduli (GPa) = 32.91692 47.75829 53.42168
#
# Poissons Ratio (x) = 0.21936 0.81605
# Poissons Ratio (y) = 0.15119 0.21281
# Poissons Ratio (z) = 0.50282 0.19025
#
# Static dielectric constant tensor:
#      x y z
#    x 1.579110 0.000000 0.000000 
#    y 0.000000 1.591540 0.000000 
#    z 0.000000 0.000000 1.579650 
# 
# From -- ./inp_files/38180.got.cif
#   From: 2010.05.17/outbox.cif.g08.bks.cpg/sg53_20_cif.got.tgz:38180.got - 2010.06.03 12:45:16.
