data_PCOD9415179
_publ_section_title
;
Structure prediction by ZEFSAII (Michael W. Deem and Ramdas Pophale) SiO2 
 PCOD9415179
Probable space group: P M N A
;
_chemical_formula_sum "Si O2"
_cell_formula_units_Z 32
_cell_length_a 16.709374
_cell_length_b 11.323935
_cell_length_c 7.295146
_cell_angle_alpha 90.000000
_cell_angle_beta 90.000000
_cell_angle_gamma 90.000000
_cell_volume 1380.357361
_symmetry_space_group_name_H-M "P M N A"
_symmetry_group_IT_number 53
_symmetry_cell_setting 'orthorhombic'
loop_
_space_group_symop_operation_xyz
x,y,z
1/2-x,-y,1/2+z
x,-y,-z
1/2-x,y,1/2-z
-x,-y,-z
1/2+x,y,1/2-z
-x,y,z
1/2+x,-y,1/2+z
loop_
_atom_site_type_symbol
_atom_site_label
_atom_site_fract_x
_atom_site_fract_y
_atom_site_fract_z
Si Si1 0.593752 0.125523 0.695795
Si Si2 0.844561 0.119376 0.218358
Si Si3 0.346142 0.625894 0.718814
Si Si4 0.154682 0.629378 0.218605
O O1 0.500000 0.126329 0.658283
O O2 0.639204 0.123598 0.500234
O O3 0.618206 0.248446 0.789164
O O4 0.616562 0.001563 0.788305
O O5 0.750000 0.112650 0.250000
O O6 0.875441 0.246841 0.288834
O O7 0.250000 0.625814 0.750000
O O8 0.374808 0.498332 0.789485
O O9 0.360190 0.626405 0.500149
O O10 0.250000 0.635048 0.250000
#
# Coordination Sequence:
#
# PCOD9415179 Si02
#       4
#     8   8   8   8
#     4  10  19  30  44  70  99 121 148 194 241 278
#     4   9  16  28  45  64  87 121 156 187 226 277
#     4   8  15  27  44  69  93 115 152 198 235 269
#     4   9  16  28  46  69  92 120 156 193 230 276
#
# _framework density 23.182403999999998
#
# number of rings (size 3 to 8) (size 9 to 14) (size 15 to 20)
#    0.000    3.000    0.000    2.250    0.000    0.000 
#    0.000   11.250    0.000    0.000    0.000  136.500 
#    0.000    0.000    0.000    0.000    0.000    0.000 
#
# Total GULP energy -178372.124319 kJ/mol
# GULP energy per Si atom -5574.128885 kJ/mol
# Density = 2.312964 g / cm^3
# Si number density = 23.182404 Si / 1000 Ang^3
#
#
#
# Elastic Constant Matrix: (Units=GPa)
#
#
# Indices 1 2 3 4 5 6 
#
# 1 73.0186 46.7058 10.7717 0.0000 0.0000 0.0000
# 2 46.7058 332.8624 20.5567 0.0000 0.0000 0.0000
# 3 10.7717 20.5567 101.4158 0.0000 0.0000 0.0000
# 4 0.0000 0.0000 0.0000 -26.7477 0.0000 0.0000
# 5 0.0000 0.0000 0.0000 0.0000 20.2883 0.0000
# 6 0.0000 0.0000 0.0000 0.0000 0.0000 -50.6612
#
#
#
# Elastic Compliance Matrix: (Units=1/GPa)
#
#
# Indices 1 2 3 4 5 6 
#
# 1 0.015187 -0.002057 -0.001196 0.000000 0.000000 0.000000
# 2 -0.002057 0.003321 -0.000455 0.000000 0.000000 0.000000
# 3 -0.001196 -0.000455 0.010080 0.000000 0.000000 0.000000
# 4 0.000000 0.000000 0.000000 -0.037386 0.000000 0.000000
# 5 0.000000 0.000000 0.000000 0.000000 0.049290 0.000000
# 6 0.000000 0.000000 0.000000 0.000000 0.000000 -0.019739
#
#
# Mechanical properties :
#
#
# Convention : Reuss Voigt Hill
#
# Bulk Modulus (GPa) = 47.23194 73.70724 60.46959
# Shear Modulus (GPa) = 141.94282 17.19339 79.56811
#
# Velocity S-wave (km/s) = 7.83337 2.72629 5.86491
# Velocity P-wave (km/s) = 10.11107 6.46326 8.48550
#
# Compressibility (1/GPa) = 0.02117211
#
# Stress axis : x y z
#
# Youngs Moduli (GPa) = 65.84391 301.11648 99.21034
#
# Poissons Ratio (x) = 0.61945 0.11867
# Poissons Ratio (y) = 0.13545 0.04511
# Poissons Ratio (z) = 0.07876 0.13690
#
# Static dielectric constant tensor:
#      x y z
#    x 1.787760 0.000000 0.000000 
#    y 0.000000 2.005330 0.000000 
#    z 0.000000 0.000000 1.827470 
# 
# From -- ./inp_files/7991.got.cif
#   From: 2010.05.17/outbox.cif.g08.bks.cpg/sg53_4_cif.got.tgz:7991.got - 2010.06.03 12:45:16.
