data_PCOD9415881
_publ_section_title
;
Structure prediction by ZEFSAII (Michael W. Deem and Ramdas Pophale) SiO2 
 PCOD9415881
Probable space group: P M N A
;
_chemical_formula_sum "Si O2"
_cell_formula_units_Z 64
_cell_length_a 7.852433
_cell_length_b 18.688724
_cell_length_c 21.924632
_cell_angle_alpha 90.000000
_cell_angle_beta 90.000000
_cell_angle_gamma 90.000000
_cell_volume 3217.482566
_symmetry_space_group_name_H-M "P M N A"
_symmetry_group_IT_number 53
_symmetry_cell_setting 'orthorhombic'
loop_
_space_group_symop_operation_xyz
x,y,z
1/2-x,-y,1/2+z
x,-y,-z
1/2-x,y,1/2-z
-x,-y,-z
1/2+x,y,1/2-z
-x,y,z
1/2+x,-y,1/2+z
loop_
_atom_site_type_symbol
_atom_site_label
_atom_site_fract_x
_atom_site_fract_y
_atom_site_fract_z
Si Si1 0.805573 0.411479 0.337003
Si Si2 0.208404 0.060250 0.451863
Si Si3 0.804630 0.744820 0.853228
Si Si4 0.305527 0.099432 0.181007
Si Si5 0.694410 0.324854 0.918090
Si Si6 0.801529 0.420512 0.026353
Si Si7 0.205439 0.569379 0.315785
Si Si8 0.206589 0.780304 0.511959
O O1 0.730463 0.332978 0.324348
O O2 0.792306 0.418914 0.409709
O O3 0.725199 0.487555 0.317254
O O4 0.000000 0.409450 0.315523
O O5 0.271563 0.063558 0.380958
O O6 0.253869 0.137493 0.479410
O O7 0.000000 0.056654 0.449788
O O8 0.265372 0.000000 0.500000
O O9 0.705812 0.814194 0.828672
O O10 0.768395 0.741457 0.926076
O O11 0.000000 0.762605 0.843285
O O12 0.250000 0.082946 0.250000
O O13 0.500000 0.077839 0.178892
O O14 0.500000 0.309416 0.898918
O O15 0.773506 0.375412 0.866334
O O16 0.700826 0.374190 0.977780
O O17 0.770301 0.253242 0.948221
O O18 0.000000 0.397184 0.033354
O O19 0.805651 0.500000 0.000000
O O20 0.250000 0.599113 0.250000
O O21 0.000000 0.563569 0.324739
O O22 0.000000 0.774973 0.511960
#
# Coordination Sequence:
#
# PCOD9415881 Si02
#       8
#     8   8   8   8   8   8   8   8
#     4  11  21  34  50  69  97 134 174 216 263 317
#     4   8  15  30  54  84 113 140 175 217 259 307
#     4  11  21  32  49  76 108 138 171 214 261 312
#     4  10  20  35  55  79 109 148 186 220 263 316
#     4  10  19  33  52  72  95 127 167 211 260 313
#     4  11  21  30  46  75 101 125 162 211 265 311
#     4  10  23  38  51  66  88 127 173 218 266 312
#     4   9  17  30  52  79 105 134 168 209 257 314
#
# _framework density 19.891328000000001
#
# number of rings (size 3 to 8) (size 9 to 14) (size 15 to 20)
#    0.000    2.000    2.500    3.000    0.000    2.500 
#    0.000    1.250    0.000   10.125    0.000    0.000 
#    0.000    0.000    0.000    0.000    0.000    0.000 
#
# Total GULP energy -356604.323650 kJ/mol
# GULP energy per Si atom -5571.942557 kJ/mol
# Density = 1.984605 g / cm^3
# Si number density = 19.891328 Si / 1000 Ang^3
#
#
#
# Elastic Constant Matrix: (Units=GPa)
#
#
# Indices 1 2 3 4 5 6 
#
# 1 30.0175 7.3085 -6.7985 0.0000 0.0000 0.0000
# 2 7.3085 93.7741 59.8962 0.0000 0.0000 0.0000
# 3 -6.7985 59.8962 141.4183 0.0000 0.0000 0.0000
# 4 0.0000 0.0000 0.0000 1.2358 0.0000 0.0000
# 5 0.0000 0.0000 0.0000 0.0000 14.7254 0.0000
# 6 0.0000 0.0000 0.0000 0.0000 0.0000 7.0987
#
#
#
# Elastic Compliance Matrix: (Units=1/GPa)
#
#
# Indices 1 2 3 4 5 6 
#
# 1 0.035495 -0.005286 0.003945 0.000000 0.000000 0.000000
# 2 -0.005286 0.015406 -0.006779 0.000000 0.000000 0.000000
# 3 0.003945 -0.006779 0.010132 0.000000 0.000000 0.000000
# 4 0.000000 0.000000 0.000000 0.809175 0.000000 0.000000
# 5 0.000000 0.000000 0.000000 0.000000 0.067910 0.000000
# 6 0.000000 0.000000 0.000000 0.000000 0.000000 0.140871
#
#
# Mechanical properties :
#
#
# Convention : Reuss Voigt Hill
#
# Bulk Modulus (GPa) = 22.32525 42.89136 32.60831
# Shear Modulus (GPa) = 4.50386 18.26557 11.38471
#
# Velocity S-wave (km/s) = 1.50637 3.03358 2.39497
# Velocity P-wave (km/s) = 3.77803 5.82064 4.90680
#
# Compressibility (1/GPa) = 0.04479234
#
# Stress axis : x y z
#
# Youngs Moduli (GPa) = 28.17332 64.90989 98.69589
#
# Poissons Ratio (x) = 0.34314 -0.38939
# Poissons Ratio (y) = 0.14893 0.66908
# Poissons Ratio (z) = -0.11115 0.44004
#
# Static dielectric constant tensor:
#      x y z
#    x 1.735970 0.000000 0.000000 
#    y 0.000000 1.746530 0.000000 
#    z 0.000000 0.000000 1.741730 
# 
# From -- ./inp_files/34431.got.cif
#   From: 2010.05.17/outbox.cif.g08.bks.cpg/sg53_18_cif.got.tgz:34431.got - 2010.06.03 12:45:16.
