data_PCOD9415035
_publ_section_title
;
Structure prediction by ZEFSAII (Michael W. Deem and Ramdas Pophale) SiO2 
 PCOD9415035
Probable space group: P M N A
;
_chemical_formula_sum "Si O2"
_cell_formula_units_Z 64
_cell_length_a 8.172893
_cell_length_b 12.365251
_cell_length_c 32.399399
_cell_angle_alpha 90.000000
_cell_angle_beta 90.000000
_cell_angle_gamma 90.000000
_cell_volume 3274.279159
_symmetry_space_group_name_H-M "P M N A"
_symmetry_group_IT_number 53
_symmetry_cell_setting 'orthorhombic'
loop_
_space_group_symop_operation_xyz
x,y,z
1/2-x,-y,1/2+z
x,-y,-z
1/2-x,y,1/2-z
-x,-y,-z
1/2+x,y,1/2-z
-x,y,z
1/2+x,-y,1/2+z
loop_
_atom_site_type_symbol
_atom_site_label
_atom_site_fract_x
_atom_site_fract_y
_atom_site_fract_z
Si Si1 0.301918 0.871095 0.873733
Si Si2 0.803536 0.261826 0.795983
Si Si3 0.803267 0.621583 0.513440
Si Si4 0.812872 0.231316 0.941398
Si Si5 0.306802 0.396267 0.872575
Si Si6 0.698267 0.635015 0.890245
Si Si7 0.190503 0.001001 0.546661
Si Si8 0.695351 0.013012 0.703869
O O1 0.500000 0.870797 0.876018
O O2 0.243310 0.747107 0.870726
O O3 0.255036 0.939445 0.833615
O O4 0.241353 0.925174 0.916788
O O5 0.750000 0.291488 0.750000
O O6 0.724226 0.340110 0.829147
O O7 0.000000 0.266014 0.799828
O O8 0.748829 0.137329 0.802816
O O9 0.757110 0.500000 0.500000
O O10 0.720782 0.710193 0.484714
O O11 0.764279 0.637705 0.561153
O O12 0.000000 0.631104 0.508057
O O13 0.775081 0.320756 0.906956
O O14 0.704369 0.124251 0.937842
O O15 0.000000 0.196244 0.937886
O O16 0.500000 0.398880 0.882368
O O17 0.243733 0.519483 0.873427
O O18 0.500000 0.634575 0.886366
O O19 0.000000 0.968967 0.541983
O O20 0.262696 0.000000 0.500000
O O21 0.750000 0.979600 0.750000
O O22 0.500000 0.013519 0.703532
#
# Coordination Sequence:
#
# PCOD9415035 Si02
#       8
#     8   8   8   8   8   8   8   8
#     4  10  20  36  59  85 114 148 191 241 290 339
#     4  10  21  38  60  88 117 145 178 226 284 341
#     4  10  18  35  59  79 105 148 199 242 280 329
#     4  12  24  35  52  82 118 149 185 235 289 342
#     4  11  21  37  59  83 111 147 190 231 276 332
#     4   9  19  36  58  83 110 146 192 239 282 330
#     4  10  21  38  60  83 111 152 200 242 284 343
#     4  10  21  38  61  87 115 145 184 231 285 345
#
# _framework density 19.546288000000001
#
# number of rings (size 3 to 8) (size 9 to 14) (size 15 to 20)
#    0.000    1.750    1.250    3.750    0.000    6.500 
#    0.000    3.750    0.000    0.000    0.000    0.000 
#    0.000    0.000    0.000    0.000    0.000    0.000 
#
# Total GULP energy -357488.265869 kJ/mol
# GULP energy per Si atom -5585.754154 kJ/mol
# Density = 1.950180 g / cm^3
# Si number density = 19.546288 Si / 1000 Ang^3
#
#
#
# Elastic Constant Matrix: (Units=GPa)
#
#
# Indices 1 2 3 4 5 6 
#
# 1 16.5183 -6.4236 1.7919 0.0000 0.0000 0.0000
# 2 -6.4236 112.5722 71.1870 0.0000 0.0000 0.0000
# 3 1.7919 71.1870 115.9720 0.0000 0.0000 0.0000
# 4 0.0000 0.0000 0.0000 189.9227 0.0000 0.0000
# 5 0.0000 0.0000 0.0000 0.0000 24.6328 0.0000
# 6 0.0000 0.0000 0.0000 0.0000 0.0000 6.1974
#
#
#
# Elastic Compliance Matrix: (Units=1/GPa)
#
#
# Indices 1 2 3 4 5 6 
#
# 1 0.063821 0.006971 -0.005265 0.000000 0.000000 0.000000
# 2 0.006971 0.015280 -0.009487 0.000000 0.000000 0.000000
# 3 -0.005265 -0.009487 0.014528 0.000000 0.000000 0.000000
# 4 0.000000 0.000000 0.000000 0.005265 0.000000 0.000000
# 5 0.000000 0.000000 0.000000 0.000000 0.040596 0.000000
# 6 0.000000 0.000000 0.000000 0.000000 0.000000 0.161359
#
#
# Mechanical properties :
#
#
# Convention : Reuss Voigt Hill
#
# Bulk Modulus (GPa) = 12.80951 42.01920 27.41436
# Shear Modulus (GPa) = 14.60132 56.05107 35.32619
#
# Velocity S-wave (km/s) = 2.73612 5.36081 4.25586
# Velocity P-wave (km/s) = 4.06810 7.73704 6.18107
#
# Compressibility (1/GPa) = 0.07806700
#
# Stress axis : x y z
#
# Youngs Moduli (GPa) = 15.66875 65.44310 68.83397
#
# Poissons Ratio (x) = -0.45623 0.36244
# Poissons Ratio (y) = -0.10923 0.65305
# Poissons Ratio (z) = 0.08250 0.62088
#
# Static dielectric constant tensor:
#      x y z
#    x 1.708400 0.000000 0.000000 
#    y 0.000000 1.687420 0.000000 
#    z 0.000000 0.000000 1.671120 
# 
# From -- ./inp_files/38229.got.cif
#   From: 2010.05.17/outbox.cif.g08.bks.cpg/sg53_20_cif.got.tgz:38229.got - 2010.06.03 12:45:16.
