data_PCOD9415462
_publ_section_title
;
Structure prediction by ZEFSAII (Michael W. Deem and Ramdas Pophale) SiO2 
 PCOD9415462
Probable space group: P M N A
;
_chemical_formula_sum "Si O2"
_cell_formula_units_Z 56
_cell_length_a 7.862317
_cell_length_b 19.703996
_cell_length_c 17.375765
_cell_angle_alpha 90.000000
_cell_angle_beta 90.000000
_cell_angle_gamma 90.000000
_cell_volume 2691.837228
_symmetry_space_group_name_H-M "P M N A"
_symmetry_group_IT_number 53
_symmetry_cell_setting 'orthorhombic'
loop_
_space_group_symop_operation_xyz
x,y,z
1/2-x,-y,1/2+z
x,-y,-z
1/2-x,y,1/2-z
-x,-y,-z
1/2+x,y,1/2-z
-x,y,z
1/2+x,-y,1/2+z
loop_
_atom_site_type_symbol
_atom_site_label
_atom_site_fract_x
_atom_site_fract_y
_atom_site_fract_z
Si Si1 0.298361 0.329754 0.663177
Si Si2 0.203055 0.157306 0.164227
Si Si3 0.198248 0.718312 0.571374
Si Si4 0.195839 0.795986 0.077349
Si Si5 0.704183 0.592791 0.835663
Si Si6 0.208119 0.923217 0.987403
Si Si7 0.704850 0.464500 0.920894
O O1 0.250000 0.348740 0.750000
O O2 0.500000 0.323144 0.660468
O O3 0.224754 0.255951 0.638834
O O4 0.252970 0.388671 0.602573
O O5 0.250000 0.135831 0.250000
O O6 0.287695 0.228877 0.141904
O O7 0.000000 0.165918 0.159430
O O8 0.255493 0.105367 0.096708
O O9 0.298187 0.752061 0.501446
O O10 0.265634 0.646545 0.601110
O O11 0.000000 0.711911 0.548466
O O12 0.269970 0.868514 0.051073
O O13 0.000000 0.809050 0.099424
O O14 0.750000 0.613468 0.750000
O O15 0.500000 0.593789 0.841723
O O16 0.762987 0.516971 0.854834
O O17 0.000000 0.922545 0.990399
O O18 0.264922 0.000000 0.000000
O O19 0.500000 0.464360 0.924507
O O20 0.764515 0.500000 0.000000
#
# Coordination Sequence:
#
# PCOD9415462 Si02
#       7
#     8   8   8   8   8   8   8
#     4  11  23  38  56  79 108 142 183 229 274 321
#     4  10  19  31  49  75 106 138 173 212 256 310
#     4  10  19  32  52  76 102 134 170 207 254 310
#     4   9  19  35  55  79 104 133 172 214 257 311
#     4  10  21  33  47  70  98 129 163 203 251 301
#     4   8  15  31  55  78 101 134 173 212 258 313
#     4  10  21  38  57  76 101 134 175 222 272 323
#
# _framework density 20.803633000000001
#
# number of rings (size 3 to 8) (size 9 to 14) (size 15 to 20)
#    0.000    2.286    0.000    3.857    0.000    6.571 
#    0.000    0.714    0.000   10.714    0.000    0.000 
#    0.000    0.000    0.000    0.000    0.000    0.000 
#
# Total GULP energy -312442.331184 kJ/mol
# GULP energy per Si atom -5579.327343 kJ/mol
# Density = 2.075628 g / cm^3
# Si number density = 20.803633 Si / 1000 Ang^3
#
#
#
# Elastic Constant Matrix: (Units=GPa)
#
#
# Indices 1 2 3 4 5 6 
#
# 1 31.8251 3.2695 -1.9029 0.0000 0.0000 0.0000
# 2 3.2695 141.9413 28.8133 0.0000 0.0000 0.0000
# 3 -1.9029 28.8133 68.3090 0.0000 0.0000 0.0000
# 4 0.0000 0.0000 0.0000 24.2506 0.0000 0.0000
# 5 0.0000 0.0000 0.0000 0.0000 15.2822 0.0000
# 6 0.0000 0.0000 0.0000 0.0000 0.0000 5.0964
#
#
#
# Elastic Compliance Matrix: (Units=1/GPa)
#
#
# Indices 1 2 3 4 5 6 
#
# 1 0.031601 -0.000992 0.001299 0.000000 0.000000 0.000000
# 2 -0.000992 0.007736 -0.003291 0.000000 0.000000 0.000000
# 3 0.001299 -0.003291 0.016064 0.000000 0.000000 0.000000
# 4 0.000000 0.000000 0.000000 0.041236 0.000000 0.000000
# 5 0.000000 0.000000 0.000000 0.000000 0.065436 0.000000
# 6 0.000000 0.000000 0.000000 0.000000 0.000000 0.196216
#
#
# Mechanical properties :
#
#
# Convention : Reuss Voigt Hill
#
# Bulk Modulus (GPa) = 20.22923 33.60393 26.91658
# Shear Modulus (GPa) = 13.13255 23.05221 18.09238
#
# Velocity S-wave (km/s) = 2.51522 3.33240 2.95222
# Velocity P-wave (km/s) = 4.26381 5.56727 4.95856
#
# Compressibility (1/GPa) = 0.04943341
#
# Stress axis : x y z
#
# Youngs Moduli (GPa) = 31.64433 129.26562 62.25260
#
# Poissons Ratio (x) = 0.12817 -0.08084
# Poissons Ratio (y) = 0.03138 0.20486
# Poissons Ratio (z) = -0.04109 0.42538
#
# Static dielectric constant tensor:
#      x y z
#    x 1.761900 0.000000 0.000000 
#    y 0.000000 1.768520 0.000000 
#    z 0.000000 0.000000 1.770730 
# 
# From -- ./inp_files/20530.got.cif
#   From: 2010.05.17/outbox.cif.g08.bks.cpg/sg53_11_cif.got.tgz:20530.got - 2010.06.03 12:45:16.
