data_PCOD9415126
_publ_section_title
;
Structure prediction by ZEFSAII (Michael W. Deem and Ramdas Pophale) SiO2 
 PCOD9415126
Probable space group: P M N A
;
_chemical_formula_sum "Si O2"
_cell_formula_units_Z 64
_cell_length_a 8.145708
_cell_length_b 18.991617
_cell_length_c 24.205456
_cell_angle_alpha 90.000000
_cell_angle_beta 90.000000
_cell_angle_gamma 90.000000
_cell_volume 3744.588074
_symmetry_space_group_name_H-M "P M N A"
_symmetry_group_IT_number 53
_symmetry_cell_setting 'orthorhombic'
loop_
_space_group_symop_operation_xyz
x,y,z
1/2-x,-y,1/2+z
x,-y,-z
1/2-x,y,1/2-z
-x,-y,-z
1/2+x,y,1/2-z
-x,y,z
1/2+x,-y,1/2+z
loop_
_atom_site_type_symbol
_atom_site_label
_atom_site_fract_x
_atom_site_fract_y
_atom_site_fract_z
Si Si1 0.700676 0.082435 0.000786
Si Si2 0.196543 0.422025 0.314236
Si Si3 0.198745 0.728004 0.314089
Si Si4 0.200843 0.136950 0.617559
Si Si5 0.802653 0.865589 0.619406
Si Si6 0.198066 0.426435 0.685801
Si Si7 0.806691 0.730135 0.814021
Si Si8 0.801981 0.999047 0.313076
O O1 0.500000 0.081915 0.000604
O O2 0.753365 0.122297 0.945208
O O3 0.755775 0.120361 0.056967
O O4 0.750216 0.000000 0.000000
O O5 0.250000 0.422385 0.250000
O O6 0.254267 0.497821 0.337930
O O7 0.259738 0.347561 0.336025
O O8 0.000000 0.420165 0.316581
O O9 0.250000 0.737856 0.250000
O O10 0.256646 0.791405 0.352974
O O11 0.254843 0.650309 0.334405
O O12 0.000000 0.728294 0.314677
O O13 0.253275 0.070019 0.653982
O O14 0.000000 0.138147 0.617509
O O15 0.760583 0.792019 0.647671
O O16 0.000000 0.870485 0.617734
O O17 0.741545 0.930047 0.657337
O O18 0.250000 0.426951 0.750000
O O19 0.000000 0.426773 0.682839
O O20 0.750000 0.737200 0.750000
O O21 0.000000 0.735678 0.812962
O O22 0.750000 0.996482 0.250000
O O23 0.000000 0.999637 0.315487
#
# Coordination Sequence:
#
# PCOD9415126 Si02
#       8
#     8   8   8   8   8   8   8   8
#     4   9  15  28  49  69  86 111 153 199 232 263
#     4   9  15  25  41  61  87 117 149 178 212 259
#     4   9  16  26  41  64  95 123 148 179 221 267
#     4   9  16  27  44  66  89 115 149 189 225 259
#     4  10  19  31  48  67  88 116 152 191 229 266
#     4   8  14  23  37  59  87 119 147 175 211 259
#     4  11  21  32  46  66  94 121 148 182 224 270
#     4  10  19  29  43  64  89 117 147 179 218 265
#
# _framework density 17.091332999999999
#
# number of rings (size 3 to 8) (size 9 to 14) (size 15 to 20)
#    0.000    2.625    1.250    3.000    0.000    2.000 
#    0.000    0.000    0.000    1.875    0.000    0.875 
#    0.000    7.000    0.000    0.000    0.000    0.000 
#
# Total GULP energy -356455.602432 kJ/mol
# GULP energy per Si atom -5569.618788 kJ/mol
# Density = 1.705243 g / cm^3
# Si number density = 17.091333 Si / 1000 Ang^3
#
#
#
# Elastic Constant Matrix: (Units=GPa)
#
#
# Indices 1 2 3 4 5 6 
#
# 1 8.9122 7.7981 12.0733 0.0000 0.0000 0.0000
# 2 7.7981 185.3703 78.2665 0.0000 0.0000 0.0000
# 3 12.0733 78.2665 107.3668 0.0000 0.0000 0.0000
# 4 0.0000 0.0000 0.0000 3.8985 0.0000 0.0000
# 5 0.0000 0.0000 0.0000 0.0000 12.6335 0.0000
# 6 0.0000 0.0000 0.0000 0.0000 0.0000 8.9542
#
#
#
# Elastic Compliance Matrix: (Units=1/GPa)
#
#
# Indices 1 2 3 4 5 6 
#
# 1 0.132507 0.001036 -0.015655 0.000000 0.000000 0.000000
# 2 0.001036 0.007801 -0.005803 0.000000 0.000000 0.000000
# 3 -0.015655 -0.005803 0.015305 0.000000 0.000000 0.000000
# 4 0.000000 0.000000 0.000000 0.256508 0.000000 0.000000
# 5 0.000000 0.000000 0.000000 0.000000 0.079155 0.000000
# 6 0.000000 0.000000 0.000000 0.000000 0.000000 0.111679
#
#
# Mechanical properties :
#
#
# Convention : Reuss Voigt Hill
#
# Bulk Modulus (GPa) = 8.71327 55.32501 32.01914
# Shear Modulus (GPa) = 7.33078 18.66468 12.99773
#
# Velocity S-wave (km/s) = 2.07328 3.30821 2.76068
# Velocity P-wave (km/s) = 3.29248 6.85805 5.37928
#
# Compressibility (1/GPa) = 0.11476749
#
# Stress axis : x y z
#
# Youngs Moduli (GPa) = 7.54675 128.18368 65.33946
#
# Poissons Ratio (x) = -0.13275 1.02290
# Poissons Ratio (y) = -0.00782 0.37919
# Poissons Ratio (z) = 0.11815 0.74389
#
# Static dielectric constant tensor:
#      x y z
#    x 1.608020 0.000000 0.000000 
#    y 0.000000 1.631960 0.000000 
#    z 0.000000 0.000000 1.516660 
# 
# From -- ./inp_files/34448.got.cif
#   From: 2010.05.17/outbox.cif.g08.bks.cpg/sg53_18_cif.got.tgz:34448.got - 2010.06.03 12:45:16.
