data_PCOD9415728
_publ_section_title
;
Structure prediction by ZEFSAII (Michael W. Deem and Ramdas Pophale) SiO2 
 PCOD9415728
Probable space group: P M N A
;
_chemical_formula_sum "Si O2"
_cell_formula_units_Z 48
_cell_length_a 8.957364
_cell_length_b 11.211756
_cell_length_c 23.982071
_cell_angle_alpha 90.000000
_cell_angle_beta 90.000000
_cell_angle_gamma 90.000000
_cell_volume 2408.466140
_symmetry_space_group_name_H-M "P M N A"
_symmetry_group_IT_number 53
_symmetry_cell_setting 'orthorhombic'
loop_
_space_group_symop_operation_xyz
x,y,z
1/2-x,-y,1/2+z
x,-y,-z
1/2-x,y,1/2-z
-x,-y,-z
1/2+x,y,1/2-z
-x,y,z
1/2+x,-y,1/2+z
loop_
_atom_site_type_symbol
_atom_site_label
_atom_site_fract_x
_atom_site_fract_y
_atom_site_fract_z
Si Si1 0.679443 0.800353 0.090589
Si Si2 0.178527 0.566203 0.878967
Si Si3 0.177527 0.194398 0.189801
Si Si4 0.820595 0.306606 0.478291
Si Si5 0.179177 0.328852 0.811250
Si Si6 0.178160 0.069484 0.409221
O O1 0.500000 0.789087 0.097226
O O2 0.759542 0.774565 0.148647
O O3 0.709851 0.935724 0.070967
O O4 0.728451 0.708251 0.042262
O O5 0.215883 0.680001 0.840084
O O6 0.252552 0.592213 0.938789
O O7 0.223757 0.449199 0.844826
O O8 0.000000 0.562878 0.886502
O O9 0.250000 0.188309 0.250000
O O10 0.240393 0.093882 0.148858
O O11 0.000000 0.186642 0.194071
O O12 0.781409 0.178909 0.449693
O O13 0.000000 0.318699 0.477818
O O14 0.250000 0.326563 0.750000
O O15 0.000000 0.325288 0.806913
O O16 0.000000 0.077551 0.401055
#
# Coordination Sequence:
#
# PCOD9415728 Si02
#       6
#     8   8   8   8   8   8
#     4  10  21  37  57  82 112 145 181 220 263 316
#     4   9  20  37  56  80 109 140 176 223 275 323
#     4  10  19  32  52  78 106 137 178 226 275 324
#     4   9  18  34  59  87 111 139 177 221 268 318
#     4  11  24  41  59  79 107 145 186 225 268 318
#     4   9  18  34  55  79 109 144 180 220 267 317
#
# _framework density 19.929697000000001
#
# number of rings (size 3 to 8) (size 9 to 14) (size 15 to 20)
#    0.000    2.333    0.000    2.000    0.000    6.667 
#    0.000    3.333    0.000    5.000    0.000    0.000 
#    0.000    0.000    0.000    0.000    0.000    0.000 
#
# Total GULP energy -267977.765432 kJ/mol
# GULP energy per Si atom -5582.870113 kJ/mol
# Density = 1.988434 g / cm^3
# Si number density = 19.929697 Si / 1000 Ang^3
#
#
#
# Elastic Constant Matrix: (Units=GPa)
#
#
# Indices 1 2 3 4 5 6 
#
# 1 11.1810 18.0983 30.4829 0.0000 0.0000 0.0000
# 2 18.0983 54.4575 22.7508 0.0000 0.0000 0.0000
# 3 30.4829 22.7508 119.1531 0.0000 0.0000 0.0000
# 4 0.0000 0.0000 0.0000 21.9874 0.0000 0.0000
# 5 0.0000 0.0000 0.0000 0.0000 25.3409 0.0000
# 6 0.0000 0.0000 0.0000 0.0000 0.0000 36.2843
#
#
#
# Elastic Compliance Matrix: (Units=1/GPa)
#
#
# Indices 1 2 3 4 5 6 
#
# 1 2.670463 -0.654272 -0.558259 0.000000 0.000000 0.000000
# 2 -0.654272 0.180253 0.132965 0.000000 0.000000 0.000000
# 3 -0.558259 0.132965 0.125824 0.000000 0.000000 0.000000
# 4 0.000000 0.000000 0.000000 0.045481 0.000000 0.000000
# 5 0.000000 0.000000 0.000000 0.000000 0.039462 0.000000
# 6 0.000000 0.000000 0.000000 0.000000 0.000000 0.027560
#
#
# Mechanical properties :
#
#
# Convention : Reuss Voigt Hill
#
# Bulk Modulus (GPa) = 1.22338 36.38396 18.80367
# Shear Modulus (GPa) = 0.90569 24.28651 12.59610
#
# Velocity S-wave (km/s) = 0.67486 3.49465 2.51674
# Velocity P-wave (km/s) = 1.10563 5.88041 4.23093
#
# Compressibility (1/GPa) = 0.81740880
#
# Stress axis : x y z
#
# Youngs Moduli (GPa) = 0.37447 5.54775 7.94762
#
# Poissons Ratio (x) = 3.62973 4.43683
# Poissons Ratio (y) = 0.24500 -1.05676
# Poissons Ratio (z) = 0.20905 -0.73766
#
# Static dielectric constant tensor:
#      x y z
#    x 1.658500 0.000000 0.000000 
#    y 0.000000 1.738370 0.000000 
#    z 0.000000 0.000000 1.687020 
# 
# From -- ./inp_files/33909.got.cif
#   From: 2010.05.17/outbox.cif.g08.bks.cpg/sg53_17_cif.got.tgz:33909.got - 2010.06.03 12:45:16.
