data_PCOD9415584
_publ_section_title
;
Structure prediction by ZEFSAII (Michael W. Deem and Ramdas Pophale) SiO2 
 PCOD9415584
Probable space group: P M N A
;
_chemical_formula_sum "Si O2"
_cell_formula_units_Z 56
_cell_length_a 9.084375
_cell_length_b 18.578737
_cell_length_c 19.608875
_cell_angle_alpha 90.000000
_cell_angle_beta 90.000000
_cell_angle_gamma 90.000000
_cell_volume 3309.511682
_symmetry_space_group_name_H-M "P M N A"
_symmetry_group_IT_number 53
_symmetry_cell_setting 'orthorhombic'
loop_
_space_group_symop_operation_xyz
x,y,z
1/2-x,-y,1/2+z
x,-y,-z
1/2-x,y,1/2-z
-x,-y,-z
1/2+x,y,1/2-z
-x,y,z
1/2+x,-y,1/2+z
loop_
_atom_site_type_symbol
_atom_site_label
_atom_site_fract_x
_atom_site_fract_y
_atom_site_fract_z
Si Si1 0.330937 0.353176 0.420074
Si Si2 0.676864 0.793226 0.929840
Si Si3 0.331355 0.640827 0.413938
Si Si4 0.331256 0.502459 0.916796
Si Si5 0.177099 0.918290 0.324066
Si Si6 0.324441 0.916299 0.822673
Si Si7 0.177900 0.801505 0.078212
O O1 0.500000 0.344139 0.398816
O O2 0.234357 0.283596 0.402388
O O3 0.329825 0.357117 0.503080
O O4 0.263867 0.428553 0.395503
O O5 0.500000 0.791359 0.938365
O O6 0.717525 0.857381 0.878575
O O7 0.754688 0.805615 0.002490
O O8 0.500000 0.628237 0.393009
O O9 0.232630 0.573744 0.392383
O O10 0.285611 0.721337 0.393325
O O11 0.500000 0.511719 0.896558
O O12 0.326931 0.500000 0.000000
O O13 0.250000 0.907640 0.250000
O O14 0.250546 0.862848 0.375901
O O15 0.000000 0.909010 0.321120
O O16 0.208658 0.001431 0.344100
O O17 0.250000 0.902873 0.750000
O O18 0.500000 0.911896 0.813658
O O19 0.000000 0.806609 0.075414
#
# Coordination Sequence:
#
# PCOD9415584 Si02
#       7
#     8   8   8   8   8   8   8
#     4   9  16  26  40  61  91 126 160 195 238 285
#     4  10  19  32  49  72 101 130 162 203 248 291
#     4   8  15  26  39  58  89 124 157 194 235 280
#     4   9  15  22  36  59  87 121 159 195 234 280
#     4  10  20  36  55  74  97 127 163 203 245 291
#     4   9  20  36  54  74  97 127 163 203 246 292
#     4  10  20  33  49  73 102 132 164 200 245 293
#
# _framework density 16.920926000000001
#
# number of rings (size 3 to 8) (size 9 to 14) (size 15 to 20)
#    0.000    2.714    0.000    3.000    0.000    8.000 
#    0.000    2.857    0.000    0.000    0.000    1.000 
#    0.000    2.286    0.000    0.000    0.000    0.000 
#
# Total GULP energy -312065.295248 kJ/mol
# GULP energy per Si atom -5572.594558 kJ/mol
# Density = 1.688241 g / cm^3
# Si number density = 16.920926 Si / 1000 Ang^3
#
#
#
# Elastic Constant Matrix: (Units=GPa)
#
#
# Indices 1 2 3 4 5 6 
#
# 1 87.4943 77.8456 33.1947 0.0000 0.0000 0.0000
# 2 77.8456 163.0161 62.1818 0.0000 0.0000 0.0000
# 3 33.1947 62.1818 35.2998 0.0000 0.0000 0.0000
# 4 0.0000 0.0000 0.0000 -7.4303 0.0000 0.0000
# 5 0.0000 0.0000 0.0000 0.0000 16.1080 0.0000
# 6 0.0000 0.0000 0.0000 0.0000 0.0000 31.3395
#
#
#
# Elastic Compliance Matrix: (Units=1/GPa)
#
#
# Indices 1 2 3 4 5 6 
#
# 1 0.020300 -0.007353 -0.006136 0.000000 0.000000 0.000000
# 2 -0.007353 0.021362 -0.030715 0.000000 0.000000 0.000000
# 3 -0.006136 -0.030715 0.088204 0.000000 0.000000 0.000000
# 4 0.000000 0.000000 0.000000 -0.134584 0.000000 0.000000
# 5 0.000000 0.000000 0.000000 0.000000 0.062081 0.000000
# 6 0.000000 0.000000 0.000000 0.000000 0.000000 0.031909
#
#
# Mechanical properties :
#
#
# Convention : Reuss Voigt Hill
#
# Bulk Modulus (GPa) = 24.12131 70.25047 47.18589
# Shear Modulus (GPa) = 26.10980 15.50931 20.80955
#
# Velocity S-wave (km/s) = 3.93243 3.03078 3.51067
# Velocity P-wave (km/s) = 5.90804 7.33857 6.66181
#
# Compressibility (1/GPa) = 0.04145712
#
# Stress axis : x y z
#
# Youngs Moduli (GPa) = 49.26216 46.81279 11.33731
#
# Poissons Ratio (x) = 0.34421 0.06957
# Poissons Ratio (y) = 0.36222 0.34822
# Poissons Ratio (z) = 0.30229 1.43785
#
# Static dielectric constant tensor:
#      x y z
#    x 1.566660 0.000000 0.000000 
#    y 0.000000 1.585370 0.000000 
#    z 0.000000 0.000000 1.540770 
# 
# From -- ./inp_files/30783.got.cif
#   From: 2010.05.17/outbox.cif.g08.bks.cpg/sg53_16_cif.got.tgz:30783.got - 2010.06.03 12:45:16.
