data_PCOD9415744
_publ_section_title
;
Structure prediction by ZEFSAII (Michael W. Deem and Ramdas Pophale) SiO2 
 PCOD9415744
Probable space group: P M N A
;
_chemical_formula_sum "Si O2"
_cell_formula_units_Z 64
_cell_length_a 7.699029
_cell_length_b 12.797725
_cell_length_c 30.124722
_cell_angle_alpha 90.000000
_cell_angle_beta 90.000000
_cell_angle_gamma 90.000000
_cell_volume 2968.190543
_symmetry_space_group_name_H-M "P M N A"
_symmetry_group_IT_number 53
_symmetry_cell_setting 'orthorhombic'
loop_
_space_group_symop_operation_xyz
x,y,z
1/2-x,-y,1/2+z
x,-y,-z
1/2-x,y,1/2-z
-x,-y,-z
1/2+x,y,1/2-z
-x,y,z
1/2+x,-y,1/2+z
loop_
_atom_site_type_symbol
_atom_site_label
_atom_site_fract_x
_atom_site_fract_y
_atom_site_fract_z
Si Si1 0.200690 0.639323 0.816109
Si Si2 0.704739 0.424491 0.087972
Si Si3 0.287346 0.056896 0.392670
Si Si4 0.797772 0.655413 0.394633
Si Si5 0.300359 0.856630 0.445191
Si Si6 0.708852 0.131003 0.298437
Si Si7 0.290197 0.231067 0.462525
Si Si8 0.792480 0.410306 0.798119
O O1 0.206898 0.629444 0.869445
O O2 0.278719 0.749545 0.801558
O O3 0.278738 0.529933 0.799511
O O4 0.000000 0.639961 0.801633
O O5 0.500000 0.429901 0.097855
O O6 0.767193 0.544165 0.085911
O O7 0.732139 0.349462 0.046286
O O8 0.500000 0.053372 0.391889
O O9 0.228949 0.068992 0.341827
O O10 0.237343 0.158280 0.421274
O O11 0.223981 0.954418 0.418625
O O12 0.702873 0.754910 0.414296
O O13 0.779664 0.646552 0.341483
O O14 0.000000 0.666636 0.406307
O O15 0.500000 0.886731 0.455037
O O16 0.223439 0.821455 0.492292
O O17 0.750000 0.087212 0.250000
O O18 0.500000 0.137095 0.302270
O O19 0.500000 0.232935 0.464107
O O20 0.750000 0.364798 0.750000
O O21 0.000000 0.414204 0.803676
#
# Coordination Sequence:
#
# PCOD9415744 Si02
#       8
#     8   8   8   8   8   8   8   8
#     4   9  17  31  51  77 111 147 178 218 270 325
#     4  10  20  33  53  81 113 147 180 220 273 332
#     4   9  18  36  59  82 111 143 181 229 278 328
#     4  10  22  39  55  76 113 153 187 229 279 330
#     4  10  21  37  60  84 104 141 193 237 276 331
#     4  10  19  32  52  79 112 145 176 215 267 326
#     4  10  19  35  60  86 111 139 180 230 285 341
#     4  10  19  32  54  82 111 144 187 232 276 331
#
# _framework density 21.561957
#
# number of rings (size 3 to 8) (size 9 to 14) (size 15 to 20)
#    0.000    2.250    1.250    1.875    0.000    5.000 
#    0.000    4.375    0.000    3.000    0.000    0.000 
#    0.000    0.000    0.000    0.000    0.000    0.000 
#
# Total GULP energy -357306.614705 kJ/mol
# GULP energy per Si atom -5582.915855 kJ/mol
# Density = 2.151288 g / cm^3
# Si number density = 21.561957 Si / 1000 Ang^3
#
#
#
# Elastic Constant Matrix: (Units=GPa)
#
#
# Indices 1 2 3 4 5 6 
#
# 1 43.9181 -2.3342 -6.9586 0.0000 0.0000 0.0000
# 2 -2.3342 61.8800 10.1133 0.0000 0.0000 0.0000
# 3 -6.9586 10.1133 74.8704 0.0000 0.0000 0.0000
# 4 0.0000 0.0000 0.0000 13.9959 0.0000 0.0000
# 5 0.0000 0.0000 0.0000 0.0000 19.3376 0.0000
# 6 0.0000 0.0000 0.0000 0.0000 0.0000 -0.4042
#
#
#
# Elastic Compliance Matrix: (Units=1/GPa)
#
#
# Indices 1 2 3 4 5 6 
#
# 1 0.023127 0.000533 0.002078 0.000000 0.000000 0.000000
# 2 0.000533 0.016537 -0.002184 0.000000 0.000000 0.000000
# 3 0.002078 -0.002184 0.013845 0.000000 0.000000 0.000000
# 4 0.000000 0.000000 0.000000 0.071450 0.000000 0.000000
# 5 0.000000 0.000000 0.000000 0.000000 0.051713 0.000000
# 6 0.000000 0.000000 0.000000 0.000000 0.000000 -2.473840
#
#
# Mechanical properties :
#
#
# Convention : Reuss Voigt Hill
#
# Bulk Modulus (GPa) = 18.39546 20.25660 19.32603
# Shear Modulus (GPa) = -2.19308 18.57571 8.19132
#
# Velocity S-wave (km/s) = -1.00961 2.93832 1.95121
# Velocity P-wave (km/s) = 2.68158 4.57457 3.74950
#
# Compressibility (1/GPa) = 0.05436123
#
# Stress axis : x y z
#
# Youngs Moduli (GPa) = 43.23921 60.46898 72.23055
#
# Poissons Ratio (x) = -0.03222 -0.15006
# Poissons Ratio (y) = -0.02304 0.15777
# Poissons Ratio (z) = -0.08983 0.13208
#
# Static dielectric constant tensor:
#      x y z
#    x 1.811910 0.000000 0.000000 
#    y 0.000000 1.772920 0.000000 
#    z 0.000000 0.000000 1.799570 
# 
# From -- ./inp_files/38124.got.cif
#   From: 2010.05.17/outbox.cif.g08.bks.cpg/sg53_20_cif.got.tgz:38124.got - 2010.06.03 12:45:16.
