data_PCOD9415536
_publ_section_title
;
Structure prediction by ZEFSAII (Michael W. Deem and Ramdas Pophale) SiO2 
 PCOD9415536
Probable space group: P M N A
;
_chemical_formula_sum "Si O2"
_cell_formula_units_Z 64
_cell_length_a 18.499571
_cell_length_b 10.699281
_cell_length_c 15.766534
_cell_angle_alpha 90.000000
_cell_angle_beta 90.000000
_cell_angle_gamma 90.000000
_cell_volume 3120.703318
_symmetry_space_group_name_H-M "P M N A"
_symmetry_group_IT_number 53
_symmetry_cell_setting 'orthorhombic'
loop_
_space_group_symop_operation_xyz
x,y,z
1/2-x,-y,1/2+z
x,-y,-z
1/2-x,y,1/2-z
-x,-y,-z
1/2+x,y,1/2-z
-x,y,z
1/2+x,-y,1/2+z
loop_
_atom_site_type_symbol
_atom_site_label
_atom_site_fract_x
_atom_site_fract_y
_atom_site_fract_z
Si Si1 0.767213 0.616373 0.101455
Si Si2 0.273472 0.341467 0.094760
Si Si3 0.885131 0.946833 0.124728
Si Si4 0.580356 0.744511 0.820811
Si Si5 0.231886 0.879352 0.343960
Si Si6 0.622830 0.236824 0.369787
Si Si7 0.921915 0.687623 0.048154
Si Si8 0.079910 0.955454 0.321712
O O1 0.743503 0.480026 0.129296
O O2 0.739364 0.730478 0.156880
O O3 0.853925 0.625602 0.094295
O O4 0.737048 0.645781 0.006632
O O5 0.352949 0.302786 0.123428
O O6 0.210215 0.249098 0.127314
O O7 0.799823 0.930053 0.103833
O O8 0.920655 0.835278 0.072383
O O9 0.904992 0.919027 0.223295
O O10 0.901627 0.093037 0.115099
O O11 0.500000 0.698495 0.844361
O O12 0.595756 0.719092 0.721536
O O13 0.579554 0.895026 0.826581
O O14 0.250000 0.931090 0.250000
O O15 0.151199 0.911873 0.371053
O O16 0.593206 0.317320 0.447821
O O17 0.000000 0.635108 0.069775
O O18 0.000000 0.909659 0.347111
#
# Coordination Sequence:
#
# PCOD9415536 Si02
#       8
#     8   8   8   8   8   8   8   8
#     4   9  21  38  54  74  97 133 181 216 252 315
#     4  10  20  38  56  70  99 140 177 215 262 308
#     4   9  17  29  48  76 109 142 170 197 244 313
#     4  10  20  34  53  78 105 133 171 217 262 306
#     4   9  17  31  51  73  99 132 170 211 255 305
#     4  10  19  31  52  80 108 139 171 204 250 311
#     4  10  19  32  52  79 111 140 166 205 255 305
#     4   9  17  30  49  75 106 136 168 211 261 308
#
# _framework density 20.508198
#
# number of rings (size 3 to 8) (size 9 to 14) (size 15 to 20)
#    0.000    2.500    0.000    2.250    0.000    5.000 
#    0.000   10.000    0.000    1.500    0.000    0.000 
#    0.000    0.000    0.000    0.000    0.000    0.000 
#
# Total GULP energy -356998.429094 kJ/mol
# GULP energy per Si atom -5578.100455 kJ/mol
# Density = 2.046152 g / cm^3
# Si number density = 20.508198 Si / 1000 Ang^3
#
#
#
# Elastic Constant Matrix: (Units=GPa)
#
#
# Indices 1 2 3 4 5 6 
#
# 1 200.1362 23.5557 23.0031 0.0000 0.0000 0.0000
# 2 23.5557 42.4716 6.2372 0.0000 0.0000 0.0000
# 3 23.0031 6.2372 18.7155 0.0000 0.0000 0.0000
# 4 0.0000 0.0000 0.0000 17.4568 0.0000 0.0000
# 5 0.0000 0.0000 0.0000 0.0000 8.3072 0.0000
# 6 0.0000 0.0000 0.0000 0.0000 0.0000 12.7927
#
#
#
# Elastic Compliance Matrix: (Units=1/GPa)
#
#
# Indices 1 2 3 4 5 6 
#
# 1 0.006038 -0.002375 -0.006630 0.000000 0.000000 0.000000
# 2 -0.002375 0.025691 -0.005642 0.000000 0.000000 0.000000
# 3 -0.006630 -0.005642 0.063461 0.000000 0.000000 0.000000
# 4 0.000000 0.000000 0.000000 0.057284 0.000000 0.000000
# 5 0.000000 0.000000 0.000000 0.000000 0.120378 0.000000
# 6 0.000000 0.000000 0.000000 0.000000 0.000000 0.078169
#
#
# Mechanical properties :
#
#
# Convention : Reuss Voigt Hill
#
# Bulk Modulus (GPa) = 15.17566 40.76836 27.97201
# Shear Modulus (GPa) = 12.42910 21.61318 17.02114
#
# Velocity S-wave (km/s) = 2.46449 3.24987 2.88404
# Velocity P-wave (km/s) = 3.93880 5.83133 4.97587
#
# Compressibility (1/GPa) = 0.06589497
#
# Stress axis : x y z
#
# Youngs Moduli (GPa) = 165.61264 38.92394 15.75773
#
# Poissons Ratio (x) = 0.09246 0.10447
# Poissons Ratio (y) = 0.39338 0.08891
# Poissons Ratio (z) = 1.09800 0.21963
#
# Static dielectric constant tensor:
#      x y z
#    x 1.777300 0.000000 0.000000 
#    y 0.000000 1.728840 0.000000 
#    z 0.000000 0.000000 1.749150 
# 
# From -- ./inp_files/29105.got.cif
#   From: 2010.05.17/outbox.cif.g08.bks.cpg/sg53_15_cif.got.tgz:29105.got - 2010.06.03 12:45:16.
