data_PCOD9415645
_publ_section_title
;
Structure prediction by ZEFSAII (Michael W. Deem and Ramdas Pophale) SiO2 
 PCOD9415645
Probable space group: P M N A
;
_chemical_formula_sum "Si O2"
_cell_formula_units_Z 56
_cell_length_a 8.781374
_cell_length_b 13.619216
_cell_length_c 28.805932
_cell_angle_alpha 90.000000
_cell_angle_beta 90.000000
_cell_angle_gamma 90.000000
_cell_volume 3445.057803
_symmetry_space_group_name_H-M "P M N A"
_symmetry_group_IT_number 53
_symmetry_cell_setting 'orthorhombic'
loop_
_space_group_symop_operation_xyz
x,y,z
1/2-x,-y,1/2+z
x,-y,-z
1/2-x,y,1/2-z
-x,-y,-z
1/2+x,y,1/2-z
-x,y,z
1/2+x,-y,1/2+z
loop_
_atom_site_type_symbol
_atom_site_label
_atom_site_fract_x
_atom_site_fract_y
_atom_site_fract_z
Si Si1 0.182028 0.009592 0.299393
Si Si2 0.678901 0.081539 0.611122
Si Si3 0.822588 0.302637 0.390747
Si Si4 0.175621 0.093068 0.443053
Si Si5 0.181544 0.209300 0.534977
Si Si6 0.182182 0.607492 0.980480
Si Si7 0.818027 0.228049 0.200438
O O1 0.250000 0.977273 0.250000
O O2 0.234578 0.939938 0.340978
O O3 0.000000 0.016982 0.297389
O O4 0.250381 0.118625 0.307951
O O5 0.500000 0.090358 0.619188
O O6 0.743295 0.173309 0.582352
O O7 0.715014 0.986600 0.579137
O O8 0.815608 0.193809 0.413754
O O9 0.750457 0.373314 0.429381
O O10 0.735225 0.295297 0.342188
O O11 0.000000 0.325756 0.383411
O O12 0.209194 0.125736 0.495547
O O13 0.000000 0.056810 0.440321
O O14 0.249957 0.308926 0.514135
O O15 0.000000 0.218798 0.539434
O O16 0.000000 0.618649 0.978463
O O17 0.218923 0.500000 0.000000
O O18 0.750000 0.260320 0.250000
O O19 0.000000 0.221902 0.202890
#
# Coordination Sequence:
#
# PCOD9415645 Si02
#       7
#     8   8   8   8   8   8   8
#     4  11  21  34  49  68  98 135 177 215 252 295
#     4  12  22  31  47  71 100 135 172 208 250 296
#     4  10  19  32  51  74 102 136 172 210 252 303
#     4   9  18  31  46  66  98 134 169 205 245 290
#     4  10  21  35  51  71  98 131 169 209 249 299
#     4  10  21  37  56  78 104 131 165 212 261 310
#     4  11  20  31  48  71 101 136 174 212 251 297
#
# _framework density 16.255168999999999
#
# number of rings (size 3 to 8) (size 9 to 14) (size 15 to 20)
#    0.000    1.571    1.429    7.286    0.000    5.714 
#    0.000    0.000    0.000    0.000    0.000    1.000 
#    0.000    6.857    0.000    0.000    0.000    0.000 
#
# Total GULP energy -312799.882971 kJ/mol
# GULP energy per Si atom -5585.712196 kJ/mol
# Density = 1.621817 g / cm^3
# Si number density = 16.255169 Si / 1000 Ang^3
#
#
#
# Elastic Constant Matrix: (Units=GPa)
#
#
# Indices 1 2 3 4 5 6 
#
# 1 136.9026 42.5488 75.6483 0.0000 0.0000 0.0000
# 2 42.5488 54.7031 48.7919 0.0000 0.0000 0.0000
# 3 75.6483 48.7919 141.7365 0.0000 0.0000 0.0000
# 4 0.0000 0.0000 0.0000 19.5324 0.0000 0.0000
# 5 0.0000 0.0000 0.0000 0.0000 30.4274 0.0000
# 6 0.0000 0.0000 0.0000 0.0000 0.0000 1212.3413
#
#
#
# Elastic Compliance Matrix: (Units=1/GPa)
#
#
# Indices 1 2 3 4 5 6 
#
# 1 0.011193 -0.004874 -0.004296 0.000000 0.000000 0.000000
# 2 -0.004874 0.028503 -0.007210 0.000000 0.000000 0.000000
# 3 -0.004296 -0.007210 0.011830 0.000000 0.000000 0.000000
# 4 0.000000 0.000000 0.000000 0.051197 0.000000 0.000000
# 5 0.000000 0.000000 0.000000 0.000000 0.032865 0.000000
# 6 0.000000 0.000000 0.000000 0.000000 0.000000 0.000825
#
#
# Mechanical properties :
#
#
# Convention : Reuss Voigt Hill
#
# Bulk Modulus (GPa) = 53.29088 74.14668 63.71878
# Shear Modulus (GPa) = 28.50126 263.55045 146.02585
#
# Velocity S-wave (km/s) = 4.19186 12.74697 9.48834
# Velocity P-wave (km/s) = 7.50227 16.19754 12.62229
#
# Compressibility (1/GPa) = 0.01876494
#
# Stress axis : x y z
#
# Youngs Moduli (GPa) = 89.33879 35.08380 84.52743
#
# Poissons Ratio (x) = 0.17101 0.36315
# Poissons Ratio (y) = 0.43547 0.60948
# Poissons Ratio (z) = 0.38382 0.25297
#
# Static dielectric constant tensor:
#      x y z
#    x 1.542110 0.000000 0.000000 
#    y 0.000000 1.523550 0.000000 
#    z 0.000000 0.000000 1.565570 
# 
# From -- ./inp_files/38366.got.cif
#   From: 2010.05.17/outbox.cif.g08.bks.cpg/sg53_20_cif.got.tgz:38366.got - 2010.06.03 12:45:16.
