data_PCOD9415787
_publ_section_title
;
Structure prediction by ZEFSAII (Michael W. Deem and Ramdas Pophale) SiO2 
 PCOD9415787
Probable space group: P M N A
;
_chemical_formula_sum "Si O2"
_cell_formula_units_Z 40
_cell_length_a 8.731536
_cell_length_b 26.848485
_cell_length_c 9.272645
_cell_angle_alpha 90.000000
_cell_angle_beta 90.000000
_cell_angle_gamma 90.000000
_cell_volume 2173.772382
_symmetry_space_group_name_H-M "P M N A"
_symmetry_group_IT_number 53
_symmetry_cell_setting 'orthorhombic'
loop_
_space_group_symop_operation_xyz
x,y,z
1/2-x,-y,1/2+z
x,-y,-z
1/2-x,y,1/2-z
-x,-y,-z
1/2+x,y,1/2-z
-x,y,z
1/2+x,-y,1/2+z
loop_
_atom_site_type_symbol
_atom_site_label
_atom_site_fract_x
_atom_site_fract_y
_atom_site_fract_z
Si Si1 0.683228 0.748437 0.412191
Si Si2 0.316295 0.353563 0.911961
Si Si3 0.816284 0.858982 0.087866
Si Si4 0.815170 0.548558 0.589813
Si Si5 0.183627 0.950708 0.590011
O O1 0.750000 0.749593 0.250000
O O2 0.500000 0.743236 0.407002
O O3 0.755130 0.698507 0.477341
O O4 0.720304 0.803371 0.471623
O O5 0.250000 0.358694 0.750000
O O6 0.500000 0.351522 0.902666
O O7 0.269957 0.401137 0.006109
O O8 0.750000 0.863072 0.250000
O O9 0.000000 0.863316 0.095413
O O10 0.747894 0.902249 0.990398
O O11 0.765290 0.500000 0.500000
O O12 0.750000 0.547402 0.750000
O O13 0.000000 0.547801 0.596927
O O14 0.250000 0.954072 0.750000
O O15 0.000000 0.947992 0.595849
O O16 0.226767 0.000000 0.500000
#
# Coordination Sequence:
#
# PCOD9415787 Si02
#       5
#     8   8   8   8   8
#     4   9  17  30  51  79 109 142 179 218 262 312
#     4  10  19  32  53  80 108 140 178 219 263 313
#     4  10  20  35  57  84 113 146 184 225 269 319
#     4  10  22  38  55  78 106 137 176 219 265 318
#     4  11  24  40  59  83 111 144 181 224 273 324
#
# _framework density 18.401191000000001
#
# number of rings (size 3 to 8) (size 9 to 14) (size 15 to 20)
#    0.000    2.000    0.000    4.800    0.000    7.600 
#    0.000    1.000    0.000    2.400    0.000    0.000 
#    0.000    0.000    0.000    0.000    0.000    0.000 
#
# Total GULP energy -223273.584980 kJ/mol
# GULP energy per Si atom -5581.839625 kJ/mol
# Density = 1.835931 g / cm^3
# Si number density = 18.401191 Si / 1000 Ang^3
#
#
#
# Elastic Constant Matrix: (Units=GPa)
#
#
# Indices 1 2 3 4 5 6 
#
# 1 55.9143 68.1802 37.6160 0.0000 0.0000 0.0000
# 2 68.1802 231.1397 98.9219 0.0000 0.0000 0.0000
# 3 37.6160 98.9219 112.1634 0.0000 0.0000 0.0000
# 4 0.0000 0.0000 0.0000 32.4732 0.0000 0.0000
# 5 0.0000 0.0000 0.0000 0.0000 27.7446 0.0000
# 6 0.0000 0.0000 0.0000 0.0000 0.0000 37.7250
#
#
#
# Elastic Compliance Matrix: (Units=1/GPa)
#
#
# Indices 1 2 3 4 5 6 
#
# 1 0.028749 -0.006994 -0.003474 0.000000 0.000000 0.000000
# 2 -0.006994 0.008651 -0.005284 0.000000 0.000000 0.000000
# 3 -0.003474 -0.005284 0.014741 0.000000 0.000000 0.000000
# 4 0.000000 0.000000 0.000000 0.030795 0.000000 0.000000
# 5 0.000000 0.000000 0.000000 0.000000 0.036043 0.000000
# 6 0.000000 0.000000 0.000000 0.000000 0.000000 0.026508
#
#
# Mechanical properties :
#
#
# Convention : Reuss Voigt Hill
#
# Bulk Modulus (GPa) = 48.45393 89.85040 69.15217
# Shear Modulus (GPa) = 27.19346 32.55519 29.87433
#
# Velocity S-wave (km/s) = 3.84840 4.21074 4.03364
# Velocity P-wave (km/s) = 6.79235 8.51910 7.70425
#
# Compressibility (1/GPa) = 0.02063816
#
# Stress axis : x y z
#
# Youngs Moduli (GPa) = 34.78366 115.59652 67.83931
#
# Poissons Ratio (x) = 0.80844 0.23564
# Poissons Ratio (y) = 0.24327 0.35847
# Poissons Ratio (z) = 0.12082 0.61082
#
# Static dielectric constant tensor:
#      x y z
#    x 1.618870 0.000000 0.000000 
#    y 0.000000 1.669780 0.000000 
#    z 0.000000 0.000000 1.584320 
# 
# From -- ./inp_files/6296.got.cif
#   From: 2010.05.17/outbox.cif.g08.bks.cpg/sg53_4_cif.got.tgz:6296.got - 2010.06.03 12:45:16.
