data_PCOD9415255
_publ_section_title
;
Structure prediction by ZEFSAII (Michael W. Deem and Ramdas Pophale) SiO2 
 PCOD9415255
Probable space group: P M N A
;
_chemical_formula_sum "Si O2"
_cell_formula_units_Z 56
_cell_length_a 9.327620
_cell_length_b 21.366989
_cell_length_c 15.236211
_cell_angle_alpha 90.000000
_cell_angle_beta 90.000000
_cell_angle_gamma 90.000000
_cell_volume 3036.624906
_symmetry_space_group_name_H-M "P M N A"
_symmetry_group_IT_number 53
_symmetry_cell_setting 'orthorhombic'
loop_
_space_group_symop_operation_xyz
x,y,z
1/2-x,-y,1/2+z
x,-y,-z
1/2-x,y,1/2-z
-x,-y,-z
1/2+x,y,1/2-z
-x,y,z
1/2+x,-y,1/2+z
loop_
_atom_site_type_symbol
_atom_site_label
_atom_site_fract_x
_atom_site_fract_y
_atom_site_fract_z
Si Si1 0.170133 0.879571 0.839574
Si Si2 0.835795 0.554789 0.924440
Si Si3 0.662958 0.353952 0.965098
Si Si4 0.170298 0.029157 0.839111
Si Si5 0.327394 0.253750 0.655144
Si Si6 0.328280 0.866026 0.467806
Si Si7 0.157546 0.460687 0.677732
O O1 0.250000 0.860502 0.750000
O O2 0.000000 0.867101 0.829193
O O3 0.188976 0.954827 0.850064
O O4 0.224875 0.852891 0.933228
O O5 0.742692 0.522195 0.849534
O O6 0.000000 0.567030 0.901013
O O7 0.839201 0.500000 0.000000
O O8 0.757397 0.617688 0.956389
O O9 0.500000 0.333041 0.987060
O O10 0.751914 0.304724 0.907654
O O11 0.646414 0.415223 0.904215
O O12 0.250000 0.048466 0.750000
O O13 0.222142 0.069803 0.921906
O O14 0.000000 0.040601 0.828913
O O15 0.250000 0.253040 0.750000
O O16 0.500000 0.264552 0.664442
O O17 0.305624 0.188704 0.602714
O O18 0.500000 0.872720 0.479493
O O19 0.250000 0.425498 0.750000
O O20 0.000000 0.474755 0.711343
#
# Coordination Sequence:
#
# PCOD9415255 Si02
#       7
#     8   8   8   8   8   8   8
#     4   9  17  31  51  74  98 126 164 207 251 301
#     4   9  17  30  49  72  97 125 158 197 243 293
#     4  10  20  34  51  71  98 131 167 204 243 292
#     4   9  16  28  48  73 101 132 164 201 248 302
#     4  11  22  35  51  72  99 132 170 209 251 301
#     4   9  18  32  50  71  98 134 170 204 248 304
#     4  10  19  30  47  72 101 131 162 199 243 291
#
# _framework density 18.441526
#
# number of rings (size 3 to 8) (size 9 to 14) (size 15 to 20)
#    0.000    2.429    0.000    3.000    0.000    6.286 
#    0.000    2.857    0.000    4.286    0.000    4.000 
#    0.000    0.000    0.000    0.000    0.000    0.000 
#
# Total GULP energy -311865.836095 kJ/mol
# GULP energy per Si atom -5569.032787 kJ/mol
# Density = 1.839955 g / cm^3
# Si number density = 18.441526 Si / 1000 Ang^3
#
#
#
# Elastic Constant Matrix: (Units=GPa)
#
#
# Indices 1 2 3 4 5 6 
#
# 1 96.9970 21.8651 14.3981 0.0000 0.0000 0.0000
# 2 21.8651 25.6129 7.7745 0.0000 0.0000 0.0000
# 3 14.3981 7.7745 48.7279 0.0000 0.0000 0.0000
# 4 0.0000 0.0000 0.0000 24.9218 0.0000 0.0000
# 5 0.0000 0.0000 0.0000 0.0000 24.9125 0.0000
# 6 0.0000 0.0000 0.0000 0.0000 0.0000 19.8999
#
#
#
# Elastic Compliance Matrix: (Units=1/GPa)
#
#
# Indices 1 2 3 4 5 6 
#
# 1 0.012982 -0.010422 -0.002173 0.000000 0.000000 0.000000
# 2 -0.010422 0.049398 -0.004802 0.000000 0.000000 0.000000
# 3 -0.002173 -0.004802 0.021930 0.000000 0.000000 0.000000
# 4 0.000000 0.000000 0.000000 0.040125 0.000000 0.000000
# 5 0.000000 0.000000 0.000000 0.000000 0.040140 0.000000
# 6 0.000000 0.000000 0.000000 0.000000 0.000000 0.050251
#
#
# Mechanical properties :
#
#
# Convention : Reuss Voigt Hill
#
# Bulk Modulus (GPa) = 20.19577 28.82370 24.50973
# Shear Modulus (GPa) = 18.78807 22.43353 20.61080
#
# Velocity S-wave (km/s) = 3.19531 3.49157 3.34672
# Velocity P-wave (km/s) = 4.95867 5.64965 5.31540
#
# Compressibility (1/GPa) = 0.04951533
#
# Stress axis : x y z
#
# Youngs Moduli (GPa) = 77.03233 20.24384 45.59907
#
# Poissons Ratio (x) = 0.21099 0.09908
# Poissons Ratio (y) = 0.80287 0.21896
# Poissons Ratio (z) = 0.16738 0.09721
#
# Static dielectric constant tensor:
#      x y z
#    x 1.647620 0.000000 0.000000 
#    y 0.000000 1.635240 0.000000 
#    z 0.000000 0.000000 1.702780 
# 
# From -- ./inp_files/20632.got.cif
#   From: 2010.05.17/outbox.cif.g08.bks.cpg/sg53_11_cif.got.tgz:20632.got - 2010.06.03 12:45:16.
