data_PCOD9415809
_publ_section_title
;
Structure prediction by ZEFSAII (Michael W. Deem and Ramdas Pophale) SiO2 
 PCOD9415809
Probable space group: P M N A
;
_chemical_formula_sum "Si O2"
_cell_formula_units_Z 56
_cell_length_a 9.197735
_cell_length_b 20.348920
_cell_length_c 15.636818
_cell_angle_alpha 90.000000
_cell_angle_beta 90.000000
_cell_angle_gamma 90.000000
_cell_volume 2926.648993
_symmetry_space_group_name_H-M "P M N A"
_symmetry_group_IT_number 53
_symmetry_cell_setting 'orthorhombic'
loop_
_space_group_symop_operation_xyz
x,y,z
1/2-x,-y,1/2+z
x,-y,-z
1/2-x,y,1/2-z
-x,-y,-z
1/2+x,y,1/2-z
-x,y,z
1/2+x,-y,1/2+z
loop_
_atom_site_type_symbol
_atom_site_label
_atom_site_fract_x
_atom_site_fract_y
_atom_site_fract_z
Si Si1 0.327378 0.211346 0.934081
Si Si2 0.834406 0.244690 0.110278
Si Si3 0.341463 0.898186 0.671829
Si Si4 0.831337 0.368179 0.326355
Si Si5 0.839390 0.078259 0.491631
Si Si6 0.822945 0.669160 0.157458
Si Si7 0.329495 0.574326 0.017469
O O1 0.500000 0.226018 0.925805
O O2 0.236767 0.258357 0.870952
O O3 0.266957 0.230132 0.028282
O O4 0.309340 0.131247 0.932636
O O5 0.842938 0.180732 0.169637
O O6 0.763400 0.303134 0.161462
O O7 0.000000 0.259495 0.081505
O O8 0.250000 0.923473 0.750000
O O9 0.500000 0.925626 0.680764
O O10 0.279329 0.913323 0.580009
O O11 0.750000 0.407080 0.250000
O O12 0.827773 0.396726 0.421841
O O13 0.000000 0.357144 0.303967
O O14 0.000000 0.099513 0.459417
O O15 0.846609 0.000000 0.500000
O O16 0.750000 0.654103 0.250000
O O17 0.761926 0.618032 0.085006
O O18 0.000000 0.667932 0.160897
O O19 0.500000 0.572799 0.046160
O O20 0.277712 0.500000 0.000000
#
# Coordination Sequence:
#
# PCOD9415809 Si02
#       7
#     8   8   8   8   8   8   8
#     4  10  19  35  60  88 120 156 198 249 306 364
#     4  10  19  32  53  82 115 148 186 230 284 347
#     4  10  20  32  49  76 109 145 185 230 279 339
#     4  11  22  35  56  84 119 156 192 238 292 354
#     4   9  19  36  58  83 114 154 196 242 301 366
#     4  12  25  42  67  95 126 165 216 270 320 378
#     4  10  23  44  66  90 124 164 205 256 315 374
#
# _framework density 19.134512999999998
#
# number of rings (size 3 to 8) (size 9 to 14) (size 15 to 20)
#    0.000    1.714    1.429    3.429    0.000    5.143 
#    0.000    2.143    0.000    0.000    0.000    0.000 
#    0.000    0.000    0.000    0.000    0.000    0.000 
#
# Total GULP energy -311814.708670 kJ/mol
# GULP energy per Si atom -5568.119798 kJ/mol
# Density = 1.909096 g / cm^3
# Si number density = 19.134513 Si / 1000 Ang^3
#
#
#
# Elastic Constant Matrix: (Units=GPa)
#
#
# Indices 1 2 3 4 5 6 
#
# 1 150.6745 43.2348 49.3549 0.0000 0.0000 0.0000
# 2 43.2348 91.1868 22.4882 0.0000 0.0000 0.0000
# 3 49.3549 22.4882 80.8703 0.0000 0.0000 0.0000
# 4 0.0000 0.0000 0.0000 -4.9681 0.0000 0.0000
# 5 0.0000 0.0000 0.0000 0.0000 28.1137 0.0000
# 6 0.0000 0.0000 0.0000 0.0000 0.0000 11.0871
#
#
#
# Elastic Compliance Matrix: (Units=1/GPa)
#
#
# Indices 1 2 3 4 5 6 
#
# 1 0.009066 -0.003150 -0.004657 0.000000 0.000000 0.000000
# 2 -0.003150 0.012868 -0.001656 0.000000 0.000000 0.000000
# 3 -0.004657 -0.001656 0.015668 0.000000 0.000000 0.000000
# 4 0.000000 0.000000 0.000000 -0.201284 0.000000 0.000000
# 5 0.000000 0.000000 0.000000 0.000000 0.035570 0.000000
# 6 0.000000 0.000000 0.000000 0.000000 0.000000 0.090195
#
#
# Mechanical properties :
#
#
# Convention : Reuss Voigt Hill
#
# Bulk Modulus (GPa) = 53.54303 61.43193 57.48748
# Shear Modulus (GPa) = -391.71368 20.69012 -185.51178
#
# Velocity S-wave (km/s) = -14.32341 3.29188 -9.85707
# Velocity P-wave (km/s) = 15.66856 6.82815 9.97196
#
# Compressibility (1/GPa) = 0.01867657
#
# Stress axis : x y z
#
# Youngs Moduli (GPa) = 110.29989 77.70946 63.82359
#
# Poissons Ratio (x) = 0.24479 0.29723
# Poissons Ratio (y) = 0.34745 0.10569
# Poissons Ratio (z) = 0.51368 0.12868
#
# Static dielectric constant tensor:
#      x y z
#    x 1.680150 0.000000 0.000000 
#    y 0.000000 1.735670 0.000000 
#    z 0.000000 0.000000 1.683830 
# 
# From -- ./inp_files/20545.got.cif
#   From: 2010.05.17/outbox.cif.g08.bks.cpg/sg53_11_cif.got.tgz:20545.got - 2010.06.03 12:45:16.
