data_PCOD9415869
_publ_section_title
;
Structure prediction by ZEFSAII (Michael W. Deem and Ramdas Pophale) SiO2 
 PCOD9415869
Probable space group: P M N A
;
_chemical_formula_sum "Si O2"
_cell_formula_units_Z 64
_cell_length_a 9.055632
_cell_length_b 15.105708
_cell_length_c 30.287309
_cell_angle_alpha 90.000000
_cell_angle_beta 90.000000
_cell_angle_gamma 90.000000
_cell_volume 4143.053478
_symmetry_space_group_name_H-M "P M N A"
_symmetry_group_IT_number 53
_symmetry_cell_setting 'orthorhombic'
loop_
_space_group_symop_operation_xyz
x,y,z
1/2-x,-y,1/2+z
x,-y,-z
1/2-x,y,1/2-z
-x,-y,-z
1/2+x,y,1/2-z
-x,y,z
1/2+x,-y,1/2+z
loop_
_atom_site_type_symbol
_atom_site_label
_atom_site_fract_x
_atom_site_fract_y
_atom_site_fract_z
Si Si1 0.677670 0.541488 0.893536
Si Si2 0.174867 0.204974 0.880796
Si Si3 0.823163 0.321779 0.041014
Si Si4 0.675175 0.055271 0.933504
Si Si5 0.323960 0.374931 0.558372
Si Si6 0.676531 0.494946 0.795723
Si Si7 0.324548 0.133026 0.031890
Si Si8 0.176094 0.285664 0.704339
O O1 0.500000 0.543103 0.895696
O O2 0.746835 0.622193 0.920582
O O3 0.736563 0.452173 0.916919
O O4 0.721378 0.540330 0.841747
O O5 0.233441 0.112303 0.899111
O O6 0.204208 0.281688 0.917202
O O7 0.258177 0.233579 0.836729
O O8 0.000000 0.202640 0.873345
O O9 0.766233 0.221181 0.040815
O O10 0.000000 0.324613 0.045238
O O11 0.785115 0.364546 0.993175
O O12 0.500000 0.060919 0.924111
O O13 0.714832 0.951943 0.938170
O O14 0.697902 0.099846 0.981631
O O15 0.500000 0.393484 0.561298
O O16 0.750000 0.525584 0.750000
O O17 0.500000 0.502760 0.791275
O O18 0.711507 0.390309 0.801180
O O19 0.500000 0.150307 0.037092
O O20 0.250000 0.256602 0.750000
O O21 0.000000 0.276943 0.706325
#
# Coordination Sequence:
#
# PCOD9415869 Si02
#       8
#     8   8   8   8   8   8   8   8
#     4  11  22  35  50  72  97 131 172 208 247 297
#     4  11  20  31  49  74 102 135 169 204 247 298
#     4  11  22  35  49  70 100 136 172 210 251 292
#     4   9  18  32  51  73  98 128 164 205 249 294
#     4  10  21  34  46  67 101 137 172 206 241 288
#     4   9  19  33  50  71  95 123 161 204 249 294
#     4   9  18  33  51  72  97 128 166 208 249 290
#     4  10  19  33  50  72  99 130 166 207 251 300
#
# _framework density 15.447543
#
# number of rings (size 3 to 8) (size 9 to 14) (size 15 to 20)
#    0.000    2.000    2.500    2.625    0.000    5.000 
#    0.000    1.250    0.000    0.000    0.000    0.875 
#    0.000    4.000    0.000    0.000    0.000    0.000 
#
# Total GULP energy -357130.873479 kJ/mol
# GULP energy per Si atom -5580.169898 kJ/mol
# Density = 1.541238 g / cm^3
# Si number density = 15.447543 Si / 1000 Ang^3
#
#
#
# Elastic Constant Matrix: (Units=GPa)
#
#
# Indices 1 2 3 4 5 6 
#
# 1 46.8857 39.0275 54.3782 0.0000 0.0000 0.0000
# 2 39.0275 70.0986 48.8488 0.0000 0.0000 0.0000
# 3 54.3782 48.8488 129.8583 0.0000 0.0000 0.0000
# 4 0.0000 0.0000 0.0000 19.7955 0.0000 0.0000
# 5 0.0000 0.0000 0.0000 0.0000 26.2955 0.0000
# 6 0.0000 0.0000 0.0000 0.0000 0.0000 19.4029
#
#
#
# Elastic Compliance Matrix: (Units=1/GPa)
#
#
# Indices 1 2 3 4 5 6 
#
# 1 0.057319 -0.020581 -0.016260 0.000000 0.000000 0.000000
# 2 -0.020581 0.026724 -0.001434 0.000000 0.000000 0.000000
# 3 -0.016260 -0.001434 0.015049 0.000000 0.000000 0.000000
# 4 0.000000 0.000000 0.000000 0.050516 0.000000 0.000000
# 5 0.000000 0.000000 0.000000 0.000000 0.038029 0.000000
# 6 0.000000 0.000000 0.000000 0.000000 0.000000 0.051539
#
#
# Mechanical properties :
#
#
# Convention : Reuss Voigt Hill
#
# Bulk Modulus (GPa) = 44.36495 59.03906 51.70201
# Shear Modulus (GPa) = 15.46829 20.07132 17.76981
#
# Velocity S-wave (km/s) = 3.16783 3.60852 3.39533
# Velocity P-wave (km/s) = 6.49325 7.46083 6.99379
#
# Compressibility (1/GPa) = 0.02254032
#
# Stress axis : x y z
#
# Youngs Moduli (GPa) = 17.44619 37.41993 66.44857
#
# Poissons Ratio (x) = 0.77015 1.08048
# Poissons Ratio (y) = 0.35907 0.09530
# Poissons Ratio (z) = 0.28368 0.05367
#
# Static dielectric constant tensor:
#      x y z
#    x 1.510200 0.000000 0.000000 
#    y 0.000000 1.496040 0.000000 
#    z 0.000000 0.000000 1.507860 
# 
# From -- ./inp_files/38463.got.cif
#   From: 2010.05.17/outbox.cif.g08.bks.cpg/sg53_20_cif.got.tgz:38463.got - 2010.06.03 12:45:16.
