data_PCOD9415125
_publ_section_title
;
Structure prediction by ZEFSAII (Michael W. Deem and Ramdas Pophale) SiO2 
 PCOD9415125
Probable space group: P M N A
;
_chemical_formula_sum "Si O2"
_cell_formula_units_Z 64
_cell_length_a 8.949186
_cell_length_b 18.693460
_cell_length_c 26.744135
_cell_angle_alpha 90.000000
_cell_angle_beta 90.000000
_cell_angle_gamma 90.000000
_cell_volume 4474.059788
_symmetry_space_group_name_H-M "P M N A"
_symmetry_group_IT_number 53
_symmetry_cell_setting 'orthorhombic'
loop_
_space_group_symop_operation_xyz
x,y,z
1/2-x,-y,1/2+z
x,-y,-z
1/2-x,y,1/2-z
-x,-y,-z
1/2+x,y,1/2-z
-x,y,z
1/2+x,-y,1/2+z
loop_
_atom_site_type_symbol
_atom_site_label
_atom_site_fract_x
_atom_site_fract_y
_atom_site_fract_z
Si Si1 0.328829 0.039338 0.945890
Si Si2 0.179877 0.827185 0.506450
Si Si3 0.822015 0.585641 0.896021
Si Si4 0.322229 0.090699 0.399214
Si Si5 0.172210 0.455953 0.552308
Si Si6 0.821696 0.163251 0.303740
Si Si7 0.322037 0.327894 0.498832
Si Si8 0.821999 0.667769 0.696300
O O1 0.500000 0.038401 0.927367
O O2 0.282986 0.119751 0.960199
O O3 0.225855 0.990813 0.911216
O O4 0.329653 0.000000 0.000000
O O5 0.252822 0.861013 0.556214
O O6 0.240584 0.747938 0.498670
O O7 0.000000 0.828038 0.512133
O O8 0.752106 0.508470 0.908703
O O9 0.793002 0.636167 0.944429
O O10 0.749238 0.621426 0.847700
O O11 0.000000 0.579831 0.890373
O O12 0.500000 0.098037 0.399223
O O13 0.252731 0.117858 0.347584
O O14 0.172957 0.500000 0.500000
O O15 0.258908 0.383212 0.539791
O O16 0.000000 0.442502 0.565825
O O17 0.750000 0.146543 0.250000
O O18 0.793605 0.247797 0.313574
O O19 0.000000 0.152516 0.302589
O O20 0.500000 0.319694 0.504031
O O21 0.750000 0.650822 0.750000
O O22 0.000000 0.657400 0.698157
#
# Coordination Sequence:
#
# PCOD9415125 Si02
#       8
#     8   8   8   8   8   8   8   8
#     4   8  16  30  44  59  82 112 144 178 215 254
#     4  10  19  30  44  62  86 116 148 180 215 256
#     4  10  19  30  44  62  86 115 146 179 215 255
#     4  11  20  29  44  64  86 114 147 180 217 259
#     4   9  17  29  44  61  83 112 145 178 212 253
#     4  10  20  33  47  63  86 114 146 183 219 255
#     4  10  19  29  43  64  89 115 144 179 217 257
#     4  10  20  32  46  63  84 112 145 181 218 254
#
# _framework density 14.304681
#
# number of rings (size 3 to 8) (size 9 to 14) (size 15 to 20)
#    0.000    2.250    0.000    4.875    0.000    9.250 
#    0.000    0.000    0.000    0.000    0.000    0.000 
#    0.000    1.000    0.000    5.500    0.000    5.875 
#
# Total GULP energy -356943.111567 kJ/mol
# GULP energy per Si atom -5577.236118 kJ/mol
# Density = 1.427212 g / cm^3
# Si number density = 14.304681 Si / 1000 Ang^3
#
#
#
# Elastic Constant Matrix: (Units=GPa)
#
#
# Indices 1 2 3 4 5 6 
#
# 1 98.3521 66.2726 64.2523 0.0000 0.0000 0.0000
# 2 66.2726 108.5913 60.8443 0.0000 0.0000 0.0000
# 3 64.2523 60.8443 91.1213 0.0000 0.0000 0.0000
# 4 0.0000 0.0000 0.0000 26.4989 0.0000 0.0000
# 5 0.0000 0.0000 0.0000 0.0000 23.9182 0.0000
# 6 0.0000 0.0000 0.0000 0.0000 0.0000 22.7911
#
#
#
# Elastic Compliance Matrix: (Units=1/GPa)
#
#
# Indices 1 2 3 4 5 6 
#
# 1 0.022217 -0.007639 -0.010565 0.000000 0.000000 0.000000
# 2 -0.007639 0.017341 -0.006192 0.000000 0.000000 0.000000
# 3 -0.010565 -0.006192 0.022559 0.000000 0.000000 0.000000
# 4 0.000000 0.000000 0.000000 0.037737 0.000000 0.000000
# 5 0.000000 0.000000 0.000000 0.000000 0.041809 0.000000
# 6 0.000000 0.000000 0.000000 0.000000 0.000000 0.043877
#
#
# Mechanical properties :
#
#
# Convention : Reuss Voigt Hill
#
# Bulk Modulus (GPa) = 75.05461 75.64478 75.34970
# Shear Modulus (GPa) = 20.94033 21.75466 21.34750
#
# Velocity S-wave (km/s) = 3.83022 3.90398 3.86728
# Velocity P-wave (km/s) = 8.49372 8.56256 8.52821
#
# Compressibility (1/GPa) = 0.01332363
#
# Stress axis : x y z
#
# Youngs Moduli (GPa) = 45.01024 57.66836 44.32898
#
# Poissons Ratio (x) = 0.44055 0.46833
# Poissons Ratio (y) = 0.34385 0.27449
# Poissons Ratio (z) = 0.47553 0.35708
#
# Static dielectric constant tensor:
#      x y z
#    x 1.473970 0.000000 0.000000 
#    y 0.000000 1.470960 0.000000 
#    z 0.000000 0.000000 1.442740 
# 
# From -- ./inp_files/34481.got.cif
#   From: 2010.05.17/outbox.cif.g08.bks.cpg/sg53_18_cif.got.tgz:34481.got - 2010.06.03 12:45:16.
