data_PCOD9415931
_publ_section_title
;
Structure prediction by ZEFSAII (Michael W. Deem and Ramdas Pophale) SiO2 
 PCOD9415931
Probable space group: P M N A
;
_chemical_formula_sum "Si O2"
_cell_formula_units_Z 64
_cell_length_a 8.372800
_cell_length_b 15.076739
_cell_length_c 25.833510
_cell_angle_alpha 90.000000
_cell_angle_beta 90.000000
_cell_angle_gamma 90.000000
_cell_volume 3261.080742
_symmetry_space_group_name_H-M "P M N A"
_symmetry_group_IT_number 53
_symmetry_cell_setting 'orthorhombic'
loop_
_space_group_symop_operation_xyz
x,y,z
1/2-x,-y,1/2+z
x,-y,-z
1/2-x,y,1/2-z
-x,-y,-z
1/2+x,y,1/2-z
-x,y,z
1/2+x,-y,1/2+z
loop_
_atom_site_type_symbol
_atom_site_label
_atom_site_fract_x
_atom_site_fract_y
_atom_site_fract_z
Si Si1 0.692208 0.783888 0.905085
Si Si2 0.190466 0.681386 0.804605
Si Si3 0.814011 0.151655 0.894362
Si Si4 0.808914 0.977899 0.558573
Si Si5 0.816793 0.441926 0.948821
Si Si6 0.192059 0.489805 0.835405
Si Si7 0.193521 0.291180 0.807018
Si Si8 0.317033 0.265327 0.982846
O O1 0.500000 0.784817 0.899555
O O2 0.760918 0.739730 0.853869
O O3 0.748059 0.883642 0.918958
O O4 0.731507 0.729134 0.957296
O O5 0.250000 0.718303 0.750000
O O6 0.256147 0.580156 0.810631
O O7 0.000000 0.676326 0.803678
O O8 0.752405 0.220517 0.850620
O O9 0.789296 0.199729 0.949392
O O10 0.000000 0.136993 0.884125
O O11 0.731203 0.057276 0.902232
O O12 0.000000 0.970752 0.554154
O O13 0.748936 0.000000 0.500000
O O14 0.779667 0.494811 0.896917
O O15 0.700673 0.360013 0.956358
O O16 0.000000 0.407583 0.942689
O O17 0.811095 0.500000 0.000000
O O18 0.250866 0.392697 0.817458
O O19 0.000000 0.488838 0.827165
O O20 0.250000 0.264883 0.750000
O O21 0.000000 0.293067 0.809266
O O22 0.500000 0.232738 0.980978
#
# Coordination Sequence:
#
# PCOD9415931 Si02
#       8
#     8   8   8   8   8   8   8   8
#     4  10  22  40  61  86 120 156 192 239 295 354
#     4  11  23  40  63  87 116 155 201 248 294 344
#     4  11  22  37  59  87 120 153 192 242 290 348
#     4  10  20  39  63  88 120 155 189 235 297 353
#     4  10  19  33  53  79 117 160 196 237 295 352
#     4   9  18  35  56  82 116 153 194 240 289 344
#     4  10  21  38  58  82 116 153 195 242 289 343
#     4  11  21  35  56  84 120 156 193 237 291 352
#
# _framework density 19.625395999999999
#
# number of rings (size 3 to 8) (size 9 to 14) (size 15 to 20)
#    0.000    1.750    2.500    2.250    0.000    4.000 
#    0.000    2.500    0.000    1.500    0.000    0.000 
#    0.000    0.000    0.000    0.000    0.000    0.000 
#
# Total GULP energy -357199.303063 kJ/mol
# GULP energy per Si atom -5581.239110 kJ/mol
# Density = 1.958073 g / cm^3
# Si number density = 19.625396 Si / 1000 Ang^3
#
#
#
# Elastic Constant Matrix: (Units=GPa)
#
#
# Indices 1 2 3 4 5 6 
#
# 1 12.4462 13.2361 12.6709 0.0000 0.0000 0.0000
# 2 13.2361 91.3743 43.8554 0.0000 0.0000 0.0000
# 3 12.6709 43.8554 137.8561 0.0000 0.0000 0.0000
# 4 0.0000 0.0000 0.0000 13.9894 0.0000 0.0000
# 5 0.0000 0.0000 0.0000 0.0000 23.2420 0.0000
# 6 0.0000 0.0000 0.0000 0.0000 0.0000 22.5768
#
#
#
# Elastic Compliance Matrix: (Units=1/GPa)
#
#
# Indices 1 2 3 4 5 6 
#
# 1 0.098163 -0.011671 -0.005310 0.000000 0.000000 0.000000
# 2 -0.011671 0.014304 -0.003478 0.000000 0.000000 0.000000
# 3 -0.005310 -0.003478 0.008848 0.000000 0.000000 0.000000
# 4 0.000000 0.000000 0.000000 0.071483 0.000000 0.000000
# 5 0.000000 0.000000 0.000000 0.000000 0.043026 0.000000
# 6 0.000000 0.000000 0.000000 0.000000 0.000000 0.044293
#
#
# Mechanical properties :
#
#
# Convention : Reuss Voigt Hill
#
# Bulk Modulus (GPa) = 12.43808 42.35572 27.39690
# Shear Modulus (GPa) = 14.37472 23.42259 18.89865
#
# Velocity S-wave (km/s) = 2.70933 3.45843 3.10654
# Velocity P-wave (km/s) = 4.01731 6.12998 5.18244
#
# Compressibility (1/GPa) = 0.08039823
#
# Stress axis : x y z
#
# Youngs Moduli (GPa) = 10.18713 69.91182 113.01613
#
# Poissons Ratio (x) = 0.81595 0.60008
# Poissons Ratio (y) = 0.11890 0.39303
# Poissons Ratio (z) = 0.05409 0.24313
#
# Static dielectric constant tensor:
#      x y z
#    x 1.692970 0.000000 0.000000 
#    y 0.000000 1.709190 0.000000 
#    z 0.000000 0.000000 1.675940 
# 
# From -- ./inp_files/34258.got.cif
#   From: 2010.05.17/outbox.cif.g08.bks.cpg/sg53_18_cif.got.tgz:34258.got - 2010.06.03 12:45:16.
