data_PCOD9415402
_publ_section_title
;
Structure prediction by ZEFSAII (Michael W. Deem and Ramdas Pophale) SiO2 
 PCOD9415402
Probable space group: P M N A
;
_chemical_formula_sum "Si O2"
_cell_formula_units_Z 56
_cell_length_a 8.457424
_cell_length_b 19.946669
_cell_length_c 18.761054
_cell_angle_alpha 90.000000
_cell_angle_beta 90.000000
_cell_angle_gamma 90.000000
_cell_volume 3164.941727
_symmetry_space_group_name_H-M "P M N A"
_symmetry_group_IT_number 53
_symmetry_cell_setting 'orthorhombic'
loop_
_space_group_symop_operation_xyz
x,y,z
1/2-x,-y,1/2+z
x,-y,-z
1/2-x,y,1/2-z
-x,-y,-z
1/2+x,y,1/2-z
-x,y,z
1/2+x,-y,1/2+z
loop_
_atom_site_type_symbol
_atom_site_label
_atom_site_fract_x
_atom_site_fract_y
_atom_site_fract_z
Si Si1 0.690750 0.941737 0.668520
Si Si2 0.191486 0.087439 0.831418
Si Si3 0.692762 0.571865 0.027572
Si Si4 0.810501 0.205056 0.169176
Si Si5 0.310539 0.642009 0.172172
Si Si6 0.810229 0.225104 0.901127
Si Si7 0.689078 0.708918 0.956663
O O1 0.750000 0.942211 0.750000
O O2 0.500000 0.941562 0.667650
O O3 0.741771 0.868906 0.640151
O O4 0.742064 0.014202 0.638757
O O5 0.250000 0.093037 0.750000
O O6 0.245377 0.152168 0.875199
O O7 0.000000 0.088308 0.830416
O O8 0.500000 0.570244 0.027594
O O9 0.741332 0.633442 0.976619
O O10 0.749094 0.500000 0.000000
O O11 0.741019 0.592854 0.107733
O O12 0.750000 0.211780 0.250000
O O13 0.748402 0.262571 0.117744
O O14 0.000000 0.206389 0.169996
O O15 0.250000 0.622840 0.250000
O O16 0.500000 0.643601 0.172559
O O17 0.250078 0.716059 0.150940
O O18 0.000000 0.225842 0.900616
O O19 0.751113 0.244309 0.979473
O O20 0.500000 0.709691 0.957973
#
# Coordination Sequence:
#
# PCOD9415402 Si02
#       7
#     8   8   8   8   8   8   8
#     4   8  15  28  45  66  91 122 161 202 244 286
#     4   9  17  28  44  67  94 126 164 204 244 285
#     4   8  16  33  55  75  97 129 164 198 242 293
#     4  10  19  33  54  75  97 126 162 205 247 289
#     4  10  19  31  50  75 102 132 166 203 242 289
#     4  10  19  31  48  70  99 132 165 202 243 289
#     4  10  20  34  53  75  99 126 158 197 242 295
#
# _framework density 17.693847999999999
#
# number of rings (size 3 to 8) (size 9 to 14) (size 15 to 20)
#    0.000    2.714    0.000    3.000    0.000    2.857 
#    0.000    1.429    0.000   21.429    0.000    0.000 
#    0.000    0.000    0.000    0.000    0.000    0.000 
#
# Total GULP energy -311986.571673 kJ/mol
# GULP energy per Si atom -5571.188780 kJ/mol
# Density = 1.765358 g / cm^3
# Si number density = 17.693848 Si / 1000 Ang^3
#
#
#
# Elastic Constant Matrix: (Units=GPa)
#
#
# Indices 1 2 3 4 5 6 
#
# 1 31.3313 26.8097 21.3137 0.0000 0.0000 0.0000
# 2 26.8097 158.4007 90.6905 0.0000 0.0000 0.0000
# 3 21.3137 90.6905 97.1487 0.0000 0.0000 0.0000
# 4 0.0000 0.0000 0.0000 23.6228 0.0000 0.0000
# 5 0.0000 0.0000 0.0000 0.0000 28.3990 0.0000
# 6 0.0000 0.0000 0.0000 0.0000 0.0000 17.5926
#
#
#
# Elastic Compliance Matrix: (Units=1/GPa)
#
#
# Indices 1 2 3 4 5 6 
#
# 1 0.038451 -0.003605 -0.005071 0.000000 0.000000 0.000000
# 2 -0.003605 0.013899 -0.012184 0.000000 0.000000 0.000000
# 3 -0.005071 -0.012184 0.022780 0.000000 0.000000 0.000000
# 4 0.000000 0.000000 0.000000 0.042332 0.000000 0.000000
# 5 0.000000 0.000000 0.000000 0.000000 0.035213 0.000000
# 6 0.000000 0.000000 0.000000 0.000000 0.000000 0.056842
#
#
# Mechanical properties :
#
#
# Convention : Reuss Voigt Hill
#
# Bulk Modulus (GPa) = 29.93045 62.72319 46.32682
# Shear Modulus (GPa) = 19.05677 23.79400 21.42538
#
# Velocity S-wave (km/s) = 3.28537 3.67108 3.48357
# Velocity P-wave (km/s) = 5.59857 7.31404 6.51303
#
# Compressibility (1/GPa) = 0.03341079
#
# Stress axis : x y z
#
# Youngs Moduli (GPa) = 26.00717 71.94630 43.89736
#
# Poissons Ratio (x) = 0.25935 0.22259
# Poissons Ratio (y) = 0.09375 0.53486
# Poissons Ratio (z) = 0.13188 0.87662
#
# Static dielectric constant tensor:
#      x y z
#    x 1.621710 0.000000 0.000000 
#    y 0.000000 1.637450 0.000000 
#    z 0.000000 0.000000 1.572670 
# 
# From -- ./inp_files/20588.got.cif
#   From: 2010.05.17/outbox.cif.g08.bks.cpg/sg53_11_cif.got.tgz:20588.got - 2010.06.03 12:45:16.
