data_PCOD9415259
_publ_section_title
;
Structure prediction by ZEFSAII (Michael W. Deem and Ramdas Pophale) SiO2 
 PCOD9415259
Probable space group: P M N A
;
_chemical_formula_sum "Si O2"
_cell_formula_units_Z 64
_cell_length_a 9.044629
_cell_length_b 20.082929
_cell_length_c 20.287142
_cell_angle_alpha 90.000000
_cell_angle_beta 90.000000
_cell_angle_gamma 90.000000
_cell_volume 3685.010072
_symmetry_space_group_name_H-M "P M N A"
_symmetry_group_IT_number 53
_symmetry_cell_setting 'orthorhombic'
loop_
_space_group_symop_operation_xyz
x,y,z
1/2-x,-y,1/2+z
x,-y,-z
1/2-x,y,1/2-z
-x,-y,-z
1/2+x,y,1/2-z
-x,y,z
1/2+x,-y,1/2+z
loop_
_atom_site_type_symbol
_atom_site_label
_atom_site_fract_x
_atom_site_fract_y
_atom_site_fract_z
Si Si1 0.178684 0.342616 0.032488
Si Si2 0.675956 0.258140 0.819423
Si Si3 0.322698 0.191168 0.438585
Si Si4 0.674914 0.113100 0.180672
Si Si5 0.824043 0.954855 0.320050
Si Si6 0.328855 0.481275 0.421849
Si Si7 0.174418 0.612029 0.396293
Si Si8 0.677517 0.150652 0.586820
O O1 0.218974 0.269249 0.056819
O O2 0.221094 0.404459 0.079794
O O3 0.000000 0.345288 0.025357
O O4 0.248636 0.357669 0.961436
O O5 0.750000 0.242121 0.750000
O O6 0.500000 0.245613 0.817950
O O7 0.700695 0.335283 0.838297
O O8 0.751892 0.213134 0.875040
O O9 0.500000 0.187789 0.429436
O O10 0.243357 0.153820 0.379392
O O11 0.288636 0.157972 0.509406
O O12 0.750000 0.131342 0.250000
O O13 0.500000 0.124113 0.184807
O O14 0.699352 0.033830 0.170640
O O15 0.750000 0.936068 0.250000
O O16 0.747880 0.913444 0.378123
O O17 0.000000 0.941753 0.317739
O O18 0.321980 0.500000 0.500000
O O19 0.500000 0.485582 0.401839
O O20 0.237122 0.538146 0.385652
O O21 0.000000 0.608203 0.408501
O O22 0.500000 0.150949 0.594575
#
# Coordination Sequence:
#
# PCOD9415259 Si02
#       8
#     8   8   8   8   8   8   8   8
#     4   9  17  32  51  75 106 140 175 212 262 320
#     4  11  23  36  51  73 105 147 188 228 273 326
#     4  10  21  36  57  83 113 145 179 223 271 323
#     4  10  22  40  62  84 108 140 178 221 272 328
#     4  10  21  38  58  80 109 145 184 226 268 320
#     4   8  15  27  47  71  98 134 172 210 256 312
#     4  10  19  30  47  73 103 134 175 226 269 311
#     4  11  22  36  56  81 110 145 182 225 270 319
#
# _framework density 17.367660000000001
#
# number of rings (size 3 to 8) (size 9 to 14) (size 15 to 20)
#    0.000    2.125    1.250    3.000    0.000    7.250 
#    0.000    2.500    0.000    0.750    0.000    1.750 
#    0.000    0.000    0.000    0.000    0.000    0.000 
#
# Total GULP energy -357117.199168 kJ/mol
# GULP energy per Si atom -5579.956237 kJ/mol
# Density = 1.732813 g / cm^3
# Si number density = 17.367660 Si / 1000 Ang^3
#
#
#
# Elastic Constant Matrix: (Units=GPa)
#
#
# Indices 1 2 3 4 5 6 
#
# 1 67.6747 58.3693 60.9921 0.0000 0.0000 0.0000
# 2 58.3693 110.1130 74.9248 0.0000 0.0000 0.0000
# 3 60.9921 74.9248 112.6767 0.0000 0.0000 0.0000
# 4 0.0000 0.0000 0.0000 11.3369 0.0000 0.0000
# 5 0.0000 0.0000 0.0000 0.0000 20.6462 0.0000
# 6 0.0000 0.0000 0.0000 0.0000 0.0000 31.5144
#
#
#
# Elastic Compliance Matrix: (Units=1/GPa)
#
#
# Indices 1 2 3 4 5 6 
#
# 1 0.034017 -0.010050 -0.011731 0.000000 0.000000 0.000000
# 2 -0.010050 0.019555 -0.007563 0.000000 0.000000 0.000000
# 3 -0.011731 -0.007563 0.020254 0.000000 0.000000 0.000000
# 4 0.000000 0.000000 0.000000 0.088207 0.000000 0.000000
# 5 0.000000 0.000000 0.000000 0.000000 0.048435 0.000000
# 6 0.000000 0.000000 0.000000 0.000000 0.000000 0.031732
#
#
# Mechanical properties :
#
#
# Convention : Reuss Voigt Hill
#
# Bulk Modulus (GPa) = 66.05716 75.44852 70.75284
# Shear Modulus (GPa) = 16.34339 19.11137 17.72738
#
# Velocity S-wave (km/s) = 3.07094 3.32083 3.19832
# Velocity P-wave (km/s) = 7.11979 7.63152 7.38009
#
# Compressibility (1/GPa) = 0.01513840
#
# Stress axis : x y z
#
# Youngs Moduli (GPa) = 29.39711 51.13725 49.37282
#
# Poissons Ratio (x) = 0.51392 0.57918
# Poissons Ratio (y) = 0.29544 0.37342
# Poissons Ratio (z) = 0.34485 0.38677
#
# Static dielectric constant tensor:
#      x y z
#    x 1.578500 0.000000 0.000000 
#    y 0.000000 1.620870 0.000000 
#    z 0.000000 0.000000 1.552780 
# 
# From -- ./inp_files/26886.got.cif
#   From: 2010.05.17/outbox.cif.g08.bks.cpg/sg53_14_cif.got.tgz:26886.got - 2010.06.03 12:45:16.
