data_PCOD9415352
_publ_section_title
;
Structure prediction by ZEFSAII (Michael W. Deem and Ramdas Pophale) SiO2 
 PCOD9415352
Probable space group: P M N A
;
_chemical_formula_sum "Si O2"
_cell_formula_units_Z 64
_cell_length_a 8.713519
_cell_length_b 17.161973
_cell_length_c 24.523545
_cell_angle_alpha 90.000000
_cell_angle_beta 90.000000
_cell_angle_gamma 90.000000
_cell_volume 3667.279803
_symmetry_space_group_name_H-M "P M N A"
_symmetry_group_IT_number 53
_symmetry_cell_setting 'orthorhombic'
loop_
_space_group_symop_operation_xyz
x,y,z
1/2-x,-y,1/2+z
x,-y,-z
1/2-x,y,1/2-z
-x,-y,-z
1/2+x,y,1/2-z
-x,y,z
1/2+x,-y,1/2+z
loop_
_atom_site_type_symbol
_atom_site_label
_atom_site_fract_x
_atom_site_fract_y
_atom_site_fract_z
Si Si1 0.683416 0.689167 0.023004
Si Si2 0.815337 0.900458 0.811043
Si Si3 0.683635 0.365821 0.415300
Si Si4 0.814583 0.271694 0.189027
Si Si5 0.316543 0.534828 0.090272
Si Si6 0.315633 0.778152 0.378098
Si Si7 0.314125 0.071045 0.688514
Si Si8 0.183339 0.377193 0.810161
O O1 0.500000 0.690836 0.019318
O O2 0.729579 0.606399 0.050957
O O3 0.740747 0.755307 0.064492
O O4 0.756534 0.689548 0.963452
O O5 0.750000 0.901344 0.750000
O O6 0.769114 0.815203 0.832321
O O7 0.000000 0.900538 0.809683
O O8 0.768946 0.985097 0.833861
O O9 0.500000 0.367436 0.416218
O O10 0.734396 0.334206 0.356061
O O11 0.747555 0.452082 0.425359
O O12 0.750000 0.283222 0.250000
O O13 0.000000 0.273961 0.192829
O O14 0.500000 0.529897 0.089418
O O15 0.257117 0.559388 0.149831
O O16 0.500000 0.780272 0.384939
O O17 0.264311 0.858618 0.350458
O O18 0.280225 0.707146 0.336631
O O19 0.250000 0.080241 0.750000
O O20 0.500000 0.074114 0.692107
O O21 0.250000 0.382267 0.750000
O O22 0.000000 0.386270 0.809581
#
# Coordination Sequence:
#
# PCOD9415352 Si02
#       8
#     8   8   8   8   8   8   8   8
#     4  10  21  36  53  72  94 124 162 202 243 285
#     4   8  14  27  46  69  98 128 158 192 231 277
#     4  11  22  35  53  75  97 123 158 199 243 291
#     4   9  19  34  52  75 101 128 157 192 236 285
#     4  10  21  36  52  71  95 123 160 204 245 287
#     4   9  18  31  47  70  99 130 163 199 238 280
#     4   9  16  26  45  73 102 131 162 196 235 280
#     4  10  19  31  47  68  98 133 164 195 237 286
#
# _framework density 17.451627999999999
#
# number of rings (size 3 to 8) (size 9 to 14) (size 15 to 20)
#    0.000    2.500    0.000    2.250    0.000    5.500 
#    0.000    1.250    0.000    0.750    0.000    5.250 
#    0.000    0.000    0.000    0.000    0.000    0.000 
#
# Total GULP energy -356731.454370 kJ/mol
# GULP energy per Si atom -5573.928975 kJ/mol
# Density = 1.741191 g / cm^3
# Si number density = 17.451628 Si / 1000 Ang^3
#
#
#
# Elastic Constant Matrix: (Units=GPa)
#
#
# Indices 1 2 3 4 5 6 
#
# 1 16.6992 9.9911 17.2286 0.0000 0.0000 0.0000
# 2 9.9911 54.3757 11.1565 0.0000 0.0000 0.0000
# 3 17.2286 11.1565 79.8684 0.0000 0.0000 0.0000
# 4 0.0000 0.0000 0.0000 17.1177 0.0000 0.0000
# 5 0.0000 0.0000 0.0000 0.0000 25.4161 0.0000
# 6 0.0000 0.0000 0.0000 0.0000 0.0000 17.4426
#
#
#
# Elastic Compliance Matrix: (Units=1/GPa)
#
#
# Indices 1 2 3 4 5 6 
#
# 1 0.084078 -0.012073 -0.016450 0.000000 0.000000 0.000000
# 2 -0.012073 0.020667 -0.000282 0.000000 0.000000 0.000000
# 3 -0.016450 -0.000282 0.016109 0.000000 0.000000 0.000000
# 4 0.000000 0.000000 0.000000 0.058419 0.000000 0.000000
# 5 0.000000 0.000000 0.000000 0.000000 0.039345 0.000000
# 6 0.000000 0.000000 0.000000 0.000000 0.000000 0.057331
#
#
# Mechanical properties :
#
#
# Convention : Reuss Voigt Hill
#
# Bulk Modulus (GPa) = 15.81245 25.29949 20.55597
# Shear Modulus (GPa) = 14.09876 19.49977 16.79927
#
# Velocity S-wave (km/s) = 2.84540 3.34632 3.10598
# Velocity P-wave (km/s) = 4.45819 5.42760 4.96661
#
# Compressibility (1/GPa) = 0.06324131
#
# Stress axis : x y z
#
# Youngs Moduli (GPa) = 11.89371 48.38646 62.07886
#
# Poissons Ratio (x) = 0.58419 1.02121
# Poissons Ratio (y) = 0.14360 0.01754
# Poissons Ratio (z) = 0.19565 0.01367
#
# Static dielectric constant tensor:
#      x y z
#    x 1.582560 0.000000 0.000000 
#    y 0.000000 1.628110 0.000000 
#    z 0.000000 0.000000 1.615610 
# 
# From -- ./inp_files/31131.got.cif
#   From: 2010.05.17/outbox.cif.g08.bks.cpg/sg53_16_cif.got.tgz:31131.got - 2010.06.03 12:45:16.
