data_PCOD9415700
_publ_section_title
;
Structure prediction by ZEFSAII (Michael W. Deem and Ramdas Pophale) SiO2 
 PCOD9415700
Probable space group: P M N A
;
_chemical_formula_sum "Si O2"
_cell_formula_units_Z 64
_cell_length_a 8.965191
_cell_length_b 20.856356
_cell_length_c 19.701317
_cell_angle_alpha 90.000000
_cell_angle_beta 90.000000
_cell_angle_gamma 90.000000
_cell_volume 3683.776192
_symmetry_space_group_name_H-M "P M N A"
_symmetry_group_IT_number 53
_symmetry_cell_setting 'orthorhombic'
loop_
_space_group_symop_operation_xyz
x,y,z
1/2-x,-y,1/2+z
x,-y,-z
1/2-x,y,1/2-z
-x,-y,-z
1/2+x,y,1/2-z
-x,y,z
1/2+x,-y,1/2+z
loop_
_atom_site_type_symbol
_atom_site_label
_atom_site_fract_x
_atom_site_fract_y
_atom_site_fract_z
Si Si1 0.828090 0.001003 0.417476
Si Si2 0.319850 0.502335 0.079073
Si Si3 0.178934 0.239353 0.323303
Si Si4 0.677906 0.866181 0.581180
Si Si5 0.820971 0.393276 0.823500
Si Si6 0.678894 0.131395 0.578765
Si Si7 0.179137 0.754952 0.177514
Si Si8 0.821248 0.387199 0.322674
O O1 0.738458 0.064227 0.396188
O O2 0.000000 0.005510 0.396403
O O3 0.823530 0.000000 0.500000
O O4 0.755656 0.933857 0.395991
O O5 0.500000 0.509137 0.082501
O O6 0.244617 0.560328 0.119595
O O7 0.278221 0.437303 0.119181
O O8 0.277461 0.500000 0.000000
O O9 0.250000 0.225270 0.250000
O O10 0.244143 0.190059 0.377323
O O11 0.218428 0.313552 0.339508
O O12 0.000000 0.234261 0.320078
O O13 0.500000 0.863386 0.589515
O O14 0.712783 0.859707 0.500958
O O15 0.750000 0.408930 0.750000
O O16 0.782317 0.318888 0.838879
O O17 0.000000 0.399293 0.819476
O O18 0.500000 0.123815 0.584256
O O19 0.725814 0.193339 0.621580
O O20 0.250000 0.770601 0.250000
O O21 0.000000 0.757712 0.183140
O O22 0.750000 0.403889 0.250000
O O23 0.000000 0.389956 0.315142
#
# Coordination Sequence:
#
# PCOD9415700 Si02
#       8
#     8   8   8   8   8   8   8   8
#     4   9  17  30  49  74 102 132 170 213 253 299
#     4  10  21  36  53  77 109 139 169 211 260 305
#     4  10  20  35  53  74 101 131 167 210 254 302
#     4  10  19  32  52  76 102 134 169 207 255 307
#     4  10  20  35  55  77 102 136 176 213 253 305
#     4   9  18  33  52  74 102 135 170 210 257 307
#     4   9  19  35  53  75 104 136 171 212 256 304
#     4   9  19  35  54  74  98 133 172 208 250 302
#
# _framework density 17.373477000000001
#
# number of rings (size 3 to 8) (size 9 to 14) (size 15 to 20)
#    0.000    2.500    0.000    1.875    0.000    6.250 
#    0.000    0.625    0.000    1.500    0.000    0.000 
#    0.000    0.000    0.000    0.000    0.000    0.000 
#
# Total GULP energy -357022.094799 kJ/mol
# GULP energy per Si atom -5578.470231 kJ/mol
# Density = 1.733393 g / cm^3
# Si number density = 17.373477 Si / 1000 Ang^3
#
#
#
# Elastic Constant Matrix: (Units=GPa)
#
#
# Indices 1 2 3 4 5 6 
#
# 1 46.8728 58.0191 51.8027 0.0000 0.0000 0.0000
# 2 58.0191 143.4819 105.2774 0.0000 0.0000 0.0000
# 3 51.8027 105.2774 112.7107 0.0000 0.0000 0.0000
# 4 0.0000 0.0000 0.0000 40.7723 0.0000 0.0000
# 5 0.0000 0.0000 0.0000 0.0000 26.0962 0.0000
# 6 0.0000 0.0000 0.0000 0.0000 0.0000 18.9941
#
#
#
# Elastic Compliance Matrix: (Units=1/GPa)
#
#
# Indices 1 2 3 4 5 6 
#
# 1 0.047599 -0.010156 -0.012391 0.000000 0.000000 0.000000
# 2 -0.010156 0.024317 -0.018045 0.000000 0.000000 0.000000
# 3 -0.012391 -0.018045 0.031422 0.000000 0.000000 0.000000
# 4 0.000000 0.000000 0.000000 0.024526 0.000000 0.000000
# 5 0.000000 0.000000 0.000000 0.000000 0.038320 0.000000
# 6 0.000000 0.000000 0.000000 0.000000 0.000000 0.052648
#
#
# Mechanical properties :
#
#
# Convention : Reuss Voigt Hill
#
# Bulk Modulus (GPa) = 45.13789 81.47376 63.30583
# Shear Modulus (GPa) = 16.26539 23.03693 19.65116
#
# Velocity S-wave (km/s) = 3.06309 3.64536 3.36683
# Velocity P-wave (km/s) = 6.20865 8.04459 7.18550
#
# Compressibility (1/GPa) = 0.02215433
#
# Stress axis : x y z
#
# Youngs Moduli (GPa) = 21.00862 41.12432 31.82456
#
# Poissons Ratio (x) = 0.41766 0.39434
# Poissons Ratio (y) = 0.21336 0.57428
# Poissons Ratio (z) = 0.26032 0.74209
#
# Static dielectric constant tensor:
#      x y z
#    x 1.580640 0.000000 0.000000 
#    y 0.000000 1.587970 0.000000 
#    z 0.000000 0.000000 1.562110 
# 
# From -- ./inp_files/27003.got.cif
#   From: 2010.05.17/outbox.cif.g08.bks.cpg/sg53_14_cif.got.tgz:27003.got - 2010.06.03 12:45:16.
