data_PCOD9415622
_publ_section_title
;
Structure prediction by ZEFSAII (Michael W. Deem and Ramdas Pophale) SiO2 
 PCOD9415622
Probable space group: P M N A
;
_chemical_formula_sum "Si O2"
_cell_formula_units_Z 64
_cell_length_a 17.755647
_cell_length_b 9.952991
_cell_length_c 20.458838
_cell_angle_alpha 90.000000
_cell_angle_beta 90.000000
_cell_angle_gamma 90.000000
_cell_volume 3615.522571
_symmetry_space_group_name_H-M "P M N A"
_symmetry_group_IT_number 53
_symmetry_cell_setting 'orthorhombic'
loop_
_space_group_symop_operation_xyz
x,y,z
1/2-x,-y,1/2+z
x,-y,-z
1/2-x,y,1/2-z
-x,-y,-z
1/2+x,y,1/2-z
-x,y,z
1/2+x,-y,1/2+z
loop_
_atom_site_type_symbol
_atom_site_label
_atom_site_fract_x
_atom_site_fract_y
_atom_site_fract_z
Si Si1 0.211103 0.543995 0.321832
Si Si2 0.287578 0.154677 0.822113
Si Si3 0.085399 0.942799 0.867109
Si Si4 0.414029 0.635222 0.777514
Si Si5 0.910721 0.044796 0.280651
Si Si6 0.640160 0.785605 0.402498
Si Si7 0.588489 0.709026 0.539050
Si Si8 0.372220 0.495708 0.639763
O O1 0.250000 0.538813 0.250000
O O2 0.180479 0.694324 0.329003
O O3 0.144649 0.439287 0.323403
O O4 0.281495 0.507798 0.367252
O O5 0.250000 0.146591 0.750000
O O6 0.352731 0.042297 0.823873
O O7 0.219791 0.158705 0.875143
O O8 0.114737 0.974799 0.794924
O O9 0.088721 0.082820 0.904672
O O10 0.000000 0.897524 0.854600
O O11 0.118083 0.822967 0.910154
O O12 0.500000 0.600342 0.791183
O O13 0.396416 0.580666 0.703766
O O14 0.404845 0.794417 0.786835
O O15 0.000000 0.007897 0.288445
O O16 0.637640 0.721103 0.474062
O O17 0.610335 0.664009 0.356220
O O18 0.500000 0.734599 0.523344
O O19 0.593009 0.569203 0.577582
#
# Coordination Sequence:
#
# PCOD9415622 Si02
#       8
#     8   8   8   8   8   8   8   8
#     4   8  18  32  47  70 100 133 172 222 266 303
#     4  10  19  35  50  72 100 133 177 218 257 312
#     4  10  20  34  48  70 105 140 176 216 255 300
#     4  10  19  32  50  75 103 133 172 222 269 316
#     4  10  20  33  51  74 100 134 173 216 265 312
#     4  11  22  34  51  73 103 144 181 219 256 300
#     4  11  22  36  52  77 112 148 184 215 249 308
#     4  10  20  35  50  72 108 143 182 217 254 311
#
# _framework density 17.701453000000001
#
# number of rings (size 3 to 8) (size 9 to 14) (size 15 to 20)
#    0.000    2.000    2.500    2.250    0.000    6.500 
#    0.000    0.000    0.000    0.000    0.000    0.875 
#    0.000    8.000    0.000    0.000    0.000    0.000 
#
# Total GULP energy -356365.473655 kJ/mol
# GULP energy per Si atom -5568.210526 kJ/mol
# Density = 1.766116 g / cm^3
# Si number density = 17.701453 Si / 1000 Ang^3
#
#
#
# Elastic Constant Matrix: (Units=GPa)
#
#
# Indices 1 2 3 4 5 6 
#
# 1 76.7261 46.5864 22.7313 0.0000 0.0000 0.0000
# 2 46.5864 85.7528 2.1037 0.0000 0.0000 0.0000
# 3 22.7313 2.1037 37.3201 0.0000 0.0000 0.0000
# 4 0.0000 0.0000 0.0000 18.8705 0.0000 0.0000
# 5 0.0000 0.0000 0.0000 0.0000 22.0136 0.0000
# 6 0.0000 0.0000 0.0000 0.0000 0.0000 37.4333
#
#
#
# Elastic Compliance Matrix: (Units=1/GPa)
#
#
# Indices 1 2 3 4 5 6 
#
# 1 0.025699 -0.013596 -0.014887 0.000000 0.000000 0.000000
# 2 -0.013596 0.018871 0.007218 0.000000 0.000000 0.000000
# 3 -0.014887 0.007218 0.035456 0.000000 0.000000 0.000000
# 4 0.000000 0.000000 0.000000 0.052993 0.000000 0.000000
# 5 0.000000 0.000000 0.000000 0.000000 0.045426 0.000000
# 6 0.000000 0.000000 0.000000 0.000000 0.000000 0.026714
#
#
# Mechanical properties :
#
#
# Convention : Reuss Voigt Hill
#
# Bulk Modulus (GPa) = 26.67028 38.07130 32.37079
# Shear Modulus (GPa) = 19.21692 24.22201 21.71946
#
# Velocity S-wave (km/s) = 3.29844 3.70315 3.50664
# Velocity P-wave (km/s) = 5.44111 6.31178 5.89255
#
# Compressibility (1/GPa) = 0.03749492
#
# Stress axis : x y z
#
# Youngs Moduli (GPa) = 38.91191 52.99222 28.20426
#
# Poissons Ratio (x) = 0.72049 0.41987
# Poissons Ratio (y) = 0.52905 -0.20357
# Poissons Ratio (z) = 0.57927 -0.38248
#
# Static dielectric constant tensor:
#      x y z
#    x 1.636830 0.000000 0.000000 
#    y 0.000000 1.651320 0.000000 
#    z 0.000000 0.000000 1.639830 
# 
# From -- ./inp_files/32818.got.cif
#   From: 2010.05.17/outbox.cif.g08.bks.cpg/sg53_17_cif.got.tgz:32818.got - 2010.06.03 12:45:16.
