data_PCOD9415122
_publ_section_title
;
Structure prediction by ZEFSAII (Michael W. Deem and Ramdas Pophale) SiO2 
 PCOD9415122
Probable space group: P M N A
;
_chemical_formula_sum "Si O2"
_cell_formula_units_Z 64
_cell_length_a 7.719095
_cell_length_b 22.676422
_cell_length_c 19.164621
_cell_angle_alpha 90.000000
_cell_angle_beta 90.000000
_cell_angle_gamma 90.000000
_cell_volume 3354.603157
_symmetry_space_group_name_H-M "P M N A"
_symmetry_group_IT_number 53
_symmetry_cell_setting 'orthorhombic'
loop_
_space_group_symop_operation_xyz
x,y,z
1/2-x,-y,1/2+z
x,-y,-z
1/2-x,y,1/2-z
-x,-y,-z
1/2+x,y,1/2-z
-x,y,z
1/2+x,-y,1/2+z
loop_
_atom_site_type_symbol
_atom_site_label
_atom_site_fract_x
_atom_site_fract_y
_atom_site_fract_z
Si Si1 0.199688 0.271488 0.364718
Si Si2 0.202995 0.562988 0.522073
Si Si3 0.711880 0.982235 0.921244
Si Si4 0.201178 0.314903 0.525761
Si Si5 0.712365 0.806374 0.068207
Si Si6 0.788485 0.150339 0.413534
Si Si7 0.792019 0.092188 0.669236
Si Si8 0.304450 0.601828 0.672897
O O1 0.198961 0.288926 0.446858
O O2 0.270335 0.204683 0.364449
O O3 0.290972 0.326752 0.329242
O O4 0.000000 0.271600 0.340479
O O5 0.278170 0.500000 0.500000
O O6 0.280554 0.620251 0.482681
O O7 0.208103 0.576515 0.604997
O O8 0.000000 0.561778 0.502828
O O9 0.500000 0.981134 0.921358
O O10 0.771474 0.033126 0.869054
O O11 0.768137 0.916431 0.899944
O O12 0.763142 0.000000 0.000000
O O13 0.276107 0.261158 0.570598
O O14 0.000000 0.321958 0.546941
O O15 0.500000 0.804226 0.068714
O O16 0.771615 0.849831 0.128722
O O17 0.760017 0.834531 0.993433
O O18 0.000000 0.152183 0.410684
O O19 0.750000 0.092811 0.750000
O O20 0.000000 0.091994 0.661364
O O21 0.250000 0.582339 0.750000
O O22 0.500000 0.584008 0.661421
#
# Coordination Sequence:
#
# PCOD9415122 Si02
#       8
#     8   8   8   8   8   8   8   8
#     4   8  14  26  44  67  93 117 146 189 242 289
#     4   9  17  31  52  78 106 133 161 196 241 292
#     4   9  14  23  42  69  91 111 155 207 239 273
#     4   7  11  21  41  68  91 111 143 186 224 262
#     4   8  12  21  40  65  86 109 146 191 228 262
#     4   8  12  21  42  69  90 108 145 201 242 272
#     4  10  19  29  43  63  89 118 150 192 240 288
#     4  11  21  33  50  71  99 133 170 207 245 291
#
# _framework density 19.078263
#
# number of rings (size 3 to 8) (size 9 to 14) (size 15 to 20)
#    0.000    3.250    1.250    3.375    0.000    0.250 
#    0.000    0.625    0.000   10.125    0.000    1.750 
#    0.000    0.000    0.000    0.000    0.000    0.000 
#
# Total GULP energy -356283.566669 kJ/mol
# GULP energy per Si atom -5566.930729 kJ/mol
# Density = 1.903484 g / cm^3
# Si number density = 19.078263 Si / 1000 Ang^3
#
#
#
# Elastic Constant Matrix: (Units=GPa)
#
#
# Indices 1 2 3 4 5 6 
#
# 1 27.2218 5.3299 -6.7643 0.0000 0.0000 0.0000
# 2 5.3299 190.0082 55.2474 0.0000 0.0000 0.0000
# 3 -6.7643 55.2474 67.9519 0.0000 0.0000 0.0000
# 4 0.0000 0.0000 0.0000 2.6872 0.0000 0.0000
# 5 0.0000 0.0000 0.0000 0.0000 13.0296 0.0000
# 6 0.0000 0.0000 0.0000 0.0000 0.0000 -0.2752
#
#
#
# Elastic Compliance Matrix: (Units=1/GPa)
#
#
# Indices 1 2 3 4 5 6 
#
# 1 0.038850 -0.002900 0.006225 0.000000 0.000000 0.000000
# 2 -0.002900 0.007109 -0.006068 0.000000 0.000000 0.000000
# 3 0.006225 -0.006068 0.020270 0.000000 0.000000 0.000000
# 4 0.000000 0.000000 0.000000 0.372133 0.000000 0.000000
# 5 0.000000 0.000000 0.000000 0.000000 0.076749 0.000000
# 6 0.000000 0.000000 0.000000 0.000000 0.000000 -3.633518
#
#
# Mechanical properties :
#
#
# Convention : Reuss Voigt Hill
#
# Bulk Modulus (GPa) = 16.46310 43.64533 30.05421
# Shear Modulus (GPa) = -1.61672 18.51291 8.44809
#
# Velocity S-wave (km/s) = -0.92155 3.11845 2.10659
# Velocity P-wave (km/s) = 2.74147 5.99107 4.65879
#
# Compressibility (1/GPa) = 0.06074192
#
# Stress axis : x y z
#
# Youngs Moduli (GPa) = 25.74016 140.67261 49.33476
#
# Poissons Ratio (x) = 0.40791 -0.30710
# Poissons Ratio (y) = 0.07464 0.29938
# Poissons Ratio (z) = -0.16023 0.85364
#
# Static dielectric constant tensor:
#      x y z
#    x 1.703190 0.000000 0.000000 
#    y 0.000000 1.723010 0.000000 
#    z 0.000000 0.000000 1.764230 
# 
# From -- ./inp_files/27056.got.cif
#   From: 2010.05.17/outbox.cif.g08.bks.cpg/sg53_14_cif.got.tgz:27056.got - 2010.06.03 12:45:16.
