data_PCOD9415091
_publ_section_title
;
Structure prediction by ZEFSAII (Michael W. Deem and Ramdas Pophale) SiO2 
 PCOD9415091
Probable space group: P M N A
;
_chemical_formula_sum "Si O2"
_cell_formula_units_Z 56
_cell_length_a 9.301026
_cell_length_b 18.481241
_cell_length_c 19.932522
_cell_angle_alpha 90.000000
_cell_angle_beta 90.000000
_cell_angle_gamma 90.000000
_cell_volume 3426.290964
_symmetry_space_group_name_H-M "P M N A"
_symmetry_group_IT_number 53
_symmetry_cell_setting 'orthorhombic'
loop_
_space_group_symop_operation_xyz
x,y,z
1/2-x,-y,1/2+z
x,-y,-z
1/2-x,y,1/2-z
-x,-y,-z
1/2+x,y,1/2-z
-x,y,z
1/2+x,-y,1/2+z
loop_
_atom_site_type_symbol
_atom_site_label
_atom_site_fract_x
_atom_site_fract_y
_atom_site_fract_z
Si Si1 0.668545 0.209459 0.111633
Si Si2 0.170372 0.957059 0.066968
Si Si3 0.166905 0.333733 0.935177
Si Si4 0.175148 0.490678 0.922894
Si Si5 0.170590 0.923316 0.819154
Si Si6 0.667222 0.352980 0.402045
Si Si7 0.167872 0.190456 0.549623
O O1 0.500000 0.206017 0.128925
O O2 0.758704 0.148508 0.149556
O O3 0.734491 0.288717 0.124944
O O4 0.682427 0.195089 0.031578
O O5 0.253798 0.882144 0.072922
O O6 0.000000 0.941765 0.059773
O O7 0.191297 0.010953 0.128906
O O8 0.217152 0.000000 0.000000
O O9 0.217948 0.409544 0.902433
O O10 0.259810 0.263008 0.921633
O O11 0.000000 0.321296 0.917513
O O12 0.169922 0.346370 0.016256
O O13 0.215982 0.564899 0.885803
O O14 0.000000 0.490507 0.923932
O O15 0.223879 0.500000 0.000000
O O16 0.250000 0.939363 0.750000
O O17 0.000000 0.912834 0.809762
O O18 0.500000 0.343375 0.382247
O O19 0.000000 0.188192 0.565620
#
# Coordination Sequence:
#
# PCOD9415091 Si02
#       7
#     8   8   8   8   8   8   8
#     4  10  19  30  44  66  95 125 159 195 237 285
#     4  10  20  35  54  73  93 122 163 202 240 292
#     4   8  13  22  37  56  84 120 156 193 233 279
#     4   7  10  18  33  54  79 113 155 193 228 270
#     4  11  23  38  55  73  96 125 158 200 247 294
#     4   8  13  22  38  58  82 116 158 196 230 271
#     4  10  19  28  43  68  96 124 157 200 243 284
#
# _framework density 16.344204999999999
#
# number of rings (size 3 to 8) (size 9 to 14) (size 15 to 20)
#    0.000    2.857    1.429    3.000    0.000    2.571 
#    0.000    0.714    0.000    4.286    0.000    0.000 
#    0.000    1.143    0.000    7.429    0.000    8.000 
#
# Total GULP energy -311820.641488 kJ/mol
# GULP energy per Si atom -5568.225741 kJ/mol
# Density = 1.630700 g / cm^3
# Si number density = 16.344205 Si / 1000 Ang^3
#
#
#
# Elastic Constant Matrix: (Units=GPa)
#
#
# Indices 1 2 3 4 5 6 
#
# 1 90.0511 88.7213 34.5996 0.0000 0.0000 0.0000
# 2 88.7213 176.8203 30.2640 0.0000 0.0000 0.0000
# 3 34.5996 30.2640 26.6279 0.0000 0.0000 0.0000
# 4 0.0000 0.0000 0.0000 5.7309 0.0000 0.0000
# 5 0.0000 0.0000 0.0000 0.0000 15.3884 0.0000
# 6 0.0000 0.0000 0.0000 0.0000 0.0000 -0.2290
#
#
#
# Elastic Compliance Matrix: (Units=1/GPa)
#
#
# Indices 1 2 3 4 5 6 
#
# 1 0.035764 -0.012404 -0.032373 0.000000 0.000000 0.000000
# 2 -0.012404 0.011323 0.003248 0.000000 0.000000 0.000000
# 3 -0.032373 0.003248 0.075928 0.000000 0.000000 0.000000
# 4 0.000000 0.000000 0.000000 0.174491 0.000000 0.000000
# 5 0.000000 0.000000 0.000000 0.000000 0.064984 0.000000
# 6 0.000000 0.000000 0.000000 0.000000 0.000000 -4.367382
#
#
# Mechanical properties :
#
#
# Convention : Reuss Voigt Hill
#
# Bulk Modulus (GPa) = 25.02692 66.74104 45.88398
# Shear Modulus (GPa) = -1.27926 13.50569 6.11321
#
# Velocity S-wave (km/s) = -0.88566 2.87771 1.93608
# Velocity P-wave (km/s) = 3.78151 7.20867 5.75607
#
# Compressibility (1/GPa) = 0.03995698
#
# Stress axis : x y z
#
# Youngs Moduli (GPa) = 27.96071 88.31200 13.17033
#
# Poissons Ratio (x) = 1.09544 0.42637
# Poissons Ratio (y) = 0.34683 -0.04278
# Poissons Ratio (z) = 0.90518 -0.28684
#
# Static dielectric constant tensor:
#      x y z
#    x 1.538350 0.000000 0.000000 
#    y 0.000000 1.557690 0.000000 
#    z 0.000000 0.000000 1.529710 
# 
# From -- ./inp_files/34374.got.cif
#   From: 2010.05.17/outbox.cif.g08.bks.cpg/sg53_18_cif.got.tgz:34374.got - 2010.06.03 12:45:16.
