data_PCOD9415724
_publ_section_title
;
Structure prediction by ZEFSAII (Michael W. Deem and Ramdas Pophale) SiO2 
 PCOD9415724
Probable space group: P M N A
;
_chemical_formula_sum "Si O2"
_cell_formula_units_Z 40
_cell_length_a 8.860942
_cell_length_b 9.721410
_cell_length_c 26.704114
_cell_angle_alpha 90.000000
_cell_angle_beta 90.000000
_cell_angle_gamma 90.000000
_cell_volume 2300.315083
_symmetry_space_group_name_H-M "P M N A"
_symmetry_group_IT_number 53
_symmetry_cell_setting 'orthorhombic'
loop_
_space_group_symop_operation_xyz
x,y,z
1/2-x,-y,1/2+z
x,-y,-z
1/2-x,y,1/2-z
-x,-y,-z
1/2+x,y,1/2-z
-x,y,z
1/2+x,-y,1/2+z
loop_
_atom_site_type_symbol
_atom_site_label
_atom_site_fract_x
_atom_site_fract_y
_atom_site_fract_z
Si Si1 0.173942 0.832903 0.497048
Si Si2 0.180457 0.852121 0.105601
Si Si3 0.181064 0.658090 0.197090
Si Si4 0.681958 0.843586 0.892147
Si Si5 0.318726 0.663391 0.696426
O O1 0.270543 0.794947 0.448717
O O2 0.225552 0.788286 0.552325
O O3 0.000000 0.791159 0.489362
O O4 0.175872 0.000000 0.500000
O O5 0.228338 0.751666 0.150480
O O6 0.000000 0.868056 0.106837
O O7 0.256761 0.001004 0.112198
O O8 0.250000 0.703509 0.250000
O O9 0.221137 0.497833 0.189248
O O10 0.000000 0.665422 0.200803
O O11 0.500000 0.845922 0.890343
O O12 0.749925 0.752358 0.848178
O O13 0.250000 0.705952 0.750000
O O14 0.500000 0.676349 0.697453
#
# Coordination Sequence:
#
# PCOD9415724 Si02
#       5
#     8   8   8   8   8
#     4   8  16  31  49  71 101 134 167 204 247 295
#     4  10  19  32  52  78 104 131 167 209 252 298
#     4   9  20  36  53  74 100 131 167 206 249 299
#     4  10  20  34  52  76 104 133 168 208 248 295
#     4  10  20  36  55  74  99 132 168 206 251 299
#
# _framework density 17.388921
#
# number of rings (size 3 to 8) (size 9 to 14) (size 15 to 20)
#    0.000    2.600    0.000    3.000    0.000    7.600 
#    0.000    3.000    0.000    6.000    0.000    0.000 
#    0.000    0.000    0.000    0.000    0.000    0.000 
#
# Total GULP energy -223025.484758 kJ/mol
# GULP energy per Si atom -5575.637119 kJ/mol
# Density = 1.734934 g / cm^3
# Si number density = 17.388921 Si / 1000 Ang^3
#
#
#
# Elastic Constant Matrix: (Units=GPa)
#
#
# Indices 1 2 3 4 5 6 
#
# 1 52.5226 31.3152 63.6306 0.0000 0.0000 0.0000
# 2 31.3152 50.4951 79.8660 0.0000 0.0000 0.0000
# 3 63.6306 79.8660 206.7626 0.0000 0.0000 0.0000
# 4 0.0000 0.0000 0.0000 -57.7077 0.0000 0.0000
# 5 0.0000 0.0000 0.0000 0.0000 36.5800 0.0000
# 6 0.0000 0.0000 0.0000 0.0000 0.0000 -30.5763
#
#
#
# Elastic Compliance Matrix: (Units=1/GPa)
#
#
# Indices 1 2 3 4 5 6 
#
# 1 0.032647 -0.011195 -0.005723 0.000000 0.000000 0.000000
# 2 -0.011195 0.054742 -0.017700 0.000000 0.000000 0.000000
# 3 -0.005723 -0.017700 0.013434 0.000000 0.000000 0.000000
# 4 0.000000 0.000000 0.000000 -0.017329 0.000000 0.000000
# 5 0.000000 0.000000 0.000000 0.000000 0.027337 0.000000
# 6 0.000000 0.000000 0.000000 0.000000 0.000000 -0.032705
#
#
# Mechanical properties :
#
#
# Convention : Reuss Voigt Hill
#
# Bulk Modulus (GPa) = 31.65749 73.26709 52.46229
# Shear Modulus (GPa) = 31.66724 -1.34290 15.16217
#
# Velocity S-wave (km/s) = 4.27208 -0.87974 2.95607
# Velocity P-wave (km/s) = 6.52528 6.41825 6.47199
#
# Compressibility (1/GPa) = 0.03158810
#
# Stress axis : x y z
#
# Youngs Moduli (GPa) = 30.63044 18.26759 74.43534
#
# Poissons Ratio (x) = 0.20451 0.42597
# Poissons Ratio (y) = 0.34291 1.31749
# Poissons Ratio (z) = 0.17529 0.32333
#
# Static dielectric constant tensor:
#      x y z
#    x 1.581110 0.000000 0.000000 
#    y 0.000000 1.571130 0.000000 
#    z 0.000000 0.000000 1.599150 
# 
# From -- ./inp_files/33625.got.cif
#   From: 2010.05.17/outbox.cif.g08.bks.cpg/sg53_17_cif.got.tgz:33625.got - 2010.06.03 12:45:16.
