data_PCOD9415044
_publ_section_title
;
Structure prediction by ZEFSAII (Michael W. Deem and Ramdas Pophale) SiO2 
 PCOD9415044
Probable space group: P M N A
;
_chemical_formula_sum "Si O2"
_cell_formula_units_Z 48
_cell_length_a 8.268564
_cell_length_b 15.649396
_cell_length_c 19.571240
_cell_angle_alpha 90.000000
_cell_angle_beta 90.000000
_cell_angle_gamma 90.000000
_cell_volume 2532.479947
_symmetry_space_group_name_H-M "P M N A"
_symmetry_group_IT_number 53
_symmetry_cell_setting 'orthorhombic'
loop_
_space_group_symop_operation_xyz
x,y,z
1/2-x,-y,1/2+z
x,-y,-z
1/2-x,y,1/2-z
-x,-y,-z
1/2+x,y,1/2-z
-x,y,z
1/2+x,-y,1/2+z
loop_
_atom_site_type_symbol
_atom_site_label
_atom_site_fract_x
_atom_site_fract_y
_atom_site_fract_z
Si Si1 0.804514 0.125085 0.672147
Si Si2 0.195357 0.527311 0.423945
Si Si3 0.195322 0.777107 0.576434
Si Si4 0.697481 0.970916 0.923868
Si Si5 0.697544 0.279301 0.924265
Si Si6 0.191469 0.624946 0.827714
O O1 0.750000 0.125815 0.750000
O O2 0.749083 0.208758 0.630311
O O3 0.000000 0.125080 0.670457
O O4 0.748990 0.040603 0.631391
O O5 0.250006 0.500000 0.500000
O O6 0.250226 0.624014 0.409308
O O7 0.248625 0.457944 0.369035
O O8 0.000000 0.527554 0.425097
O O9 0.250862 0.874018 0.589689
O O10 0.248138 0.747618 0.500690
O O11 0.248762 0.708750 0.632127
O O12 0.000000 0.777778 0.575509
O O13 0.500000 0.970871 0.923514
O O14 0.745988 0.000000 0.000000
O O15 0.500000 0.278833 0.924233
O O16 0.250000 0.624169 0.750000
O O17 0.000000 0.624874 0.828270
#
# Coordination Sequence:
#
# PCOD9415044 Si02
#       6
#     8   8   8   8   8   8
#     4  10  20  35  54  83 118 151 187 232 283 337
#     4  10  19  36  63  90 115 149 190 235 288 348
#     4  10  18  35  62  89 113 148 195 241 286 341
#     4   9  16  30  59  89 111 145 196 239 275 335
#     4   9  17  32  59  87 113 147 191 231 278 344
#     4  12  26  42  59  84 119 155 193 243 296 346
#
# _framework density 18.953754
#
# number of rings (size 3 to 8) (size 9 to 14) (size 15 to 20)
#    0.000    2.000    3.333    1.500    0.000    1.667 
#    0.000    5.833    0.000    1.000    0.000    0.000 
#    0.000    0.000    0.000    0.000    0.000    0.000 
#
# Total GULP energy -268022.286720 kJ/mol
# GULP energy per Si atom -5583.797640 kJ/mol
# Density = 1.891061 g / cm^3
# Si number density = 18.953754 Si / 1000 Ang^3
#
#
#
# Elastic Constant Matrix: (Units=GPa)
#
#
# Indices 1 2 3 4 5 6 
#
# 1 11.6167 25.4893 16.1043 0.0000 0.0000 0.0000
# 2 25.4893 242.6653 131.1352 0.0000 0.0000 0.0000
# 3 16.1043 131.1352 196.6006 0.0000 0.0000 0.0000
# 4 0.0000 0.0000 0.0000 35.7929 0.0000 0.0000
# 5 0.0000 0.0000 0.0000 0.0000 29.0325 0.0000
# 6 0.0000 0.0000 0.0000 0.0000 0.0000 7.1673
#
#
#
# Elastic Compliance Matrix: (Units=1/GPa)
#
#
# Indices 1 2 3 4 5 6 
#
# 1 0.112409 -0.010682 -0.002083 0.000000 0.000000 0.000000
# 2 -0.010682 0.007458 -0.004100 0.000000 0.000000 0.000000
# 3 -0.002083 -0.004100 0.007992 0.000000 0.000000 0.000000
# 4 0.000000 0.000000 0.000000 0.027938 0.000000 0.000000
# 5 0.000000 0.000000 0.000000 0.000000 0.034444 0.000000
# 6 0.000000 0.000000 0.000000 0.000000 0.000000 0.139523
#
#
# Mechanical properties :
#
#
# Convention : Reuss Voigt Hill
#
# Bulk Modulus (GPa) = 10.62363 88.48227 49.55295
# Shear Modulus (GPa) = 12.66237 32.94212 22.80225
#
# Velocity S-wave (km/s) = 2.58750 4.17349 3.47226
# Velocity P-wave (km/s) = 3.81367 8.36711 6.50203
#
# Compressibility (1/GPa) = 0.09412980
#
# Stress axis : x y z
#
# Youngs Moduli (GPa) = 8.89610 134.07572 125.12843
#
# Poissons Ratio (x) = 1.43215 0.26065
# Poissons Ratio (y) = 0.09502 0.51302
# Poissons Ratio (z) = 0.01853 0.54970
#
# Static dielectric constant tensor:
#      x y z
#    x 1.665070 0.000000 0.000000 
#    y 0.000000 1.664020 0.000000 
#    z 0.000000 0.000000 1.580950 
# 
# From -- ./inp_files/26192.got.cif
#   From: 2010.05.17/outbox.cif.g08.bks.cpg/sg53_14_cif.got.tgz:26192.got - 2010.06.03 12:45:16.
