data_PCOD9415667
_publ_section_title
;
Structure prediction by ZEFSAII (Michael W. Deem and Ramdas Pophale) SiO2 
 PCOD9415667
Probable space group: P M N A
;
_chemical_formula_sum "Si O2"
_cell_formula_units_Z 64
_cell_length_a 7.872679
_cell_length_b 26.978164
_cell_length_c 14.336556
_cell_angle_alpha 90.000000
_cell_angle_beta 90.000000
_cell_angle_gamma 90.000000
_cell_volume 3044.947224
_symmetry_space_group_name_H-M "P M N A"
_symmetry_group_IT_number 53
_symmetry_cell_setting 'orthorhombic'
loop_
_space_group_symop_operation_xyz
x,y,z
1/2-x,-y,1/2+z
x,-y,-z
1/2-x,y,1/2-z
-x,-y,-z
1/2+x,y,1/2-z
-x,y,z
1/2+x,-y,1/2+z
loop_
_atom_site_type_symbol
_atom_site_label
_atom_site_fract_x
_atom_site_fract_y
_atom_site_fract_z
Si Si1 0.809354 0.905394 0.351049
Si Si2 0.190837 0.989967 0.888985
Si Si3 0.795321 0.522638 0.360140
Si Si4 0.795318 0.780909 0.642176
Si Si5 0.708098 0.316448 0.035370
Si Si6 0.795167 0.584654 0.640836
Si Si7 0.294145 0.884738 0.942426
Si Si8 0.704333 0.368373 0.857411
O O1 0.750000 0.887668 0.250000
O O2 0.726958 0.890318 0.450491
O O3 0.000000 0.887765 0.359079
O O4 0.801713 0.965440 0.349497
O O5 0.244249 0.933004 0.882214
O O6 0.000000 0.996613 0.853445
O O7 0.192129 0.000000 0.000000
O O8 0.750000 0.521671 0.250000
O O9 0.734116 0.469176 0.396884
O O10 0.733476 0.576948 0.390514
O O11 0.000000 0.522753 0.371570
O O12 0.750000 0.774944 0.750000
O O13 0.732118 0.734010 0.582699
O O14 0.734283 0.833596 0.602593
O O15 0.000000 0.781548 0.634882
O O16 0.500000 0.315498 0.038385
O O17 0.764786 0.365507 0.091220
O O18 0.761305 0.326322 0.928971
O O19 0.750000 0.587318 0.750000
O O20 0.000000 0.584089 0.631955
O O21 0.500000 0.885320 0.945315
O O22 0.750000 0.360688 0.750000
O O23 0.500000 0.370291 0.862133
#
# Coordination Sequence:
#
# PCOD9415667 Si02
#       8
#     8   8   8   8   8   8   8   8
#     4  10  19  32  51  76 107 141 173 206 247 295
#     4   9  17  30  50  76 105 136 170 207 244 286
#     4   8  14  24  41  65  93 123 156 193 235 286
#     4  10  21  38  57  76  98 127 164 206 251 296
#     4   9  18  32  51  72  95 125 162 203 247 293
#     4   9  16  27  44  68  96 126 159 197 242 291
#     4   9  19  35  53  73 102 139 174 208 250 299
#     4   9  17  31  49  69  95 127 160 197 241 291
#
# _framework density 21.018426999999999
#
# number of rings (size 3 to 8) (size 9 to 14) (size 15 to 20)
#    0.000    2.875    0.000    1.125    0.000    3.500 
#    0.000    5.625    0.000    0.000    0.000    8.750 
#    0.000    0.000    0.000    0.000    0.000    0.000 
#
# Total GULP energy -356731.582147 kJ/mol
# GULP energy per Si atom -5573.930971 kJ/mol
# Density = 2.097059 g / cm^3
# Si number density = 21.018427 Si / 1000 Ang^3
#
#
#
# Elastic Constant Matrix: (Units=GPa)
#
#
# Indices 1 2 3 4 5 6 
#
# 1 20.1581 -2.2329 -5.5507 0.0000 0.0000 0.0000
# 2 -2.2329 150.7028 59.5643 0.0000 0.0000 0.0000
# 3 -5.5507 59.5643 95.9991 0.0000 0.0000 0.0000
# 4 0.0000 0.0000 0.0000 27.4536 0.0000 0.0000
# 5 0.0000 0.0000 0.0000 0.0000 19.0215 0.0000
# 6 0.0000 0.0000 0.0000 0.0000 0.0000 9.2316
#
#
#
# Elastic Compliance Matrix: (Units=1/GPa)
#
#
# Indices 1 2 3 4 5 6 
#
# 1 0.050443 -0.000537 0.003250 0.000000 0.000000 0.000000
# 2 -0.000537 0.008797 -0.005490 0.000000 0.000000 0.000000
# 3 0.003250 -0.005490 0.014011 0.000000 0.000000 0.000000
# 4 0.000000 0.000000 0.000000 0.036425 0.000000 0.000000
# 5 0.000000 0.000000 0.000000 0.000000 0.052572 0.000000
# 6 0.000000 0.000000 0.000000 0.000000 0.000000 0.108324
#
#
# Mechanical properties :
#
#
# Convention : Reuss Voigt Hill
#
# Bulk Modulus (GPa) = 14.77150 41.15792 27.96471
# Shear Modulus (GPa) = 16.73966 25.47995 21.10980
#
# Velocity S-wave (km/s) = 2.82517 3.48554 3.17258
# Velocity P-wave (km/s) = 4.20538 5.98523 5.17244
#
# Compressibility (1/GPa) = 0.06769795
#
# Stress axis : x y z
#
# Youngs Moduli (GPa) = 19.82424 113.67109 71.37382
#
# Poissons Ratio (x) = 0.06105 -0.23196
# Poissons Ratio (y) = 0.01065 0.39181
# Poissons Ratio (z) = -0.06443 0.62400
#
# Static dielectric constant tensor:
#      x y z
#    x 1.813690 0.000000 0.000000 
#    y 0.000000 1.756250 0.000000 
#    z 0.000000 0.000000 1.785550 
# 
# From -- ./inp_files/20929.got.cif
#   From: 2010.05.17/outbox.cif.g08.bks.cpg/sg53_11_cif.got.tgz:20929.got - 2010.06.03 12:45:16.
