data_PCOD9415271
_publ_section_title
;
Structure prediction by ZEFSAII (Michael W. Deem and Ramdas Pophale) SiO2 
 PCOD9415271
Probable space group: P M N A
;
_chemical_formula_sum "Si O2"
_cell_formula_units_Z 64
_cell_length_a 20.846283
_cell_length_b 9.179909
_cell_length_c 18.939830
_cell_angle_alpha 90.000000
_cell_angle_beta 90.000000
_cell_angle_gamma 90.000000
_cell_volume 3624.458086
_symmetry_space_group_name_H-M "P M N A"
_symmetry_group_IT_number 53
_symmetry_cell_setting 'orthorhombic'
loop_
_space_group_symop_operation_xyz
x,y,z
1/2-x,-y,1/2+z
x,-y,-z
1/2-x,y,1/2-z
-x,-y,-z
1/2+x,y,1/2-z
-x,y,z
1/2+x,-y,1/2+z
loop_
_atom_site_type_symbol
_atom_site_label
_atom_site_fract_x
_atom_site_fract_y
_atom_site_fract_z
Si Si1 0.178389 0.881736 0.333531
Si Si2 0.308314 0.551641 0.201302
Si Si3 0.795921 0.618937 0.553489
Si Si4 0.074475 0.391158 0.266258
Si Si5 0.568406 0.306832 0.076418
Si Si6 0.775014 0.074869 0.073558
Si Si7 0.072921 0.024391 0.576985
Si Si8 0.322707 0.859630 0.723911
O O1 0.200571 0.721108 0.316294
O O2 0.224102 0.966226 0.388825
O O3 0.110927 0.870845 0.373190
O O4 0.170195 0.988333 0.266591
O O5 0.250000 0.506596 0.250000
O O6 0.301743 0.454995 0.130381
O O7 0.375472 0.524609 0.242841
O O8 0.768451 0.500000 0.500000
O O9 0.869381 0.655930 0.531862
O O10 0.758543 0.770646 0.556207
O O11 0.067268 0.393368 0.351034
O O12 0.120201 0.253368 0.243754
O O13 0.000000 0.390849 0.238765
O O14 0.500000 0.322651 0.039140
O O15 0.573592 0.140694 0.104514
O O16 0.821810 0.111064 0.139740
O O17 0.797316 0.000000 0.000000
O O18 0.000000 0.071564 0.568114
O O19 0.102657 0.000000 0.500000
O O20 0.250000 0.812477 0.750000
#
# Coordination Sequence:
#
# PCOD9415271 Si02
#       8
#     8   8   8   8   8   8   8   8
#     4  11  20  33  55  78 107 144 182 226 265 313
#     4  11  22  36  52  77 112 142 178 225 274 324
#     4  11  22  33  50  74 104 144 176 217 269 318
#     4  10  19  35  56  76 103 141 184 224 266 322
#     4   9  17  31  47  68  99 139 180 213 246 299
#     4  11  21  35  53  76 104 135 179 226 273 328
#     4  10  19  30  48  73 107 147 180 215 256 302
#     4  10  19  35  58  81 104 141 182 222 277 322
#
# _framework density 17.657812
#
# number of rings (size 3 to 8) (size 9 to 14) (size 15 to 20)
#    0.000    1.625    2.500    5.625    1.750    0.750 
#    0.000    0.000    0.000    0.375    0.000    0.000 
#    0.000   20.000    0.000    0.000    0.000    0.875 
#
# Total GULP energy -356320.447136 kJ/mol
# GULP energy per Si atom -5567.506987 kJ/mol
# Density = 1.761762 g / cm^3
# Si number density = 17.657812 Si / 1000 Ang^3
#
#
#
# Elastic Constant Matrix: (Units=GPa)
#
#
# Indices 1 2 3 4 5 6 
#
# 1 80.9832 23.8343 30.1480 0.0000 0.0000 0.0000
# 2 23.8343 91.3974 29.2951 0.0000 0.0000 0.0000
# 3 30.1480 29.2951 81.5601 0.0000 0.0000 0.0000
# 4 0.0000 0.0000 0.0000 15.0190 0.0000 0.0000
# 5 0.0000 0.0000 0.0000 0.0000 11.5302 0.0000
# 6 0.0000 0.0000 0.0000 0.0000 0.0000 2.0531
#
#
#
# Elastic Compliance Matrix: (Units=1/GPa)
#
#
# Indices 1 2 3 4 5 6 
#
# 1 0.014761 -0.002374 -0.004604 0.000000 0.000000 0.000000
# 2 -0.002374 0.012746 -0.003701 0.000000 0.000000 0.000000
# 3 -0.004604 -0.003701 0.015292 0.000000 0.000000 0.000000
# 4 0.000000 0.000000 0.000000 0.066582 0.000000 0.000000
# 5 0.000000 0.000000 0.000000 0.000000 0.086728 0.000000
# 6 0.000000 0.000000 0.000000 0.000000 0.000000 0.487070
#
#
# Mechanical properties :
#
#
# Convention : Reuss Voigt Hill
#
# Bulk Modulus (GPa) = 46.63601 46.72174 46.67887
# Shear Modulus (GPa) = 7.02560 17.09801 12.06180
#
# Velocity S-wave (km/s) = 1.99684 3.11512 2.61643
# Velocity P-wave (km/s) = 5.63780 6.28137 5.96827
#
# Compressibility (1/GPa) = 0.02144266
#
# Stress axis : x y z
#
# Youngs Moduli (GPa) = 67.74776 78.45304 65.39420
#
# Poissons Ratio (x) = 0.18622 0.30105
# Poissons Ratio (y) = 0.16081 0.24202
# Poissons Ratio (z) = 0.31188 0.29035
#
# Static dielectric constant tensor:
#      x y z
#    x 1.656990 0.000000 0.000000 
#    y 0.000000 1.662550 0.000000 
#    z 0.000000 0.000000 1.632900 
# 
# From -- ./inp_files/33094.got.cif
#   From: 2010.05.17/outbox.cif.g08.bks.cpg/sg53_17_cif.got.tgz:33094.got - 2010.06.03 12:45:16.
