data_PCOD9415167
_publ_section_title
;
Structure prediction by ZEFSAII (Michael W. Deem and Ramdas Pophale) SiO2 
 PCOD9415167
Probable space group: P M N A
;
_chemical_formula_sum "Si O2"
_cell_formula_units_Z 64
_cell_length_a 8.953788
_cell_length_b 14.092585
_cell_length_c 33.111013
_cell_angle_alpha 90.000000
_cell_angle_beta 90.000000
_cell_angle_gamma 90.000000
_cell_volume 4178.014454
_symmetry_space_group_name_H-M "P M N A"
_symmetry_group_IT_number 53
_symmetry_cell_setting 'orthorhombic'
loop_
_space_group_symop_operation_xyz
x,y,z
1/2-x,-y,1/2+z
x,-y,-z
1/2-x,y,1/2-z
-x,-y,-z
1/2+x,y,1/2-z
-x,y,z
1/2+x,-y,1/2+z
loop_
_atom_site_type_symbol
_atom_site_label
_atom_site_fract_x
_atom_site_fract_y
_atom_site_fract_z
Si Si1 0.672426 0.494962 0.707768
Si Si2 0.678886 0.768870 0.022390
Si Si3 0.826832 0.497934 0.377056
Si Si4 0.672593 0.274104 0.291069
Si Si5 0.679617 0.435036 0.539129
Si Si6 0.173631 0.841475 0.940914
Si Si7 0.170463 0.269382 0.372619
Si Si8 0.671407 0.971850 0.047697
O O1 0.750000 0.464374 0.750000
O O2 0.500000 0.464052 0.706992
O O3 0.753516 0.468974 0.665499
O O4 0.672752 0.610382 0.708810
O O5 0.500000 0.757398 0.023307
O O6 0.758658 0.671216 0.033219
O O7 0.716290 0.861516 0.049646
O O8 0.730816 0.799495 0.977837
O O9 0.743644 0.528298 0.418094
O O10 0.824440 0.383272 0.376192
O O11 0.000000 0.528490 0.378682
O O12 0.750000 0.242505 0.250000
O O13 0.500000 0.244451 0.294637
O O14 0.774646 0.243454 0.328165
O O15 0.723809 0.500000 0.500000
O O16 0.500000 0.435105 0.540587
O O17 0.214772 0.776960 0.903287
O O18 0.000000 0.837970 0.951372
O O19 0.223947 0.949538 0.932684
O O20 0.000000 0.238917 0.380734
O O21 0.500000 0.981919 0.061488
O O22 0.672748 0.000000 0.000000
#
# Coordination Sequence:
#
# PCOD9415167 Si02
#       8
#     8   8   8   8   8   8   8   8
#     4   9  16  27  44  64  87 114 146 186 230 273
#     4  10  20  34  50  65  85 116 151 186 224 266
#     4  10  20  32  46  64  88 121 159 193 227 269
#     4   9  16  26  40  59  84 114 147 180 217 263
#     4  11  23  35  47  65  91 123 158 194 230 269
#     4  11  20  29  45  68  91 114 144 183 225 267
#     4  10  19  30  44  62  87 119 152 186 222 261
#     4   8  16  31  48  65  85 110 141 178 220 263
#
# _framework density 15.31828
#
# number of rings (size 3 to 8) (size 9 to 14) (size 15 to 20)
#    0.000    2.250    0.000    4.875    0.000   10.250 
#    0.000    0.000    0.000    0.000    0.000    0.000 
#    0.000    1.000    0.000    3.750    0.000    5.750 
#
# Total GULP energy -356594.709820 kJ/mol
# GULP energy per Si atom -5571.792341 kJ/mol
# Density = 1.528341 g / cm^3
# Si number density = 15.318280 Si / 1000 Ang^3
#
#
#
# Elastic Constant Matrix: (Units=GPa)
#
#
# Indices 1 2 3 4 5 6 
#
# 1 75.2892 27.3176 32.7080 0.0000 0.0000 0.0000
# 2 27.3176 46.8387 22.9044 0.0000 0.0000 0.0000
# 3 32.7080 22.9044 90.0369 0.0000 0.0000 0.0000
# 4 0.0000 0.0000 0.0000 3.6610 0.0000 0.0000
# 5 0.0000 0.0000 0.0000 0.0000 27.1226 0.0000
# 6 0.0000 0.0000 0.0000 0.0000 0.0000 31.4519
#
#
#
# Elastic Compliance Matrix: (Units=1/GPa)
#
#
# Indices 1 2 3 4 5 6 
#
# 1 0.018312 -0.008482 -0.004495 0.000000 0.000000 0.000000
# 2 -0.008482 0.028312 -0.004121 0.000000 0.000000 0.000000
# 3 -0.004495 -0.004121 0.013788 0.000000 0.000000 0.000000
# 4 0.000000 0.000000 0.000000 0.273149 0.000000 0.000000
# 5 0.000000 0.000000 0.000000 0.000000 0.036870 0.000000
# 6 0.000000 0.000000 0.000000 0.000000 0.000000 0.031795
#
#
# Mechanical properties :
#
#
# Convention : Reuss Voigt Hill
#
# Bulk Modulus (GPa) = 38.14395 42.00275 40.07335
# Shear Modulus (GPa) = 11.23192 21.06274 16.14733
#
# Velocity S-wave (km/s) = 2.71077 3.71213 3.25025
# Velocity P-wave (km/s) = 5.89514 6.77147 6.34844
#
# Compressibility (1/GPa) = 0.02621648
#
# Stress axis : x y z
#
# Youngs Moduli (GPa) = 54.60766 35.32048 72.52883
#
# Poissons Ratio (x) = 0.29960 0.32599
# Poissons Ratio (y) = 0.46321 0.29888
# Poissons Ratio (z) = 0.24544 0.14555
#
# Static dielectric constant tensor:
#      x y z
#    x 1.519170 0.000000 0.000000 
#    y 0.000000 1.508390 0.000000 
#    z 0.000000 0.000000 1.521380 
# 
# From -- ./inp_files/38459.got.cif
#   From: 2010.05.17/outbox.cif.g08.bks.cpg/sg53_20_cif.got.tgz:38459.got - 2010.06.03 12:45:16.
