data_PCOD9415278
_publ_section_title
;
Structure prediction by ZEFSAII (Michael W. Deem and Ramdas Pophale) SiO2 
 PCOD9415278
Probable space group: P M N A
;
_chemical_formula_sum "Si O2"
_cell_formula_units_Z 36
_cell_length_a 19.350460
_cell_length_b 11.650795
_cell_length_c 9.334172
_cell_angle_alpha 90.000000
_cell_angle_beta 90.000000
_cell_angle_gamma 90.000000
_cell_volume 2104.372674
_symmetry_space_group_name_H-M "P M N A"
_symmetry_group_IT_number 53
_symmetry_cell_setting 'orthorhombic'
loop_
_space_group_symop_operation_xyz
x,y,z
1/2-x,-y,1/2+z
x,-y,-z
1/2-x,y,1/2-z
-x,-y,-z
1/2+x,y,1/2-z
-x,y,z
1/2+x,-y,1/2+z
loop_
_atom_site_type_symbol
_atom_site_label
_atom_site_fract_x
_atom_site_fract_y
_atom_site_fract_z
Si Si1 0.081215 0.822690 0.216148
Si Si2 0.653687 0.000000 0.500000
Si Si3 0.919044 0.365882 0.015118
Si Si4 0.419822 0.135646 0.029507
Si Si5 0.675779 0.204427 0.295706
O O1 0.111473 0.922936 0.115060
O O2 0.107593 0.814754 0.378356
O O3 0.000000 0.848823 0.230128
O O4 0.089248 0.703167 0.133411
O O5 0.690256 0.904035 0.597981
O O6 0.869579 0.299299 0.123431
O O7 0.000000 0.353333 0.057561
O O8 0.903956 0.500000 0.000000
O O9 0.500000 0.171934 0.057271
O O10 0.370421 0.163557 0.161619
O O11 0.421043 0.000000 0.000000
O O12 0.750000 0.250233 0.250000
#
# Coordination Sequence:
#
# PCOD9415278 Si02
#       5
#     8   4   8   8   8
#     4   9  17  30  53  81 106 136 178 226 273 321
#     4  10  19  30  48  74 109 148 174 212 266 336
#     4   9  19  39  62  81 105 144 196 240 274 321
#     4  10  19  33  53  80 112 142 178 226 276 328
#     4  11  23  35  53  80 115 148 183 222 279 338
#
# _framework density 17.107236
#
# number of rings (size 3 to 8) (size 9 to 14) (size 15 to 20)
#    0.000    2.222    2.222    1.000    1.556    1.778 
#    0.000    6.667    0.000    5.333    0.000    0.000 
#    0.000    0.000    0.000    0.000    0.000    0.000 
#
# Total GULP energy -200568.506208 kJ/mol
# GULP energy per Si atom -5571.347395 kJ/mol
# Density = 1.706830 g / cm^3
# Si number density = 17.107236 Si / 1000 Ang^3
#
#
#
# Elastic Constant Matrix: (Units=GPa)
#
#
# Indices 1 2 3 4 5 6 
#
# 1 68.5300 37.3692 53.3352 0.0000 0.0000 0.0000
# 2 37.3692 100.6018 33.1875 0.0000 0.0000 0.0000
# 3 53.3352 33.1875 114.7093 0.0000 0.0000 0.0000
# 4 0.0000 0.0000 0.0000 12.0024 0.0000 0.0000
# 5 0.0000 0.0000 0.0000 0.0000 4.5918 0.0000
# 6 0.0000 0.0000 0.0000 0.0000 0.0000 -0.6413
#
#
#
# Elastic Compliance Matrix: (Units=1/GPa)
#
#
# Indices 1 2 3 4 5 6 
#
# 1 0.026013 -0.006271 -0.010281 0.000000 0.000000 0.000000
# 2 -0.006271 0.012501 -0.000701 0.000000 0.000000 0.000000
# 3 -0.010281 -0.000701 0.013701 0.000000 0.000000 0.000000
# 4 0.000000 0.000000 0.000000 0.083316 0.000000 0.000000
# 5 0.000000 0.000000 0.000000 0.000000 0.217777 0.000000
# 6 0.000000 0.000000 0.000000 0.000000 0.000000 -1.559277
#
#
# Mechanical properties :
#
#
# Convention : Reuss Voigt Hill
#
# Bulk Modulus (GPa) = 56.46852 59.06945 57.76898
# Shear Modulus (GPa) = -4.28978 13.85387 4.78204
#
# Velocity S-wave (km/s) = -1.58525 2.84883 1.67374
# Velocity P-wave (km/s) = 5.45248 6.73981 6.13003
#
# Compressibility (1/GPa) = 0.01770898
#
# Stress axis : x y z
#
# Youngs Moduli (GPa) = 38.44238 79.99434 72.98986
#
# Poissons Ratio (x) = 0.50166 0.75038
# Poissons Ratio (y) = 0.24108 0.05116
# Poissons Ratio (z) = 0.39521 0.05607
#
# Static dielectric constant tensor:
#      x y z
#    x 1.571480 0.000000 0.000000 
#    y 0.000000 1.562730 0.000000 
#    z 0.000000 0.000000 1.645890 
# 
# From -- ./inp_files/10691.got.cif
#   From: 2010.05.17/outbox.cif.g08.bks.cpg/sg53_6_cif.got.tgz:10691.got - 2010.06.03 12:45:16.
