data_PCOD9415687
_publ_section_title
;
Structure prediction by ZEFSAII (Michael W. Deem and Ramdas Pophale) SiO2 
 PCOD9415687
Probable space group: P M N A
;
_chemical_formula_sum "Si O2"
_cell_formula_units_Z 56
_cell_length_a 25.145027
_cell_length_b 11.516418
_cell_length_c 11.085834
_cell_angle_alpha 90.000000
_cell_angle_beta 90.000000
_cell_angle_gamma 90.000000
_cell_volume 3210.242922
_symmetry_space_group_name_H-M "P M N A"
_symmetry_group_IT_number 53
_symmetry_cell_setting 'orthorhombic'
loop_
_space_group_symop_operation_xyz
x,y,z
1/2-x,-y,1/2+z
x,-y,-z
1/2-x,y,1/2-z
-x,-y,-z
1/2+x,y,1/2-z
-x,y,z
1/2+x,-y,1/2+z
loop_
_atom_site_type_symbol
_atom_site_label
_atom_site_fract_x
_atom_site_fract_y
_atom_site_fract_z
Si Si1 0.150096 0.153587 0.067984
Si Si2 0.229285 0.134115 0.464699
Si Si3 0.691470 0.739389 0.191290
Si Si4 0.850739 0.752070 0.688272
Si Si5 0.706797 0.518911 0.858746
Si Si6 0.937983 0.936530 0.626386
Si Si7 0.616829 0.915905 0.328217
O O1 0.138552 0.248290 0.168646
O O2 0.151828 0.028534 0.135037
O O3 0.209866 0.173716 0.023105
O O4 0.107180 0.138924 0.961154
O O5 0.195326 0.206469 0.559601
O O6 0.201216 0.167471 0.339820
O O7 0.225581 0.000000 0.500000
O O8 0.750000 0.752761 0.250000
O O9 0.680931 0.603039 0.180743
O O10 0.649380 0.816540 0.261520
O O11 0.834484 0.625288 0.642943
O O12 0.900307 0.823952 0.635504
O O13 0.750000 0.543480 0.750000
O O14 0.726335 0.500000 0.000000
O O15 0.000000 0.905908 0.630140
O O16 0.926354 0.000000 0.500000
O O17 0.924991 0.025490 0.737030
#
# Coordination Sequence:
#
# PCOD9415687 Si02
#       7
#     8   8   8   8   8   8   8
#     4  10  19  32  51  82 119 146 185 228 289 368
#     4  12  18  28  49  77 111 150 183 227 280 348
#     4  11  20  31  50  76 115 159 195 229 272 343
#     4  11  22  35  54  77 111 155 198 239 295 347
#     4  11  24  38  54  81 120 167 207 241 282 349
#     4  10  22  40  63  87 112 146 198 260 315 360
#     4  10  19  35  52  84 116 148 186 239 297 359
#
# _framework density 17.444163
#
# number of rings (size 3 to 8) (size 9 to 14) (size 15 to 20)
#    0.000    1.286    4.286    4.286    0.000    0.000 
#    0.000    5.714    0.000    1.286    0.000    0.000 
#    0.000   12.000    0.000    0.000    0.000    0.000 
#
# Total GULP energy -311828.723102 kJ/mol
# GULP energy per Si atom -5568.370055 kJ/mol
# Density = 1.740446 g / cm^3
# Si number density = 17.444163 Si / 1000 Ang^3
#
#
#
# Elastic Constant Matrix: (Units=GPa)
#
#
# Indices 1 2 3 4 5 6 
#
# 1 61.8801 41.9051 29.5574 0.0000 0.0000 0.0000
# 2 41.9051 92.3066 29.0596 0.0000 0.0000 0.0000
# 3 29.5574 29.0596 109.1640 0.0000 0.0000 0.0000
# 4 0.0000 0.0000 0.0000 20.2317 0.0000 0.0000
# 5 0.0000 0.0000 0.0000 0.0000 20.1008 0.0000
# 6 0.0000 0.0000 0.0000 0.0000 0.0000 14.6980
#
#
#
# Elastic Compliance Matrix: (Units=1/GPa)
#
#
# Indices 1 2 3 4 5 6 
#
# 1 0.024889 -0.010017 -0.004072 0.000000 0.000000 0.000000
# 2 -0.010017 0.015856 -0.001509 0.000000 0.000000 0.000000
# 3 -0.004072 -0.001509 0.010665 0.000000 0.000000 0.000000
# 4 0.000000 0.000000 0.000000 0.049427 0.000000 0.000000
# 5 0.000000 0.000000 0.000000 0.000000 0.049749 0.000000
# 6 0.000000 0.000000 0.000000 0.000000 0.000000 0.068036
#
#
# Mechanical properties :
#
#
# Convention : Reuss Voigt Hill
#
# Bulk Modulus (GPa) = 49.47179 51.59943 50.53561
# Shear Modulus (GPa) = 19.48887 21.86134 20.67511
#
# Velocity S-wave (km/s) = 3.34610 3.54392 3.44643
# Velocity P-wave (km/s) = 6.58409 6.81101 6.69851
#
# Compressibility (1/GPa) = 0.02021354
#
# Stress axis : x y z
#
# Youngs Moduli (GPa) = 40.17844 63.06811 93.76640
#
# Poissons Ratio (x) = 0.63175 0.38186
# Poissons Ratio (y) = 0.40247 0.14146
# Poissons Ratio (z) = 0.16362 0.09515
#
# Static dielectric constant tensor:
#      x y z
#    x 1.569860 0.000000 0.000000 
#    y 0.000000 1.589200 0.000000 
#    z 0.000000 0.000000 1.754010 
# 
# From -- ./inp_files/18418.got.cif
#   From: 2010.05.17/outbox.cif.g08.bks.cpg/sg53_10_cif.got.tgz:18418.got - 2010.06.03 12:45:16.
