data_PCOD9415847
_publ_section_title
;
Structure prediction by ZEFSAII (Michael W. Deem and Ramdas Pophale) SiO2 
 PCOD9415847
Probable space group: P M N A
;
_chemical_formula_sum "Si O2"
_cell_formula_units_Z 56
_cell_length_a 8.559328
_cell_length_b 17.215623
_cell_length_c 21.925615
_cell_angle_alpha 90.000000
_cell_angle_beta 90.000000
_cell_angle_gamma 90.000000
_cell_volume 3230.830668
_symmetry_space_group_name_H-M "P M N A"
_symmetry_group_IT_number 53
_symmetry_cell_setting 'orthorhombic'
loop_
_space_group_symop_operation_xyz
x,y,z
1/2-x,-y,1/2+z
x,-y,-z
1/2-x,y,1/2-z
-x,-y,-z
1/2+x,y,1/2-z
-x,y,z
1/2+x,-y,1/2+z
loop_
_atom_site_type_symbol
_atom_site_label
_atom_site_fract_x
_atom_site_fract_y
_atom_site_fract_z
Si Si1 0.315157 0.147722 0.317638
Si Si2 0.311544 0.544156 0.437988
Si Si3 0.813530 0.698014 0.624332
Si Si4 0.811055 0.298447 0.516309
Si Si5 0.313513 0.546446 0.683541
Si Si6 0.810434 0.122261 0.526963
Si Si7 0.311115 0.027548 0.095211
O O1 0.250000 0.154086 0.250000
O O2 0.500000 0.157930 0.318391
O O3 0.236324 0.216025 0.356738
O O4 0.267285 0.065741 0.346726
O O5 0.256749 0.500000 0.500000
O O6 0.500000 0.541102 0.438384
O O7 0.256743 0.632807 0.443106
O O8 0.257482 0.503605 0.375168
O O9 0.765994 0.684964 0.554067
O O10 0.736720 0.634377 0.667906
O O11 0.000000 0.691098 0.628381
O O12 0.756994 0.210934 0.532032
O O13 0.000000 0.299867 0.519455
O O14 0.250000 0.523453 0.750000
O O15 0.500000 0.541869 0.685476
O O16 0.767742 0.082112 0.462685
O O17 0.000000 0.124216 0.527180
O O18 0.763603 0.060211 0.578418
O O19 0.500000 0.030125 0.100844
#
# Coordination Sequence:
#
# PCOD9415847 Si02
#       7
#     8   8   8   8   8   8   8
#     4  12  24  36  51  74 108 146 183 220 263 316
#     4  10  21  37  55  78 110 145 180 225 279 324
#     4  11  21  35  55  80 111 144 181 218 265 325
#     4  10  19  32  55  84 111 140 179 221 264 320
#     4  11  23  39  57  78 109 145 184 226 274 328
#     4   8  15  30  54  80 105 136 169 211 262 312
#     4   9  16  32  55  76 104 138 175 213 256 310
#
# _framework density 17.333003000000001
#
# number of rings (size 3 to 8) (size 9 to 14) (size 15 to 20)
#    0.000    1.857    2.857    3.429    0.000    2.000 
#    0.000    2.143    0.000    0.857    0.000    2.000 
#    0.000    0.000    0.000    0.000    0.000    0.000 
#
# Total GULP energy -312501.254461 kJ/mol
# GULP energy per Si atom -5580.379544 kJ/mol
# Density = 1.729355 g / cm^3
# Si number density = 17.333003 Si / 1000 Ang^3
#
#
#
# Elastic Constant Matrix: (Units=GPa)
#
#
# Indices 1 2 3 4 5 6 
#
# 1 17.6202 6.4036 19.7641 0.0000 0.0000 0.0000
# 2 6.4036 104.7783 40.4237 0.0000 0.0000 0.0000
# 3 19.7641 40.4237 91.3330 0.0000 0.0000 0.0000
# 4 0.0000 0.0000 0.0000 23.8759 0.0000 0.0000
# 5 0.0000 0.0000 0.0000 0.0000 31.3162 0.0000
# 6 0.0000 0.0000 0.0000 0.0000 0.0000 20.7699
#
#
#
# Elastic Compliance Matrix: (Units=1/GPa)
#
#
# Indices 1 2 3 4 5 6 
#
# 1 0.075301 0.002031 -0.017194 0.000000 0.000000 0.000000
# 2 0.002031 0.011564 -0.005558 0.000000 0.000000 0.000000
# 3 -0.017194 -0.005558 0.017129 0.000000 0.000000 0.000000
# 4 0.000000 0.000000 0.000000 0.041883 0.000000 0.000000
# 5 0.000000 0.000000 0.000000 0.000000 0.031932 0.000000
# 6 0.000000 0.000000 0.000000 0.000000 0.000000 0.048147
#
#
# Mechanical properties :
#
#
# Convention : Reuss Voigt Hill
#
# Bulk Modulus (GPa) = 15.98624 38.54602 27.26613
# Shear Modulus (GPa) = 17.34616 25.00175 21.17396
#
# Velocity S-wave (km/s) = 3.16691 3.80206 3.49893
# Velocity P-wave (km/s) = 4.75557 6.44678 5.66465
#
# Compressibility (1/GPa) = 0.06255380
#
# Stress axis : x y z
#
# Youngs Moduli (GPa) = 13.28007 86.47511 58.37889
#
# Poissons Ratio (x) = -0.17566 1.00376
# Poissons Ratio (y) = -0.02698 0.32446
# Poissons Ratio (z) = 0.22834 0.48061
#
# Static dielectric constant tensor:
#      x y z
#    x 1.585390 0.000000 0.000000 
#    y 0.000000 1.587160 0.000000 
#    z 0.000000 0.000000 1.584110 
# 
# From -- ./inp_files/31020.got.cif
#   From: 2010.05.17/outbox.cif.g08.bks.cpg/sg53_16_cif.got.tgz:31020.got - 2010.06.03 12:45:16.
