data_PCOD9415268
_publ_section_title
;
Structure prediction by ZEFSAII (Michael W. Deem and Ramdas Pophale) SiO2 
 PCOD9415268
Probable space group: P M N A
;
_chemical_formula_sum "Si O2"
_cell_formula_units_Z 64
_cell_length_a 26.436762
_cell_length_b 15.639789
_cell_length_c 7.740605
_cell_angle_alpha 90.000000
_cell_angle_beta 90.000000
_cell_angle_gamma 90.000000
_cell_volume 3200.472184
_symmetry_space_group_name_H-M "P M N A"
_symmetry_group_IT_number 53
_symmetry_cell_setting 'orthorhombic'
loop_
_space_group_symop_operation_xyz
x,y,z
1/2-x,-y,1/2+z
x,-y,-z
1/2-x,y,1/2-z
-x,-y,-z
1/2+x,y,1/2-z
-x,y,z
1/2+x,-y,1/2+z
loop_
_atom_site_type_symbol
_atom_site_label
_atom_site_fract_x
_atom_site_fract_y
_atom_site_fract_z
Si Si1 0.649206 0.812498 0.130062
Si Si2 0.659301 0.671916 0.401975
Si Si3 0.701135 0.058287 0.654435
Si Si4 0.591051 0.444201 0.172321
Si Si5 0.746328 0.222270 0.452410
Si Si6 0.943623 0.603242 0.124764
Si Si7 0.056678 0.283690 0.518563
Si Si8 0.807288 0.502564 0.206011
O O1 0.644551 0.757784 0.304642
O O2 0.663376 0.907149 0.197297
O O3 0.697355 0.772765 0.029753
O O4 0.598400 0.790673 0.028006
O O5 0.708378 0.697710 0.513889
O O6 0.606516 0.635140 0.476944
O O7 0.677232 0.601235 0.261225
O O8 0.750000 0.017127 0.750000
O O9 0.723349 0.141973 0.557130
O O10 0.680338 0.000000 0.500000
O O11 0.565528 0.505051 0.316232
O O12 0.569401 0.351616 0.131598
O O13 0.651385 0.444204 0.203658
O O14 0.582401 0.500000 0.000000
O O15 0.750000 0.206872 0.250000
O O16 0.941843 0.660221 0.302697
O O17 0.000000 0.614851 0.052628
O O18 0.000000 0.250874 0.499147
O O19 0.750000 0.484110 0.250000
O O20 0.813079 0.500000 0.000000
#
# Coordination Sequence:
#
# PCOD9415268 Si02
#       8
#     8   8   8   8   8   8   8   8
#     4   9  18  31  49  72  98 129 163 201 248 297
#     4   9  18  32  46  62  91 125 161 208 257 304
#     4   9  17  31  51  77 107 133 157 189 234 293
#     4   9  17  29  46  66  87 116 162 216 265 308
#     4  10  19  30  48  72  99 130 163 199 245 304
#     4   8  14  26  46  68  87 116 163 216 264 306
#     4   9  16  28  48  71  94 123 165 213 255 298
#     4  11  22  32  43  61  88 125 169 214 263 314
#
# _framework density 19.997047999999999
#
# number of rings (size 3 to 8) (size 9 to 14) (size 15 to 20)
#    0.000    2.750    0.000    3.750    0.000    4.000 
#    0.000    0.000    0.000   13.500    0.000    0.000 
#    0.000   17.000    0.000    1.750    0.000    6.250 
#
# Total GULP energy -356853.975093 kJ/mol
# GULP energy per Si atom -5575.843361 kJ/mol
# Density = 1.995153 g / cm^3
# Si number density = 19.997048 Si / 1000 Ang^3
#
#
#
# Elastic Constant Matrix: (Units=GPa)
#
#
# Indices 1 2 3 4 5 6 
#
# 1 167.0943 40.8845 21.2842 0.0000 0.0000 0.0000
# 2 40.8845 41.5065 10.9522 0.0000 0.0000 0.0000
# 3 21.2842 10.9522 58.9531 0.0000 0.0000 0.0000
# 4 0.0000 0.0000 0.0000 20.1454 0.0000 0.0000
# 5 0.0000 0.0000 0.0000 0.0000 22.8554 0.0000
# 6 0.0000 0.0000 0.0000 0.0000 0.0000 10.3725
#
#
#
# Elastic Compliance Matrix: (Units=1/GPa)
#
#
# Indices 1 2 3 4 5 6 
#
# 1 0.008009 -0.007493 -0.001499 0.000000 0.000000 0.000000
# 2 -0.007493 0.032346 -0.003304 0.000000 0.000000 0.000000
# 3 -0.001499 -0.003304 0.018118 0.000000 0.000000 0.000000
# 4 0.000000 0.000000 0.000000 0.049639 0.000000 0.000000
# 5 0.000000 0.000000 0.000000 0.000000 0.043753 0.000000
# 6 0.000000 0.000000 0.000000 0.000000 0.000000 0.096409
#
#
# Mechanical properties :
#
#
# Convention : Reuss Voigt Hill
#
# Bulk Modulus (GPa) = 29.51667 45.97732 37.74699
# Shear Modulus (GPa) = 17.59572 23.63685 20.61628
#
# Velocity S-wave (km/s) = 2.96956 3.44178 3.21435
# Velocity P-wave (km/s) = 5.15269 6.23189 5.71781
#
# Compressibility (1/GPa) = 0.03387916
#
# Stress axis : x y z
#
# Youngs Moduli (GPa) = 124.85747 30.91619 55.19448
#
# Poissons Ratio (x) = 0.23167 0.08276
# Poissons Ratio (y) = 0.93561 0.18235
# Poissons Ratio (z) = 0.18722 0.10214
#
# Static dielectric constant tensor:
#      x y z
#    x 1.743380 0.000000 0.000000 
#    y 0.000000 1.756920 0.000000 
#    z 0.000000 0.000000 1.787080 
# 
# From -- ./inp_files/11985.got.cif
#   From: 2010.05.17/outbox.cif.g08.bks.cpg/sg53_6_cif.got.tgz:11985.got - 2010.06.03 12:45:16.
