data_PCOD9415331
_publ_section_title
;
Structure prediction by ZEFSAII (Michael W. Deem and Ramdas Pophale) SiO2 
 PCOD9415331
Probable space group: P M N A
;
_chemical_formula_sum "Si O2"
_cell_formula_units_Z 48
_cell_length_a 10.039749
_cell_length_b 29.037762
_cell_length_c 8.180510
_cell_angle_alpha 90.000000
_cell_angle_beta 90.000000
_cell_angle_gamma 90.000000
_cell_volume 2384.879149
_symmetry_space_group_name_H-M "P M N A"
_symmetry_group_IT_number 53
_symmetry_cell_setting 'orthorhombic'
loop_
_space_group_symop_operation_xyz
x,y,z
1/2-x,-y,1/2+z
x,-y,-z
1/2-x,y,1/2-z
-x,-y,-z
1/2+x,y,1/2-z
-x,y,z
1/2+x,-y,1/2+z
loop_
_atom_site_type_symbol
_atom_site_label
_atom_site_fract_x
_atom_site_fract_y
_atom_site_fract_z
Si Si1 0.000000 0.777729 0.544864
Si Si2 0.000000 0.789224 0.944453
Si Si3 0.500000 0.884127 0.950878
Si Si4 0.262167 0.274913 0.449104
Si Si5 0.835225 0.376690 0.080985
Si Si6 0.844177 0.546830 0.399097
Si Si7 0.000000 0.105864 0.050874
Si Si8 0.741114 0.947704 0.946925
O O1 0.124571 0.746784 0.493849
O O2 0.000000 0.784217 0.744547
O O3 0.000000 0.831202 0.492433
O O4 0.871988 0.761638 0.999719
O O5 0.000000 0.841407 0.002907
O O6 0.500000 0.887717 0.750423
O O7 0.626400 0.913442 0.003491
O O8 0.250000 0.275608 0.250000
O O9 0.308101 0.326154 0.495472
O O10 0.750000 0.376282 0.250000
O O11 0.000000 0.383515 0.096780
O O12 0.750914 0.414749 0.982320
O O13 0.856670 0.500000 0.500000
O O14 0.750000 0.532985 0.250000
O O15 0.000000 0.562145 0.366265
O O16 0.875638 0.076073 0.995879
O O17 0.750000 0.947814 0.750000
O O18 0.721859 0.000000 0.000000
#
# Coordination Sequence:
#
# PCOD9415331 Si02
#       8
#     4   4   4   8   8   8   4   8
#     4   9  16  25  43  68 101 135 174 216 272 327
#     4   9  14  27  41  68 101 135 170 216 270 323
#     4   9  17  29  44  68  96 131 163 212 269 321
#     4   9  17  26  44  73 109 144 176 221 276 331
#     4  11  22  36  58  89 126 163 199 242 293 351
#     4  11  25  44  67  94 124 161 204 251 300 351
#     4   9  17  27  46  66  98 127 165 212 265 321
#     4  10  19  31  46  68  94 126 164 209 263 321
#
# _framework density 20.126805999999998
#
# number of rings (size 3 to 8) (size 9 to 14) (size 15 to 20)
#    0.000    2.167    0.833    3.000    4.667    6.667 
#    0.000    0.000    0.000    0.000    0.000    7.000 
#    0.000    0.000    0.000    0.000    0.000    0.000 
#
# Total GULP energy -267227.018641 kJ/mol
# GULP energy per Si atom -5567.229555 kJ/mol
# Density = 2.008100 g / cm^3
# Si number density = 20.126806 Si / 1000 Ang^3
#
#
#
# Elastic Constant Matrix: (Units=GPa)
#
#
# Indices 1 2 3 4 5 6 
#
# 1 234.2386 81.2439 20.9498 0.0000 0.0000 0.0000
# 2 81.2439 131.8807 10.7558 0.0000 0.0000 0.0000
# 3 20.9498 10.7558 12.4725 0.0000 0.0000 0.0000
# 4 0.0000 0.0000 0.0000 14.8298 0.0000 0.0000
# 5 0.0000 0.0000 0.0000 0.0000 -27.8552 0.0000
# 6 0.0000 0.0000 0.0000 0.0000 0.0000 40.2254
#
#
#
# Elastic Compliance Matrix: (Units=1/GPa)
#
#
# Indices 1 2 3 4 5 6 
#
# 1 0.006006 -0.003095 -0.007420 0.000000 0.000000 0.000000
# 2 -0.003095 0.009751 -0.003210 0.000000 0.000000 0.000000
# 3 -0.007420 -0.003210 0.095408 0.000000 0.000000 0.000000
# 4 0.000000 0.000000 0.000000 0.067432 0.000000 0.000000
# 5 0.000000 0.000000 0.000000 0.000000 -0.035900 0.000000
# 6 0.000000 0.000000 0.000000 0.000000 0.000000 0.024860
#
#
# Mechanical properties :
#
#
# Convention : Reuss Voigt Hill
#
# Bulk Modulus (GPa) = 11.94527 67.16563 39.55545
# Shear Modulus (GPa) = 22.43042 23.14949 22.78996
#
# Velocity S-wave (km/s) = 3.34197 3.39511 3.36864
# Velocity P-wave (km/s) = 4.56504 6.98661 5.90137
#
# Compressibility (1/GPa) = 0.08371514
#
# Stress axis : x y z
#
# Youngs Moduli (GPa) = 166.49466 102.55297 10.48132
#
# Poissons Ratio (x) = 0.31740 0.07777
# Poissons Ratio (y) = 0.51529 0.03365
# Poissons Ratio (z) = 1.23532 0.32924
#
# Static dielectric constant tensor:
#      x y z
#    x 1.609160 0.000000 0.000000 
#    y 0.000000 1.696140 0.000000 
#    z 0.000000 0.000000 1.816980 
# 
# From -- ./inp_files/6881.got.cif
#   From: 2010.05.17/outbox.cif.g08.bks.cpg/sg53_4_cif.got.tgz:6881.got - 2010.06.03 12:45:16.
