data_PCOD9415258
_publ_section_title
;
Structure prediction by ZEFSAII (Michael W. Deem and Ramdas Pophale) SiO2 
 PCOD9415258
Probable space group: P M N A
;
_chemical_formula_sum "Si O2"
_cell_formula_units_Z 40
_cell_length_a 9.219360
_cell_length_b 13.027242
_cell_length_c 20.054419
_cell_angle_alpha 90.000000
_cell_angle_beta 90.000000
_cell_angle_gamma 90.000000
_cell_volume 2408.592552
_symmetry_space_group_name_H-M "P M N A"
_symmetry_group_IT_number 53
_symmetry_cell_setting 'orthorhombic'
loop_
_space_group_symop_operation_xyz
x,y,z
1/2-x,-y,1/2+z
x,-y,-z
1/2-x,y,1/2-z
-x,-y,-z
1/2+x,y,1/2-z
-x,y,z
1/2+x,-y,1/2+z
loop_
_atom_site_type_symbol
_atom_site_label
_atom_site_fract_x
_atom_site_fract_y
_atom_site_fract_z
Si Si1 0.827816 0.811675 0.093444
Si Si2 0.327147 0.386909 0.679387
Si Si3 0.172338 0.535749 0.576017
Si Si4 0.833014 0.985669 0.580699
Si Si5 0.325632 0.766469 0.953399
O O1 0.797430 0.726009 0.148859
O O2 0.763954 0.923755 0.109760
O O3 0.000000 0.818354 0.083379
O O4 0.753134 0.775080 0.024570
O O5 0.250000 0.399010 0.750000
O O6 0.500000 0.398848 0.685603
O O7 0.263674 0.468681 0.627074
O O8 0.200357 0.500000 0.500000
O O9 0.205499 0.656970 0.579260
O O10 0.000000 0.520881 0.588318
O O11 0.000000 0.998419 0.601865
O O12 0.829348 0.000000 0.500000
O O13 0.786696 0.867435 0.589524
O O14 0.500000 0.771944 0.965156
#
# Coordination Sequence:
#
# PCOD9415258 Si02
#       5
#     8   8   8   8   8
#     4  10  19  30  47  73 103 132 168 215 260 304
#     4  11  24  38  53  75 105 140 178 221 267 318
#     4  10  19  33  56  80 105 139 177 218 263 316
#     4   8  15  27  45  70 101 133 164 199 244 303
#     4   9  17  30  49  76 105 135 169 206 255 311
#
# _framework density 16.607209999999998
#
# number of rings (size 3 to 8) (size 9 to 14) (size 15 to 20)
#    0.000    2.400    2.000    2.400    0.000    7.200 
#    0.000    0.000    0.000    1.200    0.000    2.800 
#    0.000    0.000    0.000    0.000    0.000    0.000 
#
# Total GULP energy -222997.935336 kJ/mol
# GULP energy per Si atom -5574.948383 kJ/mol
# Density = 1.656941 g / cm^3
# Si number density = 16.607210 Si / 1000 Ang^3
#
#
#
# Elastic Constant Matrix: (Units=GPa)
#
#
# Indices 1 2 3 4 5 6 
#
# 1 61.4097 68.9942 52.8710 0.0000 0.0000 0.0000
# 2 68.9942 168.2909 57.6571 0.0000 0.0000 0.0000
# 3 52.8710 57.6571 74.7175 0.0000 0.0000 0.0000
# 4 0.0000 0.0000 0.0000 12.6250 0.0000 0.0000
# 5 0.0000 0.0000 0.0000 0.0000 8.1878 0.0000
# 6 0.0000 0.0000 0.0000 0.0000 0.0000 25.4331
#
#
#
# Elastic Compliance Matrix: (Units=1/GPa)
#
#
# Indices 1 2 3 4 5 6 
#
# 1 0.056896 -0.012958 -0.030261 0.000000 0.000000 0.000000
# 2 -0.012958 0.011029 0.000659 0.000000 0.000000 0.000000
# 3 -0.030261 0.000659 0.034288 0.000000 0.000000 0.000000
# 4 0.000000 0.000000 0.000000 0.079208 0.000000 0.000000
# 5 0.000000 0.000000 0.000000 0.000000 0.122134 0.000000
# 6 0.000000 0.000000 0.000000 0.000000 0.000000 0.039319
#
#
# Mechanical properties :
#
#
# Convention : Reuss Voigt Hill
#
# Bulk Modulus (GPa) = 58.50489 73.71807 66.11148
# Shear Modulus (GPa) = 11.52893 17.57556 14.55224
#
# Velocity S-wave (km/s) = 2.63765 3.25670 2.96338
# Velocity P-wave (km/s) = 6.67693 7.65683 7.18360
#
# Compressibility (1/GPa) = 0.01709259
#
# Stress axis : x y z
#
# Youngs Moduli (GPa) = 17.57597 90.67133 29.16439
#
# Poissons Ratio (x) = 1.17493 0.88254
# Poissons Ratio (y) = 0.22775 -0.01921
# Poissons Ratio (z) = 0.53186 -0.05973
#
# Static dielectric constant tensor:
#      x y z
#    x 1.551530 0.000000 0.000000 
#    y 0.000000 1.600540 0.000000 
#    z 0.000000 0.000000 1.517970 
# 
# From -- ./inp_files/19899.got.cif
#   From: 2010.05.17/outbox.cif.g08.bks.cpg/sg53_10_cif.got.tgz:19899.got - 2010.06.03 12:45:16.
