data_PCOD9415685
_publ_section_title
;
Structure prediction by ZEFSAII (Michael W. Deem and Ramdas Pophale) SiO2 
 PCOD9415685
Probable space group: P M N A
;
_chemical_formula_sum "Si O2"
_cell_formula_units_Z 56
_cell_length_a 9.292346
_cell_length_b 14.549871
_cell_length_c 23.131813
_cell_angle_alpha 90.000000
_cell_angle_beta 90.000000
_cell_angle_gamma 90.000000
_cell_volume 3127.477457
_symmetry_space_group_name_H-M "P M N A"
_symmetry_group_IT_number 53
_symmetry_cell_setting 'orthorhombic'
loop_
_space_group_symop_operation_xyz
x,y,z
1/2-x,-y,1/2+z
x,-y,-z
1/2-x,y,1/2-z
-x,-y,-z
1/2+x,y,1/2-z
-x,y,z
1/2+x,-y,1/2+z
loop_
_atom_site_type_symbol
_atom_site_label
_atom_site_fract_x
_atom_site_fract_y
_atom_site_fract_z
Si Si1 0.670912 0.897022 0.507826
Si Si2 0.335527 0.453823 0.644631
Si Si3 0.665230 0.283227 0.802484
Si Si4 0.173478 0.633486 0.687725
Si Si5 0.757171 0.598228 0.480149
Si Si6 0.848537 0.214823 0.572762
Si Si7 0.329817 0.270866 0.414007
O O1 0.500000 0.903420 0.513284
O O2 0.714928 0.839470 0.451763
O O3 0.716323 0.827402 0.558918
O O4 0.729067 0.000000 0.500000
O O5 0.500000 0.471197 0.663021
O O6 0.263237 0.369456 0.678545
O O7 0.233732 0.538840 0.660200
O O8 0.336492 0.431253 0.575938
O O9 0.750000 0.238224 0.750000
O O10 0.500000 0.309544 0.788292
O O11 0.658428 0.220729 0.858885
O O12 0.250000 0.644926 0.750000
O O13 0.232836 0.706406 0.641105
O O14 0.000000 0.633425 0.692317
O O15 0.822335 0.500000 0.500000
O O16 0.847712 0.681218 0.452121
O O17 0.689073 0.650156 0.535906
O O18 0.000000 0.171495 0.553954
O O19 0.500000 0.269365 0.399514
#
# Coordination Sequence:
#
# PCOD9415685 Si02
#       7
#     8   8   8   8   8   8   8
#     4   9  19  37  61  87 113 140 170 210 267 332
#     4  11  21  34  52  74 104 145 190 229 267 314
#     4  10  20  34  50  72 104 142 184 226 267 312
#     4  12  25  39  53  72 103 144 189 232 272 316
#     4  10  19  32  51  80 111 147 180 220 263 322
#     4   9  20  34  50  79 111 140 179 222 266 313
#     4  10  20  36  57  83 111 142 182 224 267 323
#
# _framework density 17.905804
#
# number of rings (size 3 to 8) (size 9 to 14) (size 15 to 20)
#    0.000    1.857    1.429    3.000    0.000    8.000 
#    0.000    0.000    0.000    0.857    0.000    2.000 
#    0.000    0.000    0.000    0.000    0.000    0.000 
#
# Total GULP energy -311774.992469 kJ/mol
# GULP energy per Si atom -5567.410580 kJ/mol
# Density = 1.786505 g / cm^3
# Si number density = 17.905804 Si / 1000 Ang^3
#
#
#
# Elastic Constant Matrix: (Units=GPa)
#
#
# Indices 1 2 3 4 5 6 
#
# 1 94.7103 19.8676 52.0478 0.0000 0.0000 0.0000
# 2 19.8676 91.6554 30.5459 0.0000 0.0000 0.0000
# 3 52.0478 30.5459 108.4930 0.0000 0.0000 0.0000
# 4 0.0000 0.0000 0.0000 9.8805 0.0000 0.0000
# 5 0.0000 0.0000 0.0000 0.0000 -19.1141 0.0000
# 6 0.0000 0.0000 0.0000 0.0000 0.0000 10.8044
#
#
#
# Elastic Compliance Matrix: (Units=1/GPa)
#
#
# Indices 1 2 3 4 5 6 
#
# 1 0.014406 -0.000904 -0.006657 0.000000 0.000000 0.000000
# 2 -0.000904 0.012097 -0.002972 0.000000 0.000000 0.000000
# 3 -0.006657 -0.002972 0.013247 0.000000 0.000000 0.000000
# 4 0.000000 0.000000 0.000000 0.101209 0.000000 0.000000
# 5 0.000000 0.000000 0.000000 0.000000 -0.052318 0.000000
# 6 0.000000 0.000000 0.000000 0.000000 0.000000 0.092554
#
#
# Mechanical properties :
#
#
# Convention : Reuss Voigt Hill
#
# Bulk Modulus (GPa) = 53.51970 55.53128 54.52549
# Shear Modulus (GPa) = 23.98187 13.14068 18.56127
#
# Velocity S-wave (km/s) = 3.66366 2.71196 3.22313
# Velocity P-wave (km/s) = 6.91744 6.39426 6.66099
#
# Compressibility (1/GPa) = 0.01868471
#
# Stress axis : x y z
#
# Youngs Moduli (GPa) = 69.41393 82.66551 75.48681
#
# Poissons Ratio (x) = 0.07476 0.50249
# Poissons Ratio (y) = 0.06277 0.22435
# Poissons Ratio (z) = 0.46206 0.24568
#
# Static dielectric constant tensor:
#      x y z
#    x 1.653030 0.000000 0.000000 
#    y 0.000000 1.623200 0.000000 
#    z 0.000000 0.000000 1.644080 
# 
# From -- ./inp_files/30819.got.cif
#   From: 2010.05.17/outbox.cif.g08.bks.cpg/sg53_16_cif.got.tgz:30819.got - 2010.06.03 12:45:16.
