data_PCOD9415465
_publ_section_title
;
Structure prediction by ZEFSAII (Michael W. Deem and Ramdas Pophale) SiO2 
 PCOD9415465
Probable space group: P M N A
;
_chemical_formula_sum "Si O2"
_cell_formula_units_Z 64
_cell_length_a 21.342583
_cell_length_b 16.455548
_cell_length_c 9.703721
_cell_angle_alpha 90.000000
_cell_angle_beta 90.000000
_cell_angle_gamma 90.000000
_cell_volume 3407.984650
_symmetry_space_group_name_H-M "P M N A"
_symmetry_group_IT_number 53
_symmetry_cell_setting 'orthorhombic'
loop_
_space_group_symop_operation_xyz
x,y,z
1/2-x,-y,1/2+z
x,-y,-z
1/2-x,y,1/2-z
-x,-y,-z
1/2+x,y,1/2-z
-x,y,z
1/2+x,-y,1/2+z
loop_
_atom_site_type_symbol
_atom_site_label
_atom_site_fract_x
_atom_site_fract_y
_atom_site_fract_z
Si Si1 0.616915 0.832763 0.832191
Si Si2 0.926249 0.184546 0.808779
Si Si3 0.117801 0.910101 0.943042
Si Si4 0.075608 0.495882 0.341616
Si Si5 0.075357 0.670568 0.817529
Si Si6 0.740066 0.923660 0.904770
Si Si7 0.576484 0.639558 0.362921
Si Si8 0.571002 0.920565 0.074485
O O1 0.600250 0.899801 0.715923
O O2 0.608898 0.747951 0.752993
O O3 0.686065 0.856067 0.889205
O O4 0.572970 0.848101 0.962723
O O5 0.918531 0.153846 0.963712
O O6 0.902036 0.275603 0.795147
O O7 0.896857 0.116585 0.709178
O O8 0.000000 0.188604 0.775921
O O9 0.192086 0.891082 0.951822
O O10 0.106541 0.000000 0.000000
O O11 0.098727 0.500000 0.500000
O O12 0.087399 0.407867 0.276744
O O13 0.097757 0.564481 0.232078
O O14 0.000000 0.506028 0.348131
O O15 0.000000 0.686958 0.818773
O O16 0.093824 0.646718 0.974885
O O17 0.750000 0.955827 0.750000
O O18 0.725684 0.000000 0.000000
O O19 0.500000 0.637062 0.364128
O O20 0.500000 0.943444 0.111551
O O21 0.597492 0.000000 0.000000
#
# Coordination Sequence:
#
# PCOD9415465 Si02
#       8
#     8   8   8   8   8   8   8   8
#     4  11  20  32  51  75 103 133 177 219 272 314
#     4  10  20  33  50  74 107 143 177 217 263 315
#     4  10  20  35  53  74 101 136 181 222 261 314
#     4   9  18  30  49  74 104 140 172 210 262 317
#     4  10  19  31  49  75 107 141 175 213 264 325
#     4   9  20  36  55  75 100 133 179 231 273 310
#     4   9  17  31  48  70 103 139 174 213 254 307
#     4  10  21  33  45  68 104 142 175 211 262 318
#
# _framework density 18.779426999999998
#
# number of rings (size 3 to 8) (size 9 to 14) (size 15 to 20)
#    0.000    2.250    1.250    1.875    1.750    4.250 
#    0.000    0.000    0.000    0.000    0.000    0.000 
#   11.250    0.000    0.000    0.000    0.000    0.000 
#
# Total GULP energy -356483.322718 kJ/mol
# GULP energy per Si atom -5570.051917 kJ/mol
# Density = 1.873668 g / cm^3
# Si number density = 18.779427 Si / 1000 Ang^3
#
#
#
# Elastic Constant Matrix: (Units=GPa)
#
#
# Indices 1 2 3 4 5 6 
#
# 1 21.0561 11.8804 6.3540 0.0000 0.0000 0.0000
# 2 11.8804 103.6204 42.2239 0.0000 0.0000 0.0000
# 3 6.3540 42.2239 88.1225 0.0000 0.0000 0.0000
# 4 0.0000 0.0000 0.0000 32.8693 0.0000 0.0000
# 5 0.0000 0.0000 0.0000 0.0000 7.2682 0.0000
# 6 0.0000 0.0000 0.0000 0.0000 0.0000 22.9215
#
#
#
# Elastic Compliance Matrix: (Units=1/GPa)
#
#
# Indices 1 2 3 4 5 6 
#
# 1 0.050860 -0.005389 -0.001085 0.000000 0.000000 0.000000
# 2 -0.005389 0.012563 -0.005631 0.000000 0.000000 0.000000
# 3 -0.001085 -0.005631 0.014124 0.000000 0.000000 0.000000
# 4 0.000000 0.000000 0.000000 0.030424 0.000000 0.000000
# 5 0.000000 0.000000 0.000000 0.000000 0.137586 0.000000
# 6 0.000000 0.000000 0.000000 0.000000 0.000000 0.043627
#
#
# Mechanical properties :
#
#
# Convention : Reuss Voigt Hill
#
# Bulk Modulus (GPa) = 18.74867 37.07951 27.91409
# Shear Modulus (GPa) = 15.09782 22.76783 18.93282
#
# Velocity S-wave (km/s) = 2.83849 3.48570 3.17861
# Velocity P-wave (km/s) = 4.55499 5.99898 5.32615
#
# Compressibility (1/GPa) = 0.05333712
#
# Stress axis : x y z
#
# Youngs Moduli (GPa) = 19.66174 79.59853 70.80067
#
# Poissons Ratio (x) = 0.42897 0.07682
# Poissons Ratio (y) = 0.10596 0.39868
# Poissons Ratio (z) = 0.02133 0.44822
#
# Static dielectric constant tensor:
#      x y z
#    x 1.655920 0.000000 0.000000 
#    y 0.000000 1.676250 0.000000 
#    z 0.000000 0.000000 1.679900 
# 
# From -- ./inp_files/11993.got.cif
#   From: 2010.05.17/outbox.cif.g08.bks.cpg/sg53_6_cif.got.tgz:11993.got - 2010.06.03 12:45:16.
