data_PCOD9415253
_publ_section_title
;
Structure prediction by ZEFSAII (Michael W. Deem and Ramdas Pophale) SiO2 
 PCOD9415253
Probable space group: P M N A
;
_chemical_formula_sum "Si O2"
_cell_formula_units_Z 64
_cell_length_a 7.594152
_cell_length_b 18.482579
_cell_length_c 20.055671
_cell_angle_alpha 90.000000
_cell_angle_beta 90.000000
_cell_angle_gamma 90.000000
_cell_volume 2815.004240
_symmetry_space_group_name_H-M "P M N A"
_symmetry_group_IT_number 53
_symmetry_cell_setting 'orthorhombic'
loop_
_space_group_symop_operation_xyz
x,y,z
1/2-x,-y,1/2+z
x,-y,-z
1/2-x,y,1/2-z
-x,-y,-z
1/2+x,y,1/2-z
-x,y,z
1/2+x,-y,1/2+z
loop_
_atom_site_type_symbol
_atom_site_label
_atom_site_fract_x
_atom_site_fract_y
_atom_site_fract_z
Si Si1 0.789349 0.118510 0.487320
Si Si2 0.709631 0.622344 0.328058
Si Si3 0.710321 0.779908 0.327776
Si Si4 0.711774 0.934246 0.372365
Si Si5 0.207989 0.428244 0.534253
Si Si6 0.709909 0.757453 0.677868
Si Si7 0.206997 0.280192 0.471738
Si Si8 0.699590 0.083973 0.340679
O O1 0.750386 0.067562 0.549315
O O2 0.726488 0.202057 0.498358
O O3 0.696602 0.092473 0.420545
O O4 0.000000 0.119457 0.475518
O O5 0.750000 0.608252 0.250000
O O6 0.500000 0.625126 0.331830
O O7 0.780461 0.701886 0.350319
O O8 0.772600 0.569279 0.385814
O O9 0.750000 0.777964 0.250000
O O10 0.500000 0.781024 0.339837
O O11 0.784307 0.856118 0.351452
O O12 0.500000 0.935324 0.363139
O O13 0.781806 0.004403 0.333051
O O14 0.282831 0.500000 0.500000
O O15 0.283243 0.352952 0.504336
O O16 0.000000 0.426649 0.518694
O O17 0.750000 0.723163 0.750000
O O18 0.500000 0.762717 0.670929
O O19 0.773306 0.721608 0.608996
O O20 0.784666 0.840041 0.680321
O O21 0.000000 0.279178 0.486818
O O22 0.500000 0.082268 0.313862
#
# Coordination Sequence:
#
# PCOD9415253 Si02
#       8
#     8   8   8   8   8   8   8   8
#     4  10  19  30  47  71  96 125 166 213 258 308
#     4  10  20  36  59  85 115 151 189 225 263 315
#     4   9  19  33  49  71  98 131 171 212 252 299
#     4  10  19  31  46  66  96 132 169 211 263 318
#     4  10  21  38  61  89 119 147 177 219 271 324
#     4  10  20  35  55  77 102 137 184 232 278 328
#     4   9  19  36  56  79 108 140 175 219 271 326
#     4   9  19  33  47  65  94 133 171 212 265 320
#
# _framework density 22.735310999999999
#
# number of rings (size 3 to 8) (size 9 to 14) (size 15 to 20)
#    0.000    2.375    0.000    2.250    0.000    5.250 
#    0.000    0.625    0.000    0.000    0.000    0.000 
#    0.000    0.000    0.000    0.000    0.000    0.000 
#
# Total GULP energy -357044.291161 kJ/mol
# GULP energy per Si atom -5578.817049 kJ/mol
# Density = 2.268356 g / cm^3
# Si number density = 22.735311 Si / 1000 Ang^3
#
#
#
# Elastic Constant Matrix: (Units=GPa)
#
#
# Indices 1 2 3 4 5 6 
#
# 1 63.0850 8.0303 -16.7183 0.0000 0.0000 0.0000
# 2 8.0303 106.0344 53.5109 0.0000 0.0000 0.0000
# 3 -16.7183 53.5109 92.1353 0.0000 0.0000 0.0000
# 4 0.0000 0.0000 0.0000 21.2042 0.0000 0.0000
# 5 0.0000 0.0000 0.0000 0.0000 20.7657 0.0000
# 6 0.0000 0.0000 0.0000 0.0000 0.0000 3.6480
#
#
#
# Elastic Compliance Matrix: (Units=1/GPa)
#
#
# Indices 1 2 3 4 5 6 
#
# 1 0.017904 -0.004237 0.005710 0.000000 0.000000 0.000000
# 2 -0.004237 0.014344 -0.009100 0.000000 0.000000 0.000000
# 3 0.005710 -0.009100 0.017175 0.000000 0.000000 0.000000
# 4 0.000000 0.000000 0.000000 0.047160 0.000000 0.000000
# 5 0.000000 0.000000 0.000000 0.000000 0.048156 0.000000
# 6 0.000000 0.000000 0.000000 0.000000 0.000000 0.274126
#
#
# Mechanical properties :
#
#
# Convention : Reuss Voigt Hill
#
# Bulk Modulus (GPa) = 29.26695 38.98894 34.12795
# Shear Modulus (GPa) = 11.22309 23.55237 17.38773
#
# Velocity S-wave (km/s) = 2.22421 3.22209 2.76848
# Velocity P-wave (km/s) = 4.41554 5.57035 5.02622
#
# Compressibility (1/GPa) = 0.03416824
#
# Stress axis : x y z
#
# Youngs Moduli (GPa) = 55.85287 69.71543 58.22538
#
# Poissons Ratio (x) = 0.29541 -0.33246
# Poissons Ratio (y) = 0.23667 0.52983
# Poissons Ratio (z) = -0.31891 0.63439
#
# Static dielectric constant tensor:
#      x y z
#    x 1.847990 0.000000 0.000000 
#    y 0.000000 1.933280 0.000000 
#    z 0.000000 0.000000 1.853190 
# 
# From -- ./inp_files/31108.got.cif
#   From: 2010.05.17/outbox.cif.g08.bks.cpg/sg53_16_cif.got.tgz:31108.got - 2010.06.03 12:45:16.
