data_PCOD9415377
_publ_section_title
;
Structure prediction by ZEFSAII (Michael W. Deem and Ramdas Pophale) SiO2 
 PCOD9415377
Probable space group: P M N A
;
_chemical_formula_sum "Si O2"
_cell_formula_units_Z 64
_cell_length_a 7.271483
_cell_length_b 13.552344
_cell_length_c 28.985513
_cell_angle_alpha 90.000000
_cell_angle_beta 90.000000
_cell_angle_gamma 90.000000
_cell_volume 2856.395901
_symmetry_space_group_name_H-M "P M N A"
_symmetry_group_IT_number 53
_symmetry_cell_setting 'orthorhombic'
loop_
_space_group_symop_operation_xyz
x,y,z
1/2-x,-y,1/2+z
x,-y,-z
1/2-x,y,1/2-z
-x,-y,-z
1/2+x,y,1/2-z
-x,y,z
1/2+x,-y,1/2+z
loop_
_atom_site_type_symbol
_atom_site_label
_atom_site_fract_x
_atom_site_fract_y
_atom_site_fract_z
Si Si1 0.718477 0.667229 0.304315
Si Si2 0.723805 0.140614 0.641776
Si Si3 0.724629 0.466014 0.352839
Si Si4 0.723775 0.094228 0.469339
Si Si5 0.276069 0.538180 0.450358
Si Si6 0.776730 0.763199 0.046848
Si Si7 0.775408 0.078694 0.137024
Si Si8 0.281001 0.734218 0.695408
O O1 0.750000 0.664428 0.250000
O O2 0.500000 0.667582 0.312867
O O3 0.787873 0.769198 0.326384
O O4 0.786579 0.566761 0.327929
O O5 0.500000 0.140045 0.643056
O O6 0.777148 0.167486 0.589400
O O7 0.782616 0.030052 0.653693
O O8 0.500000 0.465704 0.351474
O O9 0.779244 0.473826 0.406346
O O10 0.787966 0.367736 0.326972
O O11 0.500000 0.092279 0.468355
O O12 0.780328 0.190398 0.498284
O O13 0.782203 0.091412 0.416341
O O14 0.779875 0.000000 0.500000
O O15 0.215565 0.500000 0.500000
O O16 0.500000 0.537697 0.450626
O O17 0.217882 0.651573 0.444435
O O18 0.000000 0.762087 0.046732
O O19 0.712582 0.168629 0.168917
O O20 0.000000 0.079196 0.137161
O O21 0.250000 0.737513 0.750000
O O22 0.500000 0.733367 0.688442
#
# Coordination Sequence:
#
# PCOD9415377 Si02
#       8
#     8   8   8   8   8   8   8   8
#     4  10  19  31  48  67  88 116 152 191 229 269
#     4   9  15  26  41  60  87 119 150 182 227 276
#     4   9  17  30  45  64  91 122 152 184 228 278
#     4   9  14  20  34  58  87 119 149 175 213 273
#     4   9  16  23  35  59  91 123 147 174 223 281
#     4   9  14  21  34  54  85 120 149 177 216 272
#     4   9  17  27  41  63  92 124 154 187 230 276
#     4  10  21  35  50  67  92 125 161 199 235 271
#
# _framework density 22.405856
#
# number of rings (size 3 to 8) (size 9 to 14) (size 15 to 20)
#    0.000    2.750    2.500    0.375    1.750    0.500 
#    0.000    0.000    0.000    0.000    0.000    0.000 
#    0.000    5.500    0.000    0.125    0.000    0.000 
#
# Total GULP energy -357582.105277 kJ/mol
# GULP energy per Si atom -5587.220395 kJ/mol
# Density = 2.235486 g / cm^3
# Si number density = 22.405856 Si / 1000 Ang^3
#
#
#
# Elastic Constant Matrix: (Units=GPa)
#
#
# Indices 1 2 3 4 5 6 
#
# 1 98.1876 8.9630 -1.5044 0.0000 0.0000 0.0000
# 2 8.9630 215.8180 129.0512 0.0000 0.0000 0.0000
# 3 -1.5044 129.0512 188.6667 0.0000 0.0000 0.0000
# 4 0.0000 0.0000 0.0000 -74.4551 0.0000 0.0000
# 5 0.0000 0.0000 0.0000 0.0000 -3.8218 0.0000
# 6 0.0000 0.0000 0.0000 0.0000 0.0000 -23.0591
#
#
#
# Elastic Compliance Matrix: (Units=1/GPa)
#
#
# Indices 1 2 3 4 5 6 
#
# 1 0.010268 -0.000804 0.000632 0.000000 0.000000 0.000000
# 2 -0.000804 0.007903 -0.005412 0.000000 0.000000 0.000000
# 3 0.000632 -0.005412 0.009008 0.000000 0.000000 0.000000
# 4 0.000000 0.000000 0.000000 -0.013431 0.000000 0.000000
# 5 0.000000 0.000000 0.000000 0.000000 -0.261654 0.000000
# 6 0.000000 0.000000 0.000000 0.000000 0.000000 -0.043367
#
#
# Mechanical properties :
#
#
# Convention : Reuss Voigt Hill
#
# Bulk Modulus (GPa) = 62.46422 86.18801 74.32611
# Shear Modulus (GPa) = -18.19724 4.14360 -7.02682
#
# Velocity S-wave (km/s) = -2.85294 1.36138 -1.77284
# Velocity P-wave (km/s) = 4.13360 6.40479 5.39018
#
# Compressibility (1/GPa) = 0.01600917
#
# Stress axis : x y z
#
# Youngs Moduli (GPa) = 97.39280 126.52780 111.01716
#
# Poissons Ratio (x) = 0.10178 -0.07017
# Poissons Ratio (y) = 0.07834 0.60088
# Poissons Ratio (z) = -0.06156 0.68483
#
# Static dielectric constant tensor:
#      x y z
#    x 1.930400 0.000000 0.000000 
#    y 0.000000 1.803140 0.000000 
#    z 0.000000 0.000000 1.690380 
# 
# From -- ./inp_files/36851.got.cif
#   From: 2010.05.17/outbox.cif.g08.bks.cpg/sg53_19_cif.got.tgz:36851.got - 2010.06.03 12:45:16.
