data_PCOD9415231
_publ_section_title
;
Structure prediction by ZEFSAII (Michael W. Deem and Ramdas Pophale) SiO2 
 PCOD9415231
Probable space group: P M N A
;
_chemical_formula_sum "Si O2"
_cell_formula_units_Z 48
_cell_length_a 8.553950
_cell_length_b 15.506291
_cell_length_c 21.317327
_cell_angle_alpha 90.000000
_cell_angle_beta 90.000000
_cell_angle_gamma 90.000000
_cell_volume 2827.531061
_symmetry_space_group_name_H-M "P M N A"
_symmetry_group_IT_number 53
_symmetry_cell_setting 'orthorhombic'
loop_
_space_group_symop_operation_xyz
x,y,z
1/2-x,-y,1/2+z
x,-y,-z
1/2-x,y,1/2-z
-x,-y,-z
1/2+x,y,1/2-z
-x,y,z
1/2+x,-y,1/2+z
loop_
_atom_site_type_symbol
_atom_site_label
_atom_site_fract_x
_atom_site_fract_y
_atom_site_fract_z
Si Si1 0.684766 0.302539 0.155679
Si Si2 0.313616 0.493190 0.185486
Si Si3 0.685601 0.883682 0.684024
Si Si4 0.312352 0.272052 0.478894
Si Si5 0.310209 0.922999 0.544261
Si Si6 0.687438 0.564629 0.443802
O O1 0.500000 0.293366 0.167828
O O2 0.743497 0.393733 0.181275
O O3 0.771114 0.217679 0.180214
O O4 0.719196 0.304462 0.081611
O O5 0.250000 0.532063 0.250000
O O6 0.500000 0.491154 0.187304
O O7 0.260370 0.539772 0.122300
O O8 0.750000 0.918499 0.750000
O O9 0.500000 0.892265 0.684933
O O10 0.743742 0.922638 0.617246
O O11 0.500000 0.278013 0.465844
O O12 0.274392 0.170956 0.485051
O O13 0.278440 0.337491 0.535035
O O14 0.500000 0.929031 0.546606
O O15 0.252530 0.000000 0.500000
O O16 0.738474 0.500000 0.500000
O O17 0.500000 0.555051 0.438627
#
# Coordination Sequence:
#
# PCOD9415231 Si02
#       6
#     8   8   8   8   8   8
#     4  10  19  30  46  70  99 130 161 196 240 290
#     4  11  23  34  47  68  97 133 170 209 249 292
#     4  10  19  30  47  70  98 128 158 194 241 296
#     4   9  17  30  50  74  97 128 164 199 241 289
#     4   8  15  29  50  74  97 123 160 200 238 283
#     4  10  19  32  51  72  98 131 166 202 239 287
#
# _framework density 16.975940999999999
#
# number of rings (size 3 to 8) (size 9 to 14) (size 15 to 20)
#    0.000    2.333    1.667    3.000    0.000    4.333 
#    0.000    0.000    0.000   13.500    0.000    2.333 
#    0.000    0.000    0.000    0.000    0.000    0.000 
#
# Total GULP energy -267560.897295 kJ/mol
# GULP energy per Si atom -5574.185360 kJ/mol
# Density = 1.693730 g / cm^3
# Si number density = 16.975941 Si / 1000 Ang^3
#
#
#
# Elastic Constant Matrix: (Units=GPa)
#
#
# Indices 1 2 3 4 5 6 
#
# 1 14.5683 15.9436 25.9658 0.0000 0.0000 0.0000
# 2 15.9436 79.6881 68.8746 0.0000 0.0000 0.0000
# 3 25.9658 68.8746 154.6395 0.0000 0.0000 0.0000
# 4 0.0000 0.0000 0.0000 17.2560 0.0000 0.0000
# 5 0.0000 0.0000 0.0000 0.0000 27.2879 0.0000
# 6 0.0000 0.0000 0.0000 0.0000 0.0000 -11.0496
#
#
#
# Elastic Compliance Matrix: (Units=1/GPa)
#
#
# Indices 1 2 3 4 5 6 
#
# 1 0.101862 -0.009100 -0.013051 0.000000 0.000000 0.000000
# 2 -0.009100 0.021216 -0.007921 0.000000 0.000000 0.000000
# 3 -0.013051 -0.007921 0.012186 0.000000 0.000000 0.000000
# 4 0.000000 0.000000 0.000000 0.057951 0.000000 0.000000
# 5 0.000000 0.000000 0.000000 0.000000 0.036646 0.000000
# 6 0.000000 0.000000 0.000000 0.000000 0.000000 -0.090501
#
#
# Mechanical properties :
#
#
# Convention : Reuss Voigt Hill
#
# Bulk Modulus (GPa) = 13.31206 52.27377 32.79291
# Shear Modulus (GPa) = 22.26718 15.90631 19.08674
#
# Velocity S-wave (km/s) = 3.62566 3.06435 3.35676
# Velocity P-wave (km/s) = 5.03844 6.58635 5.86370
#
# Compressibility (1/GPa) = 0.07511985
#
# Stress axis : x y z
#
# Youngs Moduli (GPa) = 9.81716 47.13398 82.06071
#
# Poissons Ratio (x) = 0.42893 1.07095
# Poissons Ratio (y) = 0.08934 0.65003
# Poissons Ratio (z) = 0.12812 0.37336
#
# Static dielectric constant tensor:
#      x y z
#    x 1.580570 0.000000 0.000000 
#    y 0.000000 1.573170 0.000000 
#    z 0.000000 0.000000 1.602320 
# 
# From -- ./inp_files/30468.got.cif
#   From: 2010.05.17/outbox.cif.g08.bks.cpg/sg53_16_cif.got.tgz:30468.got - 2010.06.03 12:45:16.
