data_PCOD9415508
_publ_section_title
;
Structure prediction by ZEFSAII (Michael W. Deem and Ramdas Pophale) SiO2 
 PCOD9415508
Probable space group: P M N A
;
_chemical_formula_sum "Si O2"
_cell_formula_units_Z 48
_cell_length_a 16.484255
_cell_length_b 15.374768
_cell_length_c 9.082837
_cell_angle_alpha 90.000000
_cell_angle_beta 90.000000
_cell_angle_gamma 90.000000
_cell_volume 2301.968708
_symmetry_space_group_name_H-M "P M N A"
_symmetry_group_IT_number 53
_symmetry_cell_setting 'orthorhombic'
loop_
_space_group_symop_operation_xyz
x,y,z
1/2-x,-y,1/2+z
x,-y,-z
1/2-x,y,1/2-z
-x,-y,-z
1/2+x,y,1/2-z
-x,y,z
1/2+x,-y,1/2+z
loop_
_atom_site_type_symbol
_atom_site_label
_atom_site_fract_x
_atom_site_fract_y
_atom_site_fract_z
Si Si1 0.408018 0.855127 0.388251
Si Si2 0.178297 0.572090 0.370926
Si Si3 0.589824 0.900098 0.049287
Si Si4 0.410239 0.354802 0.610539
Si Si5 0.738140 0.864570 0.590621
Si Si6 0.227678 0.664862 0.907541
O O1 0.500000 0.868926 0.448389
O O2 0.404818 0.893245 0.224894
O O3 0.397715 0.749760 0.369257
O O4 0.335111 0.894683 0.485559
O O5 0.169636 0.500000 0.500000
O O6 0.250000 0.558265 0.250000
O O7 0.104790 0.596410 0.264275
O O8 0.203190 0.655355 0.469504
O O9 0.500000 0.862607 0.006524
O O10 0.673079 0.862459 0.982775
O O11 0.589361 0.000000 0.000000
O O12 0.500000 0.369578 0.557198
O O13 0.347517 0.382072 0.484366
O O14 0.750000 0.908723 0.750000
O O15 0.709465 0.765432 0.618896
O O16 0.250000 0.627186 0.750000
#
# Coordination Sequence:
#
# PCOD9415508 Si02
#       6
#     8   8   8   8   8   8
#     4   9  18  35  58  80 106 142 180 220 269 323
#     4  10  19  31  51  74 102 141 180 216 259 314
#     4  10  21  36  53  75 105 141 180 220 262 312
#     4   9  18  33  54  80 107 136 173 219 268 316
#     4  10  20  33  54  81 106 136 176 224 270 318
#     4   9  18  34  53  75 103 136 176 216 260 314
#
# _framework density 20.851717000000001
#
# number of rings (size 3 to 8) (size 9 to 14) (size 15 to 20)
#    0.000    2.500    0.000    2.000    0.000    5.000 
#    0.000    3.333    0.000   20.500    0.000    0.000 
#    0.000    0.000    0.000    0.000    0.000    0.000 
#
# Total GULP energy -267261.163415 kJ/mol
# GULP energy per Si atom -5567.940904 kJ/mol
# Density = 2.080426 g / cm^3
# Si number density = 20.851717 Si / 1000 Ang^3
#
#
#
# Elastic Constant Matrix: (Units=GPa)
#
#
# Indices 1 2 3 4 5 6 
#
# 1 142.5276 -1.5187 78.1757 0.0000 0.0000 0.0000
# 2 -1.5187 34.0245 17.5755 0.0000 0.0000 0.0000
# 3 78.1757 17.5755 151.0483 0.0000 0.0000 0.0000
# 4 0.0000 0.0000 0.0000 40.6048 0.0000 0.0000
# 5 0.0000 0.0000 0.0000 0.0000 4.6687 0.0000
# 6 0.0000 0.0000 0.0000 0.0000 0.0000 -36.6742
#
#
#
# Elastic Compliance Matrix: (Units=1/GPa)
#
#
# Indices 1 2 3 4 5 6 
#
# 1 0.010148 0.003368 -0.005644 0.000000 0.000000 0.000000
# 2 0.003368 0.032388 -0.005512 0.000000 0.000000 0.000000
# 3 -0.005644 -0.005512 0.010183 0.000000 0.000000 0.000000
# 4 0.000000 0.000000 0.000000 0.024628 0.000000 0.000000
# 5 0.000000 0.000000 0.000000 0.000000 0.214192 0.000000
# 6 0.000000 0.000000 0.000000 0.000000 0.000000 -0.027267
#
#
# Mechanical properties :
#
#
# Convention : Reuss Voigt Hill
#
# Bulk Modulus (GPa) = 26.92243 57.34061 42.13152
# Shear Modulus (GPa) = 17.10995 17.27771 17.19383
#
# Velocity S-wave (km/s) = 2.86764 2.88166 2.87466
# Velocity P-wave (km/s) = 4.88916 6.21538 5.59172
#
# Compressibility (1/GPa) = 0.03714375
#
# Stress axis : x y z
#
# Youngs Moduli (GPa) = 98.54399 30.87547 98.20488
#
# Poissons Ratio (x) = -0.10400 0.55426
# Poissons Ratio (y) = -0.33193 0.54130
# Poissons Ratio (z) = 0.55618 0.17018
#
# Static dielectric constant tensor:
#      x y z
#    x 1.791510 0.000000 0.000000 
#    y 0.000000 1.792830 0.000000 
#    z 0.000000 0.000000 1.752370 
# 
# From -- ./inp_files/8665.got.cif
#   From: 2010.05.17/outbox.cif.g08.bks.cpg/sg53_5_cif.got.tgz:8665.got - 2010.06.03 12:45:16.
