data_PCOD9415452
_publ_section_title
;
Structure prediction by ZEFSAII (Michael W. Deem and Ramdas Pophale) SiO2 
 PCOD9415452
Probable space group: P M N A
;
_chemical_formula_sum "Si O2"
_cell_formula_units_Z 64
_cell_length_a 14.611289
_cell_length_b 13.898030
_cell_length_c 12.443094
_cell_angle_alpha 90.000000
_cell_angle_beta 90.000000
_cell_angle_gamma 90.000000
_cell_volume 2526.795866
_symmetry_space_group_name_H-M "P M N A"
_symmetry_group_IT_number 53
_symmetry_cell_setting 'orthorhombic'
loop_
_space_group_symop_operation_xyz
x,y,z
1/2-x,-y,1/2+z
x,-y,-z
1/2-x,y,1/2-z
-x,-y,-z
1/2+x,y,1/2-z
-x,y,z
1/2+x,-y,1/2+z
loop_
_atom_site_type_symbol
_atom_site_label
_atom_site_fract_x
_atom_site_fract_y
_atom_site_fract_z
Si Si1 0.393310 0.074908 0.275789
Si Si2 0.608455 0.144164 0.710949
Si Si3 0.143758 0.426400 0.237035
Si Si4 0.391270 0.650570 0.286773
Si Si5 0.598174 0.387835 0.033685
Si Si6 0.801671 0.115125 0.009658
Si Si7 0.692946 0.385797 0.487283
Si Si8 0.100248 0.887210 0.530057
O O1 0.500000 0.069161 0.311640
O O2 0.359287 0.963632 0.257106
O O3 0.336489 0.129350 0.368207
O O4 0.392283 0.122310 0.158932
O O5 0.500000 0.141590 0.728695
O O6 0.641438 0.246335 0.760829
O O7 0.631659 0.148865 0.584246
O O8 0.250000 0.405836 0.250000
O O9 0.135827 0.543025 0.250818
O O10 0.093625 0.381407 0.337400
O O11 0.129075 0.381795 0.119239
O O12 0.500000 0.651055 0.280969
O O13 0.358157 0.650898 0.409110
O O14 0.500000 0.351944 0.988494
O O15 0.701200 0.350729 0.011148
O O16 0.599798 0.500000 0.000000
O O17 0.697857 0.147420 0.987720
O O18 0.801877 0.000000 0.000000
O O19 0.703177 0.500000 0.500000
O O20 0.000000 0.850375 0.495433
O O21 0.097388 0.000000 0.500000
#
# Coordination Sequence:
#
# PCOD9415452 Si02
#       8
#     8   8   8   8   8   8   8   8
#     4   9  16  28  48  71  94 121 156 198 240 282
#     4   9  18  31  48  74 102 125 153 194 245 294
#     4   9  17  30  47  71  99 127 159 199 242 287
#     4  10  19  31  49  74 103 130 157 194 245 298
#     4   9  16  27  46  68  90 121 162 203 238 276
#     4   9  16  28  47  69  93 121 154 193 238 284
#     4   8  16  29  46  69  96 121 154 199 243 285
#     4   9  17  28  44  67  93 121 157 198 233 270
#
# _framework density 25.328520999999999
#
# number of rings (size 3 to 8) (size 9 to 14) (size 15 to 20)
#    0.000    3.000    0.000    1.875    0.000    4.250 
#    0.000    3.750    0.000    5.250    0.000    1.750 
#    0.000    0.000    0.000    0.000    0.000    0.000 
#
# Total GULP energy -356830.115599 kJ/mol
# GULP energy per Si atom -5575.470556 kJ/mol
# Density = 2.527087 g / cm^3
# Si number density = 25.328521 Si / 1000 Ang^3
#
#
#
# Elastic Constant Matrix: (Units=GPa)
#
#
# Indices 1 2 3 4 5 6 
#
# 1 103.2913 -12.5709 25.3996 0.0000 0.0000 0.0000
# 2 -12.5709 98.5709 -6.0145 0.0000 0.0000 0.0000
# 3 25.3996 -6.0145 104.2562 0.0000 0.0000 0.0000
# 4 0.0000 0.0000 0.0000 -23.1381 0.0000 0.0000
# 5 0.0000 0.0000 0.0000 0.0000 11.7508 0.0000
# 6 0.0000 0.0000 0.0000 0.0000 0.0000 -2.3210
#
#
#
# Elastic Compliance Matrix: (Units=1/GPa)
#
#
# Indices 1 2 3 4 5 6 
#
# 1 0.010433 0.001180 -0.002474 0.000000 0.000000 0.000000
# 2 0.001180 0.010314 0.000308 0.000000 0.000000 0.000000
# 3 -0.002474 0.000308 0.010212 0.000000 0.000000 0.000000
# 4 0.000000 0.000000 0.000000 -0.043219 0.000000 0.000000
# 5 0.000000 0.000000 0.000000 0.000000 0.085101 0.000000
# 6 0.000000 0.000000 0.000000 0.000000 0.000000 -0.430850
#
#
# Mechanical properties :
#
#
# Convention : Reuss Voigt Hill
#
# Bulk Modulus (GPa) = 34.49870 35.52741 35.01305
# Shear Modulus (GPa) = -14.43528 17.21196 1.38834
#
# Velocity S-wave (km/s) = -2.38989 2.60964 0.74116
# Velocity P-wave (km/s) = 2.45654 4.81014 3.81916
#
# Compressibility (1/GPa) = 0.02898660
#
# Stress axis : x y z
#
# Youngs Moduli (GPa) = 95.84767 96.95375 97.92233
#
# Poissons Ratio (x) = -0.11437 0.24224
# Poissons Ratio (y) = -0.11306 -0.03012
# Poissons Ratio (z) = 0.23710 -0.02983
#
# Static dielectric constant tensor:
#      x y z
#    x 1.968990 0.000000 0.000000 
#    y 0.000000 1.885010 0.000000 
#    z 0.000000 0.000000 2.050160 
# 
# From -- ./inp_files/23050.got.cif
#   From: 2010.05.17/outbox.cif.g08.bks.cpg/sg53_12_cif.got.tgz:23050.got - 2010.06.03 12:45:16.
