data_PCOD9415142
_publ_section_title
;
Structure prediction by ZEFSAII (Michael W. Deem and Ramdas Pophale) SiO2 
 PCOD9415142
Probable space group: P M N A
;
_chemical_formula_sum "Si O2"
_cell_formula_units_Z 64
_cell_length_a 8.999157
_cell_length_b 15.961902
_cell_length_c 29.349927
_cell_angle_alpha 90.000000
_cell_angle_beta 90.000000
_cell_angle_gamma 90.000000
_cell_volume 4215.930997
_symmetry_space_group_name_H-M "P M N A"
_symmetry_group_IT_number 53
_symmetry_cell_setting 'orthorhombic'
loop_
_space_group_symop_operation_xyz
x,y,z
1/2-x,-y,1/2+z
x,-y,-z
1/2-x,y,1/2-z
-x,-y,-z
1/2+x,y,1/2-z
-x,y,z
1/2+x,-y,1/2+z
loop_
_atom_site_type_symbol
_atom_site_label
_atom_site_fract_x
_atom_site_fract_y
_atom_site_fract_z
Si Si1 0.320639 0.338726 0.605719
Si Si2 0.179765 0.819698 0.549828
Si Si3 0.822234 0.399490 0.201863
Si Si4 0.677532 0.175170 0.549801
Si Si5 0.322099 0.596872 0.297485
Si Si6 0.821187 0.506237 0.447076
Si Si7 0.670579 0.995692 0.055305
Si Si8 0.321201 0.340311 0.110502
O O1 0.500000 0.345192 0.604452
O O2 0.278450 0.250461 0.583352
O O3 0.273841 0.351716 0.658122
O O4 0.253439 0.414435 0.576589
O O5 0.251216 0.809522 0.499991
O O6 0.219219 0.743499 0.582914
O O7 0.000000 0.820754 0.544217
O O8 0.222345 0.911437 0.569208
O O9 0.750000 0.374530 0.250000
O O10 0.785097 0.498443 0.194876
O O11 0.756910 0.349850 0.159079
O O12 0.000000 0.391911 0.203958
O O13 0.500000 0.174236 0.545280
O O14 0.733172 0.084918 0.567341
O O15 0.250000 0.623403 0.250000
O O16 0.500000 0.602330 0.293397
O O17 0.777949 0.500000 0.500000
O O18 0.782070 0.421348 0.420141
O O19 0.000000 0.515605 0.445183
O O20 0.500000 0.983121 0.069894
O O21 0.670689 0.000000 0.000000
O O22 0.500000 0.340534 0.116626
#
# Coordination Sequence:
#
# PCOD9415142 Si02
#       8
#     8   8   8   8   8   8   8   8
#     4  10  20  33  45  64  93 124 153 185 229 274
#     4   9  18  32  48  66  93 126 156 190 229 272
#     4  10  19  32  50  68  90 119 153 193 235 275
#     4  10  19  29  45  68  94 123 155 192 230 271
#     4   9  18  32  48  65  87 115 150 190 229 270
#     4  10  20  31  44  64  91 124 159 190 217 256
#     4   8  15  29  47  65  88 120 154 189 231 272
#     4  10  19  31  47  68  93 121 156 192 229 271
#
# _framework density 15.180514000000001
#
# number of rings (size 3 to 8) (size 9 to 14) (size 15 to 20)
#    0.000    2.500    1.250    2.250    0.000    6.000 
#    0.000    0.000    0.000    0.000    0.000    0.875 
#    0.000    4.000    0.000    0.000    0.000    0.000 
#
# Total GULP energy -356773.918828 kJ/mol
# GULP energy per Si atom -5574.592482 kJ/mol
# Density = 1.514596 g / cm^3
# Si number density = 15.180514 Si / 1000 Ang^3
#
#
#
# Elastic Constant Matrix: (Units=GPa)
#
#
# Indices 1 2 3 4 5 6 
#
# 1 22.3085 39.9063 37.0475 0.0000 0.0000 0.0000
# 2 39.9063 134.1851 73.2653 0.0000 0.0000 0.0000
# 3 37.0475 73.2653 121.0685 0.0000 0.0000 0.0000
# 4 0.0000 0.0000 0.0000 7.8480 0.0000 0.0000
# 5 0.0000 0.0000 0.0000 0.0000 20.0382 0.0000
# 6 0.0000 0.0000 0.0000 0.0000 0.0000 -6.3126
#
#
#
# Elastic Compliance Matrix: (Units=1/GPa)
#
#
# Indices 1 2 3 4 5 6 
#
# 1 0.132128 -0.025716 -0.024870 0.000000 0.000000 0.000000
# 2 -0.025716 0.016135 -0.001895 0.000000 0.000000 0.000000
# 3 -0.024870 -0.001895 0.017017 0.000000 0.000000 0.000000
# 4 0.000000 0.000000 0.000000 0.127422 0.000000 0.000000
# 5 0.000000 0.000000 0.000000 0.000000 0.049905 0.000000
# 6 0.000000 0.000000 0.000000 0.000000 0.000000 -0.158413
#
#
# Mechanical properties :
#
#
# Convention : Reuss Voigt Hill
#
# Bulk Modulus (GPa) = 16.57852 64.22226 40.40039
# Shear Modulus (GPa) = 16.16755 12.80423 14.48589
#
# Velocity S-wave (km/s) = 3.26701 2.90740 3.09243
# Velocity P-wave (km/s) = 5.01754 7.32586 6.27869
#
# Compressibility (1/GPa) = 0.06031902
#
# Stress axis : x y z
#
# Youngs Moduli (GPa) = 7.56839 61.97779 58.76518
#
# Poissons Ratio (x) = 1.59380 1.46149
# Poissons Ratio (y) = 0.19463 0.11136
# Poissons Ratio (z) = 0.18823 0.11745
#
# Static dielectric constant tensor:
#      x y z
#    x 1.507910 0.000000 0.000000 
#    y 0.000000 1.508730 0.000000 
#    z 0.000000 0.000000 1.482620 
# 
# From -- ./inp_files/38503.got.cif
#   From: 2010.05.17/outbox.cif.g08.bks.cpg/sg53_20_cif.got.tgz:38503.got - 2010.06.03 12:45:16.
