data_PCOD9415856
_publ_section_title
;
Structure prediction by ZEFSAII (Michael W. Deem and Ramdas Pophale) SiO2 
 PCOD9415856
Probable space group: P M N A
;
_chemical_formula_sum "Si O2"
_cell_formula_units_Z 40
_cell_length_a 21.709298
_cell_length_b 9.983649
_cell_length_c 9.512135
_cell_angle_alpha 90.000000
_cell_angle_beta 90.000000
_cell_angle_gamma 90.000000
_cell_volume 2061.641223
_symmetry_space_group_name_H-M "P M N A"
_symmetry_group_IT_number 53
_symmetry_cell_setting 'orthorhombic'
loop_
_space_group_symop_operation_xyz
x,y,z
1/2-x,-y,1/2+z
x,-y,-z
1/2-x,y,1/2-z
-x,-y,-z
1/2+x,y,1/2-z
-x,y,z
1/2+x,-y,1/2+z
loop_
_atom_site_type_symbol
_atom_site_label
_atom_site_fract_x
_atom_site_fract_y
_atom_site_fract_z
Si Si1 0.871824 0.652489 0.044349
Si Si2 0.742172 0.728087 0.906191
Si Si3 0.836909 0.020417 0.349545
Si Si4 0.814421 0.709984 0.316827
Si Si5 0.569539 0.115855 0.384610
O O1 0.867671 0.659783 0.213576
O O2 0.877215 0.500000 0.000000
O O3 0.807025 0.711558 0.983977
O O4 0.921064 0.746300 0.968770
O O5 0.750000 0.668163 0.750000
O O6 0.720365 0.881416 0.883025
O O7 0.691294 0.674526 0.017821
O O8 0.880217 0.091963 0.236472
O O9 0.869902 0.000000 0.500000
O O10 0.817668 0.871841 0.304148
O O11 0.750000 0.662558 0.250000
O O12 0.500000 0.106384 0.328883
O O13 0.578627 0.000000 0.500000
#
# Coordination Sequence:
#
# PCOD9415856 Si02
#       5
#     8   8   8   8   8
#     4  11  23  39  58  86 126 164 197 246 302 370
#     4  10  19  32  57  90 117 155 186 235 306 377
#     4  10  19  34  60  90 118 149 190 254 317 361
#     4   9  19  32  53  86 123 147 183 239 301 364
#     4  11  23  39  62  85 112 159 217 263 298 352
#
# _framework density 19.402017000000001
#
# number of rings (size 3 to 8) (size 9 to 14) (size 15 to 20)
#    0.000    1.800    4.000    0.600    0.000    5.600 
#    0.000    0.000    0.000    0.000    0.000    5.600 
#    0.000    0.000    0.000    0.000    0.000    0.000 
#
# Total GULP energy -222913.342560 kJ/mol
# GULP energy per Si atom -5572.833564 kJ/mol
# Density = 1.935786 g / cm^3
# Si number density = 19.402017 Si / 1000 Ang^3
#
#
#
# Elastic Constant Matrix: (Units=GPa)
#
#
# Indices 1 2 3 4 5 6 
#
# 1 26.9306 22.6901 8.8076 0.0000 0.0000 0.0000
# 2 22.6901 115.8868 27.4876 0.0000 0.0000 0.0000
# 3 8.8076 27.4876 136.6511 0.0000 0.0000 0.0000
# 4 0.0000 0.0000 0.0000 17.1039 0.0000 0.0000
# 5 0.0000 0.0000 0.0000 0.0000 3.1443 0.0000
# 6 0.0000 0.0000 0.0000 0.0000 0.0000 -20.2056
#
#
#
# Elastic Compliance Matrix: (Units=1/GPa)
#
#
# Indices 1 2 3 4 5 6 
#
# 1 0.044647 -0.008463 -0.001175 0.000000 0.000000 0.000000
# 2 -0.008463 0.010666 -0.001600 0.000000 0.000000 0.000000
# 3 -0.001175 -0.001600 0.007715 0.000000 0.000000 0.000000
# 4 0.000000 0.000000 0.000000 0.058466 0.000000 0.000000
# 5 0.000000 0.000000 0.000000 0.000000 0.318038 0.000000
# 6 0.000000 0.000000 0.000000 0.000000 0.000000 -0.049491
#
#
# Mechanical properties :
#
#
# Convention : Reuss Voigt Hill
#
# Bulk Modulus (GPa) = 24.65971 44.15988 34.40979
# Shear Modulus (GPa) = 11.73613 14.70739 13.22176
#
# Velocity S-wave (km/s) = 2.46212 2.75623 2.61332
# Velocity P-wave (km/s) = 4.56292 5.73924 5.18455
#
# Compressibility (1/GPa) = 0.04055198
#
# Stress axis : x y z
#
# Youngs Moduli (GPa) = 22.39776 93.75920 129.60943
#
# Poissons Ratio (x) = 0.79348 0.15233
# Poissons Ratio (y) = 0.18955 0.20737
# Poissons Ratio (z) = 0.02632 0.15001
#
# Static dielectric constant tensor:
#      x y z
#    x 1.673950 0.000000 0.000000 
#    y 0.000000 1.679880 0.000000 
#    z 0.000000 0.000000 2.100150 
# 
# From -- ./inp_files/11548.got.cif
#   From: 2010.05.17/outbox.cif.g08.bks.cpg/sg53_6_cif.got.tgz:11548.got - 2010.06.03 12:45:16.
