data_PCOD9415671
_publ_section_title
;
Structure prediction by ZEFSAII (Michael W. Deem and Ramdas Pophale) SiO2 
 PCOD9415671
Probable space group: P M N A
;
_chemical_formula_sum "Si O2"
_cell_formula_units_Z 56
_cell_length_a 9.312716
_cell_length_b 15.117245
_cell_length_c 21.074053
_cell_angle_alpha 90.000000
_cell_angle_beta 90.000000
_cell_angle_gamma 90.000000
_cell_volume 2966.860172
_symmetry_space_group_name_H-M "P M N A"
_symmetry_group_IT_number 53
_symmetry_cell_setting 'orthorhombic'
loop_
_space_group_symop_operation_xyz
x,y,z
1/2-x,-y,1/2+z
x,-y,-z
1/2-x,y,1/2-z
-x,-y,-z
1/2+x,y,1/2-z
-x,y,z
1/2+x,-y,1/2+z
loop_
_atom_site_type_symbol
_atom_site_label
_atom_site_fract_x
_atom_site_fract_y
_atom_site_fract_z
Si Si1 0.330322 0.937145 0.559795
Si Si2 0.336185 0.560101 0.687406
Si Si3 0.665590 0.770435 0.980502
Si Si4 0.670106 0.052418 0.686520
Si Si5 0.663832 0.347614 0.688112
Si Si6 0.835302 0.786147 0.374258
Si Si7 0.325752 0.411918 0.458619
O O1 0.500000 0.917866 0.551466
O O2 0.243696 0.845829 0.559929
O O3 0.288730 0.000000 0.500000
O O4 0.311181 0.988529 0.625927
O O5 0.250000 0.589744 0.750000
O O6 0.500000 0.591898 0.693018
O O7 0.338089 0.453191 0.688617
O O8 0.284797 0.580892 0.616153
O O9 0.500000 0.756368 0.961589
O O10 0.750003 0.677840 0.980927
O O11 0.665828 0.808943 0.051915
O O12 0.750000 0.020720 0.750000
O O13 0.500000 0.063603 0.697708
O O14 0.744100 0.144183 0.665723
O O15 0.750000 0.317473 0.750000
O O16 0.500000 0.316387 0.686673
O O17 0.756325 0.307771 0.631758
O O18 0.000000 0.781650 0.352337
O O19 0.287804 0.500000 0.500000
O O20 0.500000 0.404459 0.462348
#
# Coordination Sequence:
#
# PCOD9415671 Si02
#       7
#     8   8   8   8   8   8   8
#     4  10  21  41  66  89 115 154 202 244 289 352
#     4   9  19  35  56  81 109 150 197 245 301 354
#     4  11  24  38  59  90 120 154 196 248 305 357
#     4  11  23  39  61  88 119 155 195 244 299 352
#     4  10  19  32  51  76 109 148 192 239 292 354
#     4  11  22  35  52  80 117 153 191 236 294 359
#     4  10  21  39  62  88 120 158 204 254 301 358
#
# _framework density 18.875174000000001
#
# number of rings (size 3 to 8) (size 9 to 14) (size 15 to 20)
#    0.000    1.714    1.429    3.000    0.000    5.714 
#    0.000    0.714    0.000    0.000    0.000    0.000 
#    0.000    0.000    0.000    0.000    0.000    0.000 
#
# Total GULP energy -312402.817708 kJ/mol
# GULP energy per Si atom -5578.621745 kJ/mol
# Density = 1.883221 g / cm^3
# Si number density = 18.875174 Si / 1000 Ang^3
#
#
#
# Elastic Constant Matrix: (Units=GPa)
#
#
# Indices 1 2 3 4 5 6 
#
# 1 102.1905 48.3235 54.6435 0.0000 0.0000 0.0000
# 2 48.3235 78.4001 28.2851 0.0000 0.0000 0.0000
# 3 54.6435 28.2851 115.2436 0.0000 0.0000 0.0000
# 4 0.0000 0.0000 0.0000 28.2427 0.0000 0.0000
# 5 0.0000 0.0000 0.0000 0.0000 28.9853 0.0000
# 6 0.0000 0.0000 0.0000 0.0000 0.0000 22.0694
#
#
#
# Elastic Compliance Matrix: (Units=1/GPa)
#
#
# Indices 1 2 3 4 5 6 
#
# 1 0.016885 -0.008249 -0.005981 0.000000 0.000000 0.000000
# 2 -0.008249 0.018025 -0.000512 0.000000 0.000000 0.000000
# 3 -0.005981 -0.000512 0.011639 0.000000 0.000000 0.000000
# 4 0.000000 0.000000 0.000000 0.035407 0.000000 0.000000
# 5 0.000000 0.000000 0.000000 0.000000 0.034500 0.000000
# 6 0.000000 0.000000 0.000000 0.000000 0.000000 0.045312
#
#
# Mechanical properties :
#
#
# Convention : Reuss Voigt Hill
#
# Bulk Modulus (GPa) = 58.60869 62.03757 60.32313
# Shear Modulus (GPa) = 25.38819 26.83163 26.10991
#
# Velocity S-wave (km/s) = 3.67148 3.77441 3.72330
# Velocity P-wave (km/s) = 7.00651 7.20649 7.10720
#
# Compressibility (1/GPa) = 0.01706232
#
# Stress axis : x y z
#
# Youngs Moduli (GPa) = 59.22411 55.47954 85.91684
#
# Poissons Ratio (x) = 0.45768 0.51390
# Poissons Ratio (y) = 0.48857 0.04402
# Poissons Ratio (z) = 0.35424 0.02843
#
# Static dielectric constant tensor:
#      x y z
#    x 1.646310 0.000000 0.000000 
#    y 0.000000 1.641670 0.000000 
#    z 0.000000 0.000000 1.731060 
# 
# From -- ./inp_files/30838.got.cif
#   From: 2010.05.17/outbox.cif.g08.bks.cpg/sg53_16_cif.got.tgz:30838.got - 2010.06.03 12:45:16.
