data_PCOD9415928
_publ_section_title
;
Structure prediction by ZEFSAII (Michael W. Deem and Ramdas Pophale) SiO2 
 PCOD9415928
Probable space group: P M N A
;
_chemical_formula_sum "Si O2"
_cell_formula_units_Z 64
_cell_length_a 19.416724
_cell_length_b 8.211217
_cell_length_c 20.517161
_cell_angle_alpha 90.000000
_cell_angle_beta 90.000000
_cell_angle_gamma 90.000000
_cell_volume 3271.152214
_symmetry_space_group_name_H-M "P M N A"
_symmetry_group_IT_number 53
_symmetry_cell_setting 'orthorhombic'
loop_
_space_group_symop_operation_xyz
x,y,z
1/2-x,-y,1/2+z
x,-y,-z
1/2-x,y,1/2-z
-x,-y,-z
1/2+x,y,1/2-z
-x,y,z
1/2+x,-y,1/2+z
loop_
_atom_site_type_symbol
_atom_site_label
_atom_site_fract_x
_atom_site_fract_y
_atom_site_fract_z
Si Si1 0.128418 0.959927 0.067506
Si Si2 0.181764 0.045345 0.292746
Si Si3 0.722922 0.086714 0.066472
Si Si4 0.668025 0.543193 0.927777
Si Si5 0.580221 0.350043 0.188922
Si Si6 0.815509 0.586880 0.069476
Si Si7 0.074576 0.107374 0.797153
Si Si8 0.074911 0.487728 0.829683
O O1 0.158136 0.773842 0.067305
O O2 0.088499 0.984327 0.134741
O O3 0.194631 0.077141 0.066600
O O4 0.090123 0.000000 0.000000
O O5 0.250000 0.084322 0.250000
O O6 0.201465 0.998564 0.366393
O O7 0.129883 0.195777 0.302268
O O8 0.137140 0.918187 0.251845
O O9 0.697348 0.271933 0.068088
O O10 0.698847 0.000000 0.000000
O O11 0.612650 0.543930 0.869879
O O12 0.734509 0.429396 0.914108
O O13 0.641028 0.500000 0.000000
O O14 0.500000 0.311802 0.174936
O O15 0.583307 0.434284 0.259165
O O16 0.861887 0.490280 0.121669
O O17 0.824025 0.500000 0.000000
O O18 0.071864 0.295279 0.816323
O O19 0.000000 0.057431 0.769854
O O20 0.000000 0.538623 0.857194
#
# Coordination Sequence:
#
# PCOD9415928 Si02
#       8
#     8   8   8   8   8   8   8   8
#     4  10  19  33  53  79 114 149 187 233 279 334
#     4  11  22  37  59  88 113 146 193 231 282 337
#     4  10  20  35  56  81 117 142 181 237 280 329
#     4  10  21  36  57  84 109 145 190 236 283 332
#     4  10  23  40  59  84 115 151 186 234 289 343
#     4  10  20  33  53  82 112 146 192 235 278 328
#     4  10  21  38  56  80 116 151 186 233 281 336
#     4   9  21  38  55  79 115 153 187 228 284 340
#
# _framework density 19.564972000000001
#
# number of rings (size 3 to 8) (size 9 to 14) (size 15 to 20)
#    0.000    2.000    1.250    3.375    3.500    3.750 
#    0.000    0.000    0.000    9.375    0.000    0.000 
#    0.000    0.500    0.000    0.000    0.000    0.000 
#
# Total GULP energy -356952.609674 kJ/mol
# GULP energy per Si atom -5577.384526 kJ/mol
# Density = 1.952044 g / cm^3
# Si number density = 19.564972 Si / 1000 Ang^3
#
#
#
# Elastic Constant Matrix: (Units=GPa)
#
#
# Indices 1 2 3 4 5 6 
#
# 1 111.5782 8.2805 55.9083 0.0000 0.0000 0.0000
# 2 8.2805 26.6603 3.2843 0.0000 0.0000 0.0000
# 3 55.9083 3.2843 107.3609 0.0000 0.0000 0.0000
# 4 0.0000 0.0000 0.0000 25.1950 0.0000 0.0000
# 5 0.0000 0.0000 0.0000 0.0000 39.3930 0.0000
# 6 0.0000 0.0000 0.0000 0.0000 0.0000 12.2519
#
#
#
# Elastic Compliance Matrix: (Units=1/GPa)
#
#
# Indices 1 2 3 4 5 6 
#
# 1 0.012370 -0.003060 -0.006348 0.000000 0.000000 0.000000
# 2 -0.003060 0.038408 0.000419 0.000000 0.000000 0.000000
# 3 -0.006348 0.000419 0.012607 0.000000 0.000000 0.000000
# 4 0.000000 0.000000 0.000000 0.039690 0.000000 0.000000
# 5 0.000000 0.000000 0.000000 0.000000 0.025385 0.000000
# 6 0.000000 0.000000 0.000000 0.000000 0.000000 0.081620
#
#
# Mechanical properties :
#
#
# Convention : Reuss Voigt Hill
#
# Bulk Modulus (GPa) = 22.02347 42.28286 32.15316
# Shear Modulus (GPa) = 20.55951 27.24304 23.90127
#
# Velocity S-wave (km/s) = 3.24517 3.73559 3.49898
# Velocity P-wave (km/s) = 5.03215 6.34544 5.72657
#
# Compressibility (1/GPa) = 0.04540611
#
# Stress axis : x y z
#
# Youngs Moduli (GPa) = 80.83855 26.03634 79.31827
#
# Poissons Ratio (x) = 0.07967 0.50353
# Poissons Ratio (y) = 0.24737 -0.03320
# Poissons Ratio (z) = 0.51318 -0.01090
#
# Static dielectric constant tensor:
#      x y z
#    x 1.708240 0.000000 0.000000 
#    y 0.000000 1.714430 0.000000 
#    z 0.000000 0.000000 1.733700 
# 
# From -- ./inp_files/32854.got.cif
#   From: 2010.05.17/outbox.cif.g08.bks.cpg/sg53_17_cif.got.tgz:32854.got - 2010.06.03 12:45:16.
