data_PCOD9415560
_publ_section_title
;
Structure prediction by ZEFSAII (Michael W. Deem and Ramdas Pophale) SiO2 
 PCOD9415560
Probable space group: P M N A
;
_chemical_formula_sum "Si O2"
_cell_formula_units_Z 64
_cell_length_a 18.907383
_cell_length_b 11.321333
_cell_length_c 18.256859
_cell_angle_alpha 90.000000
_cell_angle_beta 90.000000
_cell_angle_gamma 90.000000
_cell_volume 3908.004434
_symmetry_space_group_name_H-M "P M N A"
_symmetry_group_IT_number 53
_symmetry_cell_setting 'orthorhombic'
loop_
_space_group_symop_operation_xyz
x,y,z
1/2-x,-y,1/2+z
x,-y,-z
1/2-x,y,1/2-z
-x,-y,-z
1/2+x,y,1/2-z
-x,y,z
1/2+x,-y,1/2+z
loop_
_atom_site_type_symbol
_atom_site_label
_atom_site_fract_x
_atom_site_fract_y
_atom_site_fract_z
Si Si1 0.334511 0.715113 0.761140
Si Si2 0.815042 0.105897 0.554004
Si Si3 0.344424 0.862483 0.475746
Si Si4 0.676198 0.982670 0.791961
Si Si5 0.081294 0.935405 0.167096
Si Si6 0.415732 0.565900 0.880940
Si Si7 0.583486 0.676582 0.041379
Si Si8 0.417748 0.212302 0.381020
O O1 0.250000 0.698567 0.750000
O O2 0.369694 0.620415 0.815556
O O3 0.373267 0.721422 0.681955
O O4 0.347382 0.845758 0.796551
O O5 0.739138 0.158343 0.530156
O O6 0.808668 0.042847 0.631672
O O7 0.871847 0.208236 0.556534
O O8 0.835365 0.000000 0.500000
O O9 0.381026 0.859338 0.396218
O O10 0.381810 0.785805 0.538810
O O11 0.351129 0.000000 0.500000
O O12 0.750000 0.977397 0.750000
O O13 0.622275 0.059393 0.743584
O O14 0.000000 0.900119 0.174749
O O15 0.083118 0.073152 0.141402
O O16 0.500000 0.574149 0.864029
O O17 0.399042 0.430947 0.903484
O O18 0.403921 0.635612 0.957424
O O19 0.500000 0.698423 0.048282
O O20 0.500000 0.249163 0.383009
#
# Coordination Sequence:
#
# PCOD9415560 Si02
#       8
#     8   8   8   8   8   8   8   8
#     4  10  20  29  52  78 108 136 171 222 270 316
#     4  11  21  31  52  76 108 140 170 211 266 324
#     4   9  17  27  45  69  99 137 172 206 252 309
#     4  10  19  32  44  72 108 142 170 210 265 320
#     4   9  16  28  45  64  94 138 178 207 244 303
#     4   9  18  37  57  73  98 133 175 222 271 310
#     4   9  20  36  55  75  99 136 178 217 257 320
#     4   9  17  28  43  71 104 132 168 212 260 310
#
# _framework density 16.376643000000001
#
# number of rings (size 3 to 8) (size 9 to 14) (size 15 to 20)
#    0.000    2.500    1.250    2.250    7.000    2.750 
#    0.000    0.625    0.000    0.000    0.000    0.000 
#    0.000    1.000    0.000    0.000    0.000    0.000 
#
# Total GULP energy -356631.423448 kJ/mol
# GULP energy per Si atom -5572.365991 kJ/mol
# Density = 1.633937 g / cm^3
# Si number density = 16.376643 Si / 1000 Ang^3
#
#
#
# Elastic Constant Matrix: (Units=GPa)
#
#
# Indices 1 2 3 4 5 6 
#
# 1 71.3723 49.9840 55.1772 0.0000 0.0000 0.0000
# 2 49.9840 59.6798 44.7594 0.0000 0.0000 0.0000
# 3 55.1772 44.7594 101.4299 0.0000 0.0000 0.0000
# 4 0.0000 0.0000 0.0000 17.7279 0.0000 0.0000
# 5 0.0000 0.0000 0.0000 0.0000 30.3759 0.0000
# 6 0.0000 0.0000 0.0000 0.0000 0.0000 21.9897
#
#
#
# Elastic Compliance Matrix: (Units=1/GPa)
#
#
# Indices 1 2 3 4 5 6 
#
# 1 0.040164 -0.025787 -0.010470 0.000000 0.000000 0.000000
# 2 -0.025787 0.041601 -0.004330 0.000000 0.000000 0.000000
# 3 -0.010470 -0.004330 0.017465 0.000000 0.000000 0.000000
# 4 0.000000 0.000000 0.000000 0.056408 0.000000 0.000000
# 5 0.000000 0.000000 0.000000 0.000000 0.032921 0.000000
# 6 0.000000 0.000000 0.000000 0.000000 0.000000 0.045476
#
#
# Mechanical properties :
#
#
# Convention : Reuss Voigt Hill
#
# Bulk Modulus (GPa) = 55.37915 59.14704 57.26310
# Shear Modulus (GPa) = 15.56527 19.52278 17.54403
#
# Velocity S-wave (km/s) = 3.08629 3.45644 3.27660
# Velocity P-wave (km/s) = 6.82566 7.21973 7.02545
#
# Compressibility (1/GPa) = 0.01805734
#
# Stress axis : x y z
#
# Youngs Moduli (GPa) = 24.89772 24.03795 57.25635
#
# Poissons Ratio (x) = 0.61986 0.59946
# Poissons Ratio (y) = 0.64203 0.24792
# Poissons Ratio (z) = 0.26067 0.10408
#
# Static dielectric constant tensor:
#      x y z
#    x 1.553600 0.000000 0.000000 
#    y 0.000000 1.535240 0.000000 
#    z 0.000000 0.000000 1.549320 
# 
# From -- ./inp_files/29114.got.cif
#   From: 2010.05.17/outbox.cif.g08.bks.cpg/sg53_15_cif.got.tgz:29114.got - 2010.06.03 12:45:16.
