data_PCOD9415545
_publ_section_title
;
Structure prediction by ZEFSAII (Michael W. Deem and Ramdas Pophale) SiO2 
 PCOD9415545
Probable space group: P M N A
;
_chemical_formula_sum "Si O2"
_cell_formula_units_Z 64
_cell_length_a 8.900666
_cell_length_b 20.220753
_cell_length_c 20.781064
_cell_angle_alpha 90.000000
_cell_angle_beta 90.000000
_cell_angle_gamma 90.000000
_cell_volume 3740.137843
_symmetry_space_group_name_H-M "P M N A"
_symmetry_group_IT_number 53
_symmetry_cell_setting 'orthorhombic'
loop_
_space_group_symop_operation_xyz
x,y,z
1/2-x,-y,1/2+z
x,-y,-z
1/2-x,y,1/2-z
-x,-y,-z
1/2+x,y,1/2-z
-x,y,z
1/2+x,-y,1/2+z
loop_
_atom_site_type_symbol
_atom_site_label
_atom_site_fract_x
_atom_site_fract_y
_atom_site_fract_z
Si Si1 0.319512 0.430591 0.318766
Si Si2 0.819920 0.941065 0.681059
Si Si3 0.679065 0.666918 0.040166
Si Si4 0.818627 0.817386 0.440418
Si Si5 0.320053 0.691068 0.597815
Si Si6 0.181173 0.468681 0.931334
Si Si7 0.179524 0.157856 0.078961
Si Si8 0.680394 0.904278 0.181718
O O1 0.250000 0.444728 0.250000
O O2 0.500000 0.432899 0.314107
O O3 0.277186 0.357596 0.344569
O O4 0.273525 0.483019 0.373480
O O5 0.750000 0.921665 0.750000
O O6 0.754406 0.896438 0.624319
O O7 0.000000 0.935042 0.683542
O O8 0.781349 0.018505 0.670580
O O9 0.500000 0.660473 0.040833
O O10 0.718641 0.739621 0.067286
O O11 0.752539 0.604461 0.074748
O O12 0.738955 0.667651 0.967011
O O13 0.743830 0.842286 0.506472
O O14 0.771629 0.859762 0.378579
O O15 0.000000 0.822474 0.447336
O O16 0.500000 0.684325 0.587613
O O17 0.287197 0.768480 0.606484
O O18 0.000000 0.464823 0.932156
O O19 0.228179 0.500000 0.000000
O O20 0.000000 0.149372 0.077579
O O21 0.750000 0.884012 0.250000
O O22 0.500000 0.899837 0.186555
#
# Coordination Sequence:
#
# PCOD9415545 Si02
#       8
#     8   8   8   8   8   8   8   8
#     4  10  21  36  53  74 102 136 171 213 256 302
#     4  10  20  35  54  75 103 139 179 221 264 317
#     4  10  19  31  53  82 106 129 168 220 260 301
#     4   9  19  36  54  77 109 140 171 215 270 318
#     4   9  18  35  53  71 101 140 176 206 252 313
#     4  10  19  35  57  75  99 138 176 209 254 312
#     4  10  20  33  53  80 108 139 177 219 259 309
#     4   9  19  36  57  77 101 138 180 220 266 320
#
# _framework density 17.111668999999999
#
# number of rings (size 3 to 8) (size 9 to 14) (size 15 to 20)
#    0.000    2.375    1.250    1.125    0.000    4.250 
#    0.000    4.375    0.000    3.000    0.000    0.000 
#    0.000    0.000    0.000    0.000    0.000    0.000 
#
# Total GULP energy -357020.711923 kJ/mol
# GULP energy per Si atom -5578.448624 kJ/mol
# Density = 1.707272 g / cm^3
# Si number density = 17.111669 Si / 1000 Ang^3
#
#
#
# Elastic Constant Matrix: (Units=GPa)
#
#
# Indices 1 2 3 4 5 6 
#
# 1 23.6300 40.1853 42.3655 0.0000 0.0000 0.0000
# 2 40.1853 111.0005 99.1651 0.0000 0.0000 0.0000
# 3 42.3655 99.1651 151.1468 0.0000 0.0000 0.0000
# 4 0.0000 0.0000 0.0000 29.0645 0.0000 0.0000
# 5 0.0000 0.0000 0.0000 0.0000 31.5722 0.0000
# 6 0.0000 0.0000 0.0000 0.0000 0.0000 31.0785
#
#
#
# Elastic Compliance Matrix: (Units=1/GPa)
#
#
# Indices 1 2 3 4 5 6 
#
# 1 0.118854 -0.032055 -0.012283 0.000000 0.000000 0.000000
# 2 -0.032055 0.030413 -0.010969 0.000000 0.000000 0.000000
# 3 -0.012283 -0.010969 0.017255 0.000000 0.000000 0.000000
# 4 0.000000 0.000000 0.000000 0.034406 0.000000 0.000000
# 5 0.000000 0.000000 0.000000 0.000000 0.031673 0.000000
# 6 0.000000 0.000000 0.000000 0.000000 0.000000 0.032177
#
#
# Mechanical properties :
#
#
# Convention : Reuss Voigt Hill
#
# Bulk Modulus (GPa) = 17.88628 72.13433 45.01031
# Shear Modulus (GPa) = 12.68943 25.28048 18.98495
#
# Velocity S-wave (km/s) = 2.72612 3.84784 3.33449
# Velocity P-wave (km/s) = 4.51491 7.87323 6.41764
#
# Compressibility (1/GPa) = 0.05590876
#
# Stress axis : x y z
#
# Youngs Moduli (GPa) = 8.41366 32.88084 57.95312
#
# Poissons Ratio (x) = 1.05400 0.71186
# Poissons Ratio (y) = 0.26970 0.63566
# Poissons Ratio (z) = 0.10335 0.36066
#
# Static dielectric constant tensor:
#      x y z
#    x 1.573810 0.000000 0.000000 
#    y 0.000000 1.587540 0.000000 
#    z 0.000000 0.000000 1.545190 
# 
# From -- ./inp_files/26819.got.cif
#   From: 2010.05.17/outbox.cif.g08.bks.cpg/sg53_14_cif.got.tgz:26819.got - 2010.06.03 12:45:16.
