data_PCOD9415642
_publ_section_title
;
Structure prediction by ZEFSAII (Michael W. Deem and Ramdas Pophale) SiO2 
 PCOD9415642
Probable space group: P M N A
;
_chemical_formula_sum "Si O2"
_cell_formula_units_Z 64
_cell_length_a 9.253080
_cell_length_b 22.028784
_cell_length_c 18.989820
_cell_angle_alpha 90.000000
_cell_angle_beta 90.000000
_cell_angle_gamma 90.000000
_cell_volume 3870.772881
_symmetry_space_group_name_H-M "P M N A"
_symmetry_group_IT_number 53
_symmetry_cell_setting 'orthorhombic'
loop_
_space_group_symop_operation_xyz
x,y,z
1/2-x,-y,1/2+z
x,-y,-z
1/2-x,y,1/2-z
-x,-y,-z
1/2+x,y,1/2-z
-x,y,z
1/2+x,-y,1/2+z
loop_
_atom_site_type_symbol
_atom_site_label
_atom_site_fract_x
_atom_site_fract_y
_atom_site_fract_z
Si Si1 0.164063 0.182878 0.524732
Si Si2 0.174571 0.596223 0.175039
Si Si3 0.824177 0.517077 0.920979
Si Si4 0.828488 0.345425 0.092645
Si Si5 0.827790 0.111837 0.181700
Si Si6 0.672983 0.933122 0.525452
Si Si7 0.329673 0.297528 0.567288
Si Si8 0.165141 0.230635 0.363192
O O1 0.500000 0.340163 0.391569
O O2 0.249451 0.119976 0.518092
O O3 0.242541 0.234983 0.569198
O O4 0.161021 0.209804 0.445115
O O5 0.250000 0.599551 0.250000
O O6 0.218278 0.535191 0.133310
O O7 0.212337 0.653707 0.126061
O O8 0.000000 0.595423 0.182257
O O9 0.780382 0.584957 0.899446
O O10 0.000000 0.517896 0.923455
O O11 0.775418 0.500000 0.000000
O O12 0.500000 0.173155 0.952208
O O13 0.738402 0.296580 0.136959
O O14 0.811250 0.328119 0.009895
O O15 0.750000 0.084496 0.250000
O O16 0.795012 0.077614 0.108295
O O17 0.763383 0.179526 0.172519
O O18 0.000000 0.113686 0.190921
O O19 0.500000 0.926555 0.517250
O O20 0.715192 0.000000 0.500000
O O21 0.500000 0.284467 0.574245
O O22 0.000000 0.230683 0.336755
#
# Coordination Sequence:
#
# PCOD9415642 Si02
#       8
#     8   8   8   8   8   8   8   8
#     4   9  17  28  46  73 101 125 154 198 246 284
#     4  10  20  33  49  70  96 126 161 206 260 312
#     4   9  15  28  50  72  91 120 169 217 250 297
#     4   9  15  26  48  72  91 116 160 210 248 288
#     4  10  19  32  51  74 101 133 169 206 246 293
#     4   9  18  33  53  77 105 137 172 206 240 287
#     4   9  16  28  48  70  91 120 159 202 245 293
#     4   9  17  29  44  67  99 128 156 195 242 291
#
# _framework density 16.534167
#
# number of rings (size 3 to 8) (size 9 to 14) (size 15 to 20)
#    0.000    2.750    1.250    1.125    0.000    4.250 
#    0.000    1.250    0.000    3.000    0.000    1.750 
#    0.000    0.000    0.000    0.000    0.000    0.000 
#
# Total GULP energy -356669.451538 kJ/mol
# GULP energy per Si atom -5572.960180 kJ/mol
# Density = 1.649653 g / cm^3
# Si number density = 16.534167 Si / 1000 Ang^3
#
#
#
# Elastic Constant Matrix: (Units=GPa)
#
#
# Indices 1 2 3 4 5 6 
#
# 1 55.5802 61.0004 38.7857 0.0000 0.0000 0.0000
# 2 61.0004 157.8644 50.7139 0.0000 0.0000 0.0000
# 3 38.7857 50.7139 67.0434 0.0000 0.0000 0.0000
# 4 0.0000 0.0000 0.0000 14.0134 0.0000 0.0000
# 5 0.0000 0.0000 0.0000 0.0000 23.0904 0.0000
# 6 0.0000 0.0000 0.0000 0.0000 0.0000 7.5833
#
#
#
# Elastic Compliance Matrix: (Units=1/GPa)
#
#
# Indices 1 2 3 4 5 6 
#
# 1 0.040398 -0.010703 -0.015275 0.000000 0.000000 0.000000
# 2 -0.010703 0.011204 -0.002283 0.000000 0.000000 0.000000
# 3 -0.015275 -0.002283 0.025479 0.000000 0.000000 0.000000
# 4 0.000000 0.000000 0.000000 0.071360 0.000000 0.000000
# 5 0.000000 0.000000 0.000000 0.000000 0.043308 0.000000
# 6 0.000000 0.000000 0.000000 0.000000 0.000000 0.131868
#
#
# Mechanical properties :
#
#
# Convention : Reuss Voigt Hill
#
# Bulk Modulus (GPa) = 48.63936 64.60980 56.62458
# Shear Modulus (GPa) = 12.92012 17.60329 15.26171
#
# Velocity S-wave (km/s) = 2.79842 3.26646 3.04145
# Velocity P-wave (km/s) = 6.31846 7.30669 6.83047
#
# Compressibility (1/GPa) = 0.02055948
#
# Stress axis : x y z
#
# Youngs Moduli (GPa) = 24.75343 89.25536 39.24754
#
# Poissons Ratio (x) = 0.95533 0.59950
# Poissons Ratio (y) = 0.26494 0.08960
# Poissons Ratio (z) = 0.37810 0.20376
#
# Static dielectric constant tensor:
#      x y z
#    x 1.555980 0.000000 0.000000 
#    y 0.000000 1.545370 0.000000 
#    z 0.000000 0.000000 1.555620 
# 
# From -- ./inp_files/27070.got.cif
#   From: 2010.05.17/outbox.cif.g08.bks.cpg/sg53_14_cif.got.tgz:27070.got - 2010.06.03 12:45:16.
