data_PCOD9415890
_publ_section_title
;
Structure prediction by ZEFSAII (Michael W. Deem and Ramdas Pophale) SiO2 
 PCOD9415890
Probable space group: P M N A
;
_chemical_formula_sum "Si O2"
_cell_formula_units_Z 40
_cell_length_a 8.266652
_cell_length_b 12.013795
_cell_length_c 22.024798
_cell_angle_alpha 90.000000
_cell_angle_beta 90.000000
_cell_angle_gamma 90.000000
_cell_volume 2187.367759
_symmetry_space_group_name_H-M "P M N A"
_symmetry_group_IT_number 53
_symmetry_cell_setting 'orthorhombic'
loop_
_space_group_symop_operation_xyz
x,y,z
1/2-x,-y,1/2+z
x,-y,-z
1/2-x,y,1/2-z
-x,-y,-z
1/2+x,y,1/2-z
-x,y,z
1/2+x,-y,1/2+z
loop_
_atom_site_type_symbol
_atom_site_label
_atom_site_fract_x
_atom_site_fract_y
_atom_site_fract_z
Si Si1 0.309663 0.459204 0.088213
Si Si2 0.695322 0.080361 0.555643
Si Si3 0.690909 0.333160 0.529197
Si Si4 0.306162 0.026801 0.181203
Si Si5 0.804937 0.720178 0.682577
O O1 0.500000 0.480176 0.096959
O O2 0.221393 0.577204 0.082256
O O3 0.244248 0.376775 0.139306
O O4 0.284838 0.387840 0.026906
O O5 0.500000 0.076888 0.555357
O O6 0.744750 0.207975 0.542956
O O7 0.750430 0.043169 0.622781
O O8 0.751259 0.000000 0.500000
O O9 0.500000 0.331547 0.514771
O O10 0.250000 0.995843 0.250000
O O11 0.500000 0.025840 0.182584
O O12 0.248385 0.154059 0.168898
O O13 0.750000 0.695604 0.750000
O O14 0.000000 0.721617 0.678168
#
# Coordination Sequence:
#
# PCOD9415890 Si02
#       5
#     8   8   8   8   8
#     4  10  19  33  52  74 102 132 165 206 252 300
#     4  10  21  36  54  78 107 138 175 218 261 308
#     4  10  20  33  51  75 101 132 168 205 252 303
#     4  10  20  35  55  78 106 138 173 213 259 311
#     4   9  19  33  51  76 101 129 165 205 249 296
#
# _framework density 18.286819000000001
#
# number of rings (size 3 to 8) (size 9 to 14) (size 15 to 20)
#    0.000    2.200    0.000    4.200    0.000    4.400 
#    0.000    1.000    0.000    2.400    0.000    0.000 
#    0.000    0.000    0.000    0.000    0.000    0.000 
#
# Total GULP energy -223008.447001 kJ/mol
# GULP energy per Si atom -5575.211175 kJ/mol
# Density = 1.824520 g / cm^3
# Si number density = 18.286819 Si / 1000 Ang^3
#
#
#
# Elastic Constant Matrix: (Units=GPa)
#
#
# Indices 1 2 3 4 5 6 
#
# 1 15.6370 13.0108 0.0496 0.0000 0.0000 0.0000
# 2 13.0108 154.5118 82.9899 0.0000 0.0000 0.0000
# 3 0.0496 82.9899 78.5090 0.0000 0.0000 0.0000
# 4 0.0000 0.0000 0.0000 46.8780 0.0000 0.0000
# 5 0.0000 0.0000 0.0000 0.0000 28.2803 0.0000
# 6 0.0000 0.0000 0.0000 0.0000 0.0000 23.2122
#
#
#
# Elastic Compliance Matrix: (Units=1/GPa)
#
#
# Indices 1 2 3 4 5 6 
#
# 1 0.076204 -0.014786 0.015582 0.000000 0.000000 0.000000
# 2 -0.014786 0.017842 -0.018851 0.000000 0.000000 0.000000
# 3 0.015582 -0.018851 0.032655 0.000000 0.000000 0.000000
# 4 0.000000 0.000000 0.000000 0.021332 0.000000 0.000000
# 5 0.000000 0.000000 0.000000 0.000000 0.035360 0.000000
# 6 0.000000 0.000000 0.000000 0.000000 0.000000 0.043081
#
#
# Mechanical properties :
#
#
# Convention : Reuss Voigt Hill
#
# Bulk Modulus (GPa) = 11.03874 48.97316 30.00595
# Shear Modulus (GPa) = 17.07756 29.84794 23.46275
#
# Velocity S-wave (km/s) = 3.05925 4.04445 3.58584
# Velocity P-wave (km/s) = 4.30444 6.97487 5.79556
#
# Compressibility (1/GPa) = 0.09059005
#
# Stress axis : x y z
#
# Youngs Moduli (GPa) = 13.12267 56.04664 30.62338
#
# Poissons Ratio (x) = 0.82870 -0.47716
# Poissons Ratio (y) = 0.19403 0.57729
# Poissons Ratio (z) = -0.20447 1.05655
#
# Static dielectric constant tensor:
#      x y z
#    x 1.631210 0.000000 0.000000 
#    y 0.000000 1.646700 0.000000 
#    z 0.000000 0.000000 1.638150 
# 
# From -- ./inp_files/25854.got.cif
#   From: 2010.05.17/outbox.cif.g08.bks.cpg/sg53_13_cif.got.tgz:25854.got - 2010.06.03 12:45:16.
