data_PCOD9415471
_publ_section_title
;
Structure prediction by ZEFSAII (Michael W. Deem and Ramdas Pophale) SiO2 
 PCOD9415471
Probable space group: P M N A
;
_chemical_formula_sum "Si O2"
_cell_formula_units_Z 56
_cell_length_a 9.188276
_cell_length_b 15.252989
_cell_length_c 21.511723
_cell_angle_alpha 90.000000
_cell_angle_beta 90.000000
_cell_angle_gamma 90.000000
_cell_volume 3014.839427
_symmetry_space_group_name_H-M "P M N A"
_symmetry_group_IT_number 53
_symmetry_cell_setting 'orthorhombic'
loop_
_space_group_symop_operation_xyz
x,y,z
1/2-x,-y,1/2+z
x,-y,-z
1/2-x,y,1/2-z
-x,-y,-z
1/2+x,y,1/2-z
-x,y,z
1/2+x,-y,1/2+z
loop_
_atom_site_type_symbol
_atom_site_label
_atom_site_fract_x
_atom_site_fract_y
_atom_site_fract_z
Si Si1 0.323018 0.579275 0.453648
Si Si2 0.672792 0.220509 0.113019
Si Si3 0.333865 0.440739 0.687516
Si Si4 0.834571 0.348859 0.188677
Si Si5 0.327003 0.950492 0.813923
Si Si6 0.324694 0.057696 0.938473
Si Si7 0.174050 0.220002 0.986648
O O1 0.274141 0.500000 0.500000
O O2 0.500000 0.570727 0.450889
O O3 0.271482 0.576339 0.381610
O O4 0.289416 0.677302 0.477059
O O5 0.500000 0.223871 0.103436
O O6 0.740924 0.312921 0.132134
O O7 0.704383 0.149981 0.166701
O O8 0.754374 0.191784 0.051402
O O9 0.250000 0.411614 0.750000
O O10 0.500000 0.406954 0.689901
O O11 0.340196 0.546477 0.689839
O O12 0.750000 0.320202 0.250000
O O13 0.000000 0.315553 0.186003
O O14 0.250000 0.974670 0.750000
O O15 0.500000 0.958251 0.805584
O O16 0.288106 0.006842 0.874950
O O17 0.500000 0.069674 0.940984
O O18 0.244395 0.151119 0.939266
O O19 0.285881 0.000000 0.000000
O O20 0.000000 0.212425 0.987258
#
# Coordination Sequence:
#
# PCOD9415471 Si02
#       7
#     8   8   8   8   8   8   8
#     4   9  18  35  57  82 115 152 189 236 292 343
#     4  11  21  35  53  77 112 152 188 228 288 355
#     4   9  18  34  55  76 106 148 191 236 289 348
#     4  10  19  31  49  76 107 144 188 233 285 345
#     4  10  22  38  58  82 111 150 188 231 283 341
#     4  10  20  41  63  80 112 155 191 227 286 350
#     4  11  22  35  58  89 112 142 194 246 289 339
#
# _framework density 18.574788000000002
#
# number of rings (size 3 to 8) (size 9 to 14) (size 15 to 20)
#    0.000    2.000    1.429    2.571    0.000    6.000 
#    0.000    2.143    0.000    6.429    0.000    0.000 
#    0.000    0.000    0.000    0.000    0.000    0.000 
#
# Total GULP energy -312159.721601 kJ/mol
# GULP energy per Si atom -5574.280743 kJ/mol
# Density = 1.853251 g / cm^3
# Si number density = 18.574788 Si / 1000 Ang^3
#
#
#
# Elastic Constant Matrix: (Units=GPa)
#
#
# Indices 1 2 3 4 5 6 
#
# 1 45.8590 36.5438 41.8014 0.0000 0.0000 0.0000
# 2 36.5438 72.5493 38.1573 0.0000 0.0000 0.0000
# 3 41.8014 38.1573 138.4889 0.0000 0.0000 0.0000
# 4 0.0000 0.0000 0.0000 34.9230 0.0000 0.0000
# 5 0.0000 0.0000 0.0000 0.0000 29.4735 0.0000
# 6 0.0000 0.0000 0.0000 0.0000 0.0000 19.8820
#
#
#
# Elastic Compliance Matrix: (Units=1/GPa)
#
#
# Indices 1 2 3 4 5 6 
#
# 1 0.043205 -0.017430 -0.008239 0.000000 0.000000 0.000000
# 2 -0.017430 0.023151 -0.001118 0.000000 0.000000 0.000000
# 3 -0.008239 -0.001118 0.010016 0.000000 0.000000 0.000000
# 4 0.000000 0.000000 0.000000 0.028634 0.000000 0.000000
# 5 0.000000 0.000000 0.000000 0.000000 0.033929 0.000000
# 6 0.000000 0.000000 0.000000 0.000000 0.000000 0.050297
#
#
# Mechanical properties :
#
#
# Convention : Reuss Voigt Hill
#
# Bulk Modulus (GPa) = 43.86071 54.43357 49.14714
# Shear Modulus (GPa) = 19.96781 26.21535 23.09158
#
# Velocity S-wave (km/s) = 3.28227 3.76086 3.52968
# Velocity P-wave (km/s) = 6.16674 6.94460 6.56720
#
# Compressibility (1/GPa) = 0.02279945
#
# Stress axis : x y z
#
# Youngs Moduli (GPa) = 23.14557 43.19452 99.84510
#
# Poissons Ratio (x) = 0.75286 0.82258
# Poissons Ratio (y) = 0.40342 0.11161
# Poissons Ratio (z) = 0.19069 0.04828
#
# Static dielectric constant tensor:
#      x y z
#    x 1.624800 0.000000 0.000000 
#    y 0.000000 1.654660 0.000000 
#    z 0.000000 0.000000 1.656220 
# 
# From -- ./inp_files/30816.got.cif
#   From: 2010.05.17/outbox.cif.g08.bks.cpg/sg53_16_cif.got.tgz:30816.got - 2010.06.03 12:45:16.
