data_PCOD9415208
_publ_section_title
;
Structure prediction by ZEFSAII (Michael W. Deem and Ramdas Pophale) SiO2 
 PCOD9415208
Probable space group: P M N A
;
_chemical_formula_sum "Si O2"
_cell_formula_units_Z 64
_cell_length_a 7.812960
_cell_length_b 22.413465
_cell_length_c 19.730743
_cell_angle_alpha 90.000000
_cell_angle_beta 90.000000
_cell_angle_gamma 90.000000
_cell_volume 3455.159034
_symmetry_space_group_name_H-M "P M N A"
_symmetry_group_IT_number 53
_symmetry_cell_setting 'orthorhombic'
loop_
_space_group_symop_operation_xyz
x,y,z
1/2-x,-y,1/2+z
x,-y,-z
1/2-x,y,1/2-z
-x,-y,-z
1/2+x,y,1/2-z
-x,y,z
1/2+x,-y,1/2+z
loop_
_atom_site_type_symbol
_atom_site_label
_atom_site_fract_x
_atom_site_fract_y
_atom_site_fract_z
Si Si1 0.793723 0.399743 0.327669
Si Si2 0.209326 0.062526 0.970269
Si Si3 0.205991 0.534421 0.327837
Si Si4 0.209955 0.349872 0.594117
Si Si5 0.304766 0.900454 0.323676
Si Si6 0.194490 0.772285 0.357519
Si Si7 0.293203 0.689400 0.943619
Si Si8 0.702642 0.809209 0.504599
O O1 0.750000 0.385139 0.250000
O O2 0.730388 0.467248 0.342021
O O3 0.731153 0.351836 0.382267
O O4 0.000000 0.401230 0.332694
O O5 0.275419 0.075198 0.893635
O O6 0.251176 0.121716 0.014180
O O7 0.000000 0.060033 0.969054
O O8 0.270493 0.000000 0.000000
O O9 0.250000 0.548458 0.250000
O O10 0.267784 0.586821 0.376978
O O11 0.000000 0.533079 0.333766
O O12 0.265435 0.294869 0.642684
O O13 0.263957 0.336856 0.516780
O O14 0.000000 0.348334 0.594633
O O15 0.250000 0.921952 0.250000
O O16 0.500000 0.916924 0.329612
O O17 0.288370 0.828455 0.325384
O O18 0.198034 0.787341 0.437768
O O19 0.000000 0.772608 0.332082
O O20 0.500000 0.688439 0.943665
O O21 0.237168 0.758475 0.940290
O O22 0.500000 0.808057 0.488178
#
# Coordination Sequence:
#
# PCOD9415208 Si02
#       8
#     8   8   8   8   8   8   8   8
#     4   9  18  31  48  66  85 113 149 190 236 282
#     4   8  15  29  49  71  93 120 154 187 221 266
#     4   9  17  30  44  60  84 114 149 187 227 274
#     4   8  15  27  44  65  88 115 148 185 225 268
#     4  10  19  30  46  68  94 124 158 194 230 269
#     4   9  16  28  44  63  91 122 150 183 223 266
#     4   9  17  30  47  67  90 117 148 187 232 271
#     4   9  16  27  46  71  93 115 145 180 221 267
#
# _framework density 18.523026999999999
#
# number of rings (size 3 to 8) (size 9 to 14) (size 15 to 20)
#    0.000    3.125    0.000    2.625    0.000    1.500 
#    0.000    6.875    0.000   14.250    0.000   10.500 
#    0.000    0.000    0.000    0.000    0.000    0.000 
#
# Total GULP energy -356299.814554 kJ/mol
# GULP energy per Si atom -5567.184602 kJ/mol
# Density = 1.848087 g / cm^3
# Si number density = 18.523027 Si / 1000 Ang^3
#
#
#
# Elastic Constant Matrix: (Units=GPa)
#
#
# Indices 1 2 3 4 5 6 
#
# 1 23.6452 5.6006 2.4580 0.0000 0.0000 0.0000
# 2 5.6006 163.4455 85.2840 0.0000 0.0000 0.0000
# 3 2.4580 85.2840 84.3159 0.0000 0.0000 0.0000
# 4 0.0000 0.0000 0.0000 12.1656 0.0000 0.0000
# 5 0.0000 0.0000 0.0000 0.0000 21.0522 0.0000
# 6 0.0000 0.0000 0.0000 0.0000 0.0000 15.1482
#
#
#
# Elastic Compliance Matrix: (Units=1/GPa)
#
#
# Indices 1 2 3 4 5 6 
#
# 1 0.042648 -0.001721 0.000497 0.000000 0.000000 0.000000
# 2 -0.001721 0.013026 -0.013125 0.000000 0.000000 0.000000
# 3 0.000497 -0.013125 0.025122 0.000000 0.000000 0.000000
# 4 0.000000 0.000000 0.000000 0.082199 0.000000 0.000000
# 5 0.000000 0.000000 0.000000 0.000000 0.047501 0.000000
# 6 0.000000 0.000000 0.000000 0.000000 0.000000 0.066014
#
#
# Mechanical properties :
#
#
# Convention : Reuss Voigt Hill
#
# Bulk Modulus (GPa) = 19.19472 50.89908 35.04690
# Shear Modulus (GPa) = 15.50037 21.54413 18.52225
#
# Velocity S-wave (km/s) = 2.89592 3.41412 3.16564
# Velocity P-wave (km/s) = 4.64402 6.56355 5.68538
#
# Compressibility (1/GPa) = 0.05209765
#
# Stress axis : x y z
#
# Youngs Moduli (GPa) = 23.44793 76.77079 39.80648
#
# Poissons Ratio (x) = 0.13211 -0.01980
# Poissons Ratio (y) = 0.04035 0.52247
# Poissons Ratio (z) = -0.01166 1.00763
#
# Static dielectric constant tensor:
#      x y z
#    x 1.695070 0.000000 0.000000 
#    y 0.000000 1.666300 0.000000 
#    z 0.000000 0.000000 1.647110 
# 
# From -- ./inp_files/31377.got.cif
#   From: 2010.05.17/outbox.cif.g08.bks.cpg/sg53_16_cif.got.tgz:31377.got - 2010.06.03 12:45:16.
