data_PCOD9415838
_publ_section_title
;
Structure prediction by ZEFSAII (Michael W. Deem and Ramdas Pophale) SiO2 
 PCOD9415838
Probable space group: P M N A
;
_chemical_formula_sum "Si O2"
_cell_formula_units_Z 28
_cell_length_a 19.693772
_cell_length_b 13.761735
_cell_length_c 5.102906
_cell_angle_alpha 90.000000
_cell_angle_beta 90.000000
_cell_angle_gamma 90.000000
_cell_volume 1382.991990
_symmetry_space_group_name_H-M "P M N A"
_symmetry_group_IT_number 53
_symmetry_cell_setting 'orthorhombic'
loop_
_space_group_symop_operation_xyz
x,y,z
1/2-x,-y,1/2+z
x,-y,-z
1/2-x,y,1/2-z
-x,-y,-z
1/2+x,y,1/2-z
-x,y,z
1/2+x,-y,1/2+z
loop_
_atom_site_type_symbol
_atom_site_label
_atom_site_fract_x
_atom_site_fract_y
_atom_site_fract_z
Si Si1 0.838292 0.266482 0.470039
Si Si2 0.750000 0.437756 0.250000
Si Si3 0.250000 0.886626 0.750000
Si Si4 0.079043 0.792055 0.041138
Si Si5 0.367611 0.000000 0.500000
O O1 0.807090 0.367898 0.376122
O O2 0.776059 0.188817 0.469770
O O3 0.876665 0.264546 0.744074
O O4 0.890128 0.231073 0.243871
O O5 0.724955 0.500000 0.500000
O O6 0.314216 0.954351 0.702803
O O7 0.089575 0.907730 0.093945
O O8 0.000000 0.768206 0.055507
#
# Coordination Sequence:
#
# PCOD9415838 Si02
#       5
#     8   4   4   8   4
#     4  10  22  38  59  85 115 151 186 238 306 347
#     4  11  22  40  69  96 114 136 185 252 312 371
#     4   9  18  32  53  80 114 146 187 242 292 333
#     4  11  22  37  56  81 120 163 200 231 270 338
#     4  10  19  32  54  84 115 158 206 244 276 322
#
# _framework density 20.245958999999999
#
# number of rings (size 3 to 8) (size 9 to 14) (size 15 to 20)
#    0.000    1.714    0.000    4.714    0.000   11.429 
#    0.000    7.143    0.000   17.143    0.000    0.000 
#    0.000    0.000    0.000    0.000    0.000    0.000 
#
# Total GULP energy -156293.548710 kJ/mol
# GULP energy per Si atom -5581.912454 kJ/mol
# Density = 2.019988 g / cm^3
# Si number density = 20.245959 Si / 1000 Ang^3
#
#
#
# Elastic Constant Matrix: (Units=GPa)
#
#
# Indices 1 2 3 4 5 6 
#
# 1 82.6246 4.4403 13.8176 0.0000 0.0000 0.0000
# 2 4.4403 80.6214 7.5585 0.0000 0.0000 0.0000
# 3 13.8176 7.5585 86.4227 0.0000 0.0000 0.0000
# 4 0.0000 0.0000 0.0000 17.0209 0.0000 0.0000
# 5 0.0000 0.0000 0.0000 0.0000 28.5496 0.0000
# 6 0.0000 0.0000 0.0000 0.0000 0.0000 22.8689
#
#
#
# Elastic Compliance Matrix: (Units=1/GPa)
#
#
# Indices 1 2 3 4 5 6 
#
# 1 0.012456 -0.000503 -0.001947 0.000000 0.000000 0.000000
# 2 -0.000503 0.012527 -0.001015 0.000000 0.000000 0.000000
# 3 -0.001947 -0.001015 0.011971 0.000000 0.000000 0.000000
# 4 0.000000 0.000000 0.000000 0.058751 0.000000 0.000000
# 5 0.000000 0.000000 0.000000 0.000000 0.035027 0.000000
# 6 0.000000 0.000000 0.000000 0.000000 0.000000 0.043728
#
#
# Mechanical properties :
#
#
# Convention : Reuss Voigt Hill
#
# Bulk Modulus (GPa) = 33.30946 33.47795 33.39370
# Shear Modulus (GPa) = 26.12360 28.61138 27.36749
#
# Velocity S-wave (km/s) = 3.59599 3.76332 3.68061
# Velocity P-wave (km/s) = 5.80772 5.95441 5.88152
#
# Compressibility (1/GPa) = 0.03002150
#
# Stress axis : x y z
#
# Youngs Moduli (GPa) = 80.28477 79.83048 83.53397
#
# Poissons Ratio (x) = 0.04019 0.16268
# Poissons Ratio (y) = 0.04042 0.08479
# Poissons Ratio (z) = 0.15635 0.08103
#
# Static dielectric constant tensor:
#      x y z
#    x 1.699540 0.000000 0.000000 
#    y 0.000000 1.748490 0.000000 
#    z 0.000000 0.000000 1.700910 
# 
# From -- ./inp_files/2588.got.cif
#   From: 2010.05.17/outbox.cif.g08.bks.cpg/sg53_2_cif.got.tgz:2588.got - 2010.06.03 12:45:16.
