data_PCOD9415077
_publ_section_title
;
Structure prediction by ZEFSAII (Michael W. Deem and Ramdas Pophale) SiO2 
 PCOD9415077
Probable space group: P M N A
;
_chemical_formula_sum "Si O2"
_cell_formula_units_Z 64
_cell_length_a 9.313580
_cell_length_b 18.873393
_cell_length_c 25.535558
_cell_angle_alpha 90.000000
_cell_angle_beta 90.000000
_cell_angle_gamma 90.000000
_cell_volume 4488.611162
_symmetry_space_group_name_H-M "P M N A"
_symmetry_group_IT_number 53
_symmetry_cell_setting 'orthorhombic'
loop_
_space_group_symop_operation_xyz
x,y,z
1/2-x,-y,1/2+z
x,-y,-z
1/2-x,y,1/2-z
-x,-y,-z
1/2+x,y,1/2-z
-x,y,z
1/2+x,-y,1/2+z
loop_
_atom_site_type_symbol
_atom_site_label
_atom_site_fract_x
_atom_site_fract_y
_atom_site_fract_z
Si Si1 0.166857 0.451865 0.921611
Si Si2 0.674151 0.986742 0.416235
Si Si3 0.169715 0.227873 0.803764
Si Si4 0.667738 0.735774 0.990123
Si Si5 0.666552 0.397489 0.457739
Si Si6 0.670063 0.941495 0.303351
Si Si7 0.832225 0.318509 0.610043
Si Si8 0.173481 0.883955 0.990828
O O1 0.210663 0.534397 0.923286
O O2 0.266896 0.397635 0.890806
O O3 0.000000 0.447056 0.904853
O O4 0.170444 0.425251 0.982076
O O5 0.500000 0.984571 0.414947
O O6 0.724094 0.977959 0.356751
O O7 0.716533 0.921784 0.454347
O O8 0.712495 0.059454 0.445594
O O9 0.250000 0.246969 0.750000
O O10 0.187532 0.143210 0.811048
O O11 0.241593 0.269854 0.851099
O O12 0.000000 0.242457 0.800545
O O13 0.500000 0.744075 0.978248
O O14 0.737017 0.672163 0.956509
O O15 0.751833 0.809003 0.983551
O O16 0.680579 0.712213 0.051077
O O17 0.500000 0.380868 0.446157
O O18 0.750000 0.961837 0.250000
O O19 0.500000 0.955229 0.297522
O O20 0.000000 0.318748 0.624119
O O21 0.000000 0.876081 0.991116
#
# Coordination Sequence:
#
# PCOD9415077 Si02
#       8
#     8   8   8   8   8   8   8   8
#     4   8  14  25  40  57  76 101 135 169 197 227
#     4   8  15  28  45  62  79 103 139 177 208 245
#     4  10  19  30  44  60  80 106 136 172 209 243
#     4  10  19  27  37  58  86 111 136 169 206 243
#     4   8  14  25  40  56  76 104 136 166 194 230
#     4   9  17  29  44  62  82 105 135 171 210 249
#     4  10  19  28  39  57  82 111 140 168 201 243
#     4   9  16  28  45  60  77 107 143 175 208 248
#
# _framework density 14.258308
#
# number of rings (size 3 to 8) (size 9 to 14) (size 15 to 20)
#    0.000    3.000    0.000    3.375    0.000    3.500 
#    0.000    5.000    0.000    0.000    0.000    0.000 
#    0.000    1.000    0.000    6.750    0.000    5.250 
#
# Total GULP energy -356349.403303 kJ/mol
# GULP energy per Si atom -5567.959427 kJ/mol
# Density = 1.422586 g / cm^3
# Si number density = 14.258308 Si / 1000 Ang^3
#
#
#
# Elastic Constant Matrix: (Units=GPa)
#
#
# Indices 1 2 3 4 5 6 
#
# 1 62.5611 49.9650 32.1161 0.0000 0.0000 0.0000
# 2 49.9650 95.9801 30.1354 0.0000 0.0000 0.0000
# 3 32.1161 30.1354 68.0970 0.0000 0.0000 0.0000
# 4 0.0000 0.0000 0.0000 17.2586 0.0000 0.0000
# 5 0.0000 0.0000 0.0000 0.0000 19.0737 0.0000
# 6 0.0000 0.0000 0.0000 0.0000 0.0000 15.0902
#
#
#
# Elastic Compliance Matrix: (Units=1/GPa)
#
#
# Indices 1 2 3 4 5 6 
#
# 1 0.031301 -0.013541 -0.008770 0.000000 0.000000 0.000000
# 2 -0.013541 0.017958 -0.001561 0.000000 0.000000 0.000000
# 3 -0.008770 -0.001561 0.019512 0.000000 0.000000 0.000000
# 4 0.000000 0.000000 0.000000 0.057942 0.000000 0.000000
# 5 0.000000 0.000000 0.000000 0.000000 0.052428 0.000000
# 6 0.000000 0.000000 0.000000 0.000000 0.000000 0.066268
#
#
# Mechanical properties :
#
#
# Convention : Reuss Voigt Hill
#
# Bulk Modulus (GPa) = 47.55717 50.11902 48.83810
# Shear Modulus (GPa) = 16.65764 17.91261 17.28513
#
# Velocity S-wave (km/s) = 3.42171 3.54827 3.48556
# Velocity P-wave (km/s) = 7.00266 7.21207 7.10814
#
# Compressibility (1/GPa) = 0.02102732
#
# Stress axis : x y z
#
# Youngs Moduli (GPa) = 31.94761 55.68521 51.25120
#
# Poissons Ratio (x) = 0.75404 0.44947
# Poissons Ratio (y) = 0.43261 0.07999
# Poissons Ratio (z) = 0.28018 0.08691
#
# Static dielectric constant tensor:
#      x y z
#    x 1.472770 0.000000 0.000000 
#    y 0.000000 1.465550 0.000000 
#    z 0.000000 0.000000 1.459980 
# 
# From -- ./inp_files/36469.got.cif
#   From: 2010.05.17/outbox.cif.g08.bks.cpg/sg53_19_cif.got.tgz:36469.got - 2010.06.03 12:45:16.
