data_PCOD9415383
_publ_section_title
;
Structure prediction by ZEFSAII (Michael W. Deem and Ramdas Pophale) SiO2 
 PCOD9415383
Probable space group: P M N A
;
_chemical_formula_sum "Si O2"
_cell_formula_units_Z 56
_cell_length_a 8.551802
_cell_length_b 21.097758
_cell_length_c 13.988499
_cell_angle_alpha 90.000000
_cell_angle_beta 90.000000
_cell_angle_gamma 90.000000
_cell_volume 2523.858832
_symmetry_space_group_name_H-M "P M N A"
_symmetry_group_IT_number 53
_symmetry_cell_setting 'orthorhombic'
loop_
_space_group_symop_operation_xyz
x,y,z
1/2-x,-y,1/2+z
x,-y,-z
1/2-x,y,1/2-z
-x,-y,-z
1/2+x,y,1/2-z
-x,y,z
1/2+x,-y,1/2+z
loop_
_atom_site_type_symbol
_atom_site_label
_atom_site_fract_x
_atom_site_fract_y
_atom_site_fract_z
Si Si1 0.186870 0.848699 0.554661
Si Si2 0.179256 0.693640 0.151291
Si Si3 0.317696 0.575264 0.896039
Si Si4 0.675972 0.978252 0.610673
Si Si5 0.188004 0.289176 0.439097
Si Si6 0.188544 0.114112 0.848029
Si Si7 0.179020 0.447082 0.900512
O O1 0.240303 0.910870 0.612246
O O2 0.238113 0.780423 0.595937
O O3 0.254404 0.855245 0.446836
O O4 0.000000 0.849020 0.548122
O O5 0.250000 0.718030 0.250000
O O6 0.263503 0.708216 0.051056
O O7 0.183207 0.617031 0.158707
O O8 0.000000 0.714787 0.142419
O O9 0.500000 0.571185 0.869987
O O10 0.224611 0.514699 0.856184
O O11 0.255208 0.647298 0.884186
O O12 0.294670 0.565392 0.010506
O O13 0.500000 0.970209 0.648644
O O14 0.663496 0.000000 0.500000
O O15 0.752635 0.041473 0.652044
O O16 0.000000 0.292981 0.435060
O O17 0.250000 0.143561 0.750000
O O18 0.000000 0.112296 0.849510
O O19 0.000000 0.450039 0.935489
#
# Coordination Sequence:
#
# PCOD9415383 Si02
#       7
#     8   8   8   8   8   8   8
#     4  10  19  31  48  69  94 125 157 188 225 272
#     4  10  20  31  44  61  85 118 151 183 220 263
#     4   9  15  25  42  61  81 107 137 172 213 251
#     4   8  16  31  48  67  92 119 149 189 231 270
#     4   9  19  32  44  63  91 119 149 181 214 259
#     4  10  20  33  49  70  95 122 154 191 230 272
#     4   9  16  26  40  60  82 104 136 178 218 253
#
# _framework density 22.188245999999999
#
# number of rings (size 3 to 8) (size 9 to 14) (size 15 to 20)
#    0.000    2.714    0.000    3.857    0.000    7.143 
#    0.000    0.000    0.000    0.000    0.000    1.000 
#    0.000    0.000    0.000    0.000    0.000    0.000 
#
# Total GULP energy -312032.677192 kJ/mol
# GULP energy per Si atom -5572.012093 kJ/mol
# Density = 2.213774 g / cm^3
# Si number density = 22.188246 Si / 1000 Ang^3
#
#
#
# Elastic Constant Matrix: (Units=GPa)
#
#
# Indices 1 2 3 4 5 6 
#
# 1 32.6101 21.1550 -12.9968 0.0000 0.0000 0.0000
# 2 21.1550 199.5645 -8.8134 0.0000 0.0000 0.0000
# 3 -12.9968 -8.8134 20.3912 0.0000 0.0000 0.0000
# 4 0.0000 0.0000 0.0000 -6.2912 0.0000 0.0000
# 5 0.0000 0.0000 0.0000 0.0000 7.8458 0.0000
# 6 0.0000 0.0000 0.0000 0.0000 0.0000 8.7383
#
#
#
# Elastic Compliance Matrix: (Units=1/GPa)
#
#
# Indices 1 2 3 4 5 6 
#
# 1 0.043303 -0.003437 0.026115 0.000000 0.000000 0.000000
# 2 -0.003437 0.005381 0.000135 0.000000 0.000000 0.000000
# 3 0.026115 0.000135 0.065744 0.000000 0.000000 0.000000
# 4 0.000000 0.000000 0.000000 -0.158953 0.000000 0.000000
# 5 0.000000 0.000000 0.000000 0.000000 0.127456 0.000000
# 6 0.000000 0.000000 0.000000 0.000000 0.000000 0.114439
#
#
# Mechanical properties :
#
#
# Convention : Reuss Voigt Hill
#
# Bulk Modulus (GPa) = 6.24790 27.91724 17.08257
# Shear Modulus (GPa) = 24.37885 18.94000 21.65942
#
# Velocity S-wave (km/s) = 3.31830 2.92482 3.12776
# Velocity P-wave (km/s) = 4.18372 4.90055 4.55625
#
# Compressibility (1/GPa) = 0.16005370
#
# Stress axis : x y z
#
# Youngs Moduli (GPa) = 23.09304 185.83114 15.21054
#
# Poissons Ratio (x) = 0.63871 -0.39722
# Poissons Ratio (y) = 0.07937 -0.00206
# Poissons Ratio (z) = -0.60307 -0.02512
#
# Static dielectric constant tensor:
#      x y z
#    x 1.766210 0.000000 0.000000 
#    y 0.000000 1.921400 0.000000 
#    z 0.000000 0.000000 1.831220 
# 
# From -- ./inp_files/26707.got.cif
#   From: 2010.05.17/outbox.cif.g08.bks.cpg/sg53_14_cif.got.tgz:26707.got - 2010.06.03 12:45:16.
