data_PCOD9415468
_publ_section_title
;
Structure prediction by ZEFSAII (Michael W. Deem and Ramdas Pophale) SiO2 
 PCOD9415468
Probable space group: P M N A
;
_chemical_formula_sum "Si O2"
_cell_formula_units_Z 64
_cell_length_a 8.982717
_cell_length_b 23.710702
_cell_length_c 16.732448
_cell_angle_alpha 90.000000
_cell_angle_beta 90.000000
_cell_angle_gamma 90.000000
_cell_volume 3563.785970
_symmetry_space_group_name_H-M "P M N A"
_symmetry_group_IT_number 53
_symmetry_cell_setting 'orthorhombic'
loop_
_space_group_symop_operation_xyz
x,y,z
1/2-x,-y,1/2+z
x,-y,-z
1/2-x,y,1/2-z
-x,-y,-z
1/2+x,y,1/2-z
-x,y,z
1/2+x,-y,1/2+z
loop_
_atom_site_type_symbol
_atom_site_label
_atom_site_fract_x
_atom_site_fract_y
_atom_site_fract_z
Si Si1 0.177730 0.070315 0.333344
Si Si2 0.673024 0.426793 0.097910
Si Si3 0.823876 0.533036 0.164583
Si Si4 0.171213 0.370731 0.577286
Si Si5 0.822113 0.131112 0.499274
Si Si6 0.821444 0.261436 0.485803
Si Si7 0.170458 0.032204 0.914378
Si Si8 0.822239 0.317738 0.167622
O O1 0.250000 0.088858 0.250000
O O2 0.218272 0.109366 0.409761
O O3 0.000000 0.070068 0.326071
O O4 0.236872 0.007883 0.355699
O O5 0.500000 0.430804 0.122500
O O6 0.751790 0.486657 0.106168
O O7 0.758927 0.380496 0.150639
O O8 0.676136 0.402929 0.008037
O O9 0.750000 0.522098 0.250000
O O10 0.777391 0.595112 0.135475
O O11 0.000000 0.526620 0.167605
O O12 0.212055 0.306584 0.555437
O O13 0.000000 0.373121 0.606203
O O14 0.788487 0.197066 0.506779
O O15 0.741668 0.092233 0.564426
O O16 0.000000 0.122916 0.506962
O O17 0.734487 0.280589 0.406747
O O18 0.000000 0.266688 0.469969
O O19 0.000000 0.036844 0.887329
O O20 0.171474 0.000000 0.000000
O O21 0.750000 0.297137 0.250000
O O22 0.000000 0.318401 0.172186
#
# Coordination Sequence:
#
# PCOD9415468 Si02
#       8
#     8   8   8   8   8   8   8   8
#     4  10  19  31  49  75 108 140 170 206 251 299
#     4  10  20  36  56  77 103 133 166 205 254 311
#     4  12  24  36  53  77 104 131 165 209 258 311
#     4   9  19  36  56  76 102 135 168 206 253 303
#     4   9  18  33  53  76 102 135 173 210 250 299
#     4   9  19  36  55  75 101 135 173 211 253 300
#     4   9  17  30  49  73 101 133 169 206 245 290
#     4  11  21  33  49  71 102 137 173 211 253 302
#
# _framework density 17.95843
#
# number of rings (size 3 to 8) (size 9 to 14) (size 15 to 20)
#    0.000    2.125    0.000    4.875    0.000    7.000 
#    0.000    1.250    0.000    0.750    0.000    3.500 
#    0.000    0.000    0.000    0.000    0.000    0.000 
#
# Total GULP energy -357247.427252 kJ/mol
# GULP energy per Si atom -5581.991051 kJ/mol
# Density = 1.791756 g / cm^3
# Si number density = 17.958430 Si / 1000 Ang^3
#
#
#
# Elastic Constant Matrix: (Units=GPa)
#
#
# Indices 1 2 3 4 5 6 
#
# 1 85.6907 40.0070 7.4467 0.0000 0.0000 0.0000
# 2 40.0070 116.4124 8.2060 0.0000 0.0000 0.0000
# 3 7.4467 8.2060 10.5353 0.0000 0.0000 0.0000
# 4 0.0000 0.0000 0.0000 11.6960 0.0000 0.0000
# 5 0.0000 0.0000 0.0000 0.0000 24.8311 0.0000
# 6 0.0000 0.0000 0.0000 0.0000 0.0000 124.3705
#
#
#
# Elastic Compliance Matrix: (Units=1/GPa)
#
#
# Indices 1 2 3 4 5 6 
#
# 1 0.014328 -0.004455 -0.006658 0.000000 0.000000 0.000000
# 2 -0.004455 0.010474 -0.005010 0.000000 0.000000 0.000000
# 3 -0.006658 -0.005010 0.103527 0.000000 0.000000 0.000000
# 4 0.000000 0.000000 0.000000 0.085499 0.000000 0.000000
# 5 0.000000 0.000000 0.000000 0.000000 0.040272 0.000000
# 6 0.000000 0.000000 0.000000 0.000000 0.000000 0.008040
#
#
# Mechanical properties :
#
#
# Convention : Reuss Voigt Hill
#
# Bulk Modulus (GPa) = 10.40746 35.99530 23.20138
# Shear Modulus (GPa) = 15.31797 42.64476 28.98136
#
# Velocity S-wave (km/s) = 2.92373 4.87831 4.02157
# Velocity P-wave (km/s) = 4.14795 7.19846 5.87466
#
# Compressibility (1/GPa) = 0.09608493
#
# Stress axis : x y z
#
# Youngs Moduli (GPa) = 69.79186 95.47208 9.65933
#
# Poissons Ratio (x) = 0.42531 0.06431
# Poissons Ratio (y) = 0.31091 0.04839
# Poissons Ratio (z) = 0.46466 0.47828
#
# Static dielectric constant tensor:
#      x y z
#    x 1.600610 0.000000 0.000000 
#    y 0.000000 1.623380 0.000000 
#    z 0.000000 0.000000 1.612320 
# 
# From -- ./inp_files/20800.got.cif
#   From: 2010.05.17/outbox.cif.g08.bks.cpg/sg53_11_cif.got.tgz:20800.got - 2010.06.03 12:45:16.
