data_PCOD9415112
_publ_section_title
;
Structure prediction by ZEFSAII (Michael W. Deem and Ramdas Pophale) SiO2 
 PCOD9415112
Probable space group: P M N A
;
_chemical_formula_sum "Si O2"
_cell_formula_units_Z 64
_cell_length_a 9.217069
_cell_length_b 26.688682
_cell_length_c 15.334491
_cell_angle_alpha 90.000000
_cell_angle_beta 90.000000
_cell_angle_gamma 90.000000
_cell_volume 3772.153270
_symmetry_space_group_name_H-M "P M N A"
_symmetry_group_IT_number 53
_symmetry_cell_setting 'orthorhombic'
loop_
_space_group_symop_operation_xyz
x,y,z
1/2-x,-y,1/2+z
x,-y,-z
1/2-x,y,1/2-z
-x,-y,-z
1/2+x,y,1/2-z
-x,y,z
1/2+x,-y,1/2+z
loop_
_atom_site_type_symbol
_atom_site_label
_atom_site_fract_x
_atom_site_fract_y
_atom_site_fract_z
Si Si1 0.829750 0.035575 0.659513
Si Si2 0.670582 0.188684 0.660266
Si Si3 0.659455 0.463421 0.823825
Si Si4 0.670452 0.914609 0.840578
Si Si5 0.335062 0.619557 0.027331
Si Si6 0.665735 0.457939 0.422055
Si Si7 0.324942 0.104611 0.521119
Si Si8 0.826707 0.307068 0.842702
O O1 0.750000 0.049933 0.750000
O O2 0.746123 0.060162 0.578468
O O3 0.000000 0.050312 0.660662
O O4 0.823397 0.975313 0.653201
O O5 0.750000 0.174979 0.750000
O O6 0.500000 0.181632 0.675596
O O7 0.709760 0.154011 0.578533
O O8 0.694925 0.247558 0.642706
O O9 0.750000 0.436372 0.750000
O O10 0.500000 0.474296 0.791136
O O11 0.651377 0.426623 0.904997
O O12 0.740735 0.513812 0.850016
O O13 0.750000 0.900527 0.750000
O O14 0.500000 0.900540 0.839643
O O15 0.753227 0.894294 0.925773
O O16 0.500000 0.634373 0.003323
O O17 0.248825 0.662079 0.079800
O O18 0.242352 0.593296 0.951549
O O19 0.663064 0.500000 0.500000
O O20 0.500000 0.449087 0.397296
O O21 0.500000 0.098947 0.515039
O O22 0.750000 0.318432 0.750000
O O23 0.000000 0.317453 0.838064
#
# Coordination Sequence:
#
# PCOD9415112 Si02
#       8
#     8   8   8   8   8   8   8   8
#     4  10  20  33  49  72 102 134 168 204 243 290
#     4   9  20  35  50  71  99 129 161 199 241 288
#     4  10  19  29  42  62  90 121 153 189 226 267
#     4  10  21  36  52  72  99 130 165 206 248 290
#     4  10  19  30  45  66  91 120 154 189 227 271
#     4   9  17  29  44  62  86 116 149 184 222 264
#     4  11  21  33  51  74 100 132 168 204 246 295
#     4  10  19  32  48  67  93 123 155 191 232 275
#
# _framework density 16.966438
#
# number of rings (size 3 to 8) (size 9 to 14) (size 15 to 20)
#    0.000    2.125    0.000    3.750    0.000    9.500 
#    0.000    0.000    0.000    0.000    0.000    0.875 
#    0.000    2.000    0.000    0.000    0.000    0.000 
#
# Total GULP energy -356894.360503 kJ/mol
# GULP energy per Si atom -5576.474383 kJ/mol
# Density = 1.692782 g / cm^3
# Si number density = 16.966438 Si / 1000 Ang^3
#
#
#
# Elastic Constant Matrix: (Units=GPa)
#
#
# Indices 1 2 3 4 5 6 
#
# 1 139.8945 44.9967 59.1158 0.0000 0.0000 0.0000
# 2 44.9967 58.8306 35.7649 0.0000 0.0000 0.0000
# 3 59.1158 35.7649 100.5283 0.0000 0.0000 0.0000
# 4 0.0000 0.0000 0.0000 24.7369 0.0000 0.0000
# 5 0.0000 0.0000 0.0000 0.0000 28.6771 0.0000
# 6 0.0000 0.0000 0.0000 0.0000 0.0000 17.0870
#
#
#
# Elastic Compliance Matrix: (Units=1/GPa)
#
#
# Indices 1 2 3 4 5 6 
#
# 1 0.010790 -0.005609 -0.004350 0.000000 0.000000 0.000000
# 2 -0.005609 0.024604 -0.005455 0.000000 0.000000 0.000000
# 3 -0.004350 -0.005455 0.014446 0.000000 0.000000 0.000000
# 4 0.000000 0.000000 0.000000 0.040426 0.000000 0.000000
# 5 0.000000 0.000000 0.000000 0.000000 0.034871 0.000000
# 6 0.000000 0.000000 0.000000 0.000000 0.000000 0.058524
#
#
# Mechanical properties :
#
#
# Convention : Reuss Voigt Hill
#
# Bulk Modulus (GPa) = 52.59506 64.33425 58.46465
# Shear Modulus (GPa) = 22.64218 24.72525 23.68371
#
# Velocity S-wave (km/s) = 3.65708 3.82161 3.74025
# Velocity P-wave (km/s) = 6.99279 7.58114 7.29290
#
# Compressibility (1/GPa) = 0.01901319
#
# Stress axis : x y z
#
# Youngs Moduli (GPa) = 92.67486 40.64358 69.22206
#
# Poissons Ratio (x) = 0.22795 0.30111
# Poissons Ratio (y) = 0.51978 0.37762
# Poissons Ratio (z) = 0.40313 0.22172
#
# Static dielectric constant tensor:
#      x y z
#    x 1.588330 0.000000 0.000000 
#    y 0.000000 1.569980 0.000000 
#    z 0.000000 0.000000 1.418880 
# 
# From -- ./inp_files/20981.got.cif
#   From: 2010.05.17/outbox.cif.g08.bks.cpg/sg53_11_cif.got.tgz:20981.got - 2010.06.03 12:45:16.
