data_PCOD9415556
_publ_section_title
;
Structure prediction by ZEFSAII (Michael W. Deem and Ramdas Pophale) SiO2 
 PCOD9415556
Probable space group: P M N A
;
_chemical_formula_sum "Si O2"
_cell_formula_units_Z 64
_cell_length_a 15.740545
_cell_length_b 22.584538
_cell_length_c 9.568060
_cell_angle_alpha 90.000000
_cell_angle_beta 90.000000
_cell_angle_gamma 90.000000
_cell_volume 3401.377748
_symmetry_space_group_name_H-M "P M N A"
_symmetry_group_IT_number 53
_symmetry_cell_setting 'orthorhombic'
loop_
_space_group_symop_operation_xyz
x,y,z
1/2-x,-y,1/2+z
x,-y,-z
1/2-x,y,1/2-z
-x,-y,-z
1/2+x,y,1/2-z
-x,y,z
1/2+x,-y,1/2+z
loop_
_atom_site_type_symbol
_atom_site_label
_atom_site_fract_x
_atom_site_fract_y
_atom_site_fract_z
Si Si1 0.629468 0.246495 0.518717
Si Si2 0.097454 0.845868 0.258168
Si Si3 0.096266 0.841123 0.782098
Si Si4 0.902113 0.342149 0.391969
Si Si5 0.094525 0.627933 0.936081
Si Si6 0.174438 0.216659 0.476559
Si Si7 0.261858 0.440951 0.083053
Si Si8 0.396363 0.067316 0.521117
O O1 0.599147 0.208084 0.648510
O O2 0.591183 0.216356 0.380971
O O3 0.604245 0.314213 0.530969
O O4 0.730052 0.238600 0.498283
O O5 0.147856 0.822411 0.390765
O O6 0.000000 0.858601 0.299095
O O7 0.131635 0.900768 0.164851
O O8 0.158309 0.824892 0.657000
O O9 0.126425 0.892616 0.887209
O O10 0.000000 0.854435 0.731393
O O11 0.894855 0.347266 0.222891
O O12 0.879747 0.276548 0.447707
O O13 0.832864 0.390268 0.441441
O O14 0.000000 0.356157 0.428174
O O15 0.170453 0.583393 0.965806
O O16 0.000000 0.602524 0.947865
O O17 0.250000 0.451231 0.250000
O O18 0.284438 0.500000 0.000000
O O19 0.500000 0.068696 0.525928
O O20 0.368824 0.000000 0.500000
#
# Coordination Sequence:
#
# PCOD9415556 Si02
#       8
#     8   8   8   8   8   8   8   8
#     4  11  20  34  54  81 114 148 185 228 288 359
#     4  10  21  35  53  80 113 149 186 237 298 347
#     4  10  19  31  55  84 109 145 191 235 283 344
#     4  10  20  35  58  84 115 154 191 234 291 351
#     4  10  19  35  60  85 111 149 197 237 280 344
#     4  12  21  33  53  86 121 143 183 244 305 346
#     4  10  22  41  60  83 112 150 194 241 284 341
#     4   8  16  34  57  79 109 153 201 239 280 346
#
# _framework density 18.815905000000001
#
# number of rings (size 3 to 8) (size 9 to 14) (size 15 to 20)
#    0.000    1.875    2.500    3.750    0.000    0.500 
#    2.250    0.625    0.000   15.000    0.000    0.000 
#    0.000    0.000    0.000    0.000    0.000    0.125 
#
# Total GULP energy -357077.674149 kJ/mol
# GULP energy per Si atom -5579.338659 kJ/mol
# Density = 1.877308 g / cm^3
# Si number density = 18.815905 Si / 1000 Ang^3
#
#
#
# Elastic Constant Matrix: (Units=GPa)
#
#
# Indices 1 2 3 4 5 6 
#
# 1 104.8882 28.6399 20.1473 0.0000 0.0000 0.0000
# 2 28.6399 109.6417 30.5326 0.0000 0.0000 0.0000
# 3 20.1473 30.5326 71.4068 0.0000 0.0000 0.0000
# 4 0.0000 0.0000 0.0000 18.7908 0.0000 0.0000
# 5 0.0000 0.0000 0.0000 0.0000 -37.0633 0.0000
# 6 0.0000 0.0000 0.0000 0.0000 0.0000 19.3784
#
#
#
# Elastic Compliance Matrix: (Units=1/GPa)
#
#
# Indices 1 2 3 4 5 6 
#
# 1 0.010521 -0.002181 -0.002036 0.000000 0.000000 0.000000
# 2 -0.002181 0.010806 -0.004005 0.000000 0.000000 0.000000
# 3 -0.002036 -0.004005 0.016291 0.000000 0.000000 0.000000
# 4 0.000000 0.000000 0.000000 0.053218 0.000000 0.000000
# 5 0.000000 0.000000 0.000000 0.000000 -0.026981 0.000000
# 6 0.000000 0.000000 0.000000 0.000000 0.000000 0.051604
#
#
# Mechanical properties :
#
#
# Convention : Reuss Voigt Hill
#
# Bulk Modulus (GPa) = 47.22857 49.39737 48.31297
# Shear Modulus (GPa) = 35.98173 13.99564 24.98869
#
# Velocity S-wave (km/s) = 4.37773 2.73026 3.64821
# Velocity P-wave (km/s) = 7.12093 6.02072 6.59381
#
# Compressibility (1/GPa) = 0.02117362
#
# Stress axis : x y z
#
# Youngs Moduli (GPa) = 95.05191 92.54411 61.38327
#
# Poissons Ratio (x) = 0.20186 0.12496
# Poissons Ratio (y) = 0.20733 0.24584
# Poissons Ratio (z) = 0.19350 0.37063
#
# Static dielectric constant tensor:
#      x y z
#    x 1.684960 0.000000 0.000000 
#    y 0.000000 1.633640 0.000000 
#    z 0.000000 0.000000 1.652300 
# 
# From -- ./inp_files/8923.got.cif
#   From: 2010.05.17/outbox.cif.g08.bks.cpg/sg53_5_cif.got.tgz:8923.got - 2010.06.03 12:45:16.
