data_PCOD9415699
_publ_section_title
;
Structure prediction by ZEFSAII (Michael W. Deem and Ramdas Pophale) SiO2 
 PCOD9415699
Probable space group: P M N A
;
_chemical_formula_sum "Si O2"
_cell_formula_units_Z 48
_cell_length_a 8.648610
_cell_length_b 32.111865
_cell_length_c 9.639813
_cell_angle_alpha 90.000000
_cell_angle_beta 90.000000
_cell_angle_gamma 90.000000
_cell_volume 2677.197755
_symmetry_space_group_name_H-M "P M N A"
_symmetry_group_IT_number 53
_symmetry_cell_setting 'orthorhombic'
loop_
_space_group_symop_operation_xyz
x,y,z
1/2-x,-y,1/2+z
x,-y,-z
1/2-x,y,1/2-z
-x,-y,-z
1/2+x,y,1/2-z
-x,y,z
1/2+x,-y,1/2+z
loop_
_atom_site_type_symbol
_atom_site_label
_atom_site_fract_x
_atom_site_fract_y
_atom_site_fract_z
Si Si1 0.686223 0.629318 0.093367
Si Si2 0.812778 0.461565 0.593671
Si Si3 0.185484 0.960495 0.405396
Si Si4 0.684902 0.792328 0.597227
Si Si5 0.314440 0.888116 0.595856
Si Si6 0.814325 0.720053 0.406098
O O1 0.750000 0.629293 0.250000
O O2 0.500000 0.629388 0.097675
O O3 0.733796 0.584192 0.034860
O O4 0.733007 0.674347 0.033563
O O5 0.759360 0.500000 0.500000
O O6 0.750000 0.465166 0.750000
O O7 0.000000 0.462704 0.599272
O O8 0.250000 0.964004 0.250000
O O9 0.247138 0.919642 0.483544
O O10 0.000000 0.959238 0.399228
O O11 0.231848 0.000000 0.500000
O O12 0.750000 0.783912 0.750000
O O13 0.500000 0.790007 0.599238
O O14 0.728075 0.840155 0.562295
O O15 0.750523 0.758307 0.493204
O O16 0.250000 0.897583 0.750000
O O17 0.500000 0.891407 0.599330
O O18 0.750000 0.722345 0.250000
O O19 0.000000 0.721894 0.402543
#
# Coordination Sequence:
#
# PCOD9415699 Si02
#       6
#     8   8   8   8   8   8
#     4   8  15  28  46  68  94 126 164 204 248 298
#     4   9  17  30  48  69  95 126 161 203 249 299
#     4  11  24  40  60  86 115 147 182 221 264 310
#     4  10  21  37  56  79 107 140 176 214 261 313
#     4  10  21  38  60  83 109 142 179 219 262 311
#     4  10  19  32  52  76 102 133 171 215 259 306
#
# _framework density 17.929193999999999
#
# number of rings (size 3 to 8) (size 9 to 14) (size 15 to 20)
#    0.000    2.333    0.000    2.500    0.000    6.333 
#    0.000    0.833    0.000    2.000    0.000    0.000 
#    0.000    0.000    0.000    0.000    0.000    0.000 
#
# Total GULP energy -267623.391858 kJ/mol
# GULP energy per Si atom -5575.487330 kJ/mol
# Density = 1.788839 g / cm^3
# Si number density = 17.929194 Si / 1000 Ang^3
#
#
#
# Elastic Constant Matrix: (Units=GPa)
#
#
# Indices 1 2 3 4 5 6 
#
# 1 35.5341 47.3789 33.0859 0.0000 0.0000 0.0000
# 2 47.3789 176.7714 106.9944 0.0000 0.0000 0.0000
# 3 33.0859 106.9944 101.9476 0.0000 0.0000 0.0000
# 4 0.0000 0.0000 0.0000 36.4446 0.0000 0.0000
# 5 0.0000 0.0000 0.0000 0.0000 31.0883 0.0000
# 6 0.0000 0.0000 0.0000 0.0000 0.0000 44.6715
#
#
#
# Elastic Compliance Matrix: (Units=1/GPa)
#
#
# Indices 1 2 3 4 5 6 
#
# 1 0.044817 -0.008796 -0.005314 0.000000 0.000000 0.000000
# 2 -0.008796 0.017235 -0.015233 0.000000 0.000000 0.000000
# 3 -0.005314 -0.015233 0.027521 0.000000 0.000000 0.000000
# 4 0.000000 0.000000 0.000000 0.027439 0.000000 0.000000
# 5 0.000000 0.000000 0.000000 0.000000 0.032166 0.000000
# 6 0.000000 0.000000 0.000000 0.000000 0.000000 0.022386
#
#
# Mechanical properties :
#
#
# Convention : Reuss Voigt Hill
#
# Bulk Modulus (GPa) = 32.37579 76.57461 54.47520
# Shear Modulus (GPa) = 20.78604 30.89382 25.83993
#
# Velocity S-wave (km/s) = 3.40860 4.15553 3.80046
# Velocity P-wave (km/s) = 5.79553 8.11337 7.05035
#
# Compressibility (1/GPa) = 0.03088728
#
# Stress axis : x y z
#
# Youngs Moduli (GPa) = 22.31277 58.02179 36.33586
#
# Poissons Ratio (x) = 0.51036 0.19307
# Poissons Ratio (y) = 0.19626 0.55352
# Poissons Ratio (z) = 0.11856 0.88387
#
# Static dielectric constant tensor:
#      x y z
#    x 1.612500 0.000000 0.000000 
#    y 0.000000 1.660380 0.000000 
#    z 0.000000 0.000000 1.530250 
# 
# From -- ./inp_files/6563.got.cif
#   From: 2010.05.17/outbox.cif.g08.bks.cpg/sg53_4_cif.got.tgz:6563.got - 2010.06.03 12:45:16.
