data_PCOD9415023
_publ_section_title
;
Structure prediction by ZEFSAII (Michael W. Deem and Ramdas Pophale) SiO2 
 PCOD9415023
Probable space group: P M N A
;
_chemical_formula_sum "Si O2"
_cell_formula_units_Z 56
_cell_length_a 17.411275
_cell_length_b 6.724825
_cell_length_c 19.888214
_cell_angle_alpha 90.000000
_cell_angle_beta 90.000000
_cell_angle_gamma 90.000000
_cell_volume 2328.666774
_symmetry_space_group_name_H-M "P M N A"
_symmetry_group_IT_number 53
_symmetry_cell_setting 'orthorhombic'
loop_
_space_group_symop_operation_xyz
x,y,z
1/2-x,-y,1/2+z
x,-y,-z
1/2-x,y,1/2-z
-x,-y,-z
1/2+x,y,1/2-z
-x,y,z
1/2+x,-y,1/2+z
loop_
_atom_site_type_symbol
_atom_site_label
_atom_site_fract_x
_atom_site_fract_y
_atom_site_fract_z
Si Si1 0.916259 0.110306 0.717435
Si Si2 0.593845 0.393011 0.205078
Si Si3 0.667542 0.857605 0.710686
Si Si4 0.784238 0.487393 0.590682
Si Si5 0.787507 0.120801 0.061732
Si Si6 0.673224 0.637655 0.292978
Si Si7 0.628187 0.108279 0.934586
O O1 0.897014 0.857383 0.725352
O O2 0.000000 0.107968 0.749753
O O3 0.897749 0.359275 0.724529
O O4 0.915105 0.104135 0.635691
O O5 0.500000 0.391076 0.192490
O O6 0.657538 0.400779 0.143793
O O7 0.750000 0.852283 0.750000
O O8 0.666403 0.866843 0.630065
O O9 0.642793 0.604536 0.714211
O O10 0.649755 0.115728 0.716634
O O11 0.740100 0.655428 0.548612
O O12 0.714725 0.376029 0.631929
O O13 0.842974 0.333621 0.556247
O O14 0.708392 0.006015 0.076665
O O15 0.823785 0.000000 0.000000
O O16 0.750000 0.632080 0.250000
O O17 0.593268 0.000000 0.000000
#
# Coordination Sequence:
#
# PCOD9415023 Si02
#       7
#     8   8   8   8   8   8   8
#     4  12  23  37  62  99 139 176 222 280 342 405
#     4  11  20  33  62 103 136 166 221 287 346 401
#     4  12  20  39  66  96 130 174 228 283 341 402
#     4  11  21  41  68  97 136 186 228 287 344 397
#     4  11  24  41  65  99 132 173 231 284 340 408
#     4  10  18  34  62  95 125 170 219 283 340 390
#     4  11  24  39  61  93 137 181 231 274 327 405
#
# _framework density 24.048096000000001
#
# number of rings (size 3 to 8) (size 9 to 14) (size 15 to 20)
#    0.000    0.857    7.143    2.571    0.000    2.571 
#    0.000    0.000    0.000    3.000    0.000   12.000 
#    0.000    1.714    0.000    0.000    0.000    0.000 
#
# Total GULP energy -311867.570918 kJ/mol
# GULP energy per Si atom -5569.063766 kJ/mol
# Density = 2.399336 g / cm^3
# Si number density = 24.048096 Si / 1000 Ang^3
#
#
#
# Elastic Constant Matrix: (Units=GPa)
#
#
# Indices 1 2 3 4 5 6 
#
# 1 102.9094 43.9326 51.8681 0.0000 0.0000 0.0000
# 2 43.9326 220.5922 91.5202 0.0000 0.0000 0.0000
# 3 51.8681 91.5202 165.1282 0.0000 0.0000 0.0000
# 4 0.0000 0.0000 0.0000 64.0029 0.0000 0.0000
# 5 0.0000 0.0000 0.0000 0.0000 8.9531 0.0000
# 6 0.0000 0.0000 0.0000 0.0000 0.0000 58.0838
#
#
#
# Elastic Compliance Matrix: (Units=1/GPa)
#
#
# Indices 1 2 3 4 5 6 
#
# 1 0.011729 -0.001049 -0.003103 0.000000 0.000000 0.000000
# 2 -0.001049 0.005981 -0.002985 0.000000 0.000000 0.000000
# 3 -0.003103 -0.002985 0.008685 0.000000 0.000000 0.000000
# 4 0.000000 0.000000 0.000000 0.015624 0.000000 0.000000
# 5 0.000000 0.000000 0.000000 0.000000 0.111693 0.000000
# 6 0.000000 0.000000 0.000000 0.000000 0.000000 0.017217
#
#
# Mechanical properties :
#
#
# Convention : Reuss Voigt Hill
#
# Bulk Modulus (GPa) = 82.50176 95.91904 89.21040
# Shear Modulus (GPa) = 26.42118 46.29524 36.35821
#
# Velocity S-wave (km/s) = 3.31823 4.39237 3.89253
# Velocity P-wave (km/s) = 7.00445 8.10536 7.57493
#
# Compressibility (1/GPa) = 0.01212095
#
# Stress axis : x y z
#
# Youngs Moduli (GPa) = 85.25977 167.20607 115.13873
#
# Poissons Ratio (x) = 0.17532 0.35728
# Poissons Ratio (y) = 0.08940 0.34373
# Poissons Ratio (z) = 0.26456 0.49917
#
# Static dielectric constant tensor:
#      x y z
#    x 1.832320 0.000000 0.000000 
#    y 0.000000 2.169020 0.000000 
#    z 0.000000 0.000000 2.025220 
# 
# From -- ./inp_files/35752.got.cif
#   From: 2010.05.17/outbox.cif.g08.bks.cpg/sg53_18_cif.got.tgz:35752.got - 2010.06.03 12:45:16.
