data_PCOD9415261
_publ_section_title
;
Structure prediction by ZEFSAII (Michael W. Deem and Ramdas Pophale) SiO2 
 PCOD9415261
Probable space group: P M N A
;
_chemical_formula_sum "Si O2"
_cell_formula_units_Z 64
_cell_length_a 8.449371
_cell_length_b 18.748873
_cell_length_c 21.472795
_cell_angle_alpha 90.000000
_cell_angle_beta 90.000000
_cell_angle_gamma 90.000000
_cell_volume 3401.638240
_symmetry_space_group_name_H-M "P M N A"
_symmetry_group_IT_number 53
_symmetry_cell_setting 'orthorhombic'
loop_
_space_group_symop_operation_xyz
x,y,z
1/2-x,-y,1/2+z
x,-y,-z
1/2-x,y,1/2-z
-x,-y,-z
1/2+x,y,1/2-z
-x,y,z
1/2+x,-y,1/2+z
loop_
_atom_site_type_symbol
_atom_site_label
_atom_site_fract_x
_atom_site_fract_y
_atom_site_fract_z
Si Si1 0.687304 0.210743 0.010064
Si Si2 0.681098 0.584021 0.838135
Si Si3 0.820336 0.680029 0.078928
Si Si4 0.308777 0.261917 0.147053
Si Si5 0.310492 0.424598 0.815720
Si Si6 0.324733 0.426273 0.464009
Si Si7 0.688696 0.059709 0.452205
Si Si8 0.189598 0.893231 0.816828
O O1 0.500000 0.198506 0.013192
O O2 0.729364 0.250856 0.946201
O O3 0.730049 0.255011 0.073167
O O4 0.776674 0.136339 0.017501
O O5 0.500000 0.584330 0.815643
O O6 0.751631 0.662651 0.824910
O O7 0.752545 0.506828 0.820927
O O8 0.690608 0.582167 0.913049
O O9 0.746282 0.628974 0.130910
O O10 0.000000 0.698228 0.096763
O O11 0.823716 0.632178 0.016990
O O12 0.500000 0.262185 0.152636
O O13 0.243317 0.189429 0.176450
O O14 0.250000 0.396618 0.750000
O O15 0.500000 0.428481 0.818323
O O16 0.306534 0.500000 0.500000
O O17 0.500000 0.425721 0.433158
O O18 0.500000 0.048796 0.447518
O O19 0.747353 0.066431 0.380102
O O20 0.752764 0.000000 0.500000
O O21 0.250000 0.920516 0.750000
O O22 0.000000 0.895022 0.816815
#
# Coordination Sequence:
#
# PCOD9415261 Si02
#       8
#     8   8   8   8   8   8   8   8
#     4  10  19  32  54  84 114 140 172 216 267 322
#     4  10  20  33  50  72 101 136 176 223 274 324
#     4  11  21  34  54  77 103 134 173 220 269 322
#     4   9  18  32  49  74 109 143 178 219 262 314
#     4  11  24  39  53  69  95 135 183 231 282 333
#     4  10  19  30  47  74 102 130 169 217 268 318
#     4   9  19  37  60  86 117 150 185 224 268 323
#     4  10  20  34  54  80 111 149 186 220 264 318
#
# _framework density 18.814463
#
# number of rings (size 3 to 8) (size 9 to 14) (size 15 to 20)
#    0.000    2.000    2.500    1.500    0.000    3.500 
#    0.000    1.250    0.000    0.750    0.000    3.500 
#    0.000    0.000    0.000    0.000    0.000    0.000 
#
# Total GULP energy -356621.744781 kJ/mol
# GULP energy per Si atom -5572.214762 kJ/mol
# Density = 1.877164 g / cm^3
# Si number density = 18.814463 Si / 1000 Ang^3
#
#
#
# Elastic Constant Matrix: (Units=GPa)
#
#
# Indices 1 2 3 4 5 6 
#
# 1 16.4389 0.9469 19.4989 0.0000 0.0000 0.0000
# 2 0.9469 61.8852 47.5793 0.0000 0.0000 0.0000
# 3 19.4989 47.5793 112.4895 0.0000 0.0000 0.0000
# 4 0.0000 0.0000 0.0000 1.1420 0.0000 0.0000
# 5 0.0000 0.0000 0.0000 0.0000 23.0527 0.0000
# 6 0.0000 0.0000 0.0000 0.0000 0.0000 30.4988
#
#
#
# Elastic Compliance Matrix: (Units=1/GPa)
#
#
# Indices 1 2 3 4 5 6 
#
# 1 0.084870 0.014837 -0.020987 0.000000 0.000000 0.000000
# 2 0.014837 0.026540 -0.013797 0.000000 0.000000 0.000000
# 3 -0.020987 -0.013797 0.018363 0.000000 0.000000 0.000000
# 4 0.000000 0.000000 0.000000 0.875646 0.000000 0.000000
# 5 0.000000 0.000000 0.000000 0.000000 0.043379 0.000000
# 6 0.000000 0.000000 0.000000 0.000000 0.000000 0.032788
#
#
# Mechanical properties :
#
#
# Convention : Reuss Voigt Hill
#
# Bulk Modulus (GPa) = 11.12613 36.31819 23.72216
# Shear Modulus (GPa) = 4.34239 19.12459 11.73349
#
# Velocity S-wave (km/s) = 1.52086 3.19169 2.49999
# Velocity P-wave (km/s) = 3.00174 5.73827 4.57921
#
# Compressibility (1/GPa) = 0.08987848
#
# Stress axis : x y z
#
# Youngs Moduli (GPa) = 11.78274 37.67941 54.45636
#
# Poissons Ratio (x) = -0.55904 1.14286
# Poissons Ratio (y) = -0.17482 0.75135
# Poissons Ratio (z) = 0.24728 0.51987
#
# Static dielectric constant tensor:
#      x y z
#    x 1.702810 0.000000 0.000000 
#    y 0.000000 1.673360 0.000000 
#    z 0.000000 0.000000 1.667820 
# 
# From -- ./inp_files/31222.got.cif
#   From: 2010.05.17/outbox.cif.g08.bks.cpg/sg53_16_cif.got.tgz:31222.got - 2010.06.03 12:45:16.
