data_PCOD9415470
_publ_section_title
;
Structure prediction by ZEFSAII (Michael W. Deem and Ramdas Pophale) SiO2 
 PCOD9415470
Probable space group: P M N A
;
_chemical_formula_sum "Si O2"
_cell_formula_units_Z 64
_cell_length_a 8.901690
_cell_length_b 20.182825
_cell_length_c 20.538291
_cell_angle_alpha 90.000000
_cell_angle_beta 90.000000
_cell_angle_gamma 90.000000
_cell_volume 3689.935064
_symmetry_space_group_name_H-M "P M N A"
_symmetry_group_IT_number 53
_symmetry_cell_setting 'orthorhombic'
loop_
_space_group_symop_operation_xyz
x,y,z
1/2-x,-y,1/2+z
x,-y,-z
1/2-x,y,1/2-z
-x,-y,-z
1/2+x,y,1/2-z
-x,y,z
1/2+x,-y,1/2+z
loop_
_atom_site_type_symbol
_atom_site_label
_atom_site_fract_x
_atom_site_fract_y
_atom_site_fract_z
Si Si1 0.819148 0.384849 0.680809
Si Si2 0.321597 0.844847 0.462751
Si Si3 0.682170 0.701187 0.056689
Si Si4 0.182283 0.652009 0.583069
Si Si5 0.818562 0.461333 0.319636
Si Si6 0.820257 0.231559 0.318538
Si Si7 0.677998 0.889862 0.612314
Si Si8 0.326439 0.022621 0.924000
O O1 0.750000 0.365024 0.750000
O O2 0.771852 0.338594 0.621104
O O3 0.777712 0.461888 0.668619
O O4 0.000000 0.382235 0.685312
O O5 0.500000 0.842121 0.453105
O O6 0.246792 0.775094 0.445876
O O7 0.294315 0.861688 0.539140
O O8 0.252175 0.906080 0.422671
O O9 0.500000 0.704842 0.055737
O O10 0.731657 0.662759 0.991031
O O11 0.231993 0.586920 0.622298
O O12 0.224883 0.715899 0.625930
O O13 0.000000 0.649704 0.581624
O O14 0.750000 0.441168 0.250000
O O15 0.000000 0.457255 0.315091
O O16 0.750000 0.251734 0.250000
O O17 0.759962 0.159753 0.338952
O O18 0.000000 0.231051 0.314261
O O19 0.500000 0.889718 0.623543
O O20 0.741718 0.964217 0.613803
O O21 0.500000 0.026927 0.904323
O O22 0.322500 0.000000 0.000000
#
# Coordination Sequence:
#
# PCOD9415470 Si02
#       8
#     8   8   8   8   8   8   8   8
#     4   9  19  34  55  77 101 132 171 214 263 320
#     4  10  19  31  49  76 106 135 167 212 262 308
#     4  10  19  33  52  76 104 137 172 215 265 317
#     4   9  18  31  50  74 103 134 174 219 261 308
#     4   9  17  32  51  74 101 136 175 216 260 307
#     4  11  21  33  49  71 102 143 182 220 262 313
#     4  10  19  32  49  72 102 134 173 217 258 305
#     4   9  17  29  49  74 100 133 169 207 252 304
#
# _framework density 17.344477999999999
#
# number of rings (size 3 to 8) (size 9 to 14) (size 15 to 20)
#    0.000    2.375    1.250    1.875    0.000    3.500 
#    0.000    3.750    0.000    0.750    0.000    7.875 
#    0.000    0.000    0.000    0.000    0.000    0.000 
#
# Total GULP energy -356981.135594 kJ/mol
# GULP energy per Si atom -5577.830244 kJ/mol
# Density = 1.730500 g / cm^3
# Si number density = 17.344478 Si / 1000 Ang^3
#
#
#
# Elastic Constant Matrix: (Units=GPa)
#
#
# Indices 1 2 3 4 5 6 
#
# 1 32.4512 34.6636 35.4613 0.0000 0.0000 0.0000
# 2 34.6636 119.6141 76.4110 0.0000 0.0000 0.0000
# 3 35.4613 76.4110 113.4646 0.0000 0.0000 0.0000
# 4 0.0000 0.0000 0.0000 15.2176 0.0000 0.0000
# 5 0.0000 0.0000 0.0000 0.0000 23.7657 0.0000
# 6 0.0000 0.0000 0.0000 0.0000 0.0000 18.6342
#
#
#
# Elastic Compliance Matrix: (Units=1/GPa)
#
#
# Indices 1 2 3 4 5 6 
#
# 1 0.050858 -0.008046 -0.010476 0.000000 0.000000 0.000000
# 2 -0.008046 0.015945 -0.008223 0.000000 0.000000 0.000000
# 3 -0.010476 -0.008223 0.017625 0.000000 0.000000 0.000000
# 4 0.000000 0.000000 0.000000 0.065713 0.000000 0.000000
# 5 0.000000 0.000000 0.000000 0.000000 0.042077 0.000000
# 6 0.000000 0.000000 0.000000 0.000000 0.000000 0.053665
#
#
# Mechanical properties :
#
#
# Convention : Reuss Voigt Hill
#
# Bulk Modulus (GPa) = 32.32347 62.06685 47.19516
# Shear Modulus (GPa) = 16.14527 19.45643 17.80085
#
# Velocity S-wave (km/s) = 3.05431 3.35291 3.20709
# Velocity P-wave (km/s) = 5.57809 7.13105 6.40183
#
# Compressibility (1/GPa) = 0.03093727
#
# Stress axis : x y z
#
# Youngs Moduli (GPa) = 19.66252 62.71517 56.73644
#
# Poissons Ratio (x) = 0.50461 0.59439
# Poissons Ratio (y) = 0.15821 0.46656
# Poissons Ratio (z) = 0.20599 0.51573
#
# Static dielectric constant tensor:
#      x y z
#    x 1.581600 0.000000 0.000000 
#    y 0.000000 1.580870 0.000000 
#    z 0.000000 0.000000 1.580150 
# 
# From -- ./inp_files/31130.got.cif
#   From: 2010.05.17/outbox.cif.g08.bks.cpg/sg53_16_cif.got.tgz:31130.got - 2010.06.03 12:45:16.
