data_PCOD9415432
_publ_section_title
;
Structure prediction by ZEFSAII (Michael W. Deem and Ramdas Pophale) SiO2 
 PCOD9415432
Probable space group: P M N A
;
_chemical_formula_sum "Si O2"
_cell_formula_units_Z 64
_cell_length_a 8.958748
_cell_length_b 14.722077
_cell_length_c 30.982235
_cell_angle_alpha 90.000000
_cell_angle_beta 90.000000
_cell_angle_gamma 90.000000
_cell_volume 4086.289664
_symmetry_space_group_name_H-M "P M N A"
_symmetry_group_IT_number 53
_symmetry_cell_setting 'orthorhombic'
loop_
_space_group_symop_operation_xyz
x,y,z
1/2-x,-y,1/2+z
x,-y,-z
1/2-x,y,1/2-z
-x,-y,-z
1/2+x,y,1/2-z
-x,y,z
1/2+x,-y,1/2+z
loop_
_atom_site_type_symbol
_atom_site_label
_atom_site_fract_x
_atom_site_fract_y
_atom_site_fract_z
Si Si1 0.179551 0.150769 0.704188
Si Si2 0.174190 0.435727 0.880091
Si Si3 0.176250 0.072293 0.614815
Si Si4 0.825142 0.257903 0.027373
Si Si5 0.178999 0.363483 0.703736
Si Si6 0.821362 0.448217 0.455488
Si Si7 0.831571 0.239697 0.924603
Si Si8 0.819842 0.052818 0.044020
O O1 0.250000 0.125862 0.750000
O O2 0.227012 0.087778 0.664234
O O3 0.219082 0.256838 0.695212
O O4 0.000000 0.147161 0.707152
O O5 0.256202 0.425121 0.834401
O O6 0.249731 0.503091 0.914148
O O7 0.182749 0.335951 0.901613
O O8 0.000000 0.458452 0.874227
O O9 0.212352 0.168345 0.592188
O O10 0.000000 0.054965 0.614723
O O11 0.258090 0.997873 0.585886
O O12 0.732226 0.344327 0.042474
O O13 0.774648 0.158440 0.042964
O O14 0.000000 0.270378 0.039052
O O15 0.817218 0.253733 0.975505
O O16 0.250000 0.386435 0.750000
O O17 0.000000 0.369594 0.705377
O O18 0.774468 0.500000 0.500000
O O19 0.000000 0.453654 0.453025
O O20 0.000000 0.203284 0.916299
O O21 0.000000 0.050204 0.044115
O O22 0.771981 0.000000 0.000000
#
# Coordination Sequence:
#
# PCOD9415432 Si02
#       8
#     8   8   8   8   8   8   8   8
#     4   9  19  32  47  70 100 133 166 205 249 299
#     4  11  21  33  52  75 100 137 178 210 253 304
#     4  11  21  32  48  74 104 134 169 209 255 301
#     4  10  20  36  53  70  98 135 176 217 249 293
#     4  10  19  33  50  73 105 135 169 210 255 304
#     4  11  23  35  50  74 104 135 170 213 259 305
#     4  10  19  31  49  71  99 136 174 210 247 295
#     4  10  20  35  52  72  99 134 175 211 247 296
#
# _framework density 15.662129999999999
#
# number of rings (size 3 to 8) (size 9 to 14) (size 15 to 20)
#    0.000    1.750    3.750    1.500    0.000    3.750 
#    0.000    0.000    0.000    0.000    0.000    0.875 
#    0.000    4.000    0.000    0.000    0.000    0.000 
#
# Total GULP energy -357098.569912 kJ/mol
# GULP energy per Si atom -5579.665155 kJ/mol
# Density = 1.562648 g / cm^3
# Si number density = 15.662130 Si / 1000 Ang^3
#
#
#
# Elastic Constant Matrix: (Units=GPa)
#
#
# Indices 1 2 3 4 5 6 
#
# 1 43.0269 39.3080 45.1091 0.0000 0.0000 0.0000
# 2 39.3080 88.5648 61.4981 0.0000 0.0000 0.0000
# 3 45.1091 61.4981 130.5576 0.0000 0.0000 0.0000
# 4 0.0000 0.0000 0.0000 20.5108 0.0000 0.0000
# 5 0.0000 0.0000 0.0000 0.0000 27.8725 0.0000
# 6 0.0000 0.0000 0.0000 0.0000 0.0000 -292.9569
#
#
#
# Elastic Compliance Matrix: (Units=1/GPa)
#
#
# Indices 1 2 3 4 5 6 
#
# 1 0.045520 -0.013794 -0.009230 0.000000 0.000000 0.000000
# 2 -0.013794 0.020959 -0.005107 0.000000 0.000000 0.000000
# 3 -0.009230 -0.005107 0.013254 0.000000 0.000000 0.000000
# 4 0.000000 0.000000 0.000000 0.048755 0.000000 0.000000
# 5 0.000000 0.000000 0.000000 0.000000 0.035878 0.000000
# 6 0.000000 0.000000 0.000000 0.000000 0.000000 -0.003413
#
#
# Mechanical properties :
#
#
# Convention : Reuss Voigt Hill
#
# Bulk Modulus (GPa) = 42.60464 61.55332 52.07898
# Shear Modulus (GPa) = 22.21849 -41.16578 -9.47365
#
# Velocity S-wave (km/s) = 3.77053 -5.13232 -2.46209
# Velocity P-wave (km/s) = 6.79833 2.06522 5.02406
#
# Compressibility (1/GPa) = 0.02347162
#
# Stress axis : x y z
#
# Youngs Moduli (GPa) = 21.96849 47.71111 75.44854
#
# Poissons Ratio (x) = 0.65813 0.69639
# Poissons Ratio (y) = 0.30303 0.38530
# Poissons Ratio (z) = 0.20277 0.24365
#
# Static dielectric constant tensor:
#      x y z
#    x 1.531850 0.000000 0.000000 
#    y 0.000000 1.507320 0.000000 
#    z 0.000000 0.000000 1.514420 
# 
# From -- ./inp_files/38487.got.cif
#   From: 2010.05.17/outbox.cif.g08.bks.cpg/sg53_20_cif.got.tgz:38487.got - 2010.06.03 12:45:16.
