data_PCOD9415549
_publ_section_title
;
Structure prediction by ZEFSAII (Michael W. Deem and Ramdas Pophale) SiO2 
 PCOD9415549
Probable space group: P M N A
;
_chemical_formula_sum "Si O2"
_cell_formula_units_Z 56
_cell_length_a 23.043696
_cell_length_b 9.802321
_cell_length_c 12.306054
_cell_angle_alpha 90.000000
_cell_angle_beta 90.000000
_cell_angle_gamma 90.000000
_cell_volume 2779.712462
_symmetry_space_group_name_H-M "P M N A"
_symmetry_group_IT_number 53
_symmetry_cell_setting 'orthorhombic'
loop_
_space_group_symop_operation_xyz
x,y,z
1/2-x,-y,1/2+z
x,-y,-z
1/2-x,y,1/2-z
-x,-y,-z
1/2+x,y,1/2-z
-x,y,z
1/2+x,-y,1/2+z
loop_
_atom_site_type_symbol
_atom_site_label
_atom_site_fract_x
_atom_site_fract_y
_atom_site_fract_z
Si Si1 0.932825 0.105888 0.656848
Si Si2 0.566233 0.879948 0.414641
Si Si3 0.930959 0.413213 0.601827
Si Si4 0.156136 0.887329 0.679881
Si Si5 0.717217 0.115193 0.408197
Si Si6 0.067531 0.660303 0.754772
Si Si7 0.367432 0.656470 0.523236
O O1 0.934152 0.083179 0.788019
O O2 0.912985 0.258246 0.623981
O O3 0.000000 0.084501 0.620190
O O4 0.883631 0.000472 0.623769
O O5 0.500000 0.846256 0.444675
O O6 0.605114 0.746474 0.427870
O O7 0.583587 0.000000 0.500000
O O8 0.906555 0.500000 0.500000
O O9 0.924273 0.509490 0.706356
O O10 0.000000 0.400295 0.581729
O O11 0.215309 0.860779 0.616364
O O12 0.181394 0.928375 0.799784
O O13 0.112622 0.760643 0.696012
O O14 0.688506 0.258117 0.441365
O O15 0.711959 0.000000 0.500000
O O16 0.085324 0.663476 0.880067
O O17 0.000000 0.700141 0.738335
O O18 0.355353 0.500000 0.500000
#
# Coordination Sequence:
#
# PCOD9415549 Si02
#       7
#     8   8   8   8   8   8   8
#     4  10  19  33  56  85 113 142 182 230 282 346
#     4  10  19  31  53  88 125 153 176 215 284 360
#     4   9  19  35  52  74 110 151 184 221 274 331
#     4  10  21  37  58  82 107 143 190 234 280 336
#     4  10  22  40  57  76 109 149 190 237 282 324
#     4  10  20  35  57  86 119 148 176 224 288 347
#     4  11  21  34  56  85 117 151 187 227 277 344
#
# _framework density 20.145969000000001
#
# number of rings (size 3 to 8) (size 9 to 14) (size 15 to 20)
#    0.000    2.000    0.000    4.714    0.000    4.571 
#    0.000    2.143    0.000    9.857    0.000    0.000 
#    0.000    0.000    0.000    0.000    0.000    0.000 
#
# Total GULP energy -312524.445203 kJ/mol
# GULP energy per Si atom -5580.793664 kJ/mol
# Density = 2.010012 g / cm^3
# Si number density = 20.145969 Si / 1000 Ang^3
#
#
#
# Elastic Constant Matrix: (Units=GPa)
#
#
# Indices 1 2 3 4 5 6 
#
# 1 149.9487 63.1606 20.7805 0.0000 0.0000 0.0000
# 2 63.1606 119.6797 18.1689 0.0000 0.0000 0.0000
# 3 20.7805 18.1689 50.1667 0.0000 0.0000 0.0000
# 4 0.0000 0.0000 0.0000 14.6232 0.0000 0.0000
# 5 0.0000 0.0000 0.0000 0.0000 1.1291 0.0000
# 6 0.0000 0.0000 0.0000 0.0000 0.0000 1.8494
#
#
#
# Elastic Compliance Matrix: (Units=1/GPa)
#
#
# Indices 1 2 3 4 5 6 
#
# 1 0.008774 -0.004316 -0.002071 0.000000 0.000000 0.000000
# 2 -0.004316 0.010965 -0.002183 0.000000 0.000000 0.000000
# 3 -0.002071 -0.002183 0.021582 0.000000 0.000000 0.000000
# 4 0.000000 0.000000 0.000000 0.068385 0.000000 0.000000
# 5 0.000000 0.000000 0.000000 0.000000 0.885658 0.000000
# 6 0.000000 0.000000 0.000000 0.000000 0.000000 0.540728
#
#
# Mechanical properties :
#
#
# Convention : Reuss Voigt Hill
#
# Bulk Modulus (GPa) = 41.35680 58.22389 49.79034
# Shear Modulus (GPa) = 3.20247 18.03267 10.61757
#
# Velocity S-wave (km/s) = 1.26218 2.99507 2.29821
# Velocity P-wave (km/s) = 4.76416 6.39721 5.64011
#
# Compressibility (1/GPa) = 0.02417982
#
# Stress axis : x y z
#
# Youngs Moduli (GPa) = 113.97376 91.20063 46.33433
#
# Poissons Ratio (x) = 0.39362 0.09597
# Poissons Ratio (y) = 0.49191 0.10116
# Poissons Ratio (z) = 0.23607 0.19912
#
# Static dielectric constant tensor:
#      x y z
#    x 1.701750 0.000000 0.000000 
#    y 0.000000 1.706800 0.000000 
#    z 0.000000 0.000000 1.806660 
# 
# From -- ./inp_files/24341.got.cif
#   From: 2010.05.17/outbox.cif.g08.bks.cpg/sg53_13_cif.got.tgz:24341.got - 2010.06.03 12:45:16.
