data_PCOD9415781
_publ_section_title
;
Structure prediction by ZEFSAII (Michael W. Deem and Ramdas Pophale) SiO2 
 PCOD9415781
Probable space group: P M N A
;
_chemical_formula_sum "Si O2"
_cell_formula_units_Z 56
_cell_length_a 8.908382
_cell_length_b 23.305636
_cell_length_c 14.433773
_cell_angle_alpha 90.000000
_cell_angle_beta 90.000000
_cell_angle_gamma 90.000000
_cell_volume 2996.675117
_symmetry_space_group_name_H-M "P M N A"
_symmetry_group_IT_number 53
_symmetry_cell_setting 'orthorhombic'
loop_
_space_group_symop_operation_xyz
x,y,z
1/2-x,-y,1/2+z
x,-y,-z
1/2-x,y,1/2-z
-x,-y,-z
1/2+x,y,1/2-z
-x,y,z
1/2+x,-y,1/2+z
loop_
_atom_site_type_symbol
_atom_site_label
_atom_site_fract_x
_atom_site_fract_y
_atom_site_fract_z
Si Si1 0.678309 0.901357 0.656868
Si Si2 0.679459 0.366211 0.539804
Si Si3 0.680941 0.132332 0.550604
Si Si4 0.181199 0.397688 0.343792
Si Si5 0.669415 0.017864 0.891960
Si Si6 0.819304 0.748989 0.148282
Si Si7 0.669123 0.522368 0.105655
O O1 0.750000 0.875869 0.750000
O O2 0.500000 0.898461 0.663862
O O3 0.723773 0.873379 0.558253
O O4 0.731306 0.967516 0.650847
O O5 0.500000 0.368018 0.528245
O O6 0.756385 0.371071 0.438924
O O7 0.723474 0.307707 0.591032
O O8 0.731946 0.420829 0.600933
O O9 0.500000 0.125721 0.554934
O O10 0.756102 0.080305 0.607163
O O11 0.723709 0.193279 0.593457
O O12 0.250000 0.371909 0.250000
O O13 0.228038 0.465086 0.346083
O O14 0.000000 0.395610 0.343670
O O15 0.500000 0.018372 0.853744
O O16 0.660102 0.000000 0.000000
O O17 0.750000 0.748488 0.250000
O O18 0.000000 0.748902 0.156100
O O19 0.500000 0.535967 0.138390
O O20 0.657454 0.500000 0.000000
#
# Coordination Sequence:
#
# PCOD9415781 Si02
#       7
#     8   8   8   8   8   8   8
#     4  10  19  32  53  79 108 142 176 213 262 318
#     4  10  20  35  55  79 109 143 180 223 269 317
#     4   9  19  37  56  75 106 144 179 219 266 313
#     4  10  20  34  54  81 112 145 179 218 266 321
#     4   9  17  30  50  77 107 137 172 213 256 306
#     4  10  23  41  59  79 103 136 179 225 270 317
#     4   8  16  31  50  74 105 139 174 213 259 309
#
# _framework density 18.687377000000001
#
# number of rings (size 3 to 8) (size 9 to 14) (size 15 to 20)
#    0.000    2.571    0.000    2.571    0.000    8.286 
#    0.000    5.000    0.000    1.714    0.000    0.000 
#    0.000    0.000    0.000    0.000    0.000    0.000 
#
# Total GULP energy -312256.623230 kJ/mol
# GULP energy per Si atom -5576.011129 kJ/mol
# Density = 1.864484 g / cm^3
# Si number density = 18.687377 Si / 1000 Ang^3
#
#
#
# Elastic Constant Matrix: (Units=GPa)
#
#
# Indices 1 2 3 4 5 6 
#
# 1 41.5528 43.5064 36.4373 0.0000 0.0000 0.0000
# 2 43.5064 135.5097 62.4915 0.0000 0.0000 0.0000
# 3 36.4373 62.4915 125.6738 0.0000 0.0000 0.0000
# 4 0.0000 0.0000 0.0000 18.7211 0.0000 0.0000
# 5 0.0000 0.0000 0.0000 0.0000 23.5322 0.0000
# 6 0.0000 0.0000 0.0000 0.0000 0.0000 20.3794
#
#
#
# Elastic Compliance Matrix: (Units=1/GPa)
#
#
# Indices 1 2 3 4 5 6 
#
# 1 0.040296 -0.009796 -0.006812 0.000000 0.000000 0.000000
# 2 -0.009796 0.011957 -0.003105 0.000000 0.000000 0.000000
# 3 -0.006812 -0.003105 0.011476 0.000000 0.000000 0.000000
# 4 0.000000 0.000000 0.000000 0.053416 0.000000 0.000000
# 5 0.000000 0.000000 0.000000 0.000000 0.042495 0.000000
# 6 0.000000 0.000000 0.000000 0.000000 0.000000 0.049069
#
#
# Mechanical properties :
#
#
# Convention : Reuss Voigt Hill
#
# Bulk Modulus (GPa) = 41.14876 65.28963 53.21920
# Shear Modulus (GPa) = 19.51332 23.21328 21.36330
#
# Velocity S-wave (km/s) = 3.23491 3.52830 3.38478
# Velocity P-wave (km/s) = 6.00168 7.18416 6.61938
#
# Compressibility (1/GPa) = 0.02430207
#
# Stress axis : x y z
#
# Youngs Moduli (GPa) = 24.81664 83.63607 87.13596
#
# Poissons Ratio (x) = 0.81927 0.59359
# Poissons Ratio (y) = 0.24310 0.27058
# Poissons Ratio (z) = 0.16906 0.25971
#
# Static dielectric constant tensor:
#      x y z
#    x 1.644030 0.000000 0.000000 
#    y 0.000000 1.628310 0.000000 
#    z 0.000000 0.000000 1.678250 
# 
# From -- ./inp_files/20457.got.cif
#   From: 2010.05.17/outbox.cif.g08.bks.cpg/sg53_11_cif.got.tgz:20457.got - 2010.06.03 12:45:16.
