data_PCOD9415827
_publ_section_title
;
Structure prediction by ZEFSAII (Michael W. Deem and Ramdas Pophale) SiO2 
 PCOD9415827
Probable space group: P M N A
;
_chemical_formula_sum "Si O2"
_cell_formula_units_Z 48
_cell_length_a 9.217315
_cell_length_b 10.887775
_cell_length_c 23.346144
_cell_angle_alpha 90.000000
_cell_angle_beta 90.000000
_cell_angle_gamma 90.000000
_cell_volume 2342.926837
_symmetry_space_group_name_H-M "P M N A"
_symmetry_group_IT_number 53
_symmetry_cell_setting 'orthorhombic'
loop_
_space_group_symop_operation_xyz
x,y,z
1/2-x,-y,1/2+z
x,-y,-z
1/2-x,y,1/2-z
-x,-y,-z
1/2+x,y,1/2-z
-x,y,z
1/2+x,-y,1/2+z
loop_
_atom_site_type_symbol
_atom_site_label
_atom_site_fract_x
_atom_site_fract_y
_atom_site_fract_z
Si Si1 0.172278 0.180534 0.689831
Si Si2 0.668060 0.183661 0.482135
Si Si3 0.828740 0.679843 0.423133
Si Si4 0.168493 0.563761 0.909004
Si Si5 0.668552 0.305612 0.190089
Si Si6 0.831042 0.054457 0.383276
O O1 0.250000 0.197468 0.750000
O O2 0.194733 0.287706 0.643519
O O3 0.000000 0.168461 0.699868
O O4 0.220698 0.057194 0.656419
O O5 0.500000 0.157372 0.494718
O O6 0.761023 0.212083 0.538422
O O7 0.674500 0.313572 0.447517
O O8 0.737598 0.084038 0.439516
O O9 0.749347 0.552376 0.435726
O O10 0.000000 0.671518 0.434258
O O11 0.249304 0.598127 0.850306
O O12 0.000000 0.533428 0.900008
O O13 0.750000 0.293963 0.250000
O O14 0.500000 0.339129 0.197918
O O15 0.673063 0.176410 0.156106
O O16 0.000000 0.031545 0.399163
#
# Coordination Sequence:
#
# PCOD9415827 Si02
#       6
#     8   8   8   8   8   8
#     4  10  23  41  60  83 112 149 189 228 273 326
#     4  10  21  37  59  87 114 143 183 231 282 331
#     4  11  23  38  57  82 114 151 188 227 276 334
#     4  10  21  37  56  80 112 147 186 233 281 332
#     4  10  19  32  54  82 110 143 184 230 281 333
#     4   9  19  37  59  83 112 145 182 227 280 333
#
# _framework density 20.487196000000001
#
# number of rings (size 3 to 8) (size 9 to 14) (size 15 to 20)
#    0.000    2.000    0.000    3.000    0.000    8.000 
#    0.000    5.000    0.000    0.000    0.000    0.000 
#    0.000    0.000    0.000    0.000    0.000    0.000 
#
# Total GULP energy -268344.356874 kJ/mol
# GULP energy per Si atom -5590.507435 kJ/mol
# Density = 2.044057 g / cm^3
# Si number density = 20.487196 Si / 1000 Ang^3
#
#
#
# Elastic Constant Matrix: (Units=GPa)
#
#
# Indices 1 2 3 4 5 6 
#
# 1 128.9383 31.4406 62.4452 0.0000 0.0000 0.0000
# 2 31.4406 62.3981 10.3339 0.0000 0.0000 0.0000
# 3 62.4452 10.3339 92.6024 0.0000 0.0000 0.0000
# 4 0.0000 0.0000 0.0000 14.5356 0.0000 0.0000
# 5 0.0000 0.0000 0.0000 0.0000 37.6915 0.0000
# 6 0.0000 0.0000 0.0000 0.0000 0.0000 49.8355
#
#
#
# Elastic Compliance Matrix: (Units=1/GPa)
#
#
# Indices 1 2 3 4 5 6 
#
# 1 0.012978 -0.005186 -0.008173 0.000000 0.000000 0.000000
# 2 -0.005186 0.018400 0.001444 0.000000 0.000000 0.000000
# 3 -0.008173 0.001444 0.016149 0.000000 0.000000 0.000000
# 4 0.000000 0.000000 0.000000 0.068797 0.000000 0.000000
# 5 0.000000 0.000000 0.000000 0.000000 0.026531 0.000000
# 6 0.000000 0.000000 0.000000 0.000000 0.000000 0.020066
#
#
# Mechanical properties :
#
#
# Convention : Reuss Voigt Hill
#
# Bulk Modulus (GPa) = 42.19935 54.70868 48.45401
# Shear Modulus (GPa) = 25.68695 32.39378 29.04036
#
# Velocity S-wave (km/s) = 3.54475 3.98071 3.76904
# Velocity P-wave (km/s) = 6.11525 6.92025 6.53017
#
# Compressibility (1/GPa) = 0.02369705
#
# Stress axis : x y z
#
# Youngs Moduli (GPa) = 77.05067 54.34768 61.92258
#
# Poissons Ratio (x) = 0.28184 0.50610
# Poissons Ratio (y) = 0.39958 -0.08940
# Poissons Ratio (z) = 0.62975 -0.07846
#
# Static dielectric constant tensor:
#      x y z
#    x 1.687520 0.000000 0.000000 
#    y 0.000000 1.756390 0.000000 
#    z 0.000000 0.000000 1.712790 
# 
# From -- ./inp_files/33919.got.cif
#   From: 2010.05.17/outbox.cif.g08.bks.cpg/sg53_17_cif.got.tgz:33919.got - 2010.06.03 12:45:16.
