data_PCOD9415174
_publ_section_title
;
Structure prediction by ZEFSAII (Michael W. Deem and Ramdas Pophale) SiO2 
 PCOD9415174
Probable space group: P M N A
;
_chemical_formula_sum "Si O2"
_cell_formula_units_Z 64
_cell_length_a 7.774129
_cell_length_b 21.639298
_cell_length_c 21.203381
_cell_angle_alpha 90.000000
_cell_angle_beta 90.000000
_cell_angle_gamma 90.000000
_cell_volume 3566.974690
_symmetry_space_group_name_H-M "P M N A"
_symmetry_group_IT_number 53
_symmetry_cell_setting 'orthorhombic'
loop_
_space_group_symop_operation_xyz
x,y,z
1/2-x,-y,1/2+z
x,-y,-z
1/2-x,y,1/2-z
-x,-y,-z
1/2+x,y,1/2-z
-x,y,z
1/2+x,-y,1/2+z
loop_
_atom_site_type_symbol
_atom_site_label
_atom_site_fract_x
_atom_site_fract_y
_atom_site_fract_z
Si Si1 0.710021 0.695344 0.479739
Si Si2 0.806507 0.574632 0.181352
Si Si3 0.788955 0.954640 0.942803
Si Si4 0.802131 0.710051 0.335412
Si Si5 0.201429 0.825915 0.992068
Si Si6 0.204628 0.026406 0.819631
Si Si7 0.203478 0.838701 0.362632
Si Si8 0.210587 0.559136 0.039615
O O1 0.500000 0.697975 0.474396
O O2 0.789929 0.706396 0.411086
O O3 0.766507 0.755849 0.518809
O O4 0.756150 0.624404 0.493849
O O5 0.750000 0.551140 0.250000
O O6 0.797929 0.649355 0.185472
O O7 0.724683 0.559346 0.112720
O O8 0.000000 0.553382 0.174890
O O9 0.724870 0.885301 0.956346
O O10 0.000000 0.953396 0.943146
O O11 0.731291 0.983693 0.876761
O O12 0.738210 0.000000 0.000000
O O13 0.731142 0.778886 0.323804
O O14 0.000000 0.704044 0.314511
O O15 0.000000 0.824214 0.976278
O O16 0.217110 0.839815 0.067162
O O17 0.250000 0.004000 0.750000
O O18 0.269465 0.096160 0.829602
O O19 0.000000 0.029262 0.825181
O O20 0.000000 0.828412 0.370723
O O21 0.000000 0.558392 0.041619
O O22 0.267590 0.500000 0.000000
#
# Coordination Sequence:
#
# PCOD9415174 Si02
#       8
#     8   8   8   8   8   8   8   8
#     4   8  14  24  42  67  90 114 145 182 219 257
#     4  10  19  30  45  64  87 118 153 187 220 256
#     4   9  16  29  49  69  85 111 147 185 231 270
#     4   9  17  28  42  60  87 119 149 181 213 253
#     4   9  15  27  47  68  89 113 148 188 224 264
#     4  11  22  35  48  62  86 116 148 186 230 277
#     4  10  19  30  44  65  90 118 150 182 221 261
#     4   8  14  26  44  67  93 118 145 179 220 260
#
# _framework density 17.942375999999999
#
# number of rings (size 3 to 8) (size 9 to 14) (size 15 to 20)
#    0.000    2.750    1.250    2.250    0.000    2.000 
#    0.000    1.875    0.000    9.375    0.000    0.875 
#    0.000    0.000    0.000    0.000    0.000    0.000 
#
# Total GULP energy -356290.701180 kJ/mol
# GULP energy per Si atom -5567.042206 kJ/mol
# Density = 1.790154 g / cm^3
# Si number density = 17.942376 Si / 1000 Ang^3
#
#
#
# Elastic Constant Matrix: (Units=GPa)
#
#
# Indices 1 2 3 4 5 6 
#
# 1 26.0321 3.5219 -2.5705 0.0000 0.0000 0.0000
# 2 3.5219 145.8460 69.5701 0.0000 0.0000 0.0000
# 3 -2.5705 69.5701 93.7554 0.0000 0.0000 0.0000
# 4 0.0000 0.0000 0.0000 11.9011 0.0000 0.0000
# 5 0.0000 0.0000 0.0000 0.0000 15.5863 0.0000
# 6 0.0000 0.0000 0.0000 0.0000 0.0000 3.1845
#
#
#
# Elastic Compliance Matrix: (Units=1/GPa)
#
#
# Indices 1 2 3 4 5 6 
#
# 1 0.038988 -0.002247 0.002736 0.000000 0.000000 0.000000
# 2 -0.002247 0.010743 -0.008033 0.000000 0.000000 0.000000
# 3 0.002736 -0.008033 0.016702 0.000000 0.000000 0.000000
# 4 0.000000 0.000000 0.000000 0.084026 0.000000 0.000000
# 5 0.000000 0.000000 0.000000 0.000000 0.064159 0.000000
# 6 0.000000 0.000000 0.000000 0.000000 0.000000 0.314017
#
#
# Mechanical properties :
#
#
# Convention : Reuss Voigt Hill
#
# Bulk Modulus (GPa) = 19.47592 45.18628 32.33110
# Shear Modulus (GPa) = 8.91524 19.14184 14.02854
#
# Velocity S-wave (km/s) = 2.23150 3.26981 2.79922
# Velocity P-wave (km/s) = 4.18542 6.28445 5.33910
#
# Compressibility (1/GPa) = 0.05134545
#
# Stress axis : x y z
#
# Youngs Moduli (GPa) = 25.64879 93.08684 59.87341
#
# Poissons Ratio (x) = 0.20913 -0.16381
# Poissons Ratio (y) = 0.05762 0.48097
# Poissons Ratio (z) = -0.07017 0.74777
#
# Static dielectric constant tensor:
#      x y z
#    x 1.658110 0.000000 0.000000 
#    y 0.000000 1.657070 0.000000 
#    z 0.000000 0.000000 1.625550 
# 
# From -- ./inp_files/31417.got.cif
#   From: 2010.05.17/outbox.cif.g08.bks.cpg/sg53_16_cif.got.tgz:31417.got - 2010.06.03 12:45:16.
