data_PCOD9415238
_publ_section_title
;
Structure prediction by ZEFSAII (Michael W. Deem and Ramdas Pophale) SiO2 
 PCOD9415238
Probable space group: P M N A
;
_chemical_formula_sum "Si O2"
_cell_formula_units_Z 64
_cell_length_a 7.657705
_cell_length_b 20.997064
_cell_length_c 18.963036
_cell_angle_alpha 90.000000
_cell_angle_beta 90.000000
_cell_angle_gamma 90.000000
_cell_volume 3049.053701
_symmetry_space_group_name_H-M "P M N A"
_symmetry_group_IT_number 53
_symmetry_cell_setting 'orthorhombic'
loop_
_space_group_symop_operation_xyz
x,y,z
1/2-x,-y,1/2+z
x,-y,-z
1/2-x,y,1/2-z
-x,-y,-z
1/2+x,y,1/2-z
-x,y,z
1/2+x,-y,1/2+z
loop_
_atom_site_type_symbol
_atom_site_label
_atom_site_fract_x
_atom_site_fract_y
_atom_site_fract_z
Si Si1 0.789805 0.628291 0.167680
Si Si2 0.700308 0.394019 0.168169
Si Si3 0.287090 0.743820 0.427465
Si Si4 0.788728 0.265780 0.089753
Si Si5 0.287076 0.122632 0.401629
Si Si6 0.213109 0.112657 0.936157
Si Si7 0.709688 0.996065 0.330244
Si Si8 0.298983 0.510541 0.422983
O O1 0.750000 0.625521 0.250000
O O2 0.725990 0.692097 0.128682
O O3 0.722448 0.566771 0.125015
O O4 0.000000 0.628663 0.162904
O O5 0.750000 0.396148 0.250000
O O6 0.500000 0.412687 0.161826
O O7 0.725118 0.323443 0.137348
O O8 0.799950 0.445389 0.120881
O O9 0.500000 0.743980 0.427027
O O10 0.235904 0.726374 0.507711
O O11 0.231845 0.816420 0.413205
O O12 0.730316 0.195037 0.113126
O O13 0.000000 0.266851 0.091539
O O14 0.500000 0.124010 0.400078
O O15 0.236939 0.105208 0.481980
O O16 0.225671 0.066673 0.350551
O O17 0.000000 0.111681 0.935133
O O18 0.275489 0.056877 0.885144
O O19 0.750000 0.979758 0.250000
O O20 0.500000 0.997485 0.337863
O O21 0.217391 0.500000 0.500000
O O22 0.500000 0.530328 0.436401
#
# Coordination Sequence:
#
# PCOD9415238 Si02
#       8
#     8   8   8   8   8   8   8   8
#     4  10  20  33  51  76 105 135 167 204 249 302
#     4  12  25  39  56  80 111 143 176 216 263 315
#     4   8  15  30  53  78 101 131 172 213 253 302
#     4   9  17  34  58  79 100 130 173 221 267 314
#     4   8  15  29  52  77  97 126 172 220 258 299
#     4   8  14  27  50  75  97 127 172 217 249 289
#     4  10  19  30  46  72 104 134 167 209 257 307
#     4  10  21  39  62  83 104 136 177 219 263 312
#
# _framework density 20.990117999999999
#
# number of rings (size 3 to 8) (size 9 to 14) (size 15 to 20)
#    0.000    2.625    0.000    4.125    0.000    6.250 
#    0.000    3.750    0.000    4.500    0.000    0.000 
#    0.000    0.000    0.000    0.000    0.000    0.000 
#
# Total GULP energy -357286.474264 kJ/mol
# GULP energy per Si atom -5582.601160 kJ/mol
# Density = 2.094234 g / cm^3
# Si number density = 20.990118 Si / 1000 Ang^3
#
#
#
# Elastic Constant Matrix: (Units=GPa)
#
#
# Indices 1 2 3 4 5 6 
#
# 1 41.8439 -5.0970 -3.6660 0.0000 0.0000 0.0000
# 2 -5.0970 88.3021 45.5319 0.0000 0.0000 0.0000
# 3 -3.6660 45.5319 88.1923 0.0000 0.0000 0.0000
# 4 0.0000 0.0000 0.0000 8.5639 0.0000 0.0000
# 5 0.0000 0.0000 0.0000 0.0000 15.1392 0.0000
# 6 0.0000 0.0000 0.0000 0.0000 0.0000 101.9534
#
#
#
# Elastic Compliance Matrix: (Units=1/GPa)
#
#
# Indices 1 2 3 4 5 6 
#
# 1 0.024077 0.001191 0.000386 0.000000 0.000000 0.000000
# 2 0.001191 0.015492 -0.007949 0.000000 0.000000 0.000000
# 3 0.000386 -0.007949 0.015459 0.000000 0.000000 0.000000
# 4 0.000000 0.000000 0.000000 0.116769 0.000000 0.000000
# 5 0.000000 0.000000 0.000000 0.000000 0.066054 0.000000
# 6 0.000000 0.000000 0.000000 0.000000 0.000000 0.009808
#
#
# Mechanical properties :
#
#
# Convention : Reuss Voigt Hill
#
# Bulk Modulus (GPa) = 23.64954 32.43067 28.04011
# Shear Modulus (GPa) = 18.21508 37.23592 27.72550
#
# Velocity S-wave (km/s) = 2.94903 4.21643 3.63834
# Velocity P-wave (km/s) = 4.78405 6.26006 5.57115
#
# Compressibility (1/GPa) = 0.04228412
#
# Stress axis : x y z
#
# Youngs Moduli (GPa) = 41.53307 64.54859 64.68838
#
# Poissons Ratio (x) = -0.07686 -0.02498
# Poissons Ratio (y) = -0.04945 0.51420
# Poissons Ratio (z) = -0.01604 0.51309
#
# Static dielectric constant tensor:
#      x y z
#    x 1.803680 0.000000 0.000000 
#    y 0.000000 1.746900 0.000000 
#    z 0.000000 0.000000 1.776700 
# 
# From -- ./inp_files/26977.got.cif
#   From: 2010.05.17/outbox.cif.g08.bks.cpg/sg53_14_cif.got.tgz:26977.got - 2010.06.03 12:45:16.
