data_PCOD9415264
_publ_section_title
;
Structure prediction by ZEFSAII (Michael W. Deem and Ramdas Pophale) SiO2 
 PCOD9415264
Probable space group: P M N A
;
_chemical_formula_sum "Si O2"
_cell_formula_units_Z 64
_cell_length_a 9.181644
_cell_length_b 15.376842
_cell_length_c 24.232756
_cell_angle_alpha 90.000000
_cell_angle_beta 90.000000
_cell_angle_gamma 90.000000
_cell_volume 3421.294122
_symmetry_space_group_name_H-M "P M N A"
_symmetry_group_IT_number 53
_symmetry_cell_setting 'orthorhombic'
loop_
_space_group_symop_operation_xyz
x,y,z
1/2-x,-y,1/2+z
x,-y,-z
1/2-x,y,1/2-z
-x,-y,-z
1/2+x,y,1/2-z
-x,y,z
1/2+x,-y,1/2+z
loop_
_atom_site_type_symbol
_atom_site_label
_atom_site_fract_x
_atom_site_fract_y
_atom_site_fract_z
Si Si1 0.674559 0.889142 0.596801
Si Si2 0.331002 0.865886 0.016957
Si Si3 0.825965 0.541033 0.807463
Si Si4 0.174795 0.926146 0.128149
Si Si5 0.324952 0.308238 0.385004
Si Si6 0.674580 0.239785 0.693100
Si Si7 0.174171 0.610232 0.106353
Si Si8 0.331434 0.341789 0.002384
O O1 0.500000 0.888749 0.587590
O O2 0.753751 0.900719 0.538178
O O3 0.715243 0.793581 0.618846
O O4 0.709311 0.971881 0.634997
O O5 0.500000 0.891600 0.018620
O O6 0.248425 0.896171 0.071379
O O7 0.324132 0.761057 0.012719
O O8 0.750000 0.521798 0.750000
O O9 0.784496 0.634954 0.832048
O O10 0.790019 0.470778 0.854491
O O11 0.000000 0.537971 0.799675
O O12 0.218287 0.857890 0.175256
O O13 0.000000 0.918011 0.122226
O O14 0.500000 0.313719 0.391561
O O15 0.251701 0.348175 0.439607
O O16 0.750000 0.265710 0.750000
O O17 0.500000 0.243976 0.700187
O O18 0.711562 0.304212 0.642587
O O19 0.255573 0.609396 0.048242
O O20 0.000000 0.611435 0.096548
O O21 0.500000 0.366554 0.008088
#
# Coordination Sequence:
#
# PCOD9415264 Si02
#       8
#     8   8   8   8   8   8   8   8
#     4   9  18  32  52  74 101 138 178 215 254 308
#     4  10  19  30  47  76 110 139 169 211 261 311
#     4  10  22  39  60  83 105 137 182 225 269 318
#     4  10  19  32  50  73 100 137 180 214 254 310
#     4   9  19  37  57  78 108 144 180 221 266 318
#     4  10  21  35  52  73 102 138 176 219 264 314
#     4  10  20  36  57  80 107 140 176 216 266 325
#     4  10  20  33  53  83 114 144 175 214 268 323
#
# _framework density 18.706371000000001
#
# number of rings (size 3 to 8) (size 9 to 14) (size 15 to 20)
#    0.000    2.250    1.250    1.500    0.000    5.500 
#    0.000    3.125    0.000    0.000    0.000    0.000 
#    0.000    0.000    0.000    0.000    0.000    0.000 
#
# Total GULP energy -357202.724474 kJ/mol
# GULP energy per Si atom -5581.292570 kJ/mol
# Density = 1.866379 g / cm^3
# Si number density = 18.706371 Si / 1000 Ang^3
#
#
#
# Elastic Constant Matrix: (Units=GPa)
#
#
# Indices 1 2 3 4 5 6 
#
# 1 11.4346 15.6327 6.7151 0.0000 0.0000 0.0000
# 2 15.6327 51.7669 11.8993 0.0000 0.0000 0.0000
# 3 6.7151 11.8993 20.7549 0.0000 0.0000 0.0000
# 4 0.0000 0.0000 0.0000 19.6542 0.0000 0.0000
# 5 0.0000 0.0000 0.0000 0.0000 21.1963 0.0000
# 6 0.0000 0.0000 0.0000 0.0000 0.0000 14.1151
#
#
#
# Elastic Compliance Matrix: (Units=1/GPa)
#
#
# Indices 1 2 3 4 5 6 
#
# 1 0.161996 -0.042469 -0.028064 0.000000 0.000000 0.000000
# 2 -0.042469 0.033383 -0.005399 0.000000 0.000000 0.000000
# 3 -0.028064 -0.005399 0.060357 0.000000 0.000000 0.000000
# 4 0.000000 0.000000 0.000000 0.050880 0.000000 0.000000
# 5 0.000000 0.000000 0.000000 0.000000 0.047178 0.000000
# 6 0.000000 0.000000 0.000000 0.000000 0.000000 0.070846
#
#
# Mechanical properties :
#
#
# Convention : Reuss Voigt Hill
#
# Bulk Modulus (GPa) = 9.62722 16.93896 13.28309
# Shear Modulus (GPa) = 8.18159 14.30707 11.24433
#
# Velocity S-wave (km/s) = 2.09361 2.76854 2.45439
# Velocity P-wave (km/s) = 3.31691 4.39256 3.89208
#
# Compressibility (1/GPa) = 0.10387217
#
# Stress axis : x y z
#
# Youngs Moduli (GPa) = 6.17298 29.95513 16.56821
#
# Poissons Ratio (x) = 1.27217 0.46497
# Poissons Ratio (y) = 0.26216 0.08945
# Poissons Ratio (z) = 0.17324 0.16173
#
# Static dielectric constant tensor:
#      x y z
#    x 1.623130 0.000000 0.000000 
#    y 0.000000 1.707910 0.000000 
#    z 0.000000 0.000000 1.585150 
# 
# From -- ./inp_files/34220.got.cif
#   From: 2010.05.17/outbox.cif.g08.bks.cpg/sg53_18_cif.got.tgz:34220.got - 2010.06.03 12:45:16.
