data_PCOD9415580
_publ_section_title
;
Structure prediction by ZEFSAII (Michael W. Deem and Ramdas Pophale) SiO2 
 PCOD9415580
Probable space group: P M N A
;
_chemical_formula_sum "Si O2"
_cell_formula_units_Z 64
_cell_length_a 8.699092
_cell_length_b 28.713070
_cell_length_c 15.035093
_cell_angle_alpha 90.000000
_cell_angle_beta 90.000000
_cell_angle_gamma 90.000000
_cell_volume 3755.430010
_symmetry_space_group_name_H-M "P M N A"
_symmetry_group_IT_number 53
_symmetry_cell_setting 'orthorhombic'
loop_
_space_group_symop_operation_xyz
x,y,z
1/2-x,-y,1/2+z
x,-y,-z
1/2-x,y,1/2-z
-x,-y,-z
1/2+x,y,1/2-z
-x,y,z
1/2+x,-y,1/2+z
loop_
_atom_site_type_symbol
_atom_site_label
_atom_site_fract_x
_atom_site_fract_y
_atom_site_fract_z
Si Si1 0.685231 0.609203 0.538035
Si Si2 0.814671 0.923226 0.346353
Si Si3 0.184850 0.698128 0.847648
Si Si4 0.182434 0.421760 0.842326
Si Si5 0.814757 0.799906 0.652165
Si Si6 0.812630 0.114982 0.471159
Si Si7 0.826291 0.516407 0.602894
Si Si8 0.685452 0.030345 0.153006
O O1 0.500000 0.604913 0.538729
O O2 0.727001 0.658408 0.581480
O O3 0.736022 0.602090 0.435119
O O4 0.752635 0.567304 0.597534
O O5 0.750000 0.911064 0.250000
O O6 0.762604 0.890618 0.427073
O O7 0.000000 0.922242 0.342228
O O8 0.769623 0.976983 0.367189
O O9 0.250000 0.685947 0.750000
O O10 0.252422 0.748704 0.870845
O O11 0.000000 0.701117 0.842415
O O12 0.250000 0.402947 0.750000
O O13 0.229974 0.476033 0.850308
O O14 0.000000 0.418020 0.838934
O O15 0.750000 0.811667 0.750000
O O16 0.765156 0.838988 0.581619
O O17 0.000000 0.798797 0.656484
O O18 0.763599 0.068840 0.417463
O O19 0.000000 0.114878 0.471272
O O20 0.832588 0.500000 0.500000
O O21 0.000000 0.517750 0.638309
O O22 0.750000 0.042087 0.250000
O O23 0.500000 0.031444 0.155768
#
# Coordination Sequence:
#
# PCOD9415580 Si02
#       8
#     8   8   8   8   8   8   8   8
#     4   9  19  34  51  70  96 129 161 196 237 281
#     4   9  17  30  46  65  91 123 159 194 227 267
#     4  10  20  35  53  73  96 122 153 190 236 285
#     4  10  19  32  49  70  98 131 164 197 235 276
#     4  10  19  32  50  72  96 120 148 186 233 282
#     4   9  17  29  47  68  91 123 158 188 226 279
#     4   9  17  29  46  69  96 126 160 195 229 270
#     4   9  16  27  44  66  93 124 155 189 228 271
#
# _framework density 17.041989999999998
#
# number of rings (size 3 to 8) (size 9 to 14) (size 15 to 20)
#    0.000    2.625    0.000    3.000    0.000    5.000 
#    0.000    3.750    0.000    3.750    0.000    5.250 
#    0.000    0.000    0.000    0.000    0.000    0.000 
#
# Total GULP energy -356792.896557 kJ/mol
# GULP energy per Si atom -5574.889009 kJ/mol
# Density = 1.700320 g / cm^3
# Si number density = 17.041990 Si / 1000 Ang^3
#
#
#
# Elastic Constant Matrix: (Units=GPa)
#
#
# Indices 1 2 3 4 5 6 
#
# 1 28.3864 26.9696 29.6585 0.0000 0.0000 0.0000
# 2 26.9696 105.9287 92.1656 0.0000 0.0000 0.0000
# 3 29.6585 92.1656 124.8382 0.0000 0.0000 0.0000
# 4 0.0000 0.0000 0.0000 27.8249 0.0000 0.0000
# 5 0.0000 0.0000 0.0000 0.0000 23.7992 0.0000
# 6 0.0000 0.0000 0.0000 0.0000 0.0000 28.6771
#
#
#
# Elastic Compliance Matrix: (Units=1/GPa)
#
#
# Indices 1 2 3 4 5 6 
#
# 1 0.048401 -0.006481 -0.006714 0.000000 0.000000 0.000000
# 2 -0.006481 0.027264 -0.018589 0.000000 0.000000 0.000000
# 3 -0.006714 -0.018589 0.023329 0.000000 0.000000 0.000000
# 4 0.000000 0.000000 0.000000 0.035939 0.000000 0.000000
# 5 0.000000 0.000000 0.000000 0.000000 0.042018 0.000000
# 6 0.000000 0.000000 0.000000 0.000000 0.000000 0.034871
#
#
# Mechanical properties :
#
#
# Convention : Reuss Voigt Hill
#
# Bulk Modulus (GPa) = 28.22781 61.86007 45.04394
# Shear Modulus (GPa) = 17.40960 23.41755 20.41358
#
# Velocity S-wave (km/s) = 3.19967 3.71092 3.46474
# Velocity P-wave (km/s) = 5.50001 7.39856 6.51877
#
# Compressibility (1/GPa) = 0.03542605
#
# Stress axis : x y z
#
# Youngs Moduli (GPa) = 20.66090 36.67853 42.86521
#
# Poissons Ratio (x) = 0.23773 0.28778
# Poissons Ratio (y) = 0.13391 0.79680
# Poissons Ratio (z) = 0.13871 0.68180
#
# Static dielectric constant tensor:
#      x y z
#    x 1.585200 0.000000 0.000000 
#    y 0.000000 1.563370 0.000000 
#    z 0.000000 0.000000 1.592130 
# 
# From -- ./inp_files/21065.got.cif
#   From: 2010.05.17/outbox.cif.g08.bks.cpg/sg53_11_cif.got.tgz:21065.got - 2010.06.03 12:45:16.
