data_PCOD9415353
_publ_section_title
;
Structure prediction by ZEFSAII (Michael W. Deem and Ramdas Pophale) SiO2 
 PCOD9415353
Probable space group: P M N A
;
_chemical_formula_sum "Si O2"
_cell_formula_units_Z 64
_cell_length_a 7.882800
_cell_length_b 16.721503
_cell_length_c 25.246615
_cell_angle_alpha 90.000000
_cell_angle_beta 90.000000
_cell_angle_gamma 90.000000
_cell_volume 3327.813478
_symmetry_space_group_name_H-M "P M N A"
_symmetry_group_IT_number 53
_symmetry_cell_setting 'orthorhombic'
loop_
_space_group_symop_operation_xyz
x,y,z
1/2-x,-y,1/2+z
x,-y,-z
1/2-x,y,1/2-z
-x,-y,-z
1/2+x,y,1/2-z
-x,y,z
1/2+x,-y,1/2+z
loop_
_atom_site_type_symbol
_atom_site_label
_atom_site_fract_x
_atom_site_fract_y
_atom_site_fract_z
Si Si1 0.202482 0.790736 0.083630
Si Si2 0.295451 0.470434 0.691003
Si Si3 0.798374 0.242981 0.189430
Si Si4 0.206954 0.608512 0.883933
Si Si5 0.803012 0.863229 0.599080
Si Si6 0.800245 0.718558 0.975704
Si Si7 0.204428 0.287006 0.808472
Si Si8 0.295732 0.028539 0.941207
O O1 0.267777 0.762289 0.140815
O O2 0.229516 0.884468 0.073297
O O3 0.000000 0.777444 0.083961
O O4 0.272318 0.740377 0.033341
O O5 0.250000 0.501543 0.750000
O O6 0.500000 0.469455 0.688388
O O7 0.234679 0.525799 0.642489
O O8 0.233576 0.379031 0.687592
O O9 0.750000 0.246240 0.250000
O O10 0.747607 0.323668 0.158953
O O11 0.714934 0.170536 0.157770
O O12 0.000000 0.235266 0.183791
O O13 0.268484 0.644788 0.940136
O O14 0.000000 0.605110 0.887114
O O15 0.715869 0.798629 0.560365
O O16 0.000000 0.863437 0.582690
O O17 0.739342 0.953657 0.594481
O O18 0.000000 0.702435 0.982603
O O19 0.250000 0.256028 0.750000
O O20 0.000000 0.288954 0.810651
O O21 0.500000 0.034843 0.939376
O O22 0.247032 0.000000 0.000000
#
# Coordination Sequence:
#
# PCOD9415353 Si02
#       8
#     8   8   8   8   8   8   8   8
#     4  10  20  33  52  76 101 129 165 205 249 301
#     4   9  16  29  49  70  96 128 166 209 247 286
#     4  10  19  31  47  69 100 134 169 202 242 294
#     4   8  15  27  45  70  99 130 163 200 241 288
#     4  10  19  32  49  70  98 128 162 202 244 289
#     4   9  17  30  47  70 101 132 161 197 244 297
#     4   9  19  35  53  75  99 128 167 209 250 294
#     4  10  20  34  52  76 101 124 160 204 244 293
#
# _framework density 19.231846999999998
#
# number of rings (size 3 to 8) (size 9 to 14) (size 15 to 20)
#    0.000    2.625    1.250    1.875    0.000    1.750 
#    0.000    3.750    0.000    5.250    0.000    0.000 
#    0.000    9.000    0.000    0.000    0.000    0.000 
#
# Total GULP energy -356685.233387 kJ/mol
# GULP energy per Si atom -5573.206772 kJ/mol
# Density = 1.918807 g / cm^3
# Si number density = 19.231847 Si / 1000 Ang^3
#
#
#
# Elastic Constant Matrix: (Units=GPa)
#
#
# Indices 1 2 3 4 5 6 
#
# 1 18.3146 1.9610 3.6285 0.0000 0.0000 0.0000
# 2 1.9610 78.6356 63.4482 0.0000 0.0000 0.0000
# 3 3.6285 63.4482 144.6111 0.0000 0.0000 0.0000
# 4 0.0000 0.0000 0.0000 34.9023 0.0000 0.0000
# 5 0.0000 0.0000 0.0000 0.0000 18.6080 0.0000
# 6 0.0000 0.0000 0.0000 0.0000 0.0000 5.6793
#
#
#
# Elastic Compliance Matrix: (Units=1/GPa)
#
#
# Indices 1 2 3 4 5 6 
#
# 1 0.054882 -0.000399 -0.001202 0.000000 0.000000 0.000000
# 2 -0.000399 0.019689 -0.008628 0.000000 0.000000 0.000000
# 3 -0.001202 -0.008628 0.010731 0.000000 0.000000 0.000000
# 4 0.000000 0.000000 0.000000 0.028651 0.000000 0.000000
# 5 0.000000 0.000000 0.000000 0.000000 0.053740 0.000000
# 6 0.000000 0.000000 0.000000 0.000000 0.000000 0.176077
#
#
# Mechanical properties :
#
#
# Convention : Reuss Voigt Hill
#
# Bulk Modulus (GPa) = 15.42181 42.18186 28.80183
# Shear Modulus (GPa) = 12.95861 23.33950 18.14905
#
# Velocity S-wave (km/s) = 2.59860 3.48744 3.07530
# Velocity P-wave (km/s) = 4.12795 6.18039 5.25534
#
# Compressibility (1/GPa) = 0.06484324
#
# Stress axis : x y z
#
# Youngs Moduli (GPa) = 18.22091 50.79013 93.18781
#
# Poissons Ratio (x) = 0.02025 0.11202
# Poissons Ratio (y) = 0.00726 0.80407
# Poissons Ratio (z) = 0.02190 0.43824
#
# Static dielectric constant tensor:
#      x y z
#    x 1.711600 0.000000 0.000000 
#    y 0.000000 1.670540 0.000000 
#    z 0.000000 0.000000 1.621240 
# 
# From -- ./inp_files/34498.got.cif
#   From: 2010.05.17/outbox.cif.g08.bks.cpg/sg53_18_cif.got.tgz:34498.got - 2010.06.03 12:45:16.
