data_PCOD9415084
_publ_section_title
;
Structure prediction by ZEFSAII (Michael W. Deem and Ramdas Pophale) SiO2 
 PCOD9415084
Probable space group: P M N A
;
_chemical_formula_sum "Si O2"
_cell_formula_units_Z 64
_cell_length_a 35.230395
_cell_length_b 18.937010
_cell_length_c 5.277704
_cell_angle_alpha 90.000000
_cell_angle_beta 90.000000
_cell_angle_gamma 90.000000
_cell_volume 3521.064252
_symmetry_space_group_name_H-M "P M N A"
_symmetry_group_IT_number 53
_symmetry_cell_setting 'orthorhombic'
loop_
_space_group_symop_operation_xyz
x,y,z
1/2-x,-y,1/2+z
x,-y,-z
1/2-x,y,1/2-z
-x,-y,-z
1/2+x,y,1/2-z
-x,y,z
1/2+x,-y,1/2+z
loop_
_atom_site_type_symbol
_atom_site_label
_atom_site_fract_x
_atom_site_fract_y
_atom_site_fract_z
Si Si1 0.155304 0.424125 0.553261
Si Si2 0.859196 0.789977 0.522146
Si Si3 0.767927 0.640433 0.500385
Si Si4 0.730909 0.193579 0.000275
Si Si5 0.416885 0.080650 0.022862
Si Si6 0.106537 0.576567 0.947270
Si Si7 0.101612 0.732434 0.021469
Si Si8 0.455125 0.137438 0.522142
O O1 0.174185 0.500000 0.500000
O O2 0.186988 0.366321 0.505462
O O3 0.139882 0.422627 0.839149
O O4 0.122522 0.421167 0.339408
O O5 0.814641 0.806404 0.504200
O O6 0.882419 0.863610 0.520245
O O7 0.874913 0.745999 0.280360
O O8 0.871214 0.750578 0.782205
O O9 0.750000 0.608002 0.750000
O O10 0.757983 0.723266 0.500234
O O11 0.750000 0.607869 0.250000
O O12 0.750000 0.162122 0.750000
O O13 0.750000 0.161830 0.250000
O O14 0.439829 0.093659 0.281984
O O15 0.443087 0.099821 0.782656
O O16 0.404263 0.000000 0.000000
O O17 0.087205 0.651930 0.997857
O O18 0.087381 0.500000 0.000000
O O19 0.067222 0.787988 0.015981
O O20 0.500000 0.146682 0.507885
#
# Coordination Sequence:
#
# PCOD9415084 Si02
#       8
#     8   8   8   8   8   8   8   8
#     4  10  20  31  43  61  86 118 157 202 252 303
#     4  10  20  34  53  75 101 134 172 212 254 304
#     4  10  19  28  40  58  81 113 152 194 245 303
#     4  10  19  30  46  68  93 123 164 214 258 295
#     4  10  21  36  56  82 110 142 172 200 242 295
#     4  10  19  31  48  68  90 120 163 211 251 290
#     4  10  19  33  53  74 101 136 171 210 254 301
#     4  10  21  35  54  83 113 141 170 200 242 295
#
# _framework density 18.176324000000001
#
# number of rings (size 3 to 8) (size 9 to 14) (size 15 to 20)
#    0.000    2.000    0.000    4.500    0.000    4.000 
#    0.000    0.000    0.000    1.125    0.000    0.000 
#    0.000    9.000    0.000    0.000    0.000    1.500 
#
# Total GULP energy -356881.360335 kJ/mol
# GULP energy per Si atom -5576.271255 kJ/mol
# Density = 1.813495 g / cm^3
# Si number density = 18.176324 Si / 1000 Ang^3
#
#
#
# Elastic Constant Matrix: (Units=GPa)
#
#
# Indices 1 2 3 4 5 6 
#
# 1 33.2548 -2.0893 25.2119 0.0000 0.0000 0.0000
# 2 -2.0893 77.0726 6.9386 0.0000 0.0000 0.0000
# 3 25.2119 6.9386 122.9289 0.0000 0.0000 0.0000
# 4 0.0000 0.0000 0.0000 8.4444 0.0000 0.0000
# 5 0.0000 0.0000 0.0000 0.0000 10.5196 0.0000
# 6 0.0000 0.0000 0.0000 0.0000 0.0000 7.3901
#
#
#
# Elastic Compliance Matrix: (Units=1/GPa)
#
#
# Indices 1 2 3 4 5 6 
#
# 1 0.035813 0.001640 -0.007438 0.000000 0.000000 0.000000
# 2 0.001640 0.013116 -0.001077 0.000000 0.000000 0.000000
# 3 -0.007438 -0.001077 0.009721 0.000000 0.000000 0.000000
# 4 0.000000 0.000000 0.000000 0.118421 0.000000 0.000000
# 5 0.000000 0.000000 0.000000 0.000000 0.095061 0.000000
# 6 0.000000 0.000000 0.000000 0.000000 0.000000 0.135317
#
#
# Mechanical properties :
#
#
# Convention : Reuss Voigt Hill
#
# Bulk Modulus (GPa) = 22.27070 32.59762 27.43416
# Shear Modulus (GPa) = 11.46359 18.81716 15.14038
#
# Velocity S-wave (km/s) = 2.51408 3.22103 2.88926
# Velocity P-wave (km/s) = 4.55045 5.63972 5.12411
#
# Compressibility (1/GPa) = 0.04490204
#
# Stress axis : x y z
#
# Youngs Moduli (GPa) = 27.92309 76.24168 102.87066
#
# Poissons Ratio (x) = -0.12507 0.76510
# Poissons Ratio (y) = -0.04581 0.11077
# Poissons Ratio (z) = 0.20768 0.08209
#
# Static dielectric constant tensor:
#      x y z
#    x 1.577230 0.000000 0.000000 
#    y 0.000000 1.658330 0.000000 
#    z 0.000000 0.000000 1.635350 
# 
# From -- ./inp_files/5475.got.cif
#   From: 2010.05.17/outbox.cif.g08.bks.cpg/sg53_3_cif.got.tgz:5475.got - 2010.06.03 12:45:16.
