data_PCOD9415696
_publ_section_title
;
Structure prediction by ZEFSAII (Michael W. Deem and Ramdas Pophale) SiO2 
 PCOD9415696
Probable space group: P M N A
;
_chemical_formula_sum "Si O2"
_cell_formula_units_Z 40
_cell_length_a 9.168173
_cell_length_b 9.184182
_cell_length_c 26.725755
_cell_angle_alpha 90.000000
_cell_angle_beta 90.000000
_cell_angle_gamma 90.000000
_cell_volume 2250.366551
_symmetry_space_group_name_H-M "P M N A"
_symmetry_group_IT_number 53
_symmetry_cell_setting 'orthorhombic'
loop_
_space_group_symop_operation_xyz
x,y,z
1/2-x,-y,1/2+z
x,-y,-z
1/2-x,y,1/2-z
-x,-y,-z
1/2+x,y,1/2-z
-x,y,z
1/2+x,-y,1/2+z
loop_
_atom_site_type_symbol
_atom_site_label
_atom_site_fract_x
_atom_site_fract_y
_atom_site_fract_z
Si Si1 0.175750 0.159929 0.908931
Si Si2 0.826348 0.847250 0.598352
Si Si3 0.333018 0.184858 0.700731
Si Si4 0.169040 0.829549 0.800342
Si Si5 0.170734 0.327951 0.503145
O O1 0.221227 0.225302 0.854697
O O2 0.229164 0.256611 0.954695
O O3 0.000000 0.143165 0.908211
O O4 0.251150 0.002266 0.912972
O O5 0.753633 0.787978 0.649194
O O6 0.802375 0.744490 0.550753
O O7 0.000000 0.866658 0.605741
O O8 0.250000 0.235668 0.750000
O O9 0.500000 0.230613 0.705047
O O10 0.328903 0.007358 0.700629
O O11 0.250000 0.779927 0.750000
O O12 0.000000 0.785034 0.801430
O O13 0.193053 0.500000 0.500000
O O14 0.000000 0.300183 0.515809
#
# Coordination Sequence:
#
# PCOD9415696 Si02
#       5
#     8   8   8   8   8
#     4  10  20  33  51  77 105 131 166 210 253 301
#     4  10  19  32  52  76 102 133 169 209 252 298
#     4   8  15  26  42  68  99 127 155 192 238 287
#     4   9  16  27  45  72 104 133 163 202 248 296
#     4  10  22  38  53  71  98 133 172 212 256 306
#
# _framework density 17.774882000000002
#
# number of rings (size 3 to 8) (size 9 to 14) (size 15 to 20)
#    0.000    2.600    0.000    3.600    0.000   10.000 
#    0.000    0.000    0.000    1.200    0.000    2.800 
#    0.000    0.000    0.000    0.000    0.000    0.000 
#
# Total GULP energy -223014.796119 kJ/mol
# GULP energy per Si atom -5575.369903 kJ/mol
# Density = 1.773443 g / cm^3
# Si number density = 17.774882 Si / 1000 Ang^3
#
#
#
# Elastic Constant Matrix: (Units=GPa)
#
#
# Indices 1 2 3 4 5 6 
#
# 1 107.3167 35.0029 98.3919 0.0000 0.0000 0.0000
# 2 35.0029 27.6028 44.8366 0.0000 0.0000 0.0000
# 3 98.3919 44.8366 172.2819 0.0000 0.0000 0.0000
# 4 0.0000 0.0000 0.0000 -5.6932 0.0000 0.0000
# 5 0.0000 0.0000 0.0000 0.0000 39.7040 0.0000
# 6 0.0000 0.0000 0.0000 0.0000 0.0000 -1.6424
#
#
#
# Elastic Compliance Matrix: (Units=1/GPa)
#
#
# Indices 1 2 3 4 5 6 
#
# 1 0.021938 -0.012937 -0.009162 0.000000 0.000000 0.000000
# 2 -0.012937 0.070388 -0.010930 0.000000 0.000000 0.000000
# 3 -0.009162 -0.010930 0.013882 0.000000 0.000000 0.000000
# 4 0.000000 0.000000 0.000000 -0.175648 0.000000 0.000000
# 5 0.000000 0.000000 0.000000 0.000000 0.025186 0.000000
# 6 0.000000 0.000000 0.000000 0.000000 0.000000 -0.608883
#
#
# Mechanical properties :
#
#
# Convention : Reuss Voigt Hill
#
# Bulk Modulus (GPa) = 24.90721 73.74048 49.32384
# Shear Modulus (GPa) = -8.71543 15.07168 3.17813
#
# Velocity S-wave (km/s) = -2.21673 2.91507 1.33861
# Velocity P-wave (km/s) = 2.73700 7.27365 5.49532
#
# Compressibility (1/GPa) = 0.04014901
#
# Stress axis : x y z
#
# Youngs Moduli (GPa) = 45.58313 14.20702 72.03768
#
# Poissons Ratio (x) = 0.18379 0.66002
# Poissons Ratio (y) = 0.58970 0.78738
# Poissons Ratio (z) = 0.41764 0.15529
#
# Static dielectric constant tensor:
#      x y z
#    x 1.602430 0.000000 0.000000 
#    y 0.000000 1.572140 0.000000 
#    z 0.000000 0.000000 1.620100 
# 
# From -- ./inp_files/36018.got.cif
#   From: 2010.05.17/outbox.cif.g08.bks.cpg/sg53_19_cif.got.tgz:36018.got - 2010.06.03 12:45:16.
