data_PCOD9415713
_publ_section_title
;
Structure prediction by ZEFSAII (Michael W. Deem and Ramdas Pophale) SiO2 
 PCOD9415713
Probable space group: P M N A
;
_chemical_formula_sum "Si O2"
_cell_formula_units_Z 56
_cell_length_a 9.019954
_cell_length_b 19.735751
_cell_length_c 18.202810
_cell_angle_alpha 90.000000
_cell_angle_beta 90.000000
_cell_angle_gamma 90.000000
_cell_volume 3240.383528
_symmetry_space_group_name_H-M "P M N A"
_symmetry_group_IT_number 53
_symmetry_cell_setting 'orthorhombic'
loop_
_space_group_symop_operation_xyz
x,y,z
1/2-x,-y,1/2+z
x,-y,-z
1/2-x,y,1/2-z
-x,-y,-z
1/2+x,y,1/2-z
-x,y,z
1/2+x,-y,1/2+z
loop_
_atom_site_type_symbol
_atom_site_label
_atom_site_fract_x
_atom_site_fract_y
_atom_site_fract_z
Si Si1 0.669850 0.547439 0.572696
Si Si2 0.177736 0.168617 0.328398
Si Si3 0.322649 0.205890 0.474465
Si Si4 0.678821 0.653987 0.457177
Si Si5 0.174305 0.011881 0.325719
Si Si6 0.331719 0.934454 0.447767
Si Si7 0.177981 0.438301 0.669135
O O1 0.667588 0.500000 0.500000
O O2 0.500000 0.552751 0.599845
O O3 0.718306 0.617480 0.534925
O O4 0.769304 0.509754 0.632708
O O5 0.250000 0.186595 0.250000
O O6 0.239858 0.210612 0.396838
O O7 0.220817 0.089513 0.343770
O O8 0.000000 0.173145 0.323821
O O9 0.500000 0.207268 0.460883
O O10 0.288431 0.267248 0.529848
O O11 0.286228 0.133590 0.510777
O O12 0.500000 0.644741 0.447638
O O13 0.759894 0.617912 0.388872
O O14 0.250000 0.994156 0.250000
O O15 0.000000 0.013519 0.317317
O O16 0.222514 0.957189 0.384560
O O17 0.500000 0.924249 0.419822
O O18 0.335398 0.000000 0.500000
O O19 0.250000 0.430459 0.750000
O O20 0.000000 0.434985 0.673362
#
# Coordination Sequence:
#
# PCOD9415713 Si02
#       7
#     8   8   8   8   8   8   8
#     4   8  15  31  54  78 105 135 169 210 254 303
#     4  10  20  33  51  74 100 131 171 219 269 323
#     4  10  20  35  55  78 107 144 180 218 269 324
#     4   9  19  36  56  79 110 146 180 216 263 318
#     4  10  20  33  51  73  99 130 169 220 274 324
#     4  10  19  32  52  77 104 134 174 223 270 321
#     4  11  21  34  56  84 112 142 179 220 260 307
#
# _framework density 17.281904000000001
#
# number of rings (size 3 to 8) (size 9 to 14) (size 15 to 20)
#    0.000    2.286    1.429    3.000    0.000    5.143 
#    0.000    1.429    0.000    0.000    0.000    0.000 
#    0.000    0.000    0.000    0.000    0.000    0.000 
#
# Total GULP energy -312051.375147 kJ/mol
# GULP energy per Si atom -5572.345985 kJ/mol
# Density = 1.724257 g / cm^3
# Si number density = 17.281904 Si / 1000 Ang^3
#
#
#
# Elastic Constant Matrix: (Units=GPa)
#
#
# Indices 1 2 3 4 5 6 
#
# 1 70.0804 29.0033 65.9055 0.0000 0.0000 0.0000
# 2 29.0033 84.1616 42.9952 0.0000 0.0000 0.0000
# 3 65.9055 42.9952 111.8672 0.0000 0.0000 0.0000
# 4 0.0000 0.0000 0.0000 22.8268 0.0000 0.0000
# 5 0.0000 0.0000 0.0000 0.0000 33.1183 0.0000
# 6 0.0000 0.0000 0.0000 0.0000 0.0000 16.9233
#
#
#
# Elastic Compliance Matrix: (Units=1/GPa)
#
#
# Indices 1 2 3 4 5 6 
#
# 1 0.032203 -0.001749 -0.018300 0.000000 0.000000 0.000000
# 2 -0.001749 0.014880 -0.004689 0.000000 0.000000 0.000000
# 3 -0.018300 -0.004689 0.021522 0.000000 0.000000 0.000000
# 4 0.000000 0.000000 0.000000 0.043808 0.000000 0.000000
# 5 0.000000 0.000000 0.000000 0.000000 0.030195 0.000000
# 6 0.000000 0.000000 0.000000 0.000000 0.000000 0.059090
#
#
# Mechanical properties :
#
#
# Convention : Reuss Voigt Hill
#
# Bulk Modulus (GPa) = 52.27274 60.21303 56.24289
# Shear Modulus (GPa) = 19.41378 23.12069 21.26724
#
# Velocity S-wave (km/s) = 3.35529 3.66164 3.51181
# Velocity P-wave (km/s) = 6.73227 7.26595 7.00419
#
# Compressibility (1/GPa) = 0.01913043
#
# Stress axis : x y z
#
# Youngs Moduli (GPa) = 31.05339 67.20507 46.46341
#
# Poissons Ratio (x) = 0.11753 0.85027
# Poissons Ratio (y) = 0.05431 0.21785
# Poissons Ratio (z) = 0.56827 0.31510
#
# Static dielectric constant tensor:
#      x y z
#    x 1.584750 0.000000 0.000000 
#    y 0.000000 1.621380 0.000000 
#    z 0.000000 0.000000 1.568510 
# 
# From -- ./inp_files/26715.got.cif
#   From: 2010.05.17/outbox.cif.g08.bks.cpg/sg53_14_cif.got.tgz:26715.got - 2010.06.03 12:45:16.
