data_PCOD9415643
_publ_section_title
;
Structure prediction by ZEFSAII (Michael W. Deem and Ramdas Pophale) SiO2 
 PCOD9415643
Probable space group: P M N A
;
_chemical_formula_sum "Si O2"
_cell_formula_units_Z 32
_cell_length_a 14.291547
_cell_length_b 19.488453
_cell_length_c 5.226197
_cell_angle_alpha 90.000000
_cell_angle_beta 90.000000
_cell_angle_gamma 90.000000
_cell_volume 1455.601131
_symmetry_space_group_name_H-M "P M N A"
_symmetry_group_IT_number 53
_symmetry_cell_setting 'orthorhombic'
loop_
_space_group_symop_operation_xyz
x,y,z
1/2-x,-y,1/2+z
x,-y,-z
1/2-x,y,1/2-z
-x,-y,-z
1/2+x,y,1/2-z
-x,y,z
1/2+x,-y,1/2+z
loop_
_atom_site_type_symbol
_atom_site_label
_atom_site_fract_x
_atom_site_fract_y
_atom_site_fract_z
Si Si1 0.109472 0.456402 0.258635
Si Si2 0.314402 0.926684 0.003833
Si Si3 0.611481 0.777180 0.115134
Si Si4 0.114821 0.695712 0.882946
O O1 0.150098 0.500000 0.500000
O O2 0.146255 0.382042 0.172208
O O3 0.000000 0.444177 0.331201
O O4 0.111863 0.500000 0.000000
O O5 0.250000 0.917119 0.750000
O O6 0.250000 0.936556 0.250000
O O7 0.367602 0.856961 0.069751
O O8 0.368485 0.000000 0.000000
O O9 0.500000 0.770616 0.126857
O O10 0.647131 0.737846 0.367660
O O11 0.643646 0.737849 0.864573
O O12 0.000000 0.693540 0.898238
#
# Coordination Sequence:
#
# PCOD9415643 Si02
#       4
#     8   8   8   8
#     4   9  15  23  37  59  92 133 167 195 238 294
#     4  10  21  37  55  75 101 132 167 210 257 306
#     4  10  19  32  51  74 102 134 167 208 256 304
#     4   9  17  28  43  68 101 133 166 206 251 295
#
# _framework density 21.984044999999998
#
# number of rings (size 3 to 8) (size 9 to 14) (size 15 to 20)
#    0.000    2.500    0.000    3.000    0.000    6.500 
#    0.000    0.000    0.000    9.000    0.000    0.000 
#    0.000   56.000    0.000    0.000    0.000    0.000 
#
# Total GULP energy -178444.774864 kJ/mol
# GULP energy per Si atom -5576.399214 kJ/mol
# Density = 2.193401 g / cm^3
# Si number density = 21.984045 Si / 1000 Ang^3
#
#
#
# Elastic Constant Matrix: (Units=GPa)
#
#
# Indices 1 2 3 4 5 6 
#
# 1 50.6428 11.7490 20.1414 0.0000 0.0000 0.0000
# 2 11.7490 236.6243 92.1139 0.0000 0.0000 0.0000
# 3 20.1414 92.1139 191.2282 0.0000 0.0000 0.0000
# 4 0.0000 0.0000 0.0000 51.1286 0.0000 0.0000
# 5 0.0000 0.0000 0.0000 0.0000 12.0837 0.0000
# 6 0.0000 0.0000 0.0000 0.0000 0.0000 24.5853
#
#
#
# Elastic Compliance Matrix: (Units=1/GPa)
#
#
# Indices 1 2 3 4 5 6 
#
# 1 0.020619 -0.000220 -0.002066 0.000000 0.000000 0.000000
# 2 -0.000220 0.005204 -0.002484 0.000000 0.000000 0.000000
# 3 -0.002066 -0.002484 0.006643 0.000000 0.000000 0.000000
# 4 0.000000 0.000000 0.000000 0.019559 0.000000 0.000000
# 5 0.000000 0.000000 0.000000 0.000000 0.082756 0.000000
# 6 0.000000 0.000000 0.000000 0.000000 0.000000 0.040675
#
#
# Mechanical properties :
#
#
# Convention : Reuss Voigt Hill
#
# Bulk Modulus (GPa) = 43.61523 80.72267 62.16895
# Shear Modulus (GPa) = 25.95573 41.19225 33.57399
#
# Velocity S-wave (km/s) = 3.43980 4.33336 3.91218
# Velocity P-wave (km/s) = 5.97151 7.86358 6.98193
#
# Compressibility (1/GPa) = 0.02292777
#
# Stress axis : x y z
#
# Youngs Moduli (GPa) = 48.49956 192.16705 150.52847
#
# Poissons Ratio (x) = 0.04219 0.31099
# Poissons Ratio (y) = 0.01065 0.37384
# Poissons Ratio (z) = 0.10020 0.47725
#
# Static dielectric constant tensor:
#      x y z
#    x 1.876360 0.000000 0.000000 
#    y 0.000000 1.874120 0.000000 
#    z 0.000000 0.000000 1.748270 
# 
# From -- ./inp_files/1180.got.cif
#   From: 2010.05.17/outbox.cif.g08.bks.cpg/sg53_1_cif.got.tgz:1180.got - 2010.06.03 12:45:16.
