data_PCOD9415263
_publ_section_title
;
Structure prediction by ZEFSAII (Michael W. Deem and Ramdas Pophale) SiO2 
 PCOD9415263
Probable space group: P M N A
;
_chemical_formula_sum "Si O2"
_cell_formula_units_Z 64
_cell_length_a 9.541099
_cell_length_b 18.370140
_cell_length_c 17.148191
_cell_angle_alpha 90.000000
_cell_angle_beta 90.000000
_cell_angle_gamma 90.000000
_cell_volume 3005.586147
_symmetry_space_group_name_H-M "P M N A"
_symmetry_group_IT_number 53
_symmetry_cell_setting 'orthorhombic'
loop_
_space_group_symop_operation_xyz
x,y,z
1/2-x,-y,1/2+z
x,-y,-z
1/2-x,y,1/2-z
-x,-y,-z
1/2+x,y,1/2-z
-x,y,z
1/2+x,-y,1/2+z
loop_
_atom_site_type_symbol
_atom_site_label
_atom_site_fract_x
_atom_site_fract_y
_atom_site_fract_z
Si Si1 0.664483 0.942592 0.320349
Si Si2 0.341747 0.245372 0.177801
Si Si3 0.168761 0.300148 0.497311
Si Si4 0.655537 0.433156 0.442399
Si Si5 0.836624 0.474167 0.672255
Si Si6 0.846813 0.087931 0.992344
Si Si7 0.336283 0.300228 0.830302
Si Si8 0.340636 0.083620 0.132687
O O1 0.750000 0.907540 0.250000
O O2 0.500000 0.952746 0.302741
O O3 0.674808 0.899290 0.401201
O O4 0.739219 0.020653 0.335651
O O5 0.250000 0.273578 0.250000
O O6 0.500000 0.271766 0.188958
O O7 0.304463 0.262683 0.087497
O O8 0.341486 0.157362 0.181575
O O9 0.270869 0.368503 0.488277
O O10 0.199709 0.266463 0.583742
O O11 0.000000 0.315810 0.499193
O O12 0.636299 0.500000 0.500000
O O13 0.500000 0.413367 0.411211
O O14 0.766818 0.466092 0.382664
O O15 0.750000 0.481291 0.750000
O O16 0.824507 0.387726 0.652794
O O17 0.000000 0.489234 0.680990
O O18 0.000000 0.117386 0.017319
O O19 0.719529 0.106274 0.048153
O O20 0.856786 0.000000 0.000000
O O21 0.250000 0.284926 0.750000
O O22 0.500000 0.284073 0.814137
O O23 0.500000 0.055971 0.126785
#
# Coordination Sequence:
#
# PCOD9415263 Si02
#       8
#     8   8   8   8   8   8   8   8
#     4  10  19  30  47  75 110 145 180 221 269 320
#     4  10  23  40  58  80 108 143 188 233 273 322
#     4  10  21  39  58  77 105 144 181 221 274 328
#     4  11  22  34  51  77 107 136 170 213 261 322
#     4  10  19  32  51  75 101 132 168 205 255 316
#     4   8  16  30  47  71 103 137 173 218 269 318
#     4   9  18  32  54  79 102 128 163 207 259 317
#     4  10  19  32  52  77 103 139 184 227 270 319
#
# _framework density 21.293683000000001
#
# number of rings (size 3 to 8) (size 9 to 14) (size 15 to 20)
#    0.000    2.250    1.250    2.625    0.000    7.250 
#    0.000    1.250    0.000    0.750    0.000    3.500 
#    0.000    0.000    0.000    0.000    0.000    0.000 
#
# Total GULP energy -356466.464721 kJ/mol
# GULP energy per Si atom -5569.788511 kJ/mol
# Density = 2.124522 g / cm^3
# Si number density = 21.293683 Si / 1000 Ang^3
#
#
#
# Elastic Constant Matrix: (Units=GPa)
#
#
# Indices 1 2 3 4 5 6 
#
# 1 127.5528 30.3358 79.8910 0.0000 0.0000 0.0000
# 2 30.3358 30.6212 8.3017 0.0000 0.0000 0.0000
# 3 79.8910 8.3017 147.4804 0.0000 0.0000 0.0000
# 4 0.0000 0.0000 0.0000 16.4134 0.0000 0.0000
# 5 0.0000 0.0000 0.0000 0.0000 39.4384 0.0000
# 6 0.0000 0.0000 0.0000 0.0000 0.0000 15.8904
#
#
#
# Elastic Compliance Matrix: (Units=1/GPa)
#
#
# Indices 1 2 3 4 5 6 
#
# 1 0.016094 -0.013791 -0.007942 0.000000 0.000000 0.000000
# 2 -0.013791 0.044981 0.004939 0.000000 0.000000 0.000000
# 3 -0.007942 0.004939 0.010805 0.000000 0.000000 0.000000
# 4 0.000000 0.000000 0.000000 0.060926 0.000000 0.000000
# 5 0.000000 0.000000 0.000000 0.000000 0.025356 0.000000
# 6 0.000000 0.000000 0.000000 0.000000 0.000000 0.062931
#
#
# Mechanical properties :
#
#
# Convention : Reuss Voigt Hill
#
# Bulk Modulus (GPa) = 26.11581 60.30127 43.20854
# Shear Modulus (GPa) = 18.69544 26.82349 22.75947
#
# Velocity S-wave (km/s) = 2.96629 3.55307 3.27285
# Velocity P-wave (km/s) = 4.90133 6.72404 5.88369
#
# Compressibility (1/GPa) = 0.03829097
#
# Stress axis : x y z
#
# Youngs Moduli (GPa) = 62.13420 22.23178 92.55142
#
# Poissons Ratio (x) = 0.30660 0.73505
# Poissons Ratio (y) = 0.85689 -0.45709
# Poissons Ratio (z) = 0.49347 -0.10980
#
# Static dielectric constant tensor:
#      x y z
#    x 1.558990 0.000000 0.000000 
#    y 0.000000 1.809250 0.000000 
#    z 0.000000 0.000000 1.821220 
# 
# From -- ./inp_files/26773.got.cif
#   From: 2010.05.17/outbox.cif.g08.bks.cpg/sg53_14_cif.got.tgz:26773.got - 2010.06.03 12:45:16.
