data_PCOD9415371
_publ_section_title
;
Structure prediction by ZEFSAII (Michael W. Deem and Ramdas Pophale) SiO2 
 PCOD9415371
Probable space group: P M N A
;
_chemical_formula_sum "Si O2"
_cell_formula_units_Z 56
_cell_length_a 8.975857
_cell_length_b 14.088762
_cell_length_c 24.773517
_cell_angle_alpha 90.000000
_cell_angle_beta 90.000000
_cell_angle_gamma 90.000000
_cell_volume 3132.827077
_symmetry_space_group_name_H-M "P M N A"
_symmetry_group_IT_number 53
_symmetry_cell_setting 'orthorhombic'
loop_
_space_group_symop_operation_xyz
x,y,z
1/2-x,-y,1/2+z
x,-y,-z
1/2-x,y,1/2-z
-x,-y,-z
1/2+x,y,1/2-z
-x,y,z
1/2+x,-y,1/2+z
loop_
_atom_site_type_symbol
_atom_site_label
_atom_site_fract_x
_atom_site_fract_y
_atom_site_fract_z
Si Si1 0.175995 0.156824 0.693752
Si Si2 0.821724 0.718634 0.693282
Si Si3 0.678026 0.495397 0.807499
Si Si4 0.321483 0.330342 0.630549
Si Si5 0.677320 0.215417 0.524627
Si Si6 0.323924 0.957972 0.085627
Si Si7 0.679767 0.822258 0.915607
O O1 0.250000 0.128930 0.750000
O O2 0.254856 0.251280 0.671002
O O3 0.194179 0.078089 0.647095
O O4 0.000000 0.174366 0.700734
O O5 0.750000 0.747963 0.750000
O O6 0.788995 0.606920 0.684421
O O7 0.771770 0.778154 0.641392
O O8 0.000000 0.728182 0.697957
O O9 0.750000 0.467629 0.750000
O O10 0.500000 0.482839 0.805424
O O11 0.748983 0.429610 0.853176
O O12 0.500000 0.333742 0.635989
O O13 0.284588 0.293162 0.570415
O O14 0.500000 0.212524 0.519189
O O15 0.735665 0.115178 0.548266
O O16 0.752571 0.230790 0.467004
O O17 0.500000 0.950511 0.072057
O O18 0.277855 0.066890 0.080550
O O19 0.500000 0.817172 0.917866
#
# Coordination Sequence:
#
# PCOD9415371 Si02
#       7
#     8   8   8   8   8   8   8
#     4  10  19  31  47  71 103 135 168 206 251 301
#     4   9  20  37  56  79 105 133 168 210 251 297
#     4  10  19  33  54  78 103 133 169 207 251 300
#     4  10  20  34  51  73 102 134 168 207 252 302
#     4  10  21  35  52  77 105 132 168 212 254 298
#     4   9  19  34  52  73 100 137 174 208 249 299
#     4  10  20  36  56  76 101 135 172 207 249 300
#
# _framework density 17.875229000000001
#
# number of rings (size 3 to 8) (size 9 to 14) (size 15 to 20)
#    0.000    2.286    0.000    2.571    0.000    6.286 
#    0.000    0.714    0.000    4.286    0.000    0.000 
#    0.000    0.000    0.000    0.000    0.000    0.000 
#
# Total GULP energy -312615.954701 kJ/mol
# GULP energy per Si atom -5582.427763 kJ/mol
# Density = 1.783454 g / cm^3
# Si number density = 17.875229 Si / 1000 Ang^3
#
#
#
# Elastic Constant Matrix: (Units=GPa)
#
#
# Indices 1 2 3 4 5 6 
#
# 1 38.7114 22.3632 44.0140 0.0000 0.0000 0.0000
# 2 22.3632 45.8614 46.6325 0.0000 0.0000 0.0000
# 3 44.0140 46.6325 140.7817 0.0000 0.0000 0.0000
# 4 0.0000 0.0000 0.0000 17.2836 0.0000 0.0000
# 5 0.0000 0.0000 0.0000 0.0000 34.3606 0.0000
# 6 0.0000 0.0000 0.0000 0.0000 0.0000 7.7277
#
#
#
# Elastic Compliance Matrix: (Units=1/GPa)
#
#
# Indices 1 2 3 4 5 6 
#
# 1 0.043556 -0.011147 -0.009925 0.000000 0.000000 0.000000
# 2 -0.011147 0.035732 -0.008351 0.000000 0.000000 0.000000
# 3 -0.009925 -0.008351 0.012972 0.000000 0.000000 0.000000
# 4 0.000000 0.000000 0.000000 0.057858 0.000000 0.000000
# 5 0.000000 0.000000 0.000000 0.000000 0.029103 0.000000
# 6 0.000000 0.000000 0.000000 0.000000 0.000000 0.129405
#
#
# Mechanical properties :
#
#
# Convention : Reuss Voigt Hill
#
# Bulk Modulus (GPa) = 29.92739 50.15266 40.04003
# Shear Modulus (GPa) = 13.20617 19.36403 16.28510
#
# Velocity S-wave (km/s) = 2.72103 3.29491 3.02162
# Velocity P-wave (km/s) = 5.16244 6.52635 5.88404
#
# Compressibility (1/GPa) = 0.03341421
#
# Stress axis : x y z
#
# Youngs Moduli (GPa) = 22.95873 27.98648 77.08788
#
# Poissons Ratio (x) = 0.31197 0.76510
# Poissons Ratio (y) = 0.25593 0.64373
# Poissons Ratio (z) = 0.22787 0.23370
#
# Static dielectric constant tensor:
#      x y z
#    x 1.595870 0.000000 0.000000 
#    y 0.000000 1.602140 0.000000 
#    z 0.000000 0.000000 1.608690 
# 
# From -- ./inp_files/30846.got.cif
#   From: 2010.05.17/outbox.cif.g08.bks.cpg/sg53_16_cif.got.tgz:30846.got - 2010.06.03 12:45:16.
