data_PCOD9415105
_publ_section_title
;
Structure prediction by ZEFSAII (Michael W. Deem and Ramdas Pophale) SiO2 
 PCOD9415105
Probable space group: P M N A
;
_chemical_formula_sum "Si O2"
_cell_formula_units_Z 64
_cell_length_a 8.877131
_cell_length_b 18.817109
_cell_length_c 26.780182
_cell_angle_alpha 90.000000
_cell_angle_beta 90.000000
_cell_angle_gamma 90.000000
_cell_volume 4473.413599
_symmetry_space_group_name_H-M "P M N A"
_symmetry_group_IT_number 53
_symmetry_cell_setting 'orthorhombic'
loop_
_space_group_symop_operation_xyz
x,y,z
1/2-x,-y,1/2+z
x,-y,-z
1/2-x,y,1/2-z
-x,-y,-z
1/2+x,y,1/2-z
-x,y,z
1/2+x,-y,1/2+z
loop_
_atom_site_type_symbol
_atom_site_label
_atom_site_fract_x
_atom_site_fract_y
_atom_site_fract_z
Si Si1 0.326320 0.459473 0.553587
Si Si2 0.680576 0.831061 0.696201
Si Si3 0.318695 0.326233 0.494783
Si Si4 0.178499 0.590279 0.598088
Si Si5 0.319418 0.675918 0.802856
Si Si6 0.826483 0.043425 0.947664
Si Si7 0.179620 0.085437 0.395024
Si Si8 0.179724 0.829258 0.502350
O O1 0.324307 0.500000 0.500000
O O2 0.500000 0.457265 0.570302
O O3 0.273522 0.380407 0.539438
O O4 0.231301 0.509405 0.589797
O O5 0.750000 0.851191 0.750000
O O6 0.500000 0.828833 0.698896
O O7 0.745589 0.752282 0.685082
O O8 0.736667 0.882925 0.652761
O O9 0.500000 0.324600 0.493599
O O10 0.260103 0.361258 0.443423
O O11 0.252216 0.248169 0.500533
O O12 0.212089 0.621418 0.652570
O O13 0.000000 0.595483 0.589594
O O14 0.250000 0.653009 0.750000
O O15 0.500000 0.684919 0.798357
O O16 0.747543 0.117450 0.961140
O O17 0.000000 0.053261 0.932590
O O18 0.738211 0.992814 0.909539
O O19 0.825930 0.000000 0.000000
O O20 0.211457 0.135770 0.443193
O O21 0.000000 0.085192 0.387331
O O22 0.000000 0.825233 0.497199
#
# Coordination Sequence:
#
# PCOD9415105 Si02
#       8
#     8   8   8   8   8   8   8   8
#     4   8  16  29  42  58  81 109 140 172 207 248
#     4  11  21  32  46  63  84 112 145 180 217 252
#     4  10  19  29  42  61  85 113 144 175 207 249
#     4  10  19  29  43  62  83 109 142 177 212 251
#     4  10  20  32  44  61  84 110 142 178 214 250
#     4   9  17  29  44  62  84 111 143 176 210 250
#     4  10  19  31  45  62  86 114 145 178 212 252
#     4  10  19  29  43  63  87 115 144 176 213 250
#
# _framework density 14.306749
#
# number of rings (size 3 to 8) (size 9 to 14) (size 15 to 20)
#    0.000    2.250    0.000    5.625    0.000   10.750 
#    0.000    0.000    0.000    0.000    0.000    0.000 
#    0.000    1.000    0.000    7.000    0.000    6.125 
#
# Total GULP energy -356868.981895 kJ/mol
# GULP energy per Si atom -5576.077842 kJ/mol
# Density = 1.427419 g / cm^3
# Si number density = 14.306749 Si / 1000 Ang^3
#
#
#
# Elastic Constant Matrix: (Units=GPa)
#
#
# Indices 1 2 3 4 5 6 
#
# 1 85.5491 57.0431 52.4550 0.0000 0.0000 0.0000
# 2 57.0431 119.2829 56.2897 0.0000 0.0000 0.0000
# 3 52.4550 56.2897 78.2119 0.0000 0.0000 0.0000
# 4 0.0000 0.0000 0.0000 24.7465 0.0000 0.0000
# 5 0.0000 0.0000 0.0000 0.0000 19.7275 0.0000
# 6 0.0000 0.0000 0.0000 0.0000 0.0000 25.5031
#
#
#
# Elastic Compliance Matrix: (Units=1/GPa)
#
#
# Indices 1 2 3 4 5 6 
#
# 1 0.021908 -0.005365 -0.010832 0.000000 0.000000 0.000000
# 2 -0.005365 0.014009 -0.006484 0.000000 0.000000 0.000000
# 3 -0.010832 -0.006484 0.024717 0.000000 0.000000 0.000000
# 4 0.000000 0.000000 0.000000 0.040410 0.000000 0.000000
# 5 0.000000 0.000000 0.000000 0.000000 0.050691 0.000000
# 6 0.000000 0.000000 0.000000 0.000000 0.000000 0.039211
#
#
# Mechanical properties :
#
#
# Convention : Reuss Voigt Hill
#
# Bulk Modulus (GPa) = 65.47969 68.29104 66.88536
# Shear Modulus (GPa) = 20.71256 21.81249 21.26252
#
# Velocity S-wave (km/s) = 3.80906 3.90889 3.85929
# Velocity P-wave (km/s) = 8.07545 8.25891 8.16770
#
# Compressibility (1/GPa) = 0.01527191
#
# Stress axis : x y z
#
# Youngs Moduli (GPa) = 45.64448 71.38253 40.45775
#
# Poissons Ratio (x) = 0.38299 0.43824
# Poissons Ratio (y) = 0.24490 0.26233
# Poissons Ratio (z) = 0.49442 0.46284
#
# Static dielectric constant tensor:
#      x y z
#    x 1.478460 0.000000 0.000000 
#    y 0.000000 1.468980 0.000000 
#    z 0.000000 0.000000 1.452830 
# 
# From -- ./inp_files/34465.got.cif
#   From: 2010.05.17/outbox.cif.g08.bks.cpg/sg53_18_cif.got.tgz:34465.got - 2010.06.03 12:45:16.
