data_PCOD9415743
_publ_section_title
;
Structure prediction by ZEFSAII (Michael W. Deem and Ramdas Pophale) SiO2 
 PCOD9415743
Probable space group: P M N A
;
_chemical_formula_sum "Si O2"
_cell_formula_units_Z 56
_cell_length_a 15.000226
_cell_length_b 8.847703
_cell_length_c 21.491150
_cell_angle_alpha 90.000000
_cell_angle_beta 90.000000
_cell_angle_gamma 90.000000
_cell_volume 2852.252658
_symmetry_space_group_name_H-M "P M N A"
_symmetry_group_IT_number 53
_symmetry_cell_setting 'orthorhombic'
loop_
_space_group_symop_operation_xyz
x,y,z
1/2-x,-y,1/2+z
x,-y,-z
1/2-x,y,1/2-z
-x,-y,-z
1/2+x,y,1/2-z
-x,y,z
1/2+x,-y,1/2+z
loop_
_atom_site_type_symbol
_atom_site_label
_atom_site_fract_x
_atom_site_fract_y
_atom_site_fract_z
Si Si1 0.602634 0.835927 0.644503
Si Si2 0.157578 0.679595 0.382328
Si Si3 0.725916 0.661120 0.890874
Si Si4 0.400940 0.629495 0.253737
Si Si5 0.710562 0.894784 0.314848
Si Si6 0.896754 0.694288 0.725280
Si Si7 0.398948 0.820047 0.990962
O O1 0.500000 0.826849 0.622385
O O2 0.672154 0.717429 0.614329
O O3 0.600050 0.811457 0.719204
O O4 0.649255 0.998600 0.643234
O O5 0.210186 0.520686 0.393326
O O6 0.099430 0.652301 0.320587
O O7 0.217130 0.820830 0.360124
O O8 0.106911 0.732440 0.443490
O O9 0.671956 0.719959 0.829826
O O10 0.674462 0.742470 0.947273
O O11 0.500000 0.637825 0.278973
O O12 0.342406 0.752306 0.287130
O O13 0.366910 0.459780 0.259864
O O14 0.750000 0.965140 0.250000
O O15 0.000000 0.673817 0.702880
O O16 0.500000 0.802923 0.965378
O O17 0.383490 0.000000 0.000000
#
# Coordination Sequence:
#
# PCOD9415743 Si02
#       7
#     8   8   8   8   8   8   8
#     4  11  22  35  54  80 112 149 189 232 281 334
#     4  10  21  36  57  82 110 148 188 229 278 328
#     4  11  21  37  59  81 113 149 189 234 276 326
#     4   9  17  31  52  80 114 146 182 225 270 329
#     4  10  19  32  52  79 111 148 186 228 280 330
#     4   9  18  32  53  83 114 147 184 225 277 333
#     4  11  24  40  60  87 117 147 179 220 274 334
#
# _framework density 19.633603999999998
#
# number of rings (size 3 to 8) (size 9 to 14) (size 15 to 20)
#    0.000    1.857    0.000    4.714    0.000    5.714 
#    0.000    3.571    0.000    6.429    0.000    0.000 
#    0.000    0.000    0.000    0.000    0.000    0.000 
#
# Total GULP energy -312249.945643 kJ/mol
# GULP energy per Si atom -5575.891886 kJ/mol
# Density = 1.958892 g / cm^3
# Si number density = 19.633604 Si / 1000 Ang^3
#
#
#
# Elastic Constant Matrix: (Units=GPa)
#
#
# Indices 1 2 3 4 5 6 
#
# 1 112.0073 31.6199 15.4313 0.0000 0.0000 0.0000
# 2 31.6199 58.4655 5.3544 0.0000 0.0000 0.0000
# 3 15.4313 5.3544 35.3594 0.0000 0.0000 0.0000
# 4 0.0000 0.0000 0.0000 14.6085 0.0000 0.0000
# 5 0.0000 0.0000 0.0000 0.0000 23.7437 0.0000
# 6 0.0000 0.0000 0.0000 0.0000 0.0000 18.4289
#
#
#
# Elastic Compliance Matrix: (Units=1/GPa)
#
#
# Indices 1 2 3 4 5 6 
#
# 1 0.011062 -0.005618 -0.003977 0.000000 0.000000 0.000000
# 2 -0.005618 0.020198 -0.000607 0.000000 0.000000 0.000000
# 3 -0.003977 -0.000607 0.030108 0.000000 0.000000 0.000000
# 4 0.000000 0.000000 0.000000 0.068453 0.000000 0.000000
# 5 0.000000 0.000000 0.000000 0.000000 0.042116 0.000000
# 6 0.000000 0.000000 0.000000 0.000000 0.000000 0.054263
#
#
# Mechanical properties :
#
#
# Convention : Reuss Voigt Hill
#
# Bulk Modulus (GPa) = 24.41109 34.51591 29.46350
# Shear Modulus (GPa) = 19.21159 21.58467 20.39813
#
# Velocity S-wave (km/s) = 3.13150 3.31928 3.22676
# Velocity P-wave (km/s) = 5.05325 5.68404 5.37790
#
# Compressibility (1/GPa) = 0.04096499
#
# Stress axis : x y z
#
# Youngs Moduli (GPa) = 90.39987 49.50921 33.21328
#
# Poissons Ratio (x) = 0.27816 0.13208
# Poissons Ratio (y) = 0.50791 0.02015
# Poissons Ratio (z) = 0.35950 0.03003
#
# Static dielectric constant tensor:
#      x y z
#    x 1.713260 0.000000 0.000000 
#    y 0.000000 1.718560 0.000000 
#    z 0.000000 0.000000 1.682830 
# 
# From -- ./inp_files/32449.got.cif
#   From: 2010.05.17/outbox.cif.g08.bks.cpg/sg53_17_cif.got.tgz:32449.got - 2010.06.03 12:45:16.
