data_PCOD9415444
_publ_section_title
;
Structure prediction by ZEFSAII (Michael W. Deem and Ramdas Pophale) SiO2 
 PCOD9415444
Probable space group: P M N A
;
_chemical_formula_sum "Si O2"
_cell_formula_units_Z 56
_cell_length_a 9.475319
_cell_length_b 15.079384
_cell_length_c 21.137901
_cell_angle_alpha 90.000000
_cell_angle_beta 90.000000
_cell_angle_gamma 90.000000
_cell_volume 3020.225015
_symmetry_space_group_name_H-M "P M N A"
_symmetry_group_IT_number 53
_symmetry_cell_setting 'orthorhombic'
loop_
_space_group_symop_operation_xyz
x,y,z
1/2-x,-y,1/2+z
x,-y,-z
1/2-x,y,1/2-z
-x,-y,-z
1/2+x,y,1/2-z
-x,y,z
1/2+x,-y,1/2+z
loop_
_atom_site_type_symbol
_atom_site_label
_atom_site_fract_x
_atom_site_fract_y
_atom_site_fract_z
Si Si1 0.663510 0.280870 0.995094
Si Si2 0.164074 0.458151 0.569733
Si Si3 0.159291 0.155475 0.309995
Si Si4 0.670569 0.920291 0.046426
Si Si5 0.338463 0.942324 0.188680
Si Si6 0.836709 0.277309 0.113110
Si Si7 0.333399 0.542689 0.685041
O O1 0.500000 0.285301 0.017725
O O2 0.673829 0.351739 0.938729
O O3 0.695249 0.178876 0.978701
O O4 0.771836 0.312171 0.048258
O O5 0.194435 0.500000 0.500000
O O6 0.263258 0.491722 0.625780
O O7 0.000000 0.481557 0.583691
O O8 0.250000 0.183813 0.250000
O O9 0.241207 0.193486 0.369461
O O10 0.000000 0.189574 0.307417
O O11 0.155002 0.049477 0.309827
O O12 0.500000 0.932198 0.050768
O O13 0.722685 0.922763 0.119035
O O14 0.720953 0.000000 0.000000
O O15 0.250000 0.913234 0.250000
O O16 0.500000 0.908914 0.192875
O O17 0.821632 0.353647 0.165503
O O18 0.000000 0.253564 0.107564
O O19 0.250000 0.525896 0.750000
O O20 0.500000 0.522200 0.691137
#
# Coordination Sequence:
#
# PCOD9415444 Si02
#       7
#     8   8   8   8   8   8   8
#     4  10  20  35  58  83 108 146 189 230 279 335
#     4  10  20  37  60  85 113 148 189 231 277 335
#     4  10  19  31  49  73 104 142 182 225 277 336
#     4   9  17  32  55  83 112 144 188 235 277 327
#     4   9  18  33  53  76 104 142 186 231 279 336
#     4  11  22  34  51  79 112 145 182 228 282 342
#     4  11  24  39  58  83 114 151 189 236 288 340
#
# _framework density 18.541665999999999
#
# number of rings (size 3 to 8) (size 9 to 14) (size 15 to 20)
#    0.000    2.000    1.429    2.571    0.000    6.571 
#    0.000    1.429    0.000    3.429    0.000    0.000 
#    0.000    0.000    0.000    0.000    0.000    0.000 
#
# Total GULP energy -312228.959512 kJ/mol
# GULP energy per Si atom -5575.517134 kJ/mol
# Density = 1.849946 g / cm^3
# Si number density = 18.541666 Si / 1000 Ang^3
#
#
#
# Elastic Constant Matrix: (Units=GPa)
#
#
# Indices 1 2 3 4 5 6 
#
# 1 109.3129 28.7883 66.5402 0.0000 0.0000 0.0000
# 2 28.7883 57.1162 25.7347 0.0000 0.0000 0.0000
# 3 66.5402 25.7347 127.4315 0.0000 0.0000 0.0000
# 4 0.0000 0.0000 0.0000 26.0335 0.0000 0.0000
# 5 0.0000 0.0000 0.0000 0.0000 32.2558 0.0000
# 6 0.0000 0.0000 0.0000 0.0000 0.0000 15.3557
#
#
#
# Elastic Compliance Matrix: (Units=1/GPa)
#
#
# Indices 1 2 3 4 5 6 
#
# 1 0.014280 -0.004222 -0.006604 0.000000 0.000000 0.000000
# 2 -0.004222 0.020509 -0.001937 0.000000 0.000000 0.000000
# 3 -0.006604 -0.001937 0.011687 0.000000 0.000000 0.000000
# 4 0.000000 0.000000 0.000000 0.038412 0.000000 0.000000
# 5 0.000000 0.000000 0.000000 0.000000 0.031002 0.000000
# 6 0.000000 0.000000 0.000000 0.000000 0.000000 0.065123
#
#
# Mechanical properties :
#
#
# Convention : Reuss Voigt Hill
#
# Bulk Modulus (GPa) = 47.73339 59.55411 53.64375
# Shear Modulus (GPa) = 23.41686 26.24883 24.83284
#
# Velocity S-wave (km/s) = 3.55763 3.76662 3.66361
# Velocity P-wave (km/s) = 6.53264 7.14880 6.84765
#
# Compressibility (1/GPa) = 0.02094969
#
# Stress axis : x y z
#
# Youngs Moduli (GPa) = 70.02938 48.75900 85.56657
#
# Poissons Ratio (x) = 0.20586 0.56506
# Poissons Ratio (y) = 0.29566 0.16576
# Poissons Ratio (z) = 0.46246 0.09446
#
# Static dielectric constant tensor:
#      x y z
#    x 1.625850 0.000000 0.000000 
#    y 0.000000 1.655810 0.000000 
#    z 0.000000 0.000000 1.692250 
# 
# From -- ./inp_files/30748.got.cif
#   From: 2010.05.17/outbox.cif.g08.bks.cpg/sg53_16_cif.got.tgz:30748.got - 2010.06.03 12:45:16.
