data_PCOD9415159
_publ_section_title
;
Structure prediction by ZEFSAII (Michael W. Deem and Ramdas Pophale) SiO2 
 PCOD9415159
Probable space group: P M N A
;
_chemical_formula_sum "Si O2"
_cell_formula_units_Z 64
_cell_length_a 8.968165
_cell_length_b 17.346667
_cell_length_c 27.375507
_cell_angle_alpha 90.000000
_cell_angle_beta 90.000000
_cell_angle_gamma 90.000000
_cell_volume 4258.746627
_symmetry_space_group_name_H-M "P M N A"
_symmetry_group_IT_number 53
_symmetry_cell_setting 'orthorhombic'
loop_
_space_group_symop_operation_xyz
x,y,z
1/2-x,-y,1/2+z
x,-y,-z
1/2-x,y,1/2-z
-x,-y,-z
1/2+x,y,1/2-z
-x,y,z
1/2+x,-y,1/2+z
loop_
_atom_site_type_symbol
_atom_site_label
_atom_site_fract_x
_atom_site_fract_y
_atom_site_fract_z
Si Si1 0.821815 0.588821 0.196822
Si Si2 0.822036 0.351406 0.058355
Si Si3 0.824762 0.390926 0.541932
Si Si4 0.179613 0.178630 0.028028
Si Si5 0.178057 0.278933 0.879446
Si Si6 0.177040 0.860798 0.423148
Si Si7 0.328518 0.984501 0.558545
Si Si8 0.825372 0.525635 0.620318
O O1 0.750000 0.589081 0.250000
O O2 0.789053 0.668763 0.167909
O O3 0.755593 0.519744 0.163920
O O4 0.000000 0.581059 0.199697
O O5 0.785653 0.260801 0.051955
O O6 0.748669 0.394488 0.104095
O O7 0.000000 0.359659 0.060317
O O8 0.758938 0.390832 0.009252
O O9 0.749399 0.326088 0.575606
O O10 0.812827 0.468824 0.573323
O O11 0.000000 0.374788 0.534250
O O12 0.000000 0.175363 0.019239
O O13 0.217551 0.104859 0.061715
O O14 0.259875 0.167415 0.975954
O O15 0.249551 0.194751 0.882846
O O16 0.000000 0.274433 0.885531
O O17 0.227980 0.949486 0.418096
O O18 0.000000 0.853843 0.422681
O O19 0.500000 0.993555 0.574745
O O20 0.326452 0.000000 0.500000
O O21 0.000000 0.534759 0.631289
#
# Coordination Sequence:
#
# PCOD9415159 Si02
#       8
#     8   8   8   8   8   8   8   8
#     4  10  21  37  56  73  91 116 148 187 234 282
#     4  11  20  29  44  64  90 123 159 193 228 271
#     4  10  19  30  43  62  88 120 154 191 231 266
#     4   9  18  30  42  58  85 124 160 192 229 268
#     4  10  19  31  47  67  90 120 154 186 225 277
#     4  11  19  26  41  64  89 117 153 194 228 263
#     4   8  15  28  42  55  80 119 157 189 224 264
#     4  10  21  34  47  65  91 119 152 190 229 274
#
# _framework density 15.027894999999999
#
# number of rings (size 3 to 8) (size 9 to 14) (size 15 to 20)
#    0.000    2.125    1.250    4.125    0.000    7.250 
#    0.000    0.000    0.000    0.000    0.000    0.000 
#    0.000    1.000    0.000    6.500    0.000    4.875 
#
# Total GULP energy -356901.446693 kJ/mol
# GULP energy per Si atom -5576.585105 kJ/mol
# Density = 1.499369 g / cm^3
# Si number density = 15.027895 Si / 1000 Ang^3
#
#
#
# Elastic Constant Matrix: (Units=GPa)
#
#
# Indices 1 2 3 4 5 6 
#
# 1 80.1331 60.1627 39.4784 0.0000 0.0000 0.0000
# 2 60.1627 97.6243 50.1953 0.0000 0.0000 0.0000
# 3 39.4784 50.1953 65.2640 0.0000 0.0000 0.0000
# 4 0.0000 0.0000 0.0000 10.6584 0.0000 0.0000
# 5 0.0000 0.0000 0.0000 0.0000 19.7095 0.0000
# 6 0.0000 0.0000 0.0000 0.0000 0.0000 13.6934
#
#
#
# Elastic Compliance Matrix: (Units=1/GPa)
#
#
# Indices 1 2 3 4 5 6 
#
# 1 0.024268 -0.012253 -0.005256 0.000000 0.000000 0.000000
# 2 -0.012253 0.023131 -0.010378 0.000000 0.000000 0.000000
# 3 -0.005256 -0.010378 0.026483 0.000000 0.000000 0.000000
# 4 0.000000 0.000000 0.000000 0.093823 0.000000 0.000000
# 5 0.000000 0.000000 0.000000 0.000000 0.050737 0.000000
# 6 0.000000 0.000000 0.000000 0.000000 0.000000 0.073028
#
#
# Mechanical properties :
#
#
# Convention : Reuss Voigt Hill
#
# Bulk Modulus (GPa) = 55.22365 60.29933 57.76149
# Shear Modulus (GPa) = 14.15308 15.02461 14.58885
#
# Velocity S-wave (km/s) = 3.07219 3.16536 3.11912
# Velocity P-wave (km/s) = 7.02934 7.31925 7.17576
#
# Compressibility (1/GPa) = 0.01810818
#
# Stress axis : x y z
#
# Youngs Moduli (GPa) = 41.20635 43.23248 37.75947
#
# Poissons Ratio (x) = 0.52974 0.19845
# Poissons Ratio (y) = 0.50492 0.39187
# Poissons Ratio (z) = 0.21657 0.44867
#
# Static dielectric constant tensor:
#      x y z
#    x 1.498060 0.000000 0.000000 
#    y 0.000000 1.544260 0.000000 
#    z 0.000000 0.000000 1.462230 
# 
# From -- ./inp_files/34500.got.cif
#   From: 2010.05.17/outbox.cif.g08.bks.cpg/sg53_18_cif.got.tgz:34500.got - 2010.06.03 12:45:16.
