data_PCOD9415133
_publ_section_title
;
Structure prediction by ZEFSAII (Michael W. Deem and Ramdas Pophale) SiO2 
 PCOD9415133
Probable space group: P M N A
;
_chemical_formula_sum "Si O2"
_cell_formula_units_Z 64
_cell_length_a 7.352997
_cell_length_b 16.023800
_cell_length_c 25.206565
_cell_angle_alpha 90.000000
_cell_angle_beta 90.000000
_cell_angle_gamma 90.000000
_cell_volume 2969.911932
_symmetry_space_group_name_H-M "P M N A"
_symmetry_group_IT_number 53
_symmetry_cell_setting 'orthorhombic'
loop_
_space_group_symop_operation_xyz
x,y,z
1/2-x,-y,1/2+z
x,-y,-z
1/2-x,y,1/2-z
-x,-y,-z
1/2+x,y,1/2-z
-x,y,z
1/2+x,-y,1/2+z
loop_
_atom_site_type_symbol
_atom_site_label
_atom_site_fract_x
_atom_site_fract_y
_atom_site_fract_z
Si Si1 0.204883 0.095723 0.842502
Si Si2 0.217295 0.922476 0.809155
Si Si3 0.296033 0.252669 0.502208
Si Si4 0.276363 0.723227 0.381199
Si Si5 0.276853 0.772163 0.616556
Si Si6 0.283091 0.432868 0.687701
Si Si7 0.718739 0.928074 0.040570
Si Si8 0.216732 0.618149 0.812174
O O1 0.282490 0.188701 0.853983
O O2 0.202957 0.057486 0.901606
O O3 0.000000 0.109655 0.821845
O O4 0.290951 0.017906 0.811233
O O5 0.250000 0.887637 0.750000
O O6 0.282081 0.858644 0.855007
O O7 0.000000 0.929459 0.816013
O O8 0.500000 0.288319 0.496952
O O9 0.215739 0.287947 0.557439
O O10 0.214458 0.249142 0.443266
O O11 0.301128 0.155975 0.518051
O O12 0.500000 0.727804 0.383002
O O13 0.216959 0.644683 0.346651
O O14 0.500000 0.775808 0.614743
O O15 0.217866 0.695585 0.653596
O O16 0.250000 0.419047 0.750000
O O17 0.500000 0.434820 0.679903
O O18 0.212314 0.525481 0.674096
O O19 0.500000 0.919331 0.044835
O O20 0.760584 0.000000 0.000000
O O21 0.250000 0.631717 0.750000
O O22 0.000000 0.615618 0.819963
#
# Coordination Sequence:
#
# PCOD9415133 Si02
#       8
#     8   8   8   8   8   8   8   8
#     4   9  18  32  48  64  86 121 158 186 219 270
#     4  10  20  32  46  66  92 121 155 194 233 275
#     4   9  17  31  50  67  88 122 159 191 227 277
#     4   8  15  29  48  69  92 117 149 190 228 264
#     4   9  17  30  48  69  91 119 157 194 228 273
#     4   9  17  30  48  70  94 119 149 187 231 277
#     4  10  19  29  43  66  93 117 147 191 233 265
#     4   9  17  30  48  69  93 120 152 191 232 276
#
# _framework density 21.54946
#
# number of rings (size 3 to 8) (size 9 to 14) (size 15 to 20)
#    0.000    2.875    0.000    2.250    0.000    3.000 
#    0.000    4.375    0.000    3.750    0.000    0.000 
#    0.000    8.000    0.000    0.000    0.000    0.000 
#
# Total GULP energy -356660.247882 kJ/mol
# GULP energy per Si atom -5572.816373 kJ/mol
# Density = 2.150041 g / cm^3
# Si number density = 21.549460 Si / 1000 Ang^3
#
#
#
# Elastic Constant Matrix: (Units=GPa)
#
#
# Indices 1 2 3 4 5 6 
#
# 1 80.4817 3.1517 -5.0594 0.0000 0.0000 0.0000
# 2 3.1517 111.0760 81.3100 0.0000 0.0000 0.0000
# 3 -5.0594 81.3100 107.3143 0.0000 0.0000 0.0000
# 4 0.0000 0.0000 0.0000 40.9817 0.0000 0.0000
# 5 0.0000 0.0000 0.0000 0.0000 18.5036 0.0000
# 6 0.0000 0.0000 0.0000 0.0000 0.0000 -6.2833
#
#
#
# Elastic Compliance Matrix: (Units=1/GPa)
#
#
# Indices 1 2 3 4 5 6 
#
# 1 0.012617 -0.001782 0.001945 0.000000 0.000000 0.000000
# 2 -0.001782 0.020466 -0.015591 0.000000 0.000000 0.000000
# 3 0.001945 -0.015591 0.021223 0.000000 0.000000 0.000000
# 4 0.000000 0.000000 0.000000 0.024401 0.000000 0.000000
# 5 0.000000 0.000000 0.000000 0.000000 0.054043 0.000000
# 6 0.000000 0.000000 0.000000 0.000000 0.000000 -0.159153
#
#
# Mechanical properties :
#
#
# Convention : Reuss Voigt Hill
#
# Bulk Modulus (GPa) = 42.64213 50.85295 46.74754
# Shear Modulus (GPa) = 407.48378 25.27174 216.37776
#
# Velocity S-wave (km/s) = 13.76600 3.42823 10.03134
# Velocity P-wave (km/s) = 16.50762 6.27055 12.48642
#
# Compressibility (1/GPa) = 0.02345099
#
# Stress axis : x y z
#
# Youngs Moduli (GPa) = 79.25686 48.86088 47.11864
#
# Poissons Ratio (x) = 0.08705 -0.09163
# Poissons Ratio (y) = 0.14120 0.73462
# Poissons Ratio (z) = -0.15413 0.76178
#
# Static dielectric constant tensor:
#      x y z
#    x 1.841820 0.000000 0.000000 
#    y 0.000000 1.754000 0.000000 
#    z 0.000000 0.000000 1.745700 
# 
# From -- ./inp_files/34508.got.cif
#   From: 2010.05.17/outbox.cif.g08.bks.cpg/sg53_18_cif.got.tgz:34508.got - 2010.06.03 12:45:16.
