data_PCOD9415854
_publ_section_title
;
Structure prediction by ZEFSAII (Michael W. Deem and Ramdas Pophale) SiO2 
 PCOD9415854
Probable space group: P M N A
;
_chemical_formula_sum "Si O2"
_cell_formula_units_Z 48
_cell_length_a 19.255186
_cell_length_b 9.078274
_cell_length_c 13.661247
_cell_angle_alpha 90.000000
_cell_angle_beta 90.000000
_cell_angle_gamma 90.000000
_cell_volume 2388.038632
_symmetry_space_group_name_H-M "P M N A"
_symmetry_group_IT_number 53
_symmetry_cell_setting 'orthorhombic'
loop_
_space_group_symop_operation_xyz
x,y,z
1/2-x,-y,1/2+z
x,-y,-z
1/2-x,y,1/2-z
-x,-y,-z
1/2+x,y,1/2-z
-x,y,z
1/2+x,-y,1/2+z
loop_
_atom_site_type_symbol
_atom_site_label
_atom_site_fract_x
_atom_site_fract_y
_atom_site_fract_z
Si Si1 0.920454 0.865485 0.737480
Si Si2 0.575553 0.528168 0.791350
Si Si3 0.917225 0.834122 0.961755
Si Si4 0.862640 0.349957 0.861416
Si Si5 0.676488 0.119071 0.800734
Si Si6 0.707040 0.401098 0.903687
O O1 0.922982 0.702360 0.694789
O O2 0.895011 0.839806 0.848912
O O3 0.000000 0.923164 0.741871
O O4 0.870017 0.976766 0.682332
O O5 0.500000 0.472777 0.825387
O O6 0.585765 0.474582 0.679035
O O7 0.642647 0.466055 0.844277
O O8 0.000000 0.804388 0.964919
O O9 0.880196 0.717933 0.033182
O O10 0.905709 0.000000 0.000000
O O11 0.863609 0.216601 0.782123
O O12 0.784359 0.411697 0.859787
O O13 0.750000 0.081211 0.750000
O O14 0.691786 0.224752 0.893890
O O15 0.708773 0.500000 0.000000
#
# Coordination Sequence:
#
# PCOD9415854 Si02
#       6
#     8   8   8   8   8   8
#     4  10  21  36  57  88 120 154 193 242 302 361
#     4  10  22  39  60  85 117 157 201 251 308 363
#     4  10  19  32  56  90 124 155 192 236 294 367
#     4  10  20  37  58  87 121 157 198 243 303 368
#     4   9  19  37  57  80 113 155 199 237 294 365
#     4  10  23  41  60  85 115 155 207 258 304 358
#
# _framework density 20.100179000000001
#
# number of rings (size 3 to 8) (size 9 to 14) (size 15 to 20)
#    0.000    2.167    1.667    2.000    2.333    4.333 
#    0.000    3.333    0.000    2.000    0.000    0.000 
#    0.000    0.000    0.000    0.000    0.000    0.000 
#
# Total GULP energy -267485.197796 kJ/mol
# GULP energy per Si atom -5572.608287 kJ/mol
# Density = 2.005443 g / cm^3
# Si number density = 20.100179 Si / 1000 Ang^3
#
#
#
# Elastic Constant Matrix: (Units=GPa)
#
#
# Indices 1 2 3 4 5 6 
#
# 1 103.5849 52.8909 18.5349 0.0000 0.0000 0.0000
# 2 52.8909 75.4147 6.5557 0.0000 0.0000 0.0000
# 3 18.5349 6.5557 9.1275 0.0000 0.0000 0.0000
# 4 0.0000 0.0000 0.0000 35.0883 0.0000 0.0000
# 5 0.0000 0.0000 0.0000 0.0000 20.9424 0.0000
# 6 0.0000 0.0000 0.0000 0.0000 0.0000 24.0827
#
#
#
# Elastic Compliance Matrix: (Units=1/GPa)
#
#
# Indices 1 2 3 4 5 6 
#
# 1 0.022835 -0.012782 -0.037190 0.000000 0.000000 0.000000
# 2 -0.012782 0.021298 0.010659 0.000000 0.000000 0.000000
# 3 -0.037190 0.010659 0.177422 0.000000 0.000000 0.000000
# 4 0.000000 0.000000 0.000000 0.028500 0.000000 0.000000
# 5 0.000000 0.000000 0.000000 0.000000 0.047750 0.000000
# 6 0.000000 0.000000 0.000000 0.000000 0.000000 0.041524
#
#
# Mechanical properties :
#
#
# Convention : Reuss Voigt Hill
#
# Bulk Modulus (GPa) = 6.99644 38.23225 22.61435
# Shear Modulus (GPa) = 10.73892 23.36571 17.05232
#
# Velocity S-wave (km/s) = 2.31394 3.41319 2.91583
# Velocity P-wave (km/s) = 3.25997 5.88178 4.75514
#
# Compressibility (1/GPa) = 0.14292991
#
# Stress axis : x y z
#
# Youngs Moduli (GPa) = 43.79241 46.95289 5.63628
#
# Poissons Ratio (x) = 0.60016 0.20961
# Poissons Ratio (y) = 0.55976 -0.06008
# Poissons Ratio (z) = 1.62862 -0.50048
#
# Static dielectric constant tensor:
#      x y z
#    x 1.702070 0.000000 0.000000 
#    y 0.000000 1.747680 0.000000 
#    z 0.000000 0.000000 1.770950 
# 
# From -- ./inp_files/23593.got.cif
#   From: 2010.05.17/outbox.cif.g08.bks.cpg/sg53_12_cif.got.tgz:23593.got - 2010.06.03 12:45:16.
