data_PCOD9415240
_publ_section_title
;
Structure prediction by ZEFSAII (Michael W. Deem and Ramdas Pophale) SiO2 
 PCOD9415240
Probable space group: P M N A
;
_chemical_formula_sum "Si O2"
_cell_formula_units_Z 44
_cell_length_a 30.282996
_cell_length_b 16.511151
_cell_length_c 4.971186
_cell_angle_alpha 90.000000
_cell_angle_beta 90.000000
_cell_angle_gamma 90.000000
_cell_volume 2485.628393
_symmetry_space_group_name_H-M "P M N A"
_symmetry_group_IT_number 53
_symmetry_cell_setting 'orthorhombic'
loop_
_space_group_symop_operation_xyz
x,y,z
1/2-x,-y,1/2+z
x,-y,-z
1/2-x,y,1/2-z
-x,-y,-z
1/2+x,y,1/2-z
-x,y,z
1/2+x,-y,1/2+z
loop_
_atom_site_type_symbol
_atom_site_label
_atom_site_fract_x
_atom_site_fract_y
_atom_site_fract_z
Si Si1 0.051155 0.284294 0.931672
Si Si2 0.949627 0.058486 0.246711
Si Si3 0.839300 0.349364 0.338010
Si Si4 0.596388 0.784150 0.933149
Si Si5 0.750000 0.440837 0.250000
Si Si6 0.885991 0.583576 0.159022
O O1 0.078129 0.224096 0.735170
O O2 0.066658 0.373471 0.844478
O O3 0.000000 0.270909 0.895963
O O4 0.065925 0.271457 0.238551
O O5 0.914145 0.127712 0.314810
O O6 0.000000 0.092475 0.201856
O O7 0.952266 0.000000 0.500000
O O8 0.938503 0.000000 0.000000
O O9 0.855527 0.258661 0.416966
O O10 0.789770 0.382833 0.345237
O O11 0.866336 0.407556 0.543636
O O12 0.854904 0.361314 0.031686
O O13 0.737129 0.500000 0.500000
O O14 0.886666 0.500000 0.000000
#
# Coordination Sequence:
#
# PCOD9415240 Si02
#       6
#     8   8   8   8   4   8
#     4  10  19  30  47  67  91 131 169 198 236 281
#     4  10  19  30  48  74  99 126 162 203 244 284
#     4  10  21  34  50  72  95 129 161 196 255 303
#     4  10  20  34  49  68 100 131 162 200 243 300
#     4  12  22  34  56  80 102 124 162 212 256 300
#     4  10  19  32  47  66  96 126 161 203 242 287
#
# _framework density 17.701761000000001
#
# number of rings (size 3 to 8) (size 9 to 14) (size 15 to 20)
#    0.000    1.818    0.000    6.000    0.000    1.818 
#    0.000    0.000    0.000    6.545    0.000    1.273 
#    0.000    0.000    0.000    0.000    0.000    0.000 
#
# Total GULP energy -245152.125721 kJ/mol
# GULP energy per Si atom -5571.639221 kJ/mol
# Density = 1.766147 g / cm^3
# Si number density = 17.701761 Si / 1000 Ang^3
#
#
#
# Elastic Constant Matrix: (Units=GPa)
#
#
# Indices 1 2 3 4 5 6 
#
# 1 63.7209 44.6174 7.2003 0.0000 0.0000 0.0000
# 2 44.6174 95.5603 12.0768 0.0000 0.0000 0.0000
# 3 7.2003 12.0768 90.1173 0.0000 0.0000 0.0000
# 4 0.0000 0.0000 0.0000 25.1210 0.0000 0.0000
# 5 0.0000 0.0000 0.0000 0.0000 16.8806 0.0000
# 6 0.0000 0.0000 0.0000 0.0000 0.0000 21.6679
#
#
#
# Elastic Compliance Matrix: (Units=1/GPa)
#
#
# Indices 1 2 3 4 5 6 
#
# 1 0.023331 -0.010841 -0.000411 0.000000 0.000000 0.000000
# 2 -0.010841 0.015683 -0.001235 0.000000 0.000000 0.000000
# 3 -0.000411 -0.001235 0.011295 0.000000 0.000000 0.000000
# 4 0.000000 0.000000 0.000000 0.039807 0.000000 0.000000
# 5 0.000000 0.000000 0.000000 0.000000 0.059240 0.000000
# 6 0.000000 0.000000 0.000000 0.000000 0.000000 0.046151
#
#
# Mechanical properties :
#
#
# Convention : Reuss Voigt Hill
#
# Bulk Modulus (GPa) = 39.47482 41.90969 40.69225
# Shear Modulus (GPa) = 21.84103 25.10085 23.47094
#
# Velocity S-wave (km/s) = 3.51641 3.76970 3.64525
# Velocity P-wave (km/s) = 6.23179 6.53256 6.38395
#
# Compressibility (1/GPa) = 0.02533261
#
# Stress axis : x y z
#
# Youngs Moduli (GPa) = 42.86136 63.76500 88.53417
#
# Poissons Ratio (x) = 0.69130 0.03641
# Poissons Ratio (y) = 0.46468 0.10938
# Poissons Ratio (z) = 0.01763 0.07878
#
# Static dielectric constant tensor:
#      x y z
#    x 1.611820 0.000000 0.000000 
#    y 0.000000 1.653850 0.000000 
#    z 0.000000 0.000000 1.594930 
# 
# From -- ./inp_files/4406.got.cif
#   From: 2010.05.17/outbox.cif.g08.bks.cpg/sg53_3_cif.got.tgz:4406.got - 2010.06.03 12:45:16.
