data_PCOD9415162
_publ_section_title
;
Structure prediction by ZEFSAII (Michael W. Deem and Ramdas Pophale) SiO2 
 PCOD9415162
Probable space group: P M N A
;
_chemical_formula_sum "Si O2"
_cell_formula_units_Z 48
_cell_length_a 16.812637
_cell_length_b 5.071420
_cell_length_c 36.538473
_cell_angle_alpha 90.000000
_cell_angle_beta 90.000000
_cell_angle_gamma 90.000000
_cell_volume 3115.414299
_symmetry_space_group_name_H-M "P M N A"
_symmetry_group_IT_number 53
_symmetry_cell_setting 'orthorhombic'
loop_
_space_group_symop_operation_xyz
x,y,z
1/2-x,-y,1/2+z
x,-y,-z
1/2-x,y,1/2-z
-x,-y,-z
1/2+x,y,1/2-z
-x,y,z
1/2+x,-y,1/2+z
loop_
_atom_site_type_symbol
_atom_site_label
_atom_site_fract_x
_atom_site_fract_y
_atom_site_fract_z
Si Si1 0.908834 0.593739 0.724342
Si Si2 0.194053 0.894333 0.286425
Si Si3 0.095842 0.585571 0.960300
Si Si4 0.096108 0.914212 0.085753
Si Si5 0.911894 0.435159 0.809426
Si Si6 0.332756 0.064153 0.337287
O O1 0.871533 0.882324 0.721027
O O2 0.909399 0.510690 0.767007
O O3 0.000000 0.583236 0.711228
O O4 0.849702 0.381341 0.706460
O O5 0.250000 0.872800 0.250000
O O6 0.248158 0.986125 0.320353
O O7 0.113991 0.877622 0.946506
O O8 0.000000 0.573227 0.962841
O O9 0.116774 0.374281 0.929127
O O10 0.127429 0.500000 0.000000
O O11 0.146149 0.992720 0.121236
O O12 0.000000 0.926999 0.093449
O O13 0.851654 0.630883 0.829613
O O14 0.000000 0.487627 0.824300
O O15 0.891836 0.129448 0.814601
#
# Coordination Sequence:
#
# PCOD9415162 Si02
#       6
#     8   8   8   8   8   8
#     4  11  22  36  51  66  85 117 162 203 235 280
#     4  12  21  36  50  69  91 119 158 198 245 290
#     4   9  17  30  47  63  85 119 157 191 217 258
#     4  10  19  30  43  66  93 118 154 191 230 272
#     4  11  20  31  45  64  88 119 154 192 241 283
#     4  12  22  31  47  66  94 123 150 197 248 281
#
# _framework density 15.407261
#
# number of rings (size 3 to 8) (size 9 to 14) (size 15 to 20)
#    0.000    1.167    3.333    5.000    0.000    6.000 
#    0.000    0.000    0.000    0.000    0.000    0.000 
#    0.000    0.000    0.000    0.000    0.000   58.333 
#
# Total GULP energy -267949.259223 kJ/mol
# GULP energy per Si atom -5582.276234 kJ/mol
# Density = 1.537219 g / cm^3
# Si number density = 15.407261 Si / 1000 Ang^3
#
#
#
# Elastic Constant Matrix: (Units=GPa)
#
#
# Indices 1 2 3 4 5 6 
#
# 1 58.4548 5.1107 9.3234 0.0000 0.0000 0.0000
# 2 5.1107 46.6987 -16.7814 0.0000 0.0000 0.0000
# 3 9.3234 -16.7814 38.3147 0.0000 0.0000 0.0000
# 4 0.0000 0.0000 0.0000 10.4457 0.0000 0.0000
# 5 0.0000 0.0000 0.0000 0.0000 13.9034 0.0000
# 6 0.0000 0.0000 0.0000 0.0000 0.0000 19.8624
#
#
#
# Elastic Compliance Matrix: (Units=1/GPa)
#
#
# Indices 1 2 3 4 5 6 
#
# 1 0.018506 -0.004324 -0.006397 0.000000 0.000000 0.000000
# 2 -0.004324 0.026424 0.012626 0.000000 0.000000 0.000000
# 3 -0.006397 0.012626 0.033186 0.000000 0.000000 0.000000
# 4 0.000000 0.000000 0.000000 0.095733 0.000000 0.000000
# 5 0.000000 0.000000 0.000000 0.000000 0.071925 0.000000
# 6 0.000000 0.000000 0.000000 0.000000 0.000000 0.050346
#
#
# Mechanical properties :
#
#
# Convention : Reuss Voigt Hill
#
# Bulk Modulus (GPa) = 12.20624 15.41928 13.81276
# Shear Modulus (GPa) = 15.64364 18.56335 17.10350
#
# Velocity S-wave (km/s) = 3.18990 3.47485 3.33542
# Velocity P-wave (km/s) = 4.63755 5.11165 4.88036
#
# Compressibility (1/GPa) = 0.08192534
#
# Stress axis : x y z
#
# Youngs Moduli (GPa) = 54.03780 37.84412 30.13304
#
# Poissons Ratio (x) = 0.16364 0.19276
# Poissons Ratio (y) = 0.23366 -0.38045
# Poissons Ratio (z) = 0.34568 -0.47781
#
# Static dielectric constant tensor:
#      x y z
#    x 1.513050 0.000000 0.000000 
#    y 0.000000 1.530990 0.000000 
#    z 0.000000 0.000000 1.521050 
# 
# From -- ./inp_files/38814.got.cif
#   From: 2010.05.17/outbox.cif.g08.bks.cpg/sg53_20_cif.got.tgz:38814.got - 2010.06.03 12:45:16.
