data_PCOD9415012
_publ_section_title
;
Structure prediction by ZEFSAII (Michael W. Deem and Ramdas Pophale) SiO2 
 PCOD9415012
Probable space group: P M N A
;
_chemical_formula_sum "Si O2"
_cell_formula_units_Z 60
_cell_length_a 9.187190
_cell_length_b 12.013343
_cell_length_c 26.432047
_cell_angle_alpha 90.000000
_cell_angle_beta 90.000000
_cell_angle_gamma 90.000000
_cell_volume 2917.275018
_symmetry_space_group_name_H-M "P M N A"
_symmetry_group_IT_number 53
_symmetry_cell_setting 'orthorhombic'
loop_
_space_group_symop_operation_xyz
x,y,z
1/2-x,-y,1/2+z
x,-y,-z
1/2-x,y,1/2-z
-x,-y,-z
1/2+x,y,1/2-z
-x,y,z
1/2+x,-y,1/2+z
loop_
_atom_site_type_symbol
_atom_site_label
_atom_site_fract_x
_atom_site_fract_y
_atom_site_fract_z
Si Si1 0.750000 0.954935 0.750000
Si Si2 0.673239 0.415778 0.594841
Si Si3 0.173196 0.666108 0.931448
Si Si4 0.673690 0.229387 0.972902
Si Si5 0.672648 0.946700 0.410315
Si Si6 0.654786 0.856836 0.179216
Si Si7 0.831513 0.598709 0.299887
Si Si8 0.826474 0.836628 0.853358
O O1 0.787012 0.874706 0.796990
O O2 0.848959 0.046877 0.721318
O O3 0.500000 0.390473 0.595649
O O4 0.694000 0.534065 0.567293
O O5 0.762469 0.319438 0.566983
O O6 0.738271 0.429325 0.650725
O O7 0.214467 0.717861 0.876680
O O8 0.000000 0.686526 0.939772
O O9 0.263925 0.728922 0.973880
O O10 0.500000 0.227616 0.972443
O O11 0.741864 0.112113 0.955372
O O12 0.500000 0.944770 0.419778
O O13 0.713033 0.879161 0.358888
O O14 0.722852 0.069899 0.393973
O O15 0.500000 0.862463 0.150237
O O16 0.664949 0.733978 0.201575
O O17 0.750000 0.557163 0.250000
O O18 0.000000 0.561792 0.303197
O O19 0.000000 0.842496 0.853865
#
# Coordination Sequence:
#
# PCOD9415012 Si02
#       8
#     4   8   8   8   8   8   8   8
#     4  10  18  34  60  88 120 160 204 246 300 362
#     4  11  23  41  65  90 120 162 210 260 314 371
#     4  10  23  44  65  87 121 162 211 257 305 371
#     4  12  24  39  63  94 126 159 201 258 318 371
#     4  10  20  35  60  89 120 156 195 240 299 366
#     4  10  19  31  52  86 122 153 188 239 297 354
#     4  11  22  36  57  88 127 162 199 251 310 367
#     4   9  20  39  62  89 121 162 207 252 301 368
#
# _framework density 20.567139999999998
#
# number of rings (size 3 to 8) (size 9 to 14) (size 15 to 20)
#    0.000    1.600    2.000    3.200    0.000    4.267 
#    1.200    6.667    0.000    0.000    0.000    0.000 
#    0.000    0.000    0.000    0.000    0.000    0.000 
#
# Total GULP energy -334680.066907 kJ/mol
# GULP energy per Si atom -5578.001115 kJ/mol
# Density = 2.052033 g / cm^3
# Si number density = 20.567140 Si / 1000 Ang^3
#
#
#
# Elastic Constant Matrix: (Units=GPa)
#
#
# Indices 1 2 3 4 5 6 
#
# 1 69.3526 20.6678 17.9804 0.0000 0.0000 0.0000
# 2 20.6678 57.0823 15.5279 0.0000 0.0000 0.0000
# 3 17.9804 15.5279 85.4143 0.0000 0.0000 0.0000
# 4 0.0000 0.0000 0.0000 10.8268 0.0000 0.0000
# 5 0.0000 0.0000 0.0000 0.0000 22.7331 0.0000
# 6 0.0000 0.0000 0.0000 0.0000 0.0000 -1.6169
#
#
#
# Elastic Compliance Matrix: (Units=1/GPa)
#
#
# Indices 1 2 3 4 5 6 
#
# 1 0.016670 -0.005345 -0.002537 0.000000 0.000000 0.000000
# 2 -0.005345 0.020144 -0.002537 0.000000 0.000000 0.000000
# 3 -0.002537 -0.002537 0.012703 0.000000 0.000000 0.000000
# 4 0.000000 0.000000 0.000000 0.092363 0.000000 0.000000
# 5 0.000000 0.000000 0.000000 0.000000 0.043989 0.000000
# 6 0.000000 0.000000 0.000000 0.000000 0.000000 -0.618486
#
#
# Mechanical properties :
#
#
# Convention : Reuss Voigt Hill
#
# Bulk Modulus (GPa) = 34.87037 35.57793 35.22415
# Shear Modulus (GPa) = -12.43106 16.90015 2.23455
#
# Velocity S-wave (km/s) = -2.46115 2.86965 1.04347
# Velocity P-wave (km/s) = 2.98578 5.32126 4.31455
#
# Compressibility (1/GPa) = 0.02867764
#
# Stress axis : x y z
#
# Youngs Moduli (GPa) = 59.98828 49.64240 78.72181
#
# Poissons Ratio (x) = 0.26536 0.19975
# Poissons Ratio (y) = 0.32066 0.19970
# Poissons Ratio (z) = 0.15221 0.12593
#
# Static dielectric constant tensor:
#      x y z
#    x 1.734760 0.000000 0.000000 
#    y 0.000000 1.744690 0.000000 
#    z 0.000000 0.000000 1.762560 
# 
# From -- ./inp_files/36371.got.cif
#   From: 2010.05.17/outbox.cif.g08.bks.cpg/sg53_19_cif.got.tgz:36371.got - 2010.06.03 12:45:16.
