data_PCOD9415978
_publ_section_title
;
Structure prediction by ZEFSAII (Michael W. Deem and Ramdas Pophale) SiO2 
 PCOD9415978
Probable space group: P M N A
;
_chemical_formula_sum "Si O2"
_cell_formula_units_Z 52
_cell_length_a 15.219755
_cell_length_b 8.964346
_cell_length_c 20.693814
_cell_angle_alpha 90.000000
_cell_angle_beta 90.000000
_cell_angle_gamma 90.000000
_cell_volume 2823.363614
_symmetry_space_group_name_H-M "P M N A"
_symmetry_group_IT_number 53
_symmetry_cell_setting 'orthorhombic'
loop_
_space_group_symop_operation_xyz
x,y,z
1/2-x,-y,1/2+z
x,-y,-z
1/2-x,y,1/2-z
-x,-y,-z
1/2+x,y,1/2-z
-x,y,z
1/2+x,-y,1/2+z
loop_
_atom_site_type_symbol
_atom_site_label
_atom_site_fract_x
_atom_site_fract_y
_atom_site_fract_z
Si Si1 0.219721 0.036316 0.352495
Si Si2 0.593999 0.673362 0.331022
Si Si3 0.857052 0.500000 0.500000
Si Si4 0.341735 0.478980 0.218881
Si Si5 0.272834 0.696588 0.108348
Si Si6 0.594973 0.728229 0.891997
Si Si7 0.604592 0.008239 0.277938
O O1 0.177165 0.161147 0.398070
O O2 0.152687 0.030795 0.290933
O O3 0.319873 0.068589 0.328109
O O4 0.215610 0.873407 0.384947
O O5 0.500000 0.669176 0.362822
O O6 0.603684 0.545590 0.277572
O O7 0.671003 0.662072 0.381693
O O8 0.603716 0.831352 0.293973
O O9 0.805355 0.618124 0.455945
O O10 0.905158 0.396603 0.447617
O O11 0.250000 0.422865 0.250000
O O12 0.318181 0.614556 0.169929
O O13 0.389605 0.357146 0.175778
O O14 0.500000 0.805467 0.892021
O O15 0.500000 0.055838 0.280490
#
# Coordination Sequence:
#
# PCOD9415978 Si02
#       7
#     8   8   4   8   8   8   8
#     4  10  19  33  54  81 114 140 176 225 270 323
#     4   9  15  28  54  84 107 137 176 216 268 334
#     4  10  23  42  57  68 102 150 195 230 270 316
#     4   9  17  31  52  77 110 145 174 213 270 329
#     4   9  18  35  54  75 104 146 185 223 270 318
#     4  11  23  37  53  79 109 144 185 228 272 319
#     4   9  17  30  53  85 117 142 167 208 273 337
#
# _framework density 18.417748
#
# number of rings (size 3 to 8) (size 9 to 14) (size 15 to 20)
#    0.000    2.462    1.538    1.154    2.154    0.615 
#    0.000    3.462    0.000    0.923    0.000    4.308 
#    0.000    0.000    0.000    0.000    0.000    0.000 
#
# Total GULP energy -289591.347875 kJ/mol
# GULP energy per Si atom -5569.064382 kJ/mol
# Density = 1.837583 g / cm^3
# Si number density = 18.417748 Si / 1000 Ang^3
#
#
#
# Elastic Constant Matrix: (Units=GPa)
#
#
# Indices 1 2 3 4 5 6 
#
# 1 135.8515 37.7197 36.6978 0.0000 0.0000 0.0000
# 2 37.7197 64.1538 24.4754 0.0000 0.0000 0.0000
# 3 36.6978 24.4754 65.3906 0.0000 0.0000 0.0000
# 4 0.0000 0.0000 0.0000 20.5880 0.0000 0.0000
# 5 0.0000 0.0000 0.0000 0.0000 -0.6634 0.0000
# 6 0.0000 0.0000 0.0000 0.0000 0.0000 23.0899
#
#
#
# Elastic Compliance Matrix: (Units=1/GPa)
#
#
# Indices 1 2 3 4 5 6 
#
# 1 0.009542 -0.004162 -0.003798 0.000000 0.000000 0.000000
# 2 -0.004162 0.019999 -0.005150 0.000000 0.000000 0.000000
# 3 -0.003798 -0.005150 0.019352 0.000000 0.000000 0.000000
# 4 0.000000 0.000000 0.000000 0.048572 0.000000 0.000000
# 5 0.000000 0.000000 0.000000 0.000000 -1.507336 0.000000
# 6 0.000000 0.000000 0.000000 0.000000 0.000000 0.043309
#
#
# Mechanical properties :
#
#
# Convention : Reuss Voigt Hill
#
# Bulk Modulus (GPa) = 44.10222 51.46462 47.78342
# Shear Modulus (GPa) = -3.75154 19.70311 7.97578
#
# Velocity S-wave (km/s) = -1.42875 3.27431 2.08324
# Velocity P-wave (km/s) = 4.61256 6.50372 5.63800
#
# Compressibility (1/GPa) = 0.02267459
#
# Stress axis : x y z
#
# Youngs Moduli (GPa) = 104.79634 50.00194 51.67541
#
# Poissons Ratio (x) = 0.20809 0.19624
# Poissons Ratio (y) = 0.43613 0.26613
# Poissons Ratio (z) = 0.39797 0.25751
#
# Static dielectric constant tensor:
#      x y z
#    x 1.662220 0.000000 0.000000 
#    y 0.000000 1.652370 0.000000 
#    z 0.000000 0.000000 1.610980 
# 
# From -- ./inp_files/32364.got.cif
#   From: 2010.05.17/outbox.cif.g08.bks.cpg/sg53_17_cif.got.tgz:32364.got - 2010.06.03 12:45:16.
