data_PCOD9415843
_publ_section_title
;
Structure prediction by ZEFSAII (Michael W. Deem and Ramdas Pophale) SiO2 
 PCOD9415843
Probable space group: P M N A
;
_chemical_formula_sum "Si O2"
_cell_formula_units_Z 40
_cell_length_a 17.157034
_cell_length_b 7.549963
_cell_length_c 13.301660
_cell_angle_alpha 90.000000
_cell_angle_beta 90.000000
_cell_angle_gamma 90.000000
_cell_volume 1723.030154
_symmetry_space_group_name_H-M "P M N A"
_symmetry_group_IT_number 53
_symmetry_cell_setting 'orthorhombic'
loop_
_space_group_symop_operation_xyz
x,y,z
1/2-x,-y,1/2+z
x,-y,-z
1/2-x,y,1/2-z
-x,-y,-z
1/2+x,y,1/2-z
-x,y,z
1/2+x,-y,1/2+z
loop_
_atom_site_type_symbol
_atom_site_label
_atom_site_fract_x
_atom_site_fract_y
_atom_site_fract_z
Si Si1 0.407043 0.370564 0.227322
Si Si2 0.287612 0.673553 0.960183
Si Si3 0.916692 0.836752 0.422201
Si Si4 0.587252 0.232335 0.695365
Si Si5 0.813496 0.930173 0.838288
O O1 0.500000 0.353611 0.204520
O O2 0.350445 0.359349 0.130149
O O3 0.394852 0.563548 0.278576
O O4 0.377169 0.212747 0.298803
O O5 0.233433 0.829553 0.923974
O O6 0.244169 0.500000 0.000000
O O7 0.341558 0.727650 0.052329
O O8 0.914309 0.870855 0.303770
O O9 0.000000 0.742274 0.439121
O O10 0.915673 0.000000 0.500000
O O11 0.500000 0.226012 0.652994
O O12 0.647934 0.116548 0.634066
O O13 0.750000 0.960709 0.750000
#
# Coordination Sequence:
#
# PCOD9415843 Si02
#       5
#     8   8   8   8   8
#     4  10  20  36  60  85 112 155 201 242 282 340
#     4  11  21  36  55  87 128 155 188 237 309 362
#     4  10  19  32  54  86 119 152 192 238 292 350
#     4  10  20  36  59  82 110 154 201 243 284 336
#     4  10  22  36  53  83 123 158 189 232 290 356
#
# _framework density 23.214915999999999
#
# number of rings (size 3 to 8) (size 9 to 14) (size 15 to 20)
#    0.000    1.800    2.000    3.600    0.000    4.800 
#    3.600    0.000    0.000    2.400    0.000    2.800 
#    0.000    0.000    0.000    0.000    0.000    0.000 
#
# Total GULP energy -223541.953963 kJ/mol
# GULP energy per Si atom -5588.548849 kJ/mol
# Density = 2.316208 g / cm^3
# Si number density = 23.214916 Si / 1000 Ang^3
#
#
#
# Elastic Constant Matrix: (Units=GPa)
#
#
# Indices 1 2 3 4 5 6 
#
# 1 100.4023 71.1735 28.6479 0.0000 0.0000 0.0000
# 2 71.1735 111.2601 13.1853 0.0000 0.0000 0.0000
# 3 28.6479 13.1853 30.4659 0.0000 0.0000 0.0000
# 4 0.0000 0.0000 0.0000 30.3351 0.0000 0.0000
# 5 0.0000 0.0000 0.0000 0.0000 10.3027 0.0000
# 6 0.0000 0.0000 0.0000 0.0000 0.0000 58.5749
#
#
#
# Elastic Compliance Matrix: (Units=1/GPa)
#
#
# Indices 1 2 3 4 5 6 
#
# 1 0.024548 -0.013669 -0.017167 0.000000 0.000000 0.000000
# 2 -0.013669 0.017085 0.005459 0.000000 0.000000 0.000000
# 3 -0.017167 0.005459 0.046604 0.000000 0.000000 0.000000
# 4 0.000000 0.000000 0.000000 0.032965 0.000000 0.000000
# 5 0.000000 0.000000 0.000000 0.000000 0.097062 0.000000
# 6 0.000000 0.000000 0.000000 0.000000 0.000000 0.017072
#
#
# Mechanical properties :
#
#
# Convention : Reuss Voigt Hill
#
# Bulk Modulus (GPa) = 26.67911 52.01575 39.34743
# Shear Modulus (GPa) = 16.74563 28.45065 22.59814
#
# Velocity S-wave (km/s) = 2.68867 3.50456 3.12337
# Velocity P-wave (km/s) = 4.59954 6.23143 5.47661
#
# Compressibility (1/GPa) = 0.03748251
#
# Stress axis : x y z
#
# Youngs Moduli (GPa) = 40.73633 58.53044 21.45735
#
# Poissons Ratio (x) = 0.80005 0.36837
# Poissons Ratio (y) = 0.55683 -0.11714
# Poissons Ratio (z) = 0.69934 -0.31953
#
# Static dielectric constant tensor:
#      x y z
#    x 1.883330 0.000000 0.000000 
#    y 0.000000 1.929950 0.000000 
#    z 0.000000 0.000000 1.894920 
# 
# From -- ./inp_files/22385.got.cif
#   From: 2010.05.17/outbox.cif.g08.bks.cpg/sg53_12_cif.got.tgz:22385.got - 2010.06.03 12:45:16.
