data_PCOD9415633
_publ_section_title
;
Structure prediction by ZEFSAII (Michael W. Deem and Ramdas Pophale) SiO2 
 PCOD9415633
Probable space group: P M N A
;
_chemical_formula_sum "Si O2"
_cell_formula_units_Z 64
_cell_length_a 8.700225
_cell_length_b 15.180498
_cell_length_c 30.468705
_cell_angle_alpha 90.000000
_cell_angle_beta 90.000000
_cell_angle_gamma 90.000000
_cell_volume 4024.116073
_symmetry_space_group_name_H-M "P M N A"
_symmetry_group_IT_number 53
_symmetry_cell_setting 'orthorhombic'
loop_
_space_group_symop_operation_xyz
x,y,z
1/2-x,-y,1/2+z
x,-y,-z
1/2-x,y,1/2-z
-x,-y,-z
1/2+x,y,1/2-z
-x,y,z
1/2+x,-y,1/2+z
loop_
_atom_site_type_symbol
_atom_site_label
_atom_site_fract_x
_atom_site_fract_y
_atom_site_fract_z
Si Si1 0.182936 0.452199 0.562162
Si Si2 0.815920 0.992779 0.296575
Si Si3 0.816638 0.375762 0.028576
Si Si4 0.684277 0.785279 0.203152
Si Si5 0.685785 0.965181 0.892884
Si Si6 0.815901 0.182816 0.462419
Si Si7 0.816038 0.133026 0.944521
Si Si8 0.183537 0.699547 0.116575
O O1 0.243324 0.403744 0.518072
O O2 0.259142 0.548549 0.561627
O O3 0.235821 0.389923 0.601512
O O4 0.000000 0.460273 0.560120
O O5 0.750000 0.024137 0.250000
O O6 0.775276 0.889112 0.301619
O O7 0.000000 0.998520 0.293880
O O8 0.765498 0.038563 0.341873
O O9 0.760503 0.278598 0.040475
O O10 0.000000 0.377984 0.024412
O O11 0.750000 0.756254 0.250000
O O12 0.500000 0.778007 0.202074
O O13 0.758528 0.732412 0.163452
O O14 0.500000 0.975030 0.893552
O O15 0.725347 0.879957 0.921691
O O16 0.756402 0.050552 0.916533
O O17 0.759936 0.138038 0.507653
O O18 0.000000 0.192425 0.463885
O O19 0.778101 0.222752 0.918206
O O20 0.000000 0.128156 0.949183
O O21 0.000000 0.688553 0.116190
#
# Coordination Sequence:
#
# PCOD9415633 Si02
#       8
#     8   8   8   8   8   8   8   8
#     4  11  21  34  54  76  99 131 169 206 251 305
#     4   9  18  32  50  71  97 127 165 209 255 298
#     4  11  21  35  52  73 102 131 165 212 257 297
#     4  10  19  32  51  73 101 134 171 212 257 307
#     4  10  21  36  51  71 100 137 175 212 252 303
#     4  11  22  35  52  71  99 138 178 214 253 301
#     4  11  22  33  48  71 103 138 175 213 250 296
#     4  11  21  33  50  75 105 137 172 210 254 303
#
# _framework density 15.904113000000001
#
# number of rings (size 3 to 8) (size 9 to 14) (size 15 to 20)
#    0.000    1.500    2.500    4.875    0.000    4.500 
#    0.000    0.000    0.000    0.000    0.000    0.875 
#    0.000    2.000    0.000    0.000    0.000    0.000 
#
# Total GULP energy -357424.893878 kJ/mol
# GULP energy per Si atom -5584.763967 kJ/mol
# Density = 1.586791 g / cm^3
# Si number density = 15.904113 Si / 1000 Ang^3
#
#
#
# Elastic Constant Matrix: (Units=GPa)
#
#
# Indices 1 2 3 4 5 6 
#
# 1 47.8883 23.0087 30.5284 0.0000 0.0000 0.0000
# 2 23.0087 68.9137 46.6420 0.0000 0.0000 0.0000
# 3 30.5284 46.6420 130.3691 0.0000 0.0000 0.0000
# 4 0.0000 0.0000 0.0000 19.8955 0.0000 0.0000
# 5 0.0000 0.0000 0.0000 0.0000 24.8808 0.0000
# 6 0.0000 0.0000 0.0000 0.0000 0.0000 25.0454
#
#
#
# Elastic Compliance Matrix: (Units=1/GPa)
#
#
# Indices 1 2 3 4 5 6 
#
# 1 0.026356 -0.006099 -0.003990 0.000000 0.000000 0.000000
# 2 -0.006099 0.020559 -0.005927 0.000000 0.000000 0.000000
# 3 -0.003990 -0.005927 0.010725 0.000000 0.000000 0.000000
# 4 0.000000 0.000000 0.000000 0.050263 0.000000 0.000000
# 5 0.000000 0.000000 0.000000 0.000000 0.040192 0.000000
# 6 0.000000 0.000000 0.000000 0.000000 0.000000 0.039927
#
#
# Mechanical properties :
#
#
# Convention : Reuss Voigt Hill
#
# Bulk Modulus (GPa) = 39.05035 49.72548 44.38791
# Shear Modulus (GPa) = 21.87328 23.76382 22.81855
#
# Velocity S-wave (km/s) = 3.71256 3.86967 3.79193
# Velocity P-wave (km/s) = 6.55625 7.16237 6.86600
#
# Compressibility (1/GPa) = 0.02560797
#
# Stress axis : x y z
#
# Youngs Moduli (GPa) = 37.94237 48.64085 93.23791
#
# Poissons Ratio (x) = 0.29668 0.37198
# Poissons Ratio (y) = 0.23143 0.55262
# Poissons Ratio (z) = 0.15137 0.28830
#
# Static dielectric constant tensor:
#      x y z
#    x 1.532200 0.000000 0.000000 
#    y 0.000000 1.520870 0.000000 
#    z 0.000000 0.000000 1.532180 
# 
# From -- ./inp_files/38435.got.cif
#   From: 2010.05.17/outbox.cif.g08.bks.cpg/sg53_20_cif.got.tgz:38435.got - 2010.06.03 12:45:16.
