data_PCOD9415283
_publ_section_title
;
Structure prediction by ZEFSAII (Michael W. Deem and Ramdas Pophale) SiO2 
 PCOD9415283
Probable space group: P M N A
;
_chemical_formula_sum "Si O2"
_cell_formula_units_Z 56
_cell_length_a 8.713616
_cell_length_b 21.015211
_cell_length_c 15.990055
_cell_angle_alpha 90.000000
_cell_angle_beta 90.000000
_cell_angle_gamma 90.000000
_cell_volume 2928.074548
_symmetry_space_group_name_H-M "P M N A"
_symmetry_group_IT_number 53
_symmetry_cell_setting 'orthorhombic'
loop_
_space_group_symop_operation_xyz
x,y,z
1/2-x,-y,1/2+z
x,-y,-z
1/2-x,y,1/2-z
-x,-y,-z
1/2+x,y,1/2-z
-x,y,z
1/2+x,-y,1/2+z
loop_
_atom_site_type_symbol
_atom_site_label
_atom_site_fract_x
_atom_site_fract_y
_atom_site_fract_z
Si Si1 0.315735 0.735189 0.662543
Si Si2 0.684538 0.464414 0.160859
Si Si3 0.331210 0.928777 0.461244
Si Si4 0.815319 0.607029 0.158063
Si Si5 0.184838 0.642361 0.522580
Si Si6 0.186134 0.131473 0.388100
Si Si7 0.828721 0.006173 0.672826
O O1 0.250000 0.708088 0.750000
O O2 0.500000 0.735296 0.664680
O O3 0.254624 0.697783 0.581169
O O4 0.248133 0.806445 0.656310
O O5 0.750000 0.439494 0.250000
O O6 0.500000 0.470435 0.167930
O O7 0.759709 0.533696 0.150213
O O8 0.717122 0.420399 0.080097
O O9 0.500000 0.913825 0.426086
O O10 0.273800 0.875574 0.524166
O O11 0.192709 0.944241 0.400198
O O12 0.347162 0.000000 0.500000
O O13 0.750000 0.628857 0.250000
O O14 0.000000 0.610771 0.160332
O O15 0.752900 0.638868 0.071615
O O16 0.000000 0.648904 0.517047
O O17 0.000000 0.132541 0.395615
O O18 0.235417 0.064162 0.346329
O O19 0.750000 0.037275 0.750000
O O20 0.000000 0.993441 0.694824
#
# Coordination Sequence:
#
# PCOD9415283 Si02
#       7
#     8   8   8   8   8   8   8
#     4  12  25  40  58  82 112 148 189 230 277 332
#     4  10  20  34  55  83 116 151 186 228 279 335
#     4   9  17  30  49  73 101 133 170 213 261 313
#     4  11  22  37  59  85 113 146 186 232 281 334
#     4  11  23  39  58  82 114 150 189 234 283 333
#     4  10  20  35  54  76 105 141 180 221 266 318
#     4  10  19  30  48  75 106 139 175 217 266 318
#
# _framework density 19.125195999999999
#
# number of rings (size 3 to 8) (size 9 to 14) (size 15 to 20)
#    0.000    1.571    0.000    6.857    0.000    9.714 
#    0.000    0.000    0.000    0.857    0.000    6.000 
#    0.000    0.000    0.000    0.000    0.000    0.000 
#
# Total GULP energy -311891.249233 kJ/mol
# GULP energy per Si atom -5569.486593 kJ/mol
# Density = 1.908167 g / cm^3
# Si number density = 19.125196 Si / 1000 Ang^3
#
#
#
# Elastic Constant Matrix: (Units=GPa)
#
#
# Indices 1 2 3 4 5 6 
#
# 1 110.7767 18.3427 48.0397 0.0000 0.0000 0.0000
# 2 18.3427 47.0403 37.6947 0.0000 0.0000 0.0000
# 3 48.0397 37.6947 121.5280 0.0000 0.0000 0.0000
# 4 0.0000 0.0000 0.0000 18.6139 0.0000 0.0000
# 5 0.0000 0.0000 0.0000 0.0000 31.9391 0.0000
# 6 0.0000 0.0000 0.0000 0.0000 0.0000 19.2724
#
#
#
# Elastic Compliance Matrix: (Units=1/GPa)
#
#
# Indices 1 2 3 4 5 6 
#
# 1 0.010935 -0.001065 -0.003992 0.000000 0.000000 0.000000
# 2 -0.001065 0.028393 -0.008386 0.000000 0.000000 0.000000
# 3 -0.003992 -0.008386 0.012408 0.000000 0.000000 0.000000
# 4 0.000000 0.000000 0.000000 0.053723 0.000000 0.000000
# 5 0.000000 0.000000 0.000000 0.000000 0.031310 0.000000
# 6 0.000000 0.000000 0.000000 0.000000 0.000000 0.051888
#
#
# Mechanical properties :
#
#
# Convention : Reuss Voigt Hill
#
# Bulk Modulus (GPa) = 40.24137 54.16656 47.20396
# Shear Modulus (GPa) = 22.33881 25.64962 23.99421
#
# Velocity S-wave (km/s) = 3.42135 3.66613 3.54586
# Velocity P-wave (km/s) = 6.05758 6.80473 6.44199
#
# Compressibility (1/GPa) = 0.02485005
#
# Stress axis : x y z
#
# Youngs Moduli (GPa) = 91.45159 35.21939 80.59470
#
# Poissons Ratio (x) = 0.03750 0.32175
# Poissons Ratio (y) = 0.09738 0.67586
# Poissons Ratio (z) = 0.36509 0.29535
#
# Static dielectric constant tensor:
#      x y z
#    x 1.626490 0.000000 0.000000 
#    y 0.000000 1.642420 0.000000 
#    z 0.000000 0.000000 1.614570 
# 
# From -- ./inp_files/20570.got.cif
#   From: 2010.05.17/outbox.cif.g08.bks.cpg/sg53_11_cif.got.tgz:20570.got - 2010.06.03 12:45:16.
