data_PCOD9415789
_publ_section_title
;
Structure prediction by ZEFSAII (Michael W. Deem and Ramdas Pophale) SiO2 
 PCOD9415789
Probable space group: P M N A
;
_chemical_formula_sum "Si O2"
_cell_formula_units_Z 64
_cell_length_a 9.070530
_cell_length_b 21.297860
_cell_length_c 18.983302
_cell_angle_alpha 90.000000
_cell_angle_beta 90.000000
_cell_angle_gamma 90.000000
_cell_volume 3667.248916
_symmetry_space_group_name_H-M "P M N A"
_symmetry_group_IT_number 53
_symmetry_cell_setting 'orthorhombic'
loop_
_space_group_symop_operation_xyz
x,y,z
1/2-x,-y,1/2+z
x,-y,-z
1/2-x,y,1/2-z
-x,-y,-z
1/2+x,y,1/2-z
-x,y,z
1/2+x,-y,1/2+z
loop_
_atom_site_type_symbol
_atom_site_label
_atom_site_fract_x
_atom_site_fract_y
_atom_site_fract_z
Si Si1 0.323023 0.994692 0.581928
Si Si2 0.823955 0.569076 0.471944
Si Si3 0.824380 0.626516 0.322998
Si Si4 0.324997 0.745092 0.823864
Si Si5 0.674110 0.894189 0.823153
Si Si6 0.322449 0.883550 0.326508
Si Si7 0.175746 0.310327 0.038345
Si Si8 0.823199 0.748271 0.110267
O O1 0.500000 0.987460 0.587927
O O2 0.244839 0.935085 0.615808
O O3 0.286075 0.000000 0.500000
O O4 0.280730 0.057358 0.624861
O O5 0.787958 0.500000 0.500000
O O6 0.793620 0.580373 0.388965
O O7 0.735457 0.622207 0.513682
O O8 0.000000 0.579231 0.481821
O O9 0.750000 0.606891 0.250000
O O10 0.759247 0.694131 0.346099
O O11 0.000000 0.631250 0.314212
O O12 0.250000 0.726528 0.750000
O O13 0.500000 0.734134 0.820616
O O14 0.300068 0.819958 0.832811
O O15 0.254084 0.711110 0.890540
O O16 0.750000 0.913428 0.750000
O O17 0.500000 0.904871 0.818617
O O18 0.250000 0.888162 0.250000
O O19 0.500000 0.884228 0.319176
O O20 0.282219 0.817396 0.363116
O O21 0.000000 0.311464 0.047855
O O22 0.209095 0.264005 0.972251
O O23 0.000000 0.740290 0.119508
#
# Coordination Sequence:
#
# PCOD9415789 Si02
#       8
#     8   8   8   8   8   8   8   8
#     4  10  22  37  55  76 103 140 181 224 273 327
#     4   9  19  37  58  79 109 151 190 224 267 320
#     4  10  19  32  53  80 109 140 179 221 265 315
#     4  10  21  37  57  82 110 142 182 228 277 331
#     4  10  21  37  57  79 104 137 179 227 276 328
#     4  10  21  36  52  75 103 137 175 215 265 320
#     4  10  20  34  57  85 112 143 177 225 275 320
#     4   9  19  34  53  78 108 139 177 218 264 320
#
# _framework density 17.451775000000001
#
# number of rings (size 3 to 8) (size 9 to 14) (size 15 to 20)
#    0.000    2.250    0.000    2.250    1.750    6.000 
#    0.000    0.625    0.000    1.500    0.000    0.000 
#    0.000    0.000    0.000    0.000    0.000    0.000 
#
# Total GULP energy -357294.925228 kJ/mol
# GULP energy per Si atom -5582.733207 kJ/mol
# Density = 1.741205 g / cm^3
# Si number density = 17.451775 Si / 1000 Ang^3
#
#
#
# Elastic Constant Matrix: (Units=GPa)
#
#
# Indices 1 2 3 4 5 6 
#
# 1 51.9185 51.3120 77.4725 0.0000 0.0000 0.0000
# 2 51.3120 74.8533 82.9854 0.0000 0.0000 0.0000
# 3 77.4725 82.9854 176.9406 0.0000 0.0000 0.0000
# 4 0.0000 0.0000 0.0000 23.1543 0.0000 0.0000
# 5 0.0000 0.0000 0.0000 0.0000 34.0275 0.0000
# 6 0.0000 0.0000 0.0000 0.0000 0.0000 26.2920
#
#
#
# Elastic Compliance Matrix: (Units=1/GPa)
#
#
# Indices 1 2 3 4 5 6 
#
# 1 0.085071 -0.035459 -0.020618 0.000000 0.000000 0.000000
# 2 -0.035459 0.042609 -0.004458 0.000000 0.000000 0.000000
# 3 -0.020618 -0.004458 0.016770 0.000000 0.000000 0.000000
# 4 0.000000 0.000000 0.000000 0.043188 0.000000 0.000000
# 5 0.000000 0.000000 0.000000 0.000000 0.029388 0.000000
# 6 0.000000 0.000000 0.000000 0.000000 0.000000 0.038034
#
#
# Mechanical properties :
#
#
# Convention : Reuss Voigt Hill
#
# Bulk Modulus (GPa) = 42.77034 80.80579 61.78807
# Shear Modulus (GPa) = 13.02339 22.82428 17.92383
#
# Velocity S-wave (km/s) = 2.73472 3.62034 3.20824
# Velocity P-wave (km/s) = 5.87644 7.99241 7.01467
#
# Compressibility (1/GPa) = 0.02338069
#
# Stress axis : x y z
#
# Youngs Moduli (GPa) = 11.75484 23.46915 59.63033
#
# Poissons Ratio (x) = 0.83219 1.22945
# Poissons Ratio (y) = 0.41681 0.26585
# Poissons Ratio (z) = 0.24236 0.10463
#
# Static dielectric constant tensor:
#      x y z
#    x 1.581000 0.000000 0.000000 
#    y 0.000000 1.568750 0.000000 
#    z 0.000000 0.000000 1.566290 
# 
# From -- ./inp_files/26936.got.cif
#   From: 2010.05.17/outbox.cif.g08.bks.cpg/sg53_14_cif.got.tgz:26936.got - 2010.06.03 12:45:16.
