data_PCOD9415670
_publ_section_title
;
Structure prediction by ZEFSAII (Michael W. Deem and Ramdas Pophale) SiO2 
 PCOD9415670
Probable space group: P M N A
;
_chemical_formula_sum "Si O2"
_cell_formula_units_Z 40
_cell_length_a 26.208128
_cell_length_b 9.317415
_cell_length_c 8.332694
_cell_angle_alpha 90.000000
_cell_angle_beta 90.000000
_cell_angle_gamma 90.000000
_cell_volume 2034.777254
_symmetry_space_group_name_H-M "P M N A"
_symmetry_group_IT_number 53
_symmetry_cell_setting 'orthorhombic'
loop_
_space_group_symop_operation_xyz
x,y,z
1/2-x,-y,1/2+z
x,-y,-z
1/2-x,y,1/2-z
-x,-y,-z
1/2+x,y,1/2-z
-x,y,z
1/2+x,-y,1/2+z
loop_
_atom_site_type_symbol
_atom_site_label
_atom_site_fract_x
_atom_site_fract_y
_atom_site_fract_z
Si Si1 0.118554 0.687161 0.670248
Si Si2 0.693483 0.535792 0.312788
Si Si3 0.556906 0.534021 0.325923
Si Si4 0.939342 0.950375 0.815446
Si Si5 0.112414 0.772880 0.304084
O O1 0.170458 0.608507 0.727474
O O2 0.081966 0.550422 0.681465
O O3 0.119979 0.749671 0.492997
O O4 0.090104 0.799688 0.787766
O O5 0.695320 0.500000 0.500000
O O6 0.750000 0.564601 0.250000
O O7 0.657760 0.676249 0.276722
O O8 0.581231 0.500000 0.500000
O O9 0.500000 0.483055 0.338317
O O10 0.562956 0.697449 0.276924
O O11 0.901278 0.062460 0.727110
O O12 0.000000 0.943999 0.762842
O O13 0.940029 0.000000 0.000000
#
# Coordination Sequence:
#
# PCOD9415670 Si02
#       5
#     8   8   8   8   8
#     4  11  22  36  56  84 115 149 192 239 288 342
#     4  11  22  41  66  89 115 149 192 242 295 345
#     4  10  19  32  51  76 108 148 191 234 283 339
#     4  11  23  39  58  83 120 163 199 235 287 347
#     4  11  22  36  56  84 115 149 192 239 288 342
#
# _framework density 19.658170999999999
#
# number of rings (size 3 to 8) (size 9 to 14) (size 15 to 20)
#    0.000    1.200    0.000   10.200    0.000    8.000 
#    0.000    1.000    0.000    0.000    0.000    0.000 
#    0.000    0.000    0.000    0.000    0.000    0.000 
#
# Total GULP energy -222670.680422 kJ/mol
# GULP energy per Si atom -5566.767011 kJ/mol
# Density = 1.961343 g / cm^3
# Si number density = 19.658171 Si / 1000 Ang^3
#
#
#
# Elastic Constant Matrix: (Units=GPa)
#
#
# Indices 1 2 3 4 5 6 
#
# 1 118.6306 18.9535 26.0965 0.0000 0.0000 0.0000
# 2 18.9535 80.3819 0.2633 0.0000 0.0000 0.0000
# 3 26.0965 0.2633 88.3678 0.0000 0.0000 0.0000
# 4 0.0000 0.0000 0.0000 36.7942 0.0000 0.0000
# 5 0.0000 0.0000 0.0000 0.0000 17.4452 0.0000
# 6 0.0000 0.0000 0.0000 0.0000 0.0000 18.5795
#
#
#
# Elastic Compliance Matrix: (Units=1/GPa)
#
#
# Indices 1 2 3 4 5 6 
#
# 1 0.009390 -0.002205 -0.002767 0.000000 0.000000 0.000000
# 2 -0.002205 0.012959 0.000613 0.000000 0.000000 0.000000
# 3 -0.002767 0.000613 0.012132 0.000000 0.000000 0.000000
# 4 0.000000 0.000000 0.000000 0.027178 0.000000 0.000000
# 5 0.000000 0.000000 0.000000 0.000000 0.057322 0.000000
# 6 0.000000 0.000000 0.000000 0.000000 0.000000 0.053823
#
#
# Mechanical properties :
#
#
# Convention : Reuss Voigt Hill
#
# Bulk Modulus (GPa) = 38.81643 42.00078 40.40860
# Shear Modulus (GPa) = 26.30062 30.70158 28.50110
#
# Velocity S-wave (km/s) = 3.66170 3.95621 3.81180
# Velocity P-wave (km/s) = 6.13726 6.50237 6.32245
#
# Compressibility (1/GPa) = 0.02576229
#
# Stress axis : x y z
#
# Youngs Moduli (GPa) = 106.49134 77.16906 82.42986
#
# Poissons Ratio (x) = 0.17017 0.22805
# Poissons Ratio (y) = 0.23483 -0.05050
# Poissons Ratio (z) = 0.29462 -0.04727
#
# Static dielectric constant tensor:
#      x y z
#    x 1.735400 0.000000 0.000000 
#    y 0.000000 1.721480 0.000000 
#    z 0.000000 0.000000 1.756250 
# 
# From -- ./inp_files/12854.got.cif
#   From: 2010.05.17/outbox.cif.g08.bks.cpg/sg53_7_cif.got.tgz:12854.got - 2010.06.03 12:45:16.
