data_PCOD9415792
_publ_section_title
;
Structure prediction by ZEFSAII (Michael W. Deem and Ramdas Pophale) SiO2 
 PCOD9415792
Probable space group: P M N A
;
_chemical_formula_sum "Si O2"
_cell_formula_units_Z 56
_cell_length_a 9.198372
_cell_length_b 21.120881
_cell_length_c 15.435574
_cell_angle_alpha 90.000000
_cell_angle_beta 90.000000
_cell_angle_gamma 90.000000
_cell_volume 2998.788130
_symmetry_space_group_name_H-M "P M N A"
_symmetry_group_IT_number 53
_symmetry_cell_setting 'orthorhombic'
loop_
_space_group_symop_operation_xyz
x,y,z
1/2-x,-y,1/2+z
x,-y,-z
1/2-x,y,1/2-z
-x,-y,-z
1/2+x,y,1/2-z
-x,y,z
1/2+x,-y,1/2+z
loop_
_atom_site_type_symbol
_atom_site_label
_atom_site_fract_x
_atom_site_fract_y
_atom_site_fract_z
Si Si1 0.826506 0.650250 0.159175
Si Si2 0.327700 0.145504 0.023985
Si Si3 0.169683 0.494431 0.896335
Si Si4 0.172298 0.089246 0.665633
Si Si5 0.327243 0.617708 0.836183
Si Si6 0.665517 0.029848 0.403111
Si Si7 0.173891 0.290551 0.495540
O O1 0.750000 0.664667 0.250000
O O2 0.797669 0.576528 0.134730
O O3 0.000000 0.658523 0.164938
O O4 0.760080 0.691644 0.081868
O O5 0.500000 0.134806 0.038414
O O6 0.237304 0.098312 0.084474
O O7 0.294474 0.219224 0.034759
O O8 0.298795 0.127116 0.923353
O O9 0.270208 0.546881 0.853048
O O10 0.000000 0.508018 0.876249
O O11 0.187281 0.500000 0.000000
O O12 0.250000 0.117322 0.750000
O O13 0.000000 0.086623 0.678628
O O14 0.237781 0.019219 0.650565
O O15 0.250000 0.642457 0.750000
O O16 0.500000 0.618195 0.825438
O O17 0.289815 0.659917 0.919806
O O18 0.500000 0.032761 0.370809
O O19 0.661956 0.000000 0.500000
O O20 0.000000 0.294403 0.512473
#
# Coordination Sequence:
#
# PCOD9415792 Si02
#       7
#     8   8   8   8   8   8   8
#     4  11  23  38  58  83 115 151 188 235 287 345
#     4   9  19  36  56  77 107 146 184 224 273 327
#     4  10  20  37  60  86 114 144 184 235 291 345
#     4  10  19  32  53  80 110 142 177 222 273 325
#     4  11  23  38  60  85 112 147 189 238 290 344
#     4   9  17  31  52  78 105 134 173 216 259 313
#     4  10  22  40  59  82 113 152 196 238 283 339
#
# _framework density 18.674209999999999
#
# number of rings (size 3 to 8) (size 9 to 14) (size 15 to 20)
#    0.000    2.000    1.429    2.143    0.000    6.571 
#    0.000    2.143    0.000    1.714    0.000    0.000 
#    0.000    0.000    0.000    0.000    0.000    0.000 
#
# Total GULP energy -312761.052834 kJ/mol
# GULP energy per Si atom -5585.018801 kJ/mol
# Density = 1.863171 g / cm^3
# Si number density = 18.674210 Si / 1000 Ang^3
#
#
#
# Elastic Constant Matrix: (Units=GPa)
#
#
# Indices 1 2 3 4 5 6 
#
# 1 44.7454 16.4250 16.8565 0.0000 0.0000 0.0000
# 2 16.4250 60.5962 -9.3055 0.0000 0.0000 0.0000
# 3 16.8565 -9.3055 45.2588 0.0000 0.0000 0.0000
# 4 0.0000 0.0000 0.0000 7.2462 0.0000 0.0000
# 5 0.0000 0.0000 0.0000 0.0000 31.3785 0.0000
# 6 0.0000 0.0000 0.0000 0.0000 0.0000 21.0733
#
#
#
# Elastic Compliance Matrix: (Units=1/GPa)
#
#
# Indices 1 2 3 4 5 6 
#
# 1 0.031521 -0.010684 -0.013936 0.000000 0.000000 0.000000
# 2 -0.010684 0.020662 0.008227 0.000000 0.000000 0.000000
# 3 -0.013936 0.008227 0.028977 0.000000 0.000000 0.000000
# 4 0.000000 0.000000 0.000000 0.138003 0.000000 0.000000
# 5 0.000000 0.000000 0.000000 0.000000 0.031869 0.000000
# 6 0.000000 0.000000 0.000000 0.000000 0.000000 0.047453
#
#
# Mechanical properties :
#
#
# Convention : Reuss Voigt Hill
#
# Bulk Modulus (GPa) = 20.67221 22.06138 21.36680
# Shear Modulus (GPa) = 14.39278 20.38123 17.38700
#
# Velocity S-wave (km/s) = 2.77921 3.30723 3.05465
# Velocity P-wave (km/s) = 4.62522 5.14035 4.88957
#
# Compressibility (1/GPa) = 0.04837411
#
# Stress axis : x y z
#
# Youngs Moduli (GPa) = 31.72522 48.39776 34.50973
#
# Poissons Ratio (x) = 0.51708 0.48094
# Poissons Ratio (y) = 0.33895 -0.28393
# Poissons Ratio (z) = 0.44214 -0.39819
#
# Static dielectric constant tensor:
#      x y z
#    x 1.625170 0.000000 0.000000 
#    y 0.000000 1.623180 0.000000 
#    z 0.000000 0.000000 1.645340 
# 
# From -- ./inp_files/20597.got.cif
#   From: 2010.05.17/outbox.cif.g08.bks.cpg/sg53_11_cif.got.tgz:20597.got - 2010.06.03 12:45:16.
