data_PCOD9415773
_publ_section_title
;
Structure prediction by ZEFSAII (Michael W. Deem and Ramdas Pophale) SiO2 
 PCOD9415773
Probable space group: P M N A
;
_chemical_formula_sum "Si O2"
_cell_formula_units_Z 64
_cell_length_a 7.664219
_cell_length_b 14.946159
_cell_length_c 26.226291
_cell_angle_alpha 90.000000
_cell_angle_beta 90.000000
_cell_angle_gamma 90.000000
_cell_volume 3004.238308
_symmetry_space_group_name_H-M "P M N A"
_symmetry_group_IT_number 53
_symmetry_cell_setting 'orthorhombic'
loop_
_space_group_symop_operation_xyz
x,y,z
1/2-x,-y,1/2+z
x,-y,-z
1/2-x,y,1/2-z
-x,-y,-z
1/2+x,y,1/2-z
-x,y,z
1/2+x,-y,1/2+z
loop_
_atom_site_type_symbol
_atom_site_label
_atom_site_fract_x
_atom_site_fract_y
_atom_site_fract_z
Si Si1 0.790603 0.762450 0.691993
Si Si2 0.713803 0.594584 0.977570
Si Si3 0.291820 0.204327 0.690872
Si Si4 0.706965 0.587438 0.862047
Si Si5 0.286274 0.117110 0.098021
Si Si6 0.207025 0.595631 0.190851
Si Si7 0.704967 0.085664 0.903323
Si Si8 0.713168 0.786406 0.007232
O O1 0.750000 0.785604 0.750000
O O2 0.724792 0.663113 0.676596
O O3 0.727471 0.831271 0.648815
O O4 0.000000 0.761914 0.688600
O O5 0.500000 0.593850 0.977705
O O6 0.774168 0.601969 0.919111
O O7 0.769098 0.682973 0.008072
O O8 0.771385 0.500000 0.000000
O O9 0.250000 0.185983 0.750000
O O10 0.500000 0.205071 0.685623
O O11 0.223274 0.304843 0.678658
O O12 0.221650 0.132138 0.651458
O O13 0.500000 0.601720 0.865316
O O14 0.732189 0.486859 0.842924
O O15 0.500000 0.116660 0.099075
O O16 0.236848 0.169946 0.046828
O O17 0.223592 0.014829 0.096161
O O18 0.250000 0.577567 0.250000
O O19 0.000000 0.599709 0.186019
O O20 0.500000 0.076170 0.915280
O O21 0.777441 0.152651 0.946267
O O22 0.500000 0.785619 0.008736
#
# Coordination Sequence:
#
# PCOD9415773 Si02
#       8
#     8   8   8   8   8   8   8   8
#     4  10  20  34  52  75 107 145 182 223 273 325
#     4   9  17  28  46  78 113 143 176 219 269 317
#     4  10  22  40  58  78 110 145 178 222 274 328
#     4  10  19  32  53  78 108 143 177 220 268 317
#     4   9  17  33  52  77 112 144 180 228 276 318
#     4  10  21  36  54  76 103 137 175 216 264 319
#     4  10  20  32  57  88 108 138 183 229 276 326
#     4   9  16  30  52  80 112 144 182 224 267 322
#
# _framework density 21.303236999999999
#
# number of rings (size 3 to 8) (size 9 to 14) (size 15 to 20)
#    0.000    2.375    1.250    1.500    1.750    5.000 
#    0.000    1.875    0.000    3.375    0.000    0.000 
#    0.000    0.000    0.000    0.000    0.000    0.000 
#
# Total GULP energy -357391.091240 kJ/mol
# GULP energy per Si atom -5584.235801 kJ/mol
# Density = 2.125475 g / cm^3
# Si number density = 21.303237 Si / 1000 Ang^3
#
#
#
# Elastic Constant Matrix: (Units=GPa)
#
#
# Indices 1 2 3 4 5 6 
#
# 1 36.4397 2.0700 -3.8462 0.0000 0.0000 0.0000
# 2 2.0700 175.3221 75.0416 0.0000 0.0000 0.0000
# 3 -3.8462 75.0416 97.3657 0.0000 0.0000 0.0000
# 4 0.0000 0.0000 0.0000 12.6973 0.0000 0.0000
# 5 0.0000 0.0000 0.0000 0.0000 11.4700 0.0000
# 6 0.0000 0.0000 0.0000 0.0000 0.0000 -8.1518
#
#
#
# Elastic Compliance Matrix: (Units=1/GPa)
#
#
# Indices 1 2 3 4 5 6 
#
# 1 0.027722 -0.001188 0.002011 0.000000 0.000000 0.000000
# 2 -0.001188 0.008563 -0.006646 0.000000 0.000000 0.000000
# 3 0.002011 -0.006646 0.015472 0.000000 0.000000 0.000000
# 4 0.000000 0.000000 0.000000 0.078757 0.000000 0.000000
# 5 0.000000 0.000000 0.000000 0.000000 0.087184 0.000000
# 6 0.000000 0.000000 0.000000 0.000000 0.000000 -0.122672
#
#
# Mechanical properties :
#
#
# Convention : Reuss Voigt Hill
#
# Bulk Modulus (GPa) = 24.93131 50.62871 37.78001
# Shear Modulus (GPa) = 41.65166 18.92722 30.28944
#
# Velocity S-wave (km/s) = 4.42654 2.98395 3.77480
# Velocity P-wave (km/s) = 6.15257 5.97405 6.06397
#
# Compressibility (1/GPa) = 0.04011021
#
# Stress axis : x y z
#
# Youngs Moduli (GPa) = 36.07200 116.78764 64.63136
#
# Poissons Ratio (x) = 0.13873 -0.12995
# Poissons Ratio (y) = 0.04285 0.42956
# Poissons Ratio (z) = -0.07253 0.77620
#
# Static dielectric constant tensor:
#      x y z
#    x 1.867820 0.000000 0.000000 
#    y 0.000000 1.773210 0.000000 
#    z 0.000000 0.000000 1.732590 
# 
# From -- ./inp_files/34288.got.cif
#   From: 2010.05.17/outbox.cif.g08.bks.cpg/sg53_18_cif.got.tgz:34288.got - 2010.06.03 12:45:16.
