data_PCOD9415045
_publ_section_title
;
Structure prediction by ZEFSAII (Michael W. Deem and Ramdas Pophale) SiO2 
 PCOD9415045
Probable space group: P M N A
;
_chemical_formula_sum "Si O2"
_cell_formula_units_Z 64
_cell_length_a 8.564583
_cell_length_b 15.909906
_cell_length_c 24.399990
_cell_angle_alpha 90.000000
_cell_angle_beta 90.000000
_cell_angle_gamma 90.000000
_cell_volume 3324.784373
_symmetry_space_group_name_H-M "P M N A"
_symmetry_group_IT_number 53
_symmetry_cell_setting 'orthorhombic'
loop_
_space_group_symop_operation_xyz
x,y,z
1/2-x,-y,1/2+z
x,-y,-z
1/2-x,y,1/2-z
-x,-y,-z
1/2+x,y,1/2-z
-x,y,z
1/2+x,-y,1/2+z
loop_
_atom_site_type_symbol
_atom_site_label
_atom_site_fract_x
_atom_site_fract_y
_atom_site_fract_z
Si Si1 0.313322 0.999595 0.811262
Si Si2 0.687945 0.401989 0.001885
Si Si3 0.312835 0.503200 0.311269
Si Si4 0.688806 0.344554 0.123350
Si Si5 0.311824 0.657777 0.387193
Si Si6 0.185757 0.844753 0.121004
Si Si7 0.809656 0.842918 0.615348
Si Si8 0.313743 0.899578 0.004884
O O1 0.250000 0.996314 0.750000
O O2 0.500000 0.995978 0.810053
O O3 0.256086 0.919814 0.846942
O O4 0.263296 0.084811 0.841415
O O5 0.500000 0.397464 0.998294
O O6 0.734245 0.364384 0.060458
O O7 0.734000 0.500000 0.000000
O O8 0.757006 0.356071 0.949321
O O9 0.250000 0.512093 0.250000
O O10 0.500000 0.504831 0.310322
O O11 0.257613 0.415776 0.337785
O O12 0.256633 0.580337 0.349676
O O13 0.500000 0.349313 0.126413
O O14 0.737808 0.249099 0.135867
O O15 0.500000 0.656966 0.386696
O O16 0.260410 0.749603 0.366913
O O17 0.000000 0.849171 0.128459
O O18 0.227598 0.865058 0.058015
O O19 0.762448 0.858145 0.552299
O O20 0.000000 0.844677 0.614889
O O21 0.500000 0.884664 0.011830
O O22 0.291783 0.000000 0.000000
#
# Coordination Sequence:
#
# PCOD9415045 Si02
#       8
#     8   8   8   8   8   8   8   8
#     4  11  23  42  62  84 113 153 198 244 295 347
#     4  10  19  33  59  92 121 152 192 234 284 343
#     4  11  24  42  61  82 111 151 196 243 292 343
#     4  10  20  37  60  88 121 153 190 236 282 341
#     4  10  23  40  59  85 120 156 193 237 290 347
#     4  11  23  39  59  89 122 154 194 241 290 346
#     4   9  19  36  60  87 118 155 193 233 285 346
#     4  10  18  35  62  89 119 157 194 232 287 350
#
# _framework density 19.249368
#
# number of rings (size 3 to 8) (size 9 to 14) (size 15 to 20)
#    0.000    1.750    2.500    1.875    0.000    4.500 
#    0.000    4.375    0.000    0.000    0.000    0.000 
#    0.000    0.000    0.000    0.000    0.000    0.000 
#
# Total GULP energy -357589.787833 kJ/mol
# GULP energy per Si atom -5587.340435 kJ/mol
# Density = 1.920556 g / cm^3
# Si number density = 19.249368 Si / 1000 Ang^3
#
#
#
# Elastic Constant Matrix: (Units=GPa)
#
#
# Indices 1 2 3 4 5 6 
#
# 1 20.2053 20.6462 13.9860 0.0000 0.0000 0.0000
# 2 20.6462 105.1706 23.3205 0.0000 0.0000 0.0000
# 3 13.9860 23.3205 93.8746 0.0000 0.0000 0.0000
# 4 0.0000 0.0000 0.0000 0.6574 0.0000 0.0000
# 5 0.0000 0.0000 0.0000 0.0000 32.7283 0.0000
# 6 0.0000 0.0000 0.0000 0.0000 0.0000 10.3366
#
#
#
# Elastic Compliance Matrix: (Units=1/GPa)
#
#
# Indices 1 2 3 4 5 6 
#
# 1 0.065987 -0.011402 -0.006999 0.000000 0.000000 0.000000
# 2 -0.011402 0.012033 -0.001290 0.000000 0.000000 0.000000
# 3 -0.006999 -0.001290 0.012016 0.000000 0.000000 0.000000
# 4 0.000000 0.000000 0.000000 1.521126 0.000000 0.000000
# 5 0.000000 0.000000 0.000000 0.000000 0.030555 0.000000
# 6 0.000000 0.000000 0.000000 0.000000 0.000000 0.096744
#
#
# Mechanical properties :
#
#
# Convention : Reuss Voigt Hill
#
# Bulk Modulus (GPa) = 19.74200 37.23955 28.49078
# Shear Modulus (GPa) = 2.78594 19.49766 11.14180
#
# Velocity S-wave (km/s) = 1.20434 3.18606 2.40846
# Velocity P-wave (km/s) = 3.49458 5.73781 4.75050
#
# Compressibility (1/GPa) = 0.05065344
#
# Stress axis : x y z
#
# Youngs Moduli (GPa) = 15.15442 83.10554 83.22391
#
# Poissons Ratio (x) = 0.94759 0.58245
# Poissons Ratio (y) = 0.17279 0.10740
# Poissons Ratio (z) = 0.10606 0.10725
#
# Static dielectric constant tensor:
#      x y z
#    x 1.661660 0.000000 0.000000 
#    y 0.000000 1.681910 0.000000 
#    z 0.000000 0.000000 1.632450 
# 
# From -- ./inp_files/34181.got.cif
#   From: 2010.05.17/outbox.cif.g08.bks.cpg/sg53_18_cif.got.tgz:34181.got - 2010.06.03 12:45:16.
