data_PCOD9415401
_publ_section_title
;
Structure prediction by ZEFSAII (Michael W. Deem and Ramdas Pophale) SiO2 
 PCOD9415401
Probable space group: P M N A
;
_chemical_formula_sum "Si O2"
_cell_formula_units_Z 64
_cell_length_a 7.585165
_cell_length_b 22.832888
_cell_length_c 18.852006
_cell_angle_alpha 90.000000
_cell_angle_beta 90.000000
_cell_angle_gamma 90.000000
_cell_volume 3265.001973
_symmetry_space_group_name_H-M "P M N A"
_symmetry_group_IT_number 53
_symmetry_cell_setting 'orthorhombic'
loop_
_space_group_symop_operation_xyz
x,y,z
1/2-x,-y,1/2+z
x,-y,-z
1/2-x,y,1/2-z
-x,-y,-z
1/2+x,y,1/2-z
-x,y,z
1/2+x,-y,1/2+z
loop_
_atom_site_type_symbol
_atom_site_label
_atom_site_fract_x
_atom_site_fract_y
_atom_site_fract_z
Si Si1 0.709278 0.105901 0.173941
Si Si2 0.709441 0.410487 0.667292
Si Si3 0.706647 0.185862 0.529760
Si Si4 0.285595 0.771405 0.870944
Si Si5 0.293954 0.351271 0.097262
Si Si6 0.707900 0.063490 0.481589
Si Si7 0.784841 0.690624 0.062140
Si Si8 0.207263 0.521759 0.575623
O O1 0.750000 0.078214 0.250000
O O2 0.500000 0.107621 0.165675
O O3 0.776968 0.173341 0.174491
O O4 0.778181 0.075814 0.102562
O O5 0.750000 0.406429 0.750000
O O6 0.500000 0.412290 0.658531
O O7 0.773554 0.354415 0.622552
O O8 0.778880 0.469865 0.631821
O O9 0.500000 0.180187 0.547491
O O10 0.726292 0.209651 0.449555
O O11 0.782571 0.120119 0.524009
O O12 0.776324 0.242030 0.573006
O O13 0.500000 0.769858 0.869464
O O14 0.220320 0.705045 0.860231
O O15 0.500000 0.354488 0.117025
O O16 0.216445 0.416372 0.102538
O O17 0.278916 0.333697 0.013986
O O18 0.500000 0.061982 0.498961
O O19 0.783904 0.000000 0.500000
O O20 0.000000 0.691415 0.059252
O O21 0.282736 0.500000 0.500000
O O22 0.000000 0.533557 0.562369
#
# Coordination Sequence:
#
# PCOD9415401 Si02
#       8
#     8   8   8   8   8   8   8   8
#     4  10  19  31  48  70  98 132 169 206 245 290
#     4  11  23  36  50  68  94 126 162 206 254 303
#     4   8  14  26  45  69  95 119 149 190 232 277
#     4   8  15  27  43  66  93 121 152 190 233 277
#     4   9  16  28  48  71  95 121 153 195 239 287
#     4   9  17  30  50  76 104 134 166 200 242 290
#     4   9  17  29  47  70  92 118 154 198 242 283
#     4  10  19  32  51  74  98 127 163 202 247 299
#
# _framework density 19.601825000000002
#
# number of rings (size 3 to 8) (size 9 to 14) (size 15 to 20)
#    0.000    2.750    1.250    0.750    0.000    2.000 
#    0.000    0.625    0.000    2.250    0.000    1.750 
#    0.000    0.000    0.000    0.000    0.000    0.000 
#
# Total GULP energy -356330.728527 kJ/mol
# GULP energy per Si atom -5567.667633 kJ/mol
# Density = 1.955721 g / cm^3
# Si number density = 19.601825 Si / 1000 Ang^3
#
#
#
# Elastic Constant Matrix: (Units=GPa)
#
#
# Indices 1 2 3 4 5 6 
#
# 1 45.8900 -0.6409 -19.3502 0.0000 0.0000 0.0000
# 2 -0.6409 191.5708 36.8349 0.0000 0.0000 0.0000
# 3 -19.3502 36.8349 49.4760 0.0000 0.0000 0.0000
# 4 0.0000 0.0000 0.0000 44.8067 0.0000 0.0000
# 5 0.0000 0.0000 0.0000 0.0000 10.6961 0.0000
# 6 0.0000 0.0000 0.0000 0.0000 0.0000 -5.4481
#
#
#
# Elastic Compliance Matrix: (Units=1/GPa)
#
#
# Indices 1 2 3 4 5 6 
#
# 1 0.026905 -0.002256 0.012202 0.000000 0.000000 0.000000
# 2 -0.002256 0.006281 -0.005559 0.000000 0.000000 0.000000
# 3 0.012202 -0.005559 0.029123 0.000000 0.000000 0.000000
# 4 0.000000 0.000000 0.000000 0.022318 0.000000 0.000000
# 5 0.000000 0.000000 0.000000 0.000000 0.093492 0.000000
# 6 0.000000 0.000000 0.000000 0.000000 0.000000 -0.183551
#
#
# Mechanical properties :
#
#
# Convention : Reuss Voigt Hill
#
# Bulk Modulus (GPa) = 14.06789 35.62493 24.84641
# Shear Modulus (GPa) = 526.97670 28.01715 277.49692
#
# Velocity S-wave (km/s) = 16.41415 3.78473 11.91110
# Velocity P-wave (km/s) = 19.14222 6.10841 14.20805
#
# Compressibility (1/GPa) = 0.07108387
#
# Stress axis : x y z
#
# Youngs Moduli (GPa) = 37.16768 159.20269 34.33734
#
# Poissons Ratio (x) = 0.35920 -0.41900
# Poissons Ratio (y) = 0.08386 0.19088
# Poissons Ratio (z) = -0.45354 0.88499
#
# Static dielectric constant tensor:
#      x y z
#    x 1.775860 0.000000 0.000000 
#    y 0.000000 1.776390 0.000000 
#    z 0.000000 0.000000 1.539330 
# 
# From -- ./inp_files/20990.got.cif
#   From: 2010.05.17/outbox.cif.g08.bks.cpg/sg53_11_cif.got.tgz:20990.got - 2010.06.03 12:45:16.
