data_PCOD9415764
_publ_section_title
;
Structure prediction by ZEFSAII (Michael W. Deem and Ramdas Pophale) SiO2 
 PCOD9415764
Probable space group: P M N A
;
_chemical_formula_sum "Si O2"
_cell_formula_units_Z 56
_cell_length_a 15.319489
_cell_length_b 34.420806
_cell_length_c 5.257551
_cell_angle_alpha 90.000000
_cell_angle_beta 90.000000
_cell_angle_gamma 90.000000
_cell_volume 2772.354796
_symmetry_space_group_name_H-M "P M N A"
_symmetry_group_IT_number 53
_symmetry_cell_setting 'orthorhombic'
loop_
_space_group_symop_operation_xyz
x,y,z
1/2-x,-y,1/2+z
x,-y,-z
1/2-x,y,1/2-z
-x,-y,-z
1/2+x,y,1/2-z
-x,y,z
1/2+x,-y,1/2+z
loop_
_atom_site_type_symbol
_atom_site_label
_atom_site_fract_x
_atom_site_fract_y
_atom_site_fract_z
Si Si1 0.192579 0.000000 0.000000
Si Si2 0.311111 0.500000 0.500000
Si Si3 0.894616 0.918287 0.108848
Si Si4 0.692045 0.791451 0.998883
Si Si5 0.189483 0.415603 0.000263
Si Si6 0.895168 0.333978 0.087857
Si Si7 0.394482 0.126435 0.108547
Si Si8 0.894579 0.709460 0.410665
O O1 0.136798 0.961685 0.057952
O O2 0.250000 0.007612 0.250000
O O3 0.250000 0.500059 0.750000
O O4 0.357279 0.542020 0.493982
O O5 0.864617 0.901754 0.380253
O O6 0.000000 0.917922 0.109276
O O7 0.864568 0.890211 0.879976
O O8 0.750000 0.784356 0.750000
O O9 0.637807 0.830379 0.945550
O O10 0.634197 0.753345 0.043564
O O11 0.750000 0.797359 0.250000
O O12 0.250000 0.412407 0.750000
O O13 0.129911 0.377977 0.025609
O O14 0.250000 0.415540 0.250000
O O15 0.862391 0.306587 0.859716
O O16 0.000000 0.331224 0.093241
O O17 0.863060 0.318262 0.359736
O O18 0.500000 0.126414 0.109480
O O19 0.000000 0.707971 0.407719
#
# Coordination Sequence:
#
# PCOD9415764 Si02
#       8
#     4   4   8   8   8   8   8   8
#     4  12  25  38  59  90 122 152 182 230 287 324
#     4   8  16  30  47  72 103 136 174 212 260 320
#     4  10  22  41  63  85 113 152 194 227 262 326
#     4  12  25  38  58  87 115 142 179 231 277 318
#     4  10  19  32  53  77 104 139 177 219 265 320
#     4  10  21  36  55  79 106 139 179 224 272 318
#     4  10  22  41  63  84 111 151 190 224 271 328
#     4  10  22  40  57  75 108 148 181 217 267 330
#
# _framework density 20.199434
#
# number of rings (size 3 to 8) (size 9 to 14) (size 15 to 20)
#    0.000    1.714    0.000    4.071    0.000    6.857 
#    0.000    8.929    0.000    0.000    0.000    9.000 
#    0.000    0.000    0.000    0.000    0.000    0.000 
#
# Total GULP energy -312986.945474 kJ/mol
# GULP energy per Si atom -5589.052598 kJ/mol
# Density = 2.015346 g / cm^3
# Si number density = 20.199434 Si / 1000 Ang^3
#
#
#
# Elastic Constant Matrix: (Units=GPa)
#
#
# Indices 1 2 3 4 5 6 
#
# 1 8.2215 -1.9698 13.5655 0.0000 0.0000 0.0000
# 2 -1.9698 98.7648 -11.4063 0.0000 0.0000 0.0000
# 3 13.5655 -11.4063 115.5372 0.0000 0.0000 0.0000
# 4 0.0000 0.0000 0.0000 37.7268 0.0000 0.0000
# 5 0.0000 0.0000 0.0000 0.0000 17.8499 0.0000
# 6 0.0000 0.0000 0.0000 0.0000 0.0000 41.6393
#
#
#
# Elastic Compliance Matrix: (Units=1/GPa)
#
#
# Indices 1 2 3 4 5 6 
#
# 1 0.150950 0.000975 -0.017627 0.000000 0.000000 0.000000
# 2 0.000975 0.010248 0.000897 0.000000 0.000000 0.000000
# 3 -0.017627 0.000897 0.010813 0.000000 0.000000 0.000000
# 4 0.000000 0.000000 0.000000 0.026506 0.000000 0.000000
# 5 0.000000 0.000000 0.000000 0.000000 0.056023 0.000000
# 6 0.000000 0.000000 0.000000 0.000000 0.000000 0.024016
#
#
# Mechanical properties :
#
#
# Convention : Reuss Voigt Hill
#
# Bulk Modulus (GPa) = 7.11735 24.76693 15.94214
# Shear Modulus (GPa) = 14.00951 34.26547 24.13749
#
# Velocity S-wave (km/s) = 2.63641 4.12316 3.46057
# Velocity P-wave (km/s) = 3.57753 5.91228 4.88640
#
# Compressibility (1/GPa) = 0.14050174
#
# Stress axis : x y z
#
# Youngs Moduli (GPa) = 6.62470 97.57879 92.47745
#
# Poissons Ratio (x) = -0.09513 1.63011
# Poissons Ratio (y) = -0.00646 -0.08298
# Poissons Ratio (z) = 0.11677 -0.08755
#
# Static dielectric constant tensor:
#      x y z
#    x 1.706350 0.000000 0.000000 
#    y 0.000000 1.698820 0.000000 
#    z 0.000000 0.000000 1.704400 
# 
# From -- ./inp_files/1488.got.cif
#   From: 2010.05.17/outbox.cif.g08.bks.cpg/sg53_1_cif.got.tgz:1488.got - 2010.06.03 12:45:16.
