data_PCOD9416708
_publ_section_title
;
Structure prediction by ZEFSAII (Michael W. Deem and Ramdas Pophale) SiO2 
 PCOD9416708
Probable space group: P M N A
;
_chemical_formula_sum "Si O2"
_cell_formula_units_Z 64
_cell_length_a 8.744497
_cell_length_b 22.238869
_cell_length_c 19.581976
_cell_angle_alpha 90.000000
_cell_angle_beta 90.000000
_cell_angle_gamma 90.000000
_cell_volume 3808.062290
_symmetry_space_group_name_H-M "P M N A"
_symmetry_group_IT_number 53
_symmetry_cell_setting 'orthorhombic'
loop_
_space_group_symop_operation_xyz
x,y,z
1/2-x,-y,1/2+z
x,-y,-z
1/2-x,y,1/2-z
-x,-y,-z
1/2+x,y,1/2-z
-x,y,z
1/2+x,-y,1/2+z
loop_
_atom_site_type_symbol
_atom_site_label
_atom_site_fract_x
_atom_site_fract_y
_atom_site_fract_z
Si Si1 0.677989 0.023829 0.610367
Si Si2 0.321297 0.908511 0.536182
Si Si3 0.181969 0.328282 0.957972
Si Si4 0.683083 0.377239 0.822359
Si Si5 0.318006 0.200997 0.965071
Si Si6 0.816876 0.560981 0.542759
Si Si7 0.181932 0.863347 0.322955
Si Si8 0.182944 0.511426 0.822341
O O1 0.500000 0.021630 0.631317
O O2 0.683138 0.056179 0.536248
O O3 0.768248 0.067981 0.660248
O O4 0.731462 0.955875 0.594043
O O5 0.500000 0.894079 0.548898
O O6 0.224328 0.849483 0.520869
O O7 0.254912 0.337118 0.883282
O O8 0.231893 0.262419 0.981578
O O9 0.000000 0.334273 0.954954
O O10 0.251457 0.381430 0.003885
O O11 0.750000 0.356904 0.750000
O O12 0.500000 0.378568 0.821172
O O13 0.746051 0.444914 0.833744
O O14 0.500000 0.210549 0.963217
O O15 0.269934 0.175932 0.889547
O O16 0.784070 0.500000 0.500000
O O17 0.738336 0.552417 0.615802
O O18 0.000000 0.565672 0.549354
O O19 0.250000 0.844464 0.250000
O O20 0.000000 0.860034 0.319144
O O21 0.250000 0.532434 0.750000
O O22 0.000000 0.506726 0.819509
#
# Coordination Sequence:
#
# PCOD9416708 Si02
#       8
#     8   8   8   8   8   8   8   8
#     4   8  14  26  46  70  96 124 158 201 246 290
#     4   8  14  27  47  70  94 123 158 199 247 294
#     4  12  24  37  54  76 103 139 181 225 271 326
#     4  11  21  35  52  73 101 135 173 215 262 315
#     4  10  21  35  49  69  99 135 174 216 257 306
#     4  11  22  37  58  81 108 139 173 222 279 327
#     4  10  20  32  48  70 100 138 177 214 252 296
#     4  11  21  35  56  81 108 136 170 210 261 321
#
# _framework density 16.806449000000001
#
# number of rings (size 3 to 8) (size 9 to 14) (size 15 to 20)
#    0.000    1.875    1.250    6.000    0.000    3.000 
#    0.000    3.750    0.000    0.000    0.000    0.875 
#    0.000    4.000    0.000    0.000    0.000    0.000 
#
# Total GULP energy -357093.446121 kJ/mol
# GULP energy per Si atom -5579.585096 kJ/mol
# Density = 1.676820 g / cm^3
# Si number density = 16.806449 Si / 1000 Ang^3
#
#
#
# Elastic Constant Matrix: (Units=GPa)
#
#
# Indices 1 2 3 4 5 6 
#
# 1 96.6930 39.0395 22.3791 0.0000 0.0000 0.0000
# 2 39.0395 85.8398 24.5982 0.0000 0.0000 0.0000
# 3 22.3791 24.5982 35.8444 0.0000 0.0000 0.0000
# 4 0.0000 0.0000 0.0000 16.3548 0.0000 0.0000
# 5 0.0000 0.0000 0.0000 0.0000 25.9625 0.0000
# 6 0.0000 0.0000 0.0000 0.0000 0.0000 8.7015
#
#
#
# Elastic Compliance Matrix: (Units=1/GPa)
#
#
# Indices 1 2 3 4 5 6 
#
# 1 0.013407 -0.004604 -0.005211 0.000000 0.000000 0.000000
# 2 -0.004604 0.016082 -0.008162 0.000000 0.000000 0.000000
# 3 -0.005211 -0.008162 0.036753 0.000000 0.000000 0.000000
# 4 0.000000 0.000000 0.000000 0.061144 0.000000 0.000000
# 5 0.000000 0.000000 0.000000 0.000000 0.038517 0.000000
# 6 0.000000 0.000000 0.000000 0.000000 0.000000 0.114923
#
#
# Mechanical properties :
#
#
# Convention : Reuss Voigt Hill
#
# Bulk Modulus (GPa) = 33.01622 43.37900 38.19761
# Shear Modulus (GPa) = 15.29628 19.02779 17.16203
#
# Velocity S-wave (km/s) = 3.02013 3.36843 3.19902
# Velocity P-wave (km/s) = 5.64351 6.40276 6.03509
#
# Compressibility (1/GPa) = 0.03028815
#
# Stress axis : x y z
#
# Youngs Moduli (GPa) = 74.58806 62.17955 27.20877
#
# Poissons Ratio (x) = 0.28629 0.14178
# Poissons Ratio (y) = 0.34342 0.22208
# Poissons Ratio (z) = 0.38867 0.50751
#
# Static dielectric constant tensor:
#      x y z
#    x 1.558510 0.000000 0.000000 
#    y 0.000000 1.591890 0.000000 
#    z 0.000000 0.000000 1.595290 
# 
# From -- ./inp_files/31342.got.cif
#   From: 2010.05.17/outbox.cif.g08.bks.cpg/sg53_16_cif.got.tgz:31342.got - 2010.06.03 12:45:16.
