data_PCOD9416853
_publ_section_title
;
Structure prediction by ZEFSAII (Michael W. Deem and Ramdas Pophale) SiO2 
 PCOD9416853
Probable space group: P M N A
;
_chemical_formula_sum "Si O2"
_cell_formula_units_Z 64
_cell_length_a 8.799146
_cell_length_b 24.048940
_cell_length_c 15.428905
_cell_angle_alpha 90.000000
_cell_angle_beta 90.000000
_cell_angle_gamma 90.000000
_cell_volume 3264.912658
_symmetry_space_group_name_H-M "P M N A"
_symmetry_group_IT_number 53
_symmetry_cell_setting 'orthorhombic'
loop_
_space_group_symop_operation_xyz
x,y,z
1/2-x,-y,1/2+z
x,-y,-z
1/2-x,y,1/2-z
-x,-y,-z
1/2+x,y,1/2-z
-x,y,z
1/2+x,-y,1/2+z
loop_
_atom_site_type_symbol
_atom_site_label
_atom_site_fract_x
_atom_site_fract_y
_atom_site_fract_z
Si Si1 0.681425 0.129752 0.487135
Si Si2 0.181807 0.254364 0.017663
Si Si3 0.184772 0.350293 0.152684
Si Si4 0.817274 0.700757 0.347249
Si Si5 0.182915 0.960512 0.842102
Si Si6 0.319844 0.473262 0.405840
Si Si7 0.820732 0.417806 0.660447
Si Si8 0.181061 0.083456 0.658121
O O1 0.500000 0.125166 0.503368
O O2 0.710905 0.191510 0.451283
O O3 0.722684 0.082271 0.418123
O O4 0.767174 0.119955 0.577057
O O5 0.232256 0.300757 0.087623
O O6 0.000000 0.261623 0.007141
O O7 0.255900 0.259953 0.922701
O O8 0.250000 0.344846 0.250000
O O9 0.232490 0.410786 0.113489
O O10 0.000000 0.349957 0.157376
O O11 0.750000 0.711317 0.250000
O O12 0.778934 0.638900 0.389719
O O13 0.000000 0.703171 0.339037
O O14 0.250000 0.941348 0.750000
O O15 0.000000 0.964920 0.836855
O O16 0.252070 0.021537 0.857842
O O17 0.291655 0.500000 0.500000
O O18 0.500000 0.473879 0.391243
O O19 0.243116 0.521115 0.351083
O O20 0.750000 0.399703 0.750000
O O21 0.000000 0.422232 0.659820
O O22 0.250000 0.102799 0.750000
O O23 0.000000 0.080857 0.665009
#
# Coordination Sequence:
#
# PCOD9416853 Si02
#       8
#     8   8   8   8   8   8   8   8
#     4  10  22  39  59  84 115 152 193 239 288 336
#     4  10  22  41  61  81 110 151 198 242 285 337
#     4  10  22  39  59  83 113 153 197 242 292 343
#     4  10  21  37  58  84 113 147 186 233 291 351
#     4  10  20  36  59  87 120 154 190 234 284 338
#     4  10  20  34  54  80 109 141 179 226 282 341
#     4  10  20  33  51  76 104 133 169 214 268 330
#     4  11  22  37  60  89 121 155 190 230 281 342
#
# _framework density 19.602361999999999
#
# number of rings (size 3 to 8) (size 9 to 14) (size 15 to 20)
#    0.000    1.875    0.000    4.500    0.000    8.750 
#    0.000    0.000    0.000    0.000    0.000    0.000 
#    0.000    0.000    0.000    0.000    0.000    0.000 
#
# Total GULP energy -356661.443840 kJ/mol
# GULP energy per Si atom -5572.835060 kJ/mol
# Density = 1.955775 g / cm^3
# Si number density = 19.602362 Si / 1000 Ang^3
#
#
#
# Elastic Constant Matrix: (Units=GPa)
#
#
# Indices 1 2 3 4 5 6 
#
# 1 47.7331 24.9379 13.0467 0.0000 0.0000 0.0000
# 2 24.9379 66.2487 44.2126 0.0000 0.0000 0.0000
# 3 13.0467 44.2126 114.0612 0.0000 0.0000 0.0000
# 4 0.0000 0.0000 0.0000 16.3726 0.0000 0.0000
# 5 0.0000 0.0000 0.0000 0.0000 33.5186 0.0000
# 6 0.0000 0.0000 0.0000 0.0000 0.0000 23.3718
#
#
#
# Elastic Compliance Matrix: (Units=1/GPa)
#
#
# Indices 1 2 3 4 5 6 
#
# 1 0.026183 -0.010599 0.001114 0.000000 0.000000 0.000000
# 2 -0.010599 0.024653 -0.008344 0.000000 0.000000 0.000000
# 3 0.001114 -0.008344 0.011874 0.000000 0.000000 0.000000
# 4 0.000000 0.000000 0.000000 0.061078 0.000000 0.000000
# 5 0.000000 0.000000 0.000000 0.000000 0.029834 0.000000
# 6 0.000000 0.000000 0.000000 0.000000 0.000000 0.042787
#
#
# Mechanical properties :
#
#
# Convention : Reuss Voigt Hill
#
# Bulk Modulus (GPa) = 36.96675 43.60415 40.28545
# Shear Modulus (GPa) = 20.73971 24.37566 22.55769
#
# Velocity S-wave (km/s) = 3.25625 3.53016 3.39597
# Velocity P-wave (km/s) = 5.74777 6.23768 5.99773
#
# Compressibility (1/GPa) = 0.02705134
#
# Stress axis : x y z
#
# Youngs Moduli (GPa) = 38.19286 40.56344 84.21767
#
# Poissons Ratio (x) = 0.42994 -0.09378
# Poissons Ratio (y) = 0.40481 0.70268
# Poissons Ratio (z) = -0.04253 0.33844
#
# Static dielectric constant tensor:
#      x y z
#    x 1.633530 0.000000 0.000000 
#    y 0.000000 1.743950 0.000000 
#    z 0.000000 0.000000 1.633070 
# 
# From -- ./inp_files/20968.got.cif
#   From: 2010.05.17/outbox.cif.g08.bks.cpg/sg53_11_cif.got.tgz:20968.got - 2010.06.03 12:45:16.
