data_PCOD9416003
_publ_section_title
;
Structure prediction by ZEFSAII (Michael W. Deem and Ramdas Pophale) SiO2 
 PCOD9416003
Probable space group: P M N A
;
_chemical_formula_sum "Si O2"
_cell_formula_units_Z 64
_cell_length_a 9.127976
_cell_length_b 28.415924
_cell_length_c 12.664076
_cell_angle_alpha 90.000000
_cell_angle_beta 90.000000
_cell_angle_gamma 90.000000
_cell_volume 3284.806416
_symmetry_space_group_name_H-M "P M N A"
_symmetry_group_IT_number 53
_symmetry_cell_setting 'orthorhombic'
loop_
_space_group_symop_operation_xyz
x,y,z
1/2-x,-y,1/2+z
x,-y,-z
1/2-x,y,1/2-z
-x,-y,-z
1/2+x,y,1/2-z
-x,y,z
1/2+x,-y,1/2+z
loop_
_atom_site_type_symbol
_atom_site_label
_atom_site_fract_x
_atom_site_fract_y
_atom_site_fract_z
Si Si1 0.329094 0.077553 0.944621
Si Si2 0.825870 0.283671 0.141497
Si Si3 0.830366 0.388725 0.062972
Si Si4 0.325051 0.254648 0.928726
Si Si5 0.325880 0.160443 0.643965
Si Si6 0.172249 0.638848 0.356277
Si Si7 0.326312 0.508810 0.632640
Si Si8 0.332229 0.983308 0.845149
O O1 0.500000 0.089190 0.919777
O O2 0.230637 0.123606 0.942619
O O3 0.271181 0.035347 0.870183
O O4 0.328496 0.050646 0.055445
O O5 0.750000 0.269880 0.250000
O O6 0.805451 0.339847 0.123803
O O7 0.000000 0.274126 0.139546
O O8 0.742098 0.259334 0.045204
O O9 0.807007 0.434820 0.131695
O O10 0.000000 0.388553 0.027960
O O11 0.732394 0.387803 0.958362
O O12 0.500000 0.246716 0.929495
O O13 0.241366 0.211888 0.874488
O O14 0.297666 0.305424 0.874986
O O15 0.250000 0.141570 0.750000
O O16 0.500000 0.162373 0.651741
O O17 0.250000 0.623391 0.250000
O O18 0.000000 0.632549 0.347484
O O19 0.288962 0.500000 0.500000
O O20 0.250000 0.493539 0.750000
O O21 0.500000 0.496119 0.639987
O O22 0.250000 0.960184 0.750000
O O23 0.500000 0.991352 0.817573
#
# Coordination Sequence:
#
# PCOD9416003 Si02
#       8
#     8   8   8   8   8   8   8   8
#     4   9  19  36  54  77 107 139 175 216 260 310
#     4  10  19  33  55  81 108 139 177 223 273 325
#     4   9  19  35  55  80 111 146 187 236 284 335
#     4  10  21  37  55  77 106 141 180 223 270 322
#     4  12  24  37  55  79 106 139 176 215 261 315
#     4  10  20  33  53  80 110 145 185 230 283 340
#     4  10  22  40  61  87 120 158 201 247 296 352
#     4   9  18  33  55  79 106 137 171 214 264 312
#
# _framework density 19.483644999999999
#
# number of rings (size 3 to 8) (size 9 to 14) (size 15 to 20)
#    0.000    2.125    0.000    4.125    0.000    6.250 
#    0.000    3.125    0.000    1.500    0.000    0.000 
#    0.000    0.000    0.000    0.000    0.000    0.000 
#
# Total GULP energy -356472.938008 kJ/mol
# GULP energy per Si atom -5569.889656 kJ/mol
# Density = 1.943930 g / cm^3
# Si number density = 19.483645 Si / 1000 Ang^3
#
#
#
# Elastic Constant Matrix: (Units=GPa)
#
#
# Indices 1 2 3 4 5 6 
#
# 1 70.4233 32.9163 47.5826 0.0000 0.0000 0.0000
# 2 32.9163 55.7375 4.9031 0.0000 0.0000 0.0000
# 3 47.5826 4.9031 92.3207 0.0000 0.0000 0.0000
# 4 0.0000 0.0000 0.0000 3.4762 0.0000 0.0000
# 5 0.0000 0.0000 0.0000 0.0000 34.1693 0.0000
# 6 0.0000 0.0000 0.0000 0.0000 0.0000 19.5144
#
#
#
# Elastic Compliance Matrix: (Units=1/GPa)
#
#
# Indices 1 2 3 4 5 6 
#
# 1 0.034185 -0.018726 -0.016625 0.000000 0.000000 0.000000
# 2 -0.018726 0.028283 0.008149 0.000000 0.000000 0.000000
# 3 -0.016625 0.008149 0.018967 0.000000 0.000000 0.000000
# 4 0.000000 0.000000 0.000000 0.287668 0.000000 0.000000
# 5 0.000000 0.000000 0.000000 0.000000 0.029266 0.000000
# 6 0.000000 0.000000 0.000000 0.000000 0.000000 0.051244
#
#
# Mechanical properties :
#
#
# Convention : Reuss Voigt Hill
#
# Bulk Modulus (GPa) = 36.99156 43.25396 40.12276
# Shear Modulus (GPa) = 9.74605 20.30396 15.02500
#
# Velocity S-wave (km/s) = 2.23898 3.23166 2.77999
# Velocity P-wave (km/s) = 5.07062 6.01442 5.56257
#
# Compressibility (1/GPa) = 0.02703319
#
# Stress axis : x y z
#
# Youngs Moduli (GPa) = 29.25240 35.35669 52.72185
#
# Poissons Ratio (x) = 0.66209 0.87649
# Poissons Ratio (y) = 0.54778 -0.42965
# Poissons Ratio (z) = 0.48631 -0.28813
#
# Static dielectric constant tensor:
#      x y z
#    x 1.658490 0.000000 0.000000 
#    y 0.000000 1.691350 0.000000 
#    z 0.000000 0.000000 1.788790 
# 
# From -- ./inp_files/14234.got.cif
#   From: 2010.05.17/outbox.cif.g08.bks.cpg/sg53_8_cif.got.tgz:14234.got - 2010.06.03 12:45:16.
