data_PCOD9416645
_publ_section_title
;
Structure prediction by ZEFSAII (Michael W. Deem and Ramdas Pophale) SiO2 
 PCOD9416645
Probable space group: P M N A
;
_chemical_formula_sum "Si O2"
_cell_formula_units_Z 64
_cell_length_a 8.162032
_cell_length_b 14.674934
_cell_length_c 25.943529
_cell_angle_alpha 90.000000
_cell_angle_beta 90.000000
_cell_angle_gamma 90.000000
_cell_volume 3107.445361
_symmetry_space_group_name_H-M "P M N A"
_symmetry_group_IT_number 53
_symmetry_cell_setting 'orthorhombic'
loop_
_space_group_symop_operation_xyz
x,y,z
1/2-x,-y,1/2+z
x,-y,-z
1/2-x,y,1/2-z
-x,-y,-z
1/2+x,y,1/2-z
-x,y,z
1/2+x,-y,1/2+z
loop_
_atom_site_type_symbol
_atom_site_label
_atom_site_fract_x
_atom_site_fract_y
_atom_site_fract_z
Si Si1 0.301788 0.524458 0.558520
Si Si2 0.803600 0.015190 0.665316
Si Si3 0.308716 0.658873 0.096953
Si Si4 0.300253 0.727745 0.589585
Si Si5 0.195903 0.180162 0.195713
Si Si6 0.306065 0.219011 0.692541
Si Si7 0.311398 0.026629 0.946040
Si Si8 0.309567 0.795253 0.480728
O O1 0.246793 0.500000 0.500000
O O2 0.500000 0.524085 0.558193
O O3 0.239701 0.446861 0.597435
O O4 0.247857 0.624712 0.576853
O O5 0.737808 0.111962 0.684728
O O6 0.735604 0.997676 0.607505
O O7 0.000000 0.024813 0.662955
O O8 0.760278 0.923550 0.694729
O O9 0.500000 0.667213 0.085514
O O10 0.269982 0.717115 0.148160
O O11 0.207362 0.700449 0.048987
O O12 0.500000 0.728086 0.589708
O O13 0.244208 0.767962 0.644171
O O14 0.252641 0.787812 0.539712
O O15 0.250000 0.222769 0.250000
O O16 0.000000 0.177806 0.193907
O O17 0.250000 0.245019 0.750000
O O18 0.500000 0.227690 0.688167
O O19 0.500000 0.994999 0.946904
O O20 0.300191 0.135457 0.948307
O O21 0.230558 0.000000 0.000000
O O22 0.500000 0.822967 0.478960
#
# Coordination Sequence:
#
# PCOD9416645 Si02
#       8
#     8   8   8   8   8   8   8   8
#     4  10  19  38  66  92 122 160 204 250 304 370
#     4  11  22  38  60  88 123 161 205 252 301 357
#     4  12  24  39  59  91 129 161 198 248 305 366
#     4   9  20  38  62  91 120 156 202 254 307 363
#     4  11  23  41  62  86 119 159 207 255 301 354
#     4  12  25  43  66  91 121 162 208 255 306 361
#     4  10  21  35  52  81 123 164 199 246 306 363
#     4  11  20  35  59  87 118 158 201 246 303 364
#
# _framework density 20.595697000000001
#
# number of rings (size 3 to 8) (size 9 to 14) (size 15 to 20)
#    0.000    1.250    2.500    4.500    0.000    1.000 
#    0.000    3.750    0.000    1.500    0.000    0.000 
#    0.000    0.000    0.000    0.000    0.000    0.000 
#
# Total GULP energy -357520.440776 kJ/mol
# GULP energy per Si atom -5586.256887 kJ/mol
# Density = 2.054882 g / cm^3
# Si number density = 20.595697 Si / 1000 Ang^3
#
#
#
# Elastic Constant Matrix: (Units=GPa)
#
#
# Indices 1 2 3 4 5 6 
#
# 1 51.1781 -0.5860 4.6630 0.0000 0.0000 0.0000
# 2 -0.5860 75.1937 35.4224 0.0000 0.0000 0.0000
# 3 4.6630 35.4224 154.7794 0.0000 0.0000 0.0000
# 4 0.0000 0.0000 0.0000 14.4793 0.0000 0.0000
# 5 0.0000 0.0000 0.0000 0.0000 17.5243 0.0000
# 6 0.0000 0.0000 0.0000 0.0000 0.0000 15.6847
#
#
#
# Elastic Compliance Matrix: (Units=1/GPa)
#
#
# Indices 1 2 3 4 5 6 
#
# 1 0.019609 0.000483 -0.000701 0.000000 0.000000 0.000000
# 2 0.000483 0.014918 -0.003429 0.000000 0.000000 0.000000
# 3 -0.000701 -0.003429 0.007267 0.000000 0.000000 0.000000
# 4 0.000000 0.000000 0.000000 0.069064 0.000000 0.000000
# 5 0.000000 0.000000 0.000000 0.000000 0.057064 0.000000
# 6 0.000000 0.000000 0.000000 0.000000 0.000000 0.063756
#
#
# Mechanical properties :
#
#
# Convention : Reuss Voigt Hill
#
# Bulk Modulus (GPa) = 28.98545 40.01665 34.50105
# Shear Modulus (GPa) = 19.96239 25.64779 22.80509
#
# Velocity S-wave (km/s) = 3.11666 3.53271 3.33118
# Velocity P-wave (km/s) = 5.20149 6.00931 5.61993
#
# Compressibility (1/GPa) = 0.03450006
#
# Stress axis : x y z
#
# Youngs Moduli (GPa) = 50.99684 67.03345 137.61592
#
# Poissons Ratio (x) = -0.03239 0.09652
# Poissons Ratio (y) = -0.02464 0.47183
# Poissons Ratio (z) = 0.03577 0.22983
#
# Static dielectric constant tensor:
#      x y z
#    x 1.723330 0.000000 0.000000 
#    y 0.000000 1.783540 0.000000 
#    z 0.000000 0.000000 1.821190 
# 
# From -- ./inp_files/34191.got.cif
#   From: 2010.05.17/outbox.cif.g08.bks.cpg/sg53_18_cif.got.tgz:34191.got - 2010.06.03 12:45:16.
