data_PCOD9416925
_publ_section_title
;
Structure prediction by ZEFSAII (Michael W. Deem and Ramdas Pophale) SiO2 
 PCOD9416925
Probable space group: P M N A
;
_chemical_formula_sum "Si O2"
_cell_formula_units_Z 24
_cell_length_a 5.737617
_cell_length_b 7.042245
_cell_length_c 20.980530
_cell_angle_alpha 90.000000
_cell_angle_beta 90.000000
_cell_angle_gamma 90.000000
_cell_volume 847.733098
_symmetry_space_group_name_H-M "P M N A"
_symmetry_group_IT_number 53
_symmetry_cell_setting 'orthorhombic'
loop_
_space_group_symop_operation_xyz
x,y,z
1/2-x,-y,1/2+z
x,-y,-z
1/2-x,y,1/2-z
-x,-y,-z
1/2+x,y,1/2-z
-x,y,z
1/2+x,-y,1/2+z
loop_
_atom_site_type_symbol
_atom_site_label
_atom_site_fract_x
_atom_site_fract_y
_atom_site_fract_z
Si Si1 0.500000 0.401594 0.684856
Si Si2 0.248708 0.727612 0.006798
Si Si3 0.500000 0.793371 0.757546
Si Si4 0.500000 0.734681 0.169629
Si Si5 0.000000 0.150296 0.388379
O O1 0.500000 0.621370 0.706680
O O2 0.743302 0.348760 0.650267
O O3 0.500000 0.295087 0.753404
O O4 0.500000 0.778532 0.037245
O O5 0.285139 0.812927 0.935701
O O6 0.000000 0.791017 0.032083
O O7 0.246013 0.500000 0.000000
O O8 0.250000 0.890788 0.750000
O O9 0.500000 0.707190 0.828877
O O10 0.500000 0.954141 0.149176
#
# Coordination Sequence:
#
# PCOD9416925 Si02
#       5
#     4   8   4   4   4
#     4  10  20  40  46  64 103 156 168 208 261 307
#     4   8  16  32  49  75 110 133 157 217 281 315
#     4  12  24  37  50  73 109 148 180 218 260 304
#     4  10  20  33  54  67 101 136 185 211 259 294
#     4  10  23  30  58  84 104 132 191 224 252 304
#
# _framework density 28.310798999999999
#
# number of rings (size 3 to 8) (size 9 to 14) (size 15 to 20)
#    1.000    1.333    3.333    0.000    9.333    0.000 
#    0.000    0.000    0.000    0.000    0.000    4.667 
#    0.000   16.000    0.000    0.000    0.000    0.000 
#
# Total GULP energy -134156.162738 kJ/mol
# GULP energy per Si atom -5589.840114 kJ/mol
# Density = 2.824636 g / cm^3
# Si number density = 28.310799 Si / 1000 Ang^3
#
#
#
# Elastic Constant Matrix: (Units=GPa)
#
#
# Indices 1 2 3 4 5 6 
#
# 1 354.7055 31.1984 78.8922 0.0000 0.0000 0.0000
# 2 31.1984 75.9384 10.6030 0.0000 0.0000 0.0000
# 3 78.8922 10.6030 88.8715 0.0000 0.0000 0.0000
# 4 0.0000 0.0000 0.0000 53.2592 0.0000 0.0000
# 5 0.0000 0.0000 0.0000 0.0000 22.0562 0.0000
# 6 0.0000 0.0000 0.0000 0.0000 0.0000 8.3582
#
#
#
# Elastic Compliance Matrix: (Units=1/GPa)
#
#
# Indices 1 2 3 4 5 6 
#
# 1 0.003593 -0.001048 -0.003065 0.000000 0.000000 0.000000
# 2 -0.001048 0.013697 -0.000704 0.000000 0.000000 0.000000
# 3 -0.003065 -0.000704 0.014057 0.000000 0.000000 0.000000
# 4 0.000000 0.000000 0.000000 0.018776 0.000000 0.000000
# 5 0.000000 0.000000 0.000000 0.000000 0.045339 0.000000
# 6 0.000000 0.000000 0.000000 0.000000 0.000000 0.119643
#
#
# Mechanical properties :
#
#
# Convention : Reuss Voigt Hill
#
# Bulk Modulus (GPa) = 46.05276 84.54473 65.29874
# Shear Modulus (GPa) = 21.55395 43.32284 32.43839
#
# Velocity S-wave (km/s) = 2.76222 3.91610 3.38863
# Velocity P-wave (km/s) = 5.14542 7.09758 6.19883
#
# Compressibility (1/GPa) = 0.02171423
#
# Stress axis : x y z
#
# Youngs Moduli (GPa) = 278.31601 73.00609 71.14123
#
# Poissons Ratio (x) = 0.07653 0.21801
# Poissons Ratio (y) = 0.29175 0.05006
# Poissons Ratio (z) = 0.85290 0.05137
#
# Static dielectric constant tensor:
#      x y z
#    x 2.189990 0.000000 0.000000 
#    y 0.000000 2.195890 0.000000 
#    z 0.000000 0.000000 2.246430 
# 
# From -- ./inp_files/33393.got.cif
#   From: 2010.05.17/outbox.cif.g08.bks.cpg/sg53_17_cif.got.tgz:33393.got - 2010.06.03 12:45:16.
