data_PCOD9416239
_publ_section_title
;
Structure prediction by ZEFSAII (Michael W. Deem and Ramdas Pophale) SiO2 
 PCOD9416239
Probable space group: P M N A
;
_chemical_formula_sum "Si O2"
_cell_formula_units_Z 64
_cell_length_a 8.934219
_cell_length_b 24.270267
_cell_length_c 15.080895
_cell_angle_alpha 90.000000
_cell_angle_beta 90.000000
_cell_angle_gamma 90.000000
_cell_volume 3270.079147
_symmetry_space_group_name_H-M "P M N A"
_symmetry_group_IT_number 53
_symmetry_cell_setting 'orthorhombic'
loop_
_space_group_symop_operation_xyz
x,y,z
1/2-x,-y,1/2+z
x,-y,-z
1/2-x,y,1/2-z
-x,-y,-z
1/2+x,y,1/2-z
-x,y,z
1/2+x,-y,1/2+z
loop_
_atom_site_type_symbol
_atom_site_label
_atom_site_fract_x
_atom_site_fract_y
_atom_site_fract_z
Si Si1 0.321557 0.540308 0.845636
Si Si2 0.677905 0.249473 0.469258
Si Si3 0.321948 0.410787 0.845181
Si Si4 0.832106 0.111138 0.664000
Si Si5 0.329433 0.756743 0.160476
Si Si6 0.177902 0.372833 0.022001
Si Si7 0.817619 0.062604 0.482519
Si Si8 0.319337 0.845596 0.847570
O O1 0.250000 0.552368 0.750000
O O2 0.500000 0.547982 0.842781
O O3 0.292480 0.475723 0.864705
O O4 0.250340 0.579921 0.918281
O O5 0.500000 0.238607 0.468063
O O6 0.737054 0.250066 0.570358
O O7 0.704360 0.312208 0.437304
O O8 0.762276 0.204157 0.410412
O O9 0.250000 0.398645 0.750000
O O10 0.500000 0.403191 0.841819
O O11 0.249765 0.376635 0.924526
O O12 0.750000 0.089043 0.750000
O O13 0.839282 0.176966 0.670806
O O14 0.765325 0.095970 0.569259
O O15 0.000000 0.088785 0.665097
O O16 0.250000 0.735476 0.250000
O O17 0.500000 0.735691 0.152381
O O18 0.000000 0.380874 0.014831
O O19 0.772382 0.097065 0.395911
O O20 0.000000 0.062862 0.479911
O O21 0.769671 0.000000 0.500000
O O22 0.250000 0.841196 0.750000
O O23 0.500000 0.843523 0.843065
#
# Coordination Sequence:
#
# PCOD9416239 Si02
#       8
#     8   8   8   8   8   8   8   8
#     4  10  21  38  61  88 118 154 197 245 298 356
#     4  11  24  41  60  85 117 157 203 250 297 351
#     4  10  21  38  61  89 121 158 198 241 296 358
#     4   9  17  31  52  81 110 143 181 221 275 335
#     4  10  19  34  57  85 113 147 189 234 288 350
#     4  11  24  39  58  86 119 155 199 249 301 353
#     4   9  18  35  59  86 119 155 191 236 290 349
#     4  11  23  42  65  89 118 158 203 246 298 355
#
# _framework density 19.571391999999999
#
# number of rings (size 3 to 8) (size 9 to 14) (size 15 to 20)
#    0.000    1.875    1.250    2.625    0.000    7.000 
#    0.000    0.000    0.000    2.625    0.000    0.000 
#    0.000    0.000    0.000    0.000    0.000    0.000 
#
# Total GULP energy -357326.745060 kJ/mol
# GULP energy per Si atom -5583.230392 kJ/mol
# Density = 1.952685 g / cm^3
# Si number density = 19.571392 Si / 1000 Ang^3
#
#
#
# Elastic Constant Matrix: (Units=GPa)
#
#
# Indices 1 2 3 4 5 6 
#
# 1 71.5231 45.4436 44.0160 0.0000 0.0000 0.0000
# 2 45.4436 102.5629 58.8569 0.0000 0.0000 0.0000
# 3 44.0160 58.8569 129.9797 0.0000 0.0000 0.0000
# 4 0.0000 0.0000 0.0000 -87.1886 0.0000 0.0000
# 5 0.0000 0.0000 0.0000 0.0000 39.3561 0.0000
# 6 0.0000 0.0000 0.0000 0.0000 0.0000 19.7969
#
#
#
# Elastic Compliance Matrix: (Units=1/GPa)
#
#
# Indices 1 2 3 4 5 6 
#
# 1 0.020815 -0.006995 -0.003881 0.000000 0.000000 0.000000
# 2 -0.006995 0.015524 -0.004661 0.000000 0.000000 0.000000
# 3 -0.003881 -0.004661 0.011118 0.000000 0.000000 0.000000
# 4 0.000000 0.000000 0.000000 -0.011469 0.000000 0.000000
# 5 0.000000 0.000000 0.000000 0.000000 0.025409 0.000000
# 6 0.000000 0.000000 0.000000 0.000000 0.000000 0.050513
#
#
# Mechanical properties :
#
#
# Convention : Reuss Voigt Hill
#
# Bulk Modulus (GPa) = 61.03947 66.74430 63.89188
# Shear Modulus (GPa) = 33.68259 4.77615 19.22937
#
# Velocity S-wave (km/s) = 4.15301 1.56386 3.13792
# Velocity P-wave (km/s) = 7.36563 6.11865 6.77091
#
# Compressibility (1/GPa) = 0.01638284
#
# Stress axis : x y z
#
# Youngs Moduli (GPa) = 48.04335 64.41539 89.94254
#
# Poissons Ratio (x) = 0.45061 0.34906
# Poissons Ratio (y) = 0.33608 0.41920
# Poissons Ratio (z) = 0.18645 0.30022
#
# Static dielectric constant tensor:
#      x y z
#    x 1.670490 0.000000 0.000000 
#    y 0.000000 1.707860 0.000000 
#    z 0.000000 0.000000 1.670290 
# 
# From -- ./inp_files/20903.got.cif
#   From: 2010.05.17/outbox.cif.g08.bks.cpg/sg53_11_cif.got.tgz:20903.got - 2010.06.03 12:45:16.
