data_PCOD9416275
_publ_section_title
;
Structure prediction by ZEFSAII (Michael W. Deem and Ramdas Pophale) SiO2 
 PCOD9416275
Probable space group: P M N A
;
_chemical_formula_sum "Si O2"
_cell_formula_units_Z 48
_cell_length_a 9.666967
_cell_length_b 30.499463
_cell_length_c 8.823354
_cell_angle_alpha 90.000000
_cell_angle_beta 90.000000
_cell_angle_gamma 90.000000
_cell_volume 2601.453891
_symmetry_space_group_name_H-M "P M N A"
_symmetry_group_IT_number 53
_symmetry_cell_setting 'orthorhombic'
loop_
_space_group_symop_operation_xyz
x,y,z
1/2-x,-y,1/2+z
x,-y,-z
1/2-x,y,1/2-z
-x,-y,-z
1/2+x,y,1/2-z
-x,y,z
1/2+x,-y,1/2+z
loop_
_atom_site_type_symbol
_atom_site_label
_atom_site_fract_x
_atom_site_fract_y
_atom_site_fract_z
Si Si1 0.833306 0.309450 0.409489
Si Si2 0.500000 0.549360 0.566373
Si Si3 0.667901 0.115978 0.089054
Si Si4 0.252782 0.602815 0.068929
Si Si5 0.838714 0.212913 0.402101
Si Si6 0.162620 0.955926 0.099227
Si Si7 0.000000 0.548030 0.570474
O O1 0.750000 0.311956 0.250000
O O2 0.773690 0.347292 0.515762
O O3 0.812068 0.260264 0.476185
O O4 0.000000 0.315775 0.387303
O O5 0.500000 0.500000 0.500000
O O6 0.375318 0.578174 0.504248
O O7 0.500000 0.546382 0.748043
O O8 0.750000 0.115062 0.250000
O O9 0.500000 0.107563 0.104462
O O10 0.684324 0.165548 0.022876
O O11 0.749401 0.081365 0.986801
O O12 0.250000 0.600034 0.250000
O O13 0.374149 0.575032 0.995443
O O14 0.750000 0.212761 0.250000
O O15 0.000000 0.213268 0.358744
O O16 0.250000 0.965166 0.250000
O O17 0.000000 0.943771 0.126170
O O18 0.161272 0.000000 0.000000
O O19 0.000000 0.500000 0.500000
#
# Coordination Sequence:
#
# PCOD9416275 Si02
#       7
#     8   4   8   8   8   8   4
#     4  10  20  37  61  89 120 157 201 246 293 350
#     4  12  26  44  66  90 118 156 194 242 295 358
#     4  10  19  34  58  87 120 157 199 248 300 357
#     4  12  25  41  61  89 123 157 194 243 297 353
#     4   8  16  31  54  84 117 153 196 242 290 343
#     4  11  24  40  59  84 116 155 200 251 307 367
#     4  12  24  44  66  90 118 152 198 240 293 354
#
# _framework density 18.451219999999999
#
# number of rings (size 3 to 8) (size 9 to 14) (size 15 to 20)
#    0.000    1.500    0.833    5.000    1.167    3.333 
#    0.000    0.833    0.000    0.000    0.000    0.000 
#    0.000    0.000    0.000    0.000    0.000    0.000 
#
# Total GULP energy -267528.725444 kJ/mol
# GULP energy per Si atom -5573.515113 kJ/mol
# Density = 1.840922 g / cm^3
# Si number density = 18.451220 Si / 1000 Ang^3
#
#
#
# Elastic Constant Matrix: (Units=GPa)
#
#
# Indices 1 2 3 4 5 6 
#
# 1 154.6189 79.4624 54.2366 0.0000 0.0000 0.0000
# 2 79.4624 163.2412 61.8090 0.0000 0.0000 0.0000
# 3 54.2366 61.8090 129.4271 0.0000 0.0000 0.0000
# 4 0.0000 0.0000 0.0000 32.5456 0.0000 0.0000
# 5 0.0000 0.0000 0.0000 0.0000 20.3430 0.0000
# 6 0.0000 0.0000 0.0000 0.0000 0.0000 30.8487
#
#
#
# Elastic Compliance Matrix: (Units=1/GPa)
#
#
# Indices 1 2 3 4 5 6 
#
# 1 0.009055 -0.003627 -0.002062 0.000000 0.000000 0.000000
# 2 -0.003627 0.008931 -0.002745 0.000000 0.000000 0.000000
# 3 -0.002062 -0.002745 0.009902 0.000000 0.000000 0.000000
# 4 0.000000 0.000000 0.000000 0.030726 0.000000 0.000000
# 5 0.000000 0.000000 0.000000 0.000000 0.049157 0.000000
# 6 0.000000 0.000000 0.000000 0.000000 0.000000 0.032416
#
#
# Mechanical properties :
#
#
# Convention : Reuss Voigt Hill
#
# Bulk Modulus (GPa) = 90.75690 93.14478 91.95084
# Shear Modulus (GPa) = 31.10842 33.53274 32.32058
#
# Velocity S-wave (km/s) = 4.11053 4.26769 4.18984
# Velocity P-wave (km/s) = 8.47483 8.65306 8.56441
#
# Compressibility (1/GPa) = 0.01101845
#
# Stress axis : x y z
#
# Youngs Moduli (GPa) = 110.43772 111.97242 100.99381
#
# Poissons Ratio (x) = 0.40610 0.20829
# Poissons Ratio (y) = 0.40054 0.27724
# Poissons Ratio (z) = 0.22777 0.30738
#
# Static dielectric constant tensor:
#      x y z
#    x 1.602190 0.000000 0.000000 
#    y 0.000000 1.694220 0.000000 
#    z 0.000000 0.000000 1.601460 
# 
# From -- ./inp_files/6848.got.cif
#   From: 2010.05.17/outbox.cif.g08.bks.cpg/sg53_4_cif.got.tgz:6848.got - 2010.06.03 12:45:16.
