data_PCOD9416844
_publ_section_title
;
Structure prediction by ZEFSAII (Michael W. Deem and Ramdas Pophale) SiO2 
 PCOD9416844
Probable space group: P M N A
;
_chemical_formula_sum "Si O2"
_cell_formula_units_Z 40
_cell_length_a 8.742412
_cell_length_b 26.738678
_cell_length_c 9.856964
_cell_angle_alpha 90.000000
_cell_angle_beta 90.000000
_cell_angle_gamma 90.000000
_cell_volume 2304.169222
_symmetry_space_group_name_H-M "P M N A"
_symmetry_group_IT_number 53
_symmetry_cell_setting 'orthorhombic'
loop_
_space_group_symop_operation_xyz
x,y,z
1/2-x,-y,1/2+z
x,-y,-z
1/2-x,y,1/2-z
-x,-y,-z
1/2+x,y,1/2-z
-x,y,z
1/2+x,-y,1/2+z
loop_
_atom_site_type_symbol
_atom_site_label
_atom_site_fract_x
_atom_site_fract_y
_atom_site_fract_z
Si Si1 0.683282 0.545852 0.402234
Si Si2 0.815690 0.043373 0.100604
Si Si3 0.183055 0.351276 0.597748
Si Si4 0.683553 0.843094 0.599314
Si Si5 0.683365 0.240339 0.902078
O O1 0.725454 0.500000 0.500000
O O2 0.750000 0.539503 0.250000
O O3 0.500000 0.548442 0.391882
O O4 0.745202 0.598385 0.462114
O O5 0.750000 0.035377 0.250000
O O6 0.774342 0.099953 0.057382
O O7 0.000000 0.041299 0.107236
O O8 0.761985 0.000000 0.000000
O O9 0.250000 0.350041 0.750000
O O10 0.220541 0.296192 0.541423
O O11 0.000000 0.356394 0.602249
O O12 0.750000 0.835298 0.750000
O O13 0.500000 0.839570 0.603686
O O14 0.749576 0.802511 0.496775
O O15 0.750000 0.236314 0.750000
O O16 0.500000 0.236473 0.894792
#
# Coordination Sequence:
#
# PCOD9416844 Si02
#       5
#     8   8   8   8   8
#     4  10  20  33  51  75 101 131 166 204 248 296
#     4   9  19  35  53  75 102 132 168 207 249 298
#     4   9  17  30  50  73  98 130 165 203 248 295
#     4  10  20  35  54  75 103 138 171 207 254 305
#     4  10  20  34  53  78 104 132 170 212 253 299
#
# _framework density 17.359836999999999
#
# number of rings (size 3 to 8) (size 9 to 14) (size 15 to 20)
#    0.000    2.400    0.000    3.600    0.000    6.000 
#    0.000    3.000    0.000    2.400    0.000    0.000 
#    0.000    0.000    0.000    0.000    0.000    0.000 
#
# Total GULP energy -222989.597528 kJ/mol
# GULP energy per Si atom -5574.739938 kJ/mol
# Density = 1.732033 g / cm^3
# Si number density = 17.359837 Si / 1000 Ang^3
#
#
#
# Elastic Constant Matrix: (Units=GPa)
#
#
# Indices 1 2 3 4 5 6 
#
# 1 57.0182 65.3371 33.7278 0.0000 0.0000 0.0000
# 2 65.3371 211.5129 95.9877 0.0000 0.0000 0.0000
# 3 33.7278 95.9877 66.5280 0.0000 0.0000 0.0000
# 4 0.0000 0.0000 0.0000 37.2044 0.0000 0.0000
# 5 0.0000 0.0000 0.0000 0.0000 25.2555 0.0000
# 6 0.0000 0.0000 0.0000 0.0000 0.0000 31.3928
#
#
#
# Elastic Compliance Matrix: (Units=1/GPa)
#
#
# Indices 1 2 3 4 5 6 
#
# 1 0.027692 -0.006323 -0.004916 0.000000 0.000000 0.000000
# 2 -0.006323 0.015139 -0.018637 0.000000 0.000000 0.000000
# 3 -0.004916 -0.018637 0.044413 0.000000 0.000000 0.000000
# 4 0.000000 0.000000 0.000000 0.026879 0.000000 0.000000
# 5 0.000000 0.000000 0.000000 0.000000 0.039595 0.000000
# 6 0.000000 0.000000 0.000000 0.000000 0.000000 0.031854
#
#
# Mechanical properties :
#
#
# Convention : Reuss Voigt Hill
#
# Bulk Modulus (GPa) = 36.37415 80.57382 58.47398
# Shear Modulus (GPa) = 19.64740 28.10430 23.87585
#
# Velocity S-wave (km/s) = 3.36783 4.02795 3.71259
# Velocity P-wave (km/s) = 6.01013 8.25513 7.22042
#
# Compressibility (1/GPa) = 0.02749205
#
# Stress axis : x y z
#
# Youngs Moduli (GPa) = 36.11166 66.05569 22.51618
#
# Poissons Ratio (x) = 0.41770 0.11068
# Poissons Ratio (y) = 0.22835 0.41963
# Poissons Ratio (z) = 0.17751 1.23106
#
# Static dielectric constant tensor:
#      x y z
#    x 1.582750 0.000000 0.000000 
#    y 0.000000 1.630950 0.000000 
#    z 0.000000 0.000000 1.540530 
# 
# From -- ./inp_files/6314.got.cif
#   From: 2010.05.17/outbox.cif.g08.bks.cpg/sg53_4_cif.got.tgz:6314.got - 2010.06.03 12:45:16.
