data_PCOD9416914
_publ_section_title
;
Structure prediction by ZEFSAII (Michael W. Deem and Ramdas Pophale) SiO2 
 PCOD9416914
Probable space group: P M N A
;
_chemical_formula_sum "Si O2"
_cell_formula_units_Z 40
_cell_length_a 25.134280
_cell_length_b 5.102486
_cell_length_c 16.974572
_cell_angle_alpha 90.000000
_cell_angle_beta 90.000000
_cell_angle_gamma 90.000000
_cell_volume 2176.943228
_symmetry_space_group_name_H-M "P M N A"
_symmetry_group_IT_number 53
_symmetry_cell_setting 'orthorhombic'
loop_
_space_group_symop_operation_xyz
x,y,z
1/2-x,-y,1/2+z
x,-y,-z
1/2-x,y,1/2-z
-x,-y,-z
1/2+x,y,1/2-z
-x,y,z
1/2+x,-y,1/2+z
loop_
_atom_site_type_symbol
_atom_site_label
_atom_site_fract_x
_atom_site_fract_y
_atom_site_fract_z
Si Si1 0.187289 0.910669 0.242084
Si Si2 0.062602 0.596607 0.866961
Si Si3 0.938949 0.756390 0.554195
Si Si4 0.375002 0.895919 0.416761
Si Si5 0.874905 0.417602 0.292693
O O1 0.250000 0.879641 0.250000
O O2 0.168969 0.874751 0.151431
O O3 0.155227 0.695624 0.293515
O O4 0.167489 0.198303 0.266415
O O5 0.094493 0.379558 0.916703
O O6 0.080953 0.558752 0.776321
O O7 0.000000 0.566704 0.876436
O O8 0.082305 0.884504 0.890642
O O9 0.940402 0.500000 0.500000
O O10 0.902651 0.684175 0.628327
O O11 0.000000 0.816237 0.579960
O O12 0.920828 0.000000 0.500000
O O13 0.353730 0.000000 0.500000
#
# Coordination Sequence:
#
# PCOD9416914 Si02
#       5
#     8   8   8   8   8
#     4  10  21  38  58  77 101 141 185 226 273 317
#     4  10  20  33  53  79 107 142 174 205 255 319
#     4  10  20  34  54  81 114 147 176 217 275 329
#     4  10  21  35  52  77 108 137 172 218 263 311
#     4  10  20  36  56  78 107 139 181 225 262 323
#
# _framework density 18.374389000000001
#
# number of rings (size 3 to 8) (size 9 to 14) (size 15 to 20)
#    0.000    2.000    0.000    3.600    0.000    2.400 
#    0.000    9.000    0.000    2.400    0.000    0.000 
#    0.000    0.000    0.000    0.000    0.000    0.000 
#
# Total GULP energy -223281.848794 kJ/mol
# GULP energy per Si atom -5582.046220 kJ/mol
# Density = 1.833257 g / cm^3
# Si number density = 18.374389 Si / 1000 Ang^3
#
#
#
# Elastic Constant Matrix: (Units=GPa)
#
#
# Indices 1 2 3 4 5 6 
#
# 1 96.6232 15.1079 51.7845 0.0000 0.0000 0.0000
# 2 15.1079 93.6678 21.1703 0.0000 0.0000 0.0000
# 3 51.7845 21.1703 108.8601 0.0000 0.0000 0.0000
# 4 0.0000 0.0000 0.0000 34.3025 0.0000 0.0000
# 5 0.0000 0.0000 0.0000 0.0000 97.2964 0.0000
# 6 0.0000 0.0000 0.0000 0.0000 0.0000 13.4303
#
#
#
# Elastic Compliance Matrix: (Units=1/GPa)
#
#
# Indices 1 2 3 4 5 6 
#
# 1 0.013946 -0.000784 -0.006481 0.000000 0.000000 0.000000
# 2 -0.000784 0.011211 -0.001807 0.000000 0.000000 0.000000
# 3 -0.006481 -0.001807 0.012621 0.000000 0.000000 0.000000
# 4 0.000000 0.000000 0.000000 0.029152 0.000000 0.000000
# 5 0.000000 0.000000 0.000000 0.000000 0.010278 0.000000
# 6 0.000000 0.000000 0.000000 0.000000 0.000000 0.074458
#
#
# Mechanical properties :
#
#
# Convention : Reuss Voigt Hill
#
# Bulk Modulus (GPa) = 50.93825 52.80850 51.87337
# Shear Modulus (GPa) = 28.35173 43.07839 35.71506
#
# Velocity S-wave (km/s) = 3.93237 4.84724 4.41357
# Velocity P-wave (km/s) = 6.95706 7.75437 7.36651
#
# Compressibility (1/GPa) = 0.01963161
#
# Stress axis : x y z
#
# Youngs Moduli (GPa) = 71.70609 89.19826 79.23467
#
# Poissons Ratio (x) = 0.06997 0.51355
# Poissons Ratio (y) = 0.05625 0.14318
# Poissons Ratio (z) = 0.46476 0.16119
#
# Static dielectric constant tensor:
#      x y z
#    x 1.584860 0.000000 0.000000 
#    y 0.000000 1.621870 0.000000 
#    z 0.000000 0.000000 1.646680 
# 
# From -- ./inp_files/24548.got.cif
#   From: 2010.05.17/outbox.cif.g08.bks.cpg/sg53_13_cif.got.tgz:24548.got - 2010.06.03 12:45:16.
