data_PCOD9416098
_publ_section_title
;
Structure prediction by ZEFSAII (Michael W. Deem and Ramdas Pophale) SiO2 
 PCOD9416098
Probable space group: P M N A
;
_chemical_formula_sum "Si O2"
_cell_formula_units_Z 64
_cell_length_a 7.780052
_cell_length_b 18.140897
_cell_length_c 21.470353
_cell_angle_alpha 90.000000
_cell_angle_beta 90.000000
_cell_angle_gamma 90.000000
_cell_volume 3030.263830
_symmetry_space_group_name_H-M "P M N A"
_symmetry_group_IT_number 53
_symmetry_cell_setting 'orthorhombic'
loop_
_space_group_symop_operation_xyz
x,y,z
1/2-x,-y,1/2+z
x,-y,-z
1/2-x,y,1/2-z
-x,-y,-z
1/2+x,y,1/2-z
-x,y,z
1/2+x,-y,1/2+z
loop_
_atom_site_type_symbol
_atom_site_label
_atom_site_fract_x
_atom_site_fract_y
_atom_site_fract_z
Si Si1 0.704787 0.783388 0.890521
Si Si2 0.293997 0.531471 0.316122
Si Si3 0.305699 0.573147 0.965968
Si Si4 0.202412 0.649189 0.081120
Si Si5 0.290248 0.038234 0.935080
Si Si6 0.207252 0.067631 0.323138
Si Si7 0.791910 0.203679 0.535397
Si Si8 0.188554 0.626747 0.842000
O O1 0.500000 0.790934 0.896288
O O2 0.769594 0.853823 0.851524
O O3 0.735023 0.707852 0.851635
O O4 0.768739 0.783128 0.962891
O O5 0.250000 0.565283 0.250000
O O6 0.500000 0.523793 0.322828
O O7 0.235812 0.589006 0.368654
O O8 0.221586 0.447397 0.315643
O O9 0.500000 0.561797 0.942203
O O10 0.181433 0.598430 0.912814
O O11 0.245332 0.500000 0.000000
O O12 0.306888 0.633546 0.018724
O O13 0.227946 0.736205 0.085636
O O14 0.000000 0.635023 0.071699
O O15 0.500000 0.036186 0.934413
O O16 0.237784 0.122968 0.941700
O O17 0.233737 0.994805 0.872777
O O18 0.236788 0.000000 0.000000
O O19 0.250000 0.057994 0.250000
O O20 0.000000 0.068742 0.326122
O O21 0.000000 0.205518 0.534288
O O22 0.000000 0.635618 0.813139
#
# Coordination Sequence:
#
# PCOD9416098 Si02
#       8
#     8   8   8   8   8   8   8   8
#     4  10  20  34  55  86 118 150 193 237 284 345
#     4  10  24  42  58  76 104 149 199 239 282 341
#     4  11  21  32  52  82 110 142 184 228 276 332
#     4  11  22  37  56  82 116 148 182 234 297 343
#     4   9  16  33  62  89 113 149 196 244 287 337
#     4  10  21  38  60  86 120 159 195 238 291 354
#     4  10  19  33  58  91 116 141 191 243 289 345
#     4  11  22  36  55  82 115 148 185 233 289 339
#
# _framework density 21.120273999999998
#
# number of rings (size 3 to 8) (size 9 to 14) (size 15 to 20)
#    0.000    1.750    3.750    1.125    0.000    3.500 
#    0.000    3.750    0.000    3.750    0.000    0.000 
#    0.000    0.000    0.000    0.000    0.000    0.000 
#
# Total GULP energy -356600.489353 kJ/mol
# GULP energy per Si atom -5571.882646 kJ/mol
# Density = 2.107220 g / cm^3
# Si number density = 21.120274 Si / 1000 Ang^3
#
#
#
# Elastic Constant Matrix: (Units=GPa)
#
#
# Indices 1 2 3 4 5 6 
#
# 1 33.7279 6.5203 7.6989 0.0000 0.0000 0.0000
# 2 6.5203 160.0420 61.1146 0.0000 0.0000 0.0000
# 3 7.6989 61.1146 127.8282 0.0000 0.0000 0.0000
# 4 0.0000 0.0000 0.0000 12.1545 0.0000 0.0000
# 5 0.0000 0.0000 0.0000 0.0000 17.7230 0.0000
# 6 0.0000 0.0000 0.0000 0.0000 0.0000 21.9018
#
#
#
# Elastic Compliance Matrix: (Units=1/GPa)
#
#
# Indices 1 2 3 4 5 6 
#
# 1 0.030118 -0.000654 -0.001501 0.000000 0.000000 0.000000
# 2 -0.000654 0.007658 -0.003622 0.000000 0.000000 0.000000
# 3 -0.001501 -0.003622 0.009645 0.000000 0.000000 0.000000
# 4 0.000000 0.000000 0.000000 0.082274 0.000000 0.000000
# 5 0.000000 0.000000 0.000000 0.000000 0.056424 0.000000
# 6 0.000000 0.000000 0.000000 0.000000 0.000000 0.045658
#
#
# Mechanical properties :
#
#
# Convention : Reuss Voigt Hill
#
# Bulk Modulus (GPa) = 27.88070 52.47398 40.17734
# Shear Modulus (GPa) = 19.58574 26.77346 23.17960
#
# Velocity S-wave (km/s) = 3.04853 3.56429 3.31646
# Velocity P-wave (km/s) = 5.06172 6.46824 5.80772
#
# Compressibility (1/GPa) = 0.03586710
#
# Stress axis : x y z
#
# Youngs Moduli (GPa) = 33.20259 130.58072 103.67972
#
# Poissons Ratio (x) = 0.08536 0.15567
# Poissons Ratio (y) = 0.02170 0.37552
# Poissons Ratio (z) = 0.04985 0.47296
#
# Static dielectric constant tensor:
#      x y z
#    x 1.797560 0.000000 0.000000 
#    y 0.000000 1.833080 0.000000 
#    z 0.000000 0.000000 1.791990 
# 
# From -- ./inp_files/31116.got.cif
#   From: 2010.05.17/outbox.cif.g08.bks.cpg/sg53_16_cif.got.tgz:31116.got - 2010.06.03 12:45:16.
