data_PCOD9416061
_publ_section_title
;
Structure prediction by ZEFSAII (Michael W. Deem and Ramdas Pophale) SiO2 
 PCOD9416061
Probable space group: P M N A
;
_chemical_formula_sum "Si O2"
_cell_formula_units_Z 56
_cell_length_a 8.656263
_cell_length_b 14.847808
_cell_length_c 23.139729
_cell_angle_alpha 90.000000
_cell_angle_beta 90.000000
_cell_angle_gamma 90.000000
_cell_volume 2974.069097
_symmetry_space_group_name_H-M "P M N A"
_symmetry_group_IT_number 53
_symmetry_cell_setting 'orthorhombic'
loop_
_space_group_symop_operation_xyz
x,y,z
1/2-x,-y,1/2+z
x,-y,-z
1/2-x,y,1/2-z
-x,-y,-z
1/2+x,y,1/2-z
-x,y,z
1/2+x,-y,1/2+z
loop_
_atom_site_type_symbol
_atom_site_label
_atom_site_fract_x
_atom_site_fract_y
_atom_site_fract_z
Si Si1 0.819152 0.394612 0.484478
Si Si2 0.817026 0.889906 0.451333
Si Si3 0.317735 0.710506 0.411503
Si Si4 0.815563 0.573794 0.188689
Si Si5 0.185370 0.383265 0.349806
Si Si6 0.684420 0.084641 0.424791
Si Si7 0.185983 0.815634 0.688009
O O1 0.805696 0.500000 0.500000
O O2 0.715699 0.338479 0.527966
O O3 0.777393 0.379685 0.417920
O O4 0.000000 0.368816 0.492356
O O5 0.771916 0.804288 0.413219
O O6 0.758989 0.873258 0.517100
O O7 0.000000 0.904725 0.452188
O O8 0.733392 0.979888 0.428888
O O9 0.500000 0.727240 0.404784
O O10 0.264381 0.641325 0.361990
O O11 0.750000 0.603480 0.250000
O O12 0.759978 0.472417 0.176259
O O13 0.000000 0.574008 0.189929
O O14 0.231886 0.289285 0.320912
O O15 0.000000 0.392239 0.344718
O O16 0.500000 0.093214 0.427621
O O17 0.748235 0.129558 0.366542
O O18 0.250000 0.846683 0.750000
O O19 0.000000 0.820951 0.687292
#
# Coordination Sequence:
#
# PCOD9416061 Si02
#       7
#     8   8   8   8   8   8   8
#     4  10  19  33  56  85 117 155 194 237 292 350
#     4  11  22  39  65  93 121 155 193 239 296 361
#     4  11  23  38  57  86 119 153 194 244 294 346
#     4  11  24  39  57  79 111 153 198 243 288 340
#     4  10  21  37  58  84 117 155 197 241 288 347
#     4  11  22  40  65  93 123 154 191 243 299 358
#     4  11  23  39  59  87 122 162 206 250 299 356
#
# _framework density 18.829419999999999
#
# number of rings (size 3 to 8) (size 9 to 14) (size 15 to 20)
#    0.000    1.286    1.429    6.000    0.000    6.000 
#    0.000    0.714    0.000    1.714    0.000    0.000 
#    0.000    0.000    0.000    0.000    0.000    0.000 
#
# Total GULP energy -313131.219534 kJ/mol
# GULP energy per Si atom -5591.628920 kJ/mol
# Density = 1.878656 g / cm^3
# Si number density = 18.829420 Si / 1000 Ang^3
#
#
#
# Elastic Constant Matrix: (Units=GPa)
#
#
# Indices 1 2 3 4 5 6 
#
# 1 58.4878 22.1471 26.3213 0.0000 0.0000 0.0000
# 2 22.1471 78.8912 45.7279 0.0000 0.0000 0.0000
# 3 26.3213 45.7279 103.0018 0.0000 0.0000 0.0000
# 4 0.0000 0.0000 0.0000 20.0738 0.0000 0.0000
# 5 0.0000 0.0000 0.0000 0.0000 29.7809 0.0000
# 6 0.0000 0.0000 0.0000 0.0000 0.0000 34.1792
#
#
#
# Elastic Compliance Matrix: (Units=1/GPa)
#
#
# Indices 1 2 3 4 5 6 
#
# 1 0.020043 -0.003579 -0.003533 0.000000 0.000000 0.000000
# 2 -0.003579 0.017707 -0.006946 0.000000 0.000000 0.000000
# 3 -0.003533 -0.006946 0.013695 0.000000 0.000000 0.000000
# 4 0.000000 0.000000 0.000000 0.049816 0.000000 0.000000
# 5 0.000000 0.000000 0.000000 0.000000 0.033579 0.000000
# 6 0.000000 0.000000 0.000000 0.000000 0.000000 0.029258
#
#
# Mechanical properties :
#
#
# Convention : Reuss Voigt Hill
#
# Bulk Modulus (GPa) = 42.86619 47.64147 45.25383
# Shear Modulus (GPa) = 25.00135 26.55242 25.77688
#
# Velocity S-wave (km/s) = 3.64783 3.75928 3.70397
# Velocity P-wave (km/s) = 6.36845 6.64827 6.50986
#
# Compressibility (1/GPa) = 0.02332841
#
# Stress axis : x y z
#
# Youngs Moduli (GPa) = 49.89356 56.47580 73.01796
#
# Poissons Ratio (x) = 0.20211 0.25797
# Poissons Ratio (y) = 0.17856 0.50721
# Poissons Ratio (z) = 0.17627 0.39230
#
# Static dielectric constant tensor:
#      x y z
#    x 1.638880 0.000000 0.000000 
#    y 0.000000 1.646150 0.000000 
#    z 0.000000 0.000000 1.632070 
# 
# From -- ./inp_files/30761.got.cif
#   From: 2010.05.17/outbox.cif.g08.bks.cpg/sg53_16_cif.got.tgz:30761.got - 2010.06.03 12:45:16.
