data_PCOD9416206
_publ_section_title
;
Structure prediction by ZEFSAII (Michael W. Deem and Ramdas Pophale) SiO2 
 PCOD9416206
Probable space group: P M N A
;
_chemical_formula_sum "Si O2"
_cell_formula_units_Z 64
_cell_length_a 8.797153
_cell_length_b 20.919405
_cell_length_c 20.073360
_cell_angle_alpha 90.000000
_cell_angle_beta 90.000000
_cell_angle_gamma 90.000000
_cell_volume 3694.124658
_symmetry_space_group_name_H-M "P M N A"
_symmetry_group_IT_number 53
_symmetry_cell_setting 'orthorhombic'
loop_
_space_group_symop_operation_xyz
x,y,z
1/2-x,-y,1/2+z
x,-y,-z
1/2-x,y,1/2-z
-x,-y,-z
1/2+x,y,1/2-z
-x,y,z
1/2+x,-y,1/2+z
loop_
_atom_site_type_symbol
_atom_site_label
_atom_site_fract_x
_atom_site_fract_y
_atom_site_fract_z
Si Si1 0.682179 0.936559 0.042916
Si Si2 0.182337 0.983442 0.179260
Si Si3 0.317829 0.485075 0.679840
Si Si4 0.317075 0.817316 0.536492
Si Si5 0.317621 0.364146 0.321080
Si Si6 0.181804 0.865704 0.819626
Si Si7 0.319097 0.683455 0.957688
Si Si8 0.317320 0.433710 0.538823
O O1 0.500000 0.930420 0.044403
O O2 0.746732 0.947162 0.116756
O O3 0.755423 0.875413 0.007591
O O4 0.720647 0.000000 0.000000
O O5 0.250000 0.961990 0.250000
O O6 0.000000 0.977923 0.179081
O O7 0.221626 0.059087 0.172593
O O8 0.250000 0.463591 0.750000
O O9 0.500000 0.482172 0.683292
O O10 0.278882 0.560244 0.670601
O O11 0.269543 0.445445 0.615172
O O12 0.500000 0.816217 0.534151
O O13 0.269132 0.830317 0.613333
O O14 0.249097 0.749629 0.515502
O O15 0.250000 0.343603 0.250000
O O16 0.500000 0.357608 0.321002
O O17 0.248314 0.328014 0.383852
O O18 0.250000 0.842221 0.750000
O O19 0.000000 0.861332 0.815125
O O20 0.500000 0.686196 0.954827
O O21 0.264806 0.624379 0.002831
O O22 0.288430 0.500000 0.500000
O O23 0.500000 0.423041 0.536300
#
# Coordination Sequence:
#
# PCOD9416206 Si02
#       8
#     8   8   8   8   8   8   8   8
#     4  11  22  36  58  87 116 148 187 235 286 338
#     4  10  19  34  56  85 116 147 187 232 280 333
#     4   9  18  32  55  83 112 143 181 229 279 330
#     4  11  23  40  58  79 111 154 195 236 284 339
#     4  10  19  35  55  80 112 151 191 230 276 333
#     4   9  19  33  53  79 109 146 188 228 272 327
#     4  12  25  38  54  82 115 151 191 237 286 339
#     4  10  19  37  60  82 110 149 190 231 281 336
#
# _framework density 17.324808000000001
#
# number of rings (size 3 to 8) (size 9 to 14) (size 15 to 20)
#    0.000    1.750    2.500    2.625    0.000    3.750 
#    0.000    1.250    0.000    0.750    0.000    3.500 
#    0.000    0.000    0.000    0.000    0.000    0.000 
#
# Total GULP energy -357499.504049 kJ/mol
# GULP energy per Si atom -5585.929751 kJ/mol
# Density = 1.728538 g / cm^3
# Si number density = 17.324808 Si / 1000 Ang^3
#
#
#
# Elastic Constant Matrix: (Units=GPa)
#
#
# Indices 1 2 3 4 5 6 
#
# 1 66.6085 51.4564 47.0613 0.0000 0.0000 0.0000
# 2 51.4564 102.0989 58.1490 0.0000 0.0000 0.0000
# 3 47.0613 58.1490 126.4697 0.0000 0.0000 0.0000
# 4 0.0000 0.0000 0.0000 18.2167 0.0000 0.0000
# 5 0.0000 0.0000 0.0000 0.0000 33.4961 0.0000
# 6 0.0000 0.0000 0.0000 0.0000 0.0000 10.3179
#
#
#
# Elastic Compliance Matrix: (Units=1/GPa)
#
#
# Indices 1 2 3 4 5 6 
#
# 1 0.026811 -0.010608 -0.005099 0.000000 0.000000 0.000000
# 2 -0.010608 0.017466 -0.004083 0.000000 0.000000 0.000000
# 3 -0.005099 -0.004083 0.011682 0.000000 0.000000 0.000000
# 4 0.000000 0.000000 0.000000 0.054895 0.000000 0.000000
# 5 0.000000 0.000000 0.000000 0.000000 0.029854 0.000000
# 6 0.000000 0.000000 0.000000 0.000000 0.000000 0.096919
#
#
# Mechanical properties :
#
#
# Convention : Reuss Voigt Hill
#
# Bulk Modulus (GPa) = 61.05820 67.61228 64.33524
# Shear Modulus (GPa) = 17.68861 21.64018 19.66439
#
# Velocity S-wave (km/s) = 3.19877 3.53808 3.37269
# Velocity P-wave (km/s) = 6.99733 7.47005 7.23755
#
# Compressibility (1/GPa) = 0.01637782
#
# Stress axis : x y z
#
# Youngs Moduli (GPa) = 37.29832 57.25291 85.60157
#
# Poissons Ratio (x) = 0.60734 0.43651
# Poissons Ratio (y) = 0.39566 0.34954
# Poissons Ratio (z) = 0.19019 0.23379
#
# Static dielectric constant tensor:
#      x y z
#    x 1.574370 0.000000 0.000000 
#    y 0.000000 1.581970 0.000000 
#    z 0.000000 0.000000 1.581020 
# 
# From -- ./inp_files/31138.got.cif
#   From: 2010.05.17/outbox.cif.g08.bks.cpg/sg53_16_cif.got.tgz:31138.got - 2010.06.03 12:45:16.
