data_PCOD9416619
_publ_section_title
;
Structure prediction by ZEFSAII (Michael W. Deem and Ramdas Pophale) SiO2 
 PCOD9416619
Probable space group: P M N A
;
_chemical_formula_sum "Si O2"
_cell_formula_units_Z 48
_cell_length_a 29.260272
_cell_length_b 7.826047
_cell_length_c 10.142937
_cell_angle_alpha 90.000000
_cell_angle_beta 90.000000
_cell_angle_gamma 90.000000
_cell_volume 2322.654106
_symmetry_space_group_name_H-M "P M N A"
_symmetry_group_IT_number 53
_symmetry_cell_setting 'orthorhombic'
loop_
_space_group_symop_operation_xyz
x,y,z
1/2-x,-y,1/2+z
x,-y,-z
1/2-x,y,1/2-z
-x,-y,-z
1/2+x,y,1/2-z
-x,y,z
1/2+x,-y,1/2+z
loop_
_atom_site_type_symbol
_atom_site_label
_atom_site_fract_x
_atom_site_fract_y
_atom_site_fract_z
Si Si1 0.905716 0.217671 0.734415
Si Si2 0.000000 0.787451 0.147095
Si Si3 0.157439 0.297930 0.974869
Si Si4 0.500000 0.794410 0.659308
Si Si5 0.101084 0.809724 0.771509
Si Si6 0.254972 0.668776 0.090705
Si Si7 0.647576 0.204632 0.008364
O O1 0.954840 0.277143 0.782037
O O2 0.868190 0.275780 0.837989
O O3 0.890884 0.274052 0.590378
O O4 0.904986 0.011269 0.743635
O O5 0.000000 0.996173 0.156112
O O6 0.000000 0.740863 0.993662
O O7 0.209284 0.232289 0.957195
O O8 0.159425 0.500000 0.000000
O O9 0.127358 0.214527 0.090421
O O10 0.451118 0.740786 0.720958
O O11 0.133859 0.739526 0.655595
O O12 0.250000 0.641044 0.250000
O O13 0.254927 0.500000 0.000000
O O14 0.303008 0.751193 0.050398
O O15 0.645048 0.000000 0.000000
#
# Coordination Sequence:
#
# PCOD9416619 Si02
#       7
#     8   4   8   4   8   8   8
#     4  10  19  38  58  86 117 152 191 236 290 339
#     4   9  16  29  59  85 114 154 191 234 279 345
#     4  11  23  37  58  85 111 151 198 236 289 341
#     4   9  16  31  55  89 114 150 195 228 285 345
#     4  10  21  36  60  86 119 152 189 238 287 346
#     4  11  25  43  62  84 116 154 197 237 286 353
#     4  10  23  39  59  89 120 151 189 243 295 336
#
# _framework density 20.666011000000001
#
# number of rings (size 3 to 8) (size 9 to 14) (size 15 to 20)
#    0.000    1.833    3.333    0.500    4.667    2.000 
#    0.000    5.000    0.000    0.000    0.000    3.500 
#    0.000    0.000    0.000    0.000    0.000    0.000 
#
# Total GULP energy -267739.499722 kJ/mol
# GULP energy per Si atom -5577.906244 kJ/mol
# Density = 2.061897 g / cm^3
# Si number density = 20.666011 Si / 1000 Ang^3
#
#
#
# Elastic Constant Matrix: (Units=GPa)
#
#
# Indices 1 2 3 4 5 6 
#
# 1 153.0972 11.1451 36.6427 0.0000 0.0000 0.0000
# 2 11.1451 14.6779 8.6849 0.0000 0.0000 0.0000
# 3 36.6427 8.6849 104.8640 0.0000 0.0000 0.0000
# 4 0.0000 0.0000 0.0000 14.5101 0.0000 0.0000
# 5 0.0000 0.0000 0.0000 0.0000 52.0391 0.0000
# 6 0.0000 0.0000 0.0000 0.0000 0.0000 26.0150
#
#
#
# Elastic Compliance Matrix: (Units=1/GPa)
#
#
# Indices 1 2 3 4 5 6 
#
# 1 0.007376 -0.004285 -0.002222 0.000000 0.000000 0.000000
# 2 -0.004285 0.074130 -0.004642 0.000000 0.000000 0.000000
# 3 -0.002222 -0.004642 0.010697 0.000000 0.000000 0.000000
# 4 0.000000 0.000000 0.000000 0.068918 0.000000 0.000000
# 5 0.000000 0.000000 0.000000 0.000000 0.019216 0.000000
# 6 0.000000 0.000000 0.000000 0.000000 0.000000 0.038439
#
#
# Mechanical properties :
#
#
# Convention : Reuss Voigt Hill
#
# Bulk Modulus (GPa) = 14.30547 42.84271 28.57409
# Shear Modulus (GPa) = 18.91239 32.92394 25.91817
#
# Velocity S-wave (km/s) = 3.02842 3.99575 3.54523
# Velocity P-wave (km/s) = 4.37786 6.48568 5.53307
#
# Compressibility (1/GPa) = 0.06990332
#
# Stress axis : x y z
#
# Youngs Moduli (GPa) = 135.58075 13.48979 93.48257
#
# Poissons Ratio (x) = 0.05781 0.20775
# Poissons Ratio (y) = 0.58103 0.43395
# Poissons Ratio (z) = 0.30131 0.06262
#
# Static dielectric constant tensor:
#      x y z
#    x 1.761440 0.000000 0.000000 
#    y 0.000000 1.742240 0.000000 
#    z 0.000000 0.000000 1.658840 
# 
# From -- ./inp_files/13069.got.cif
#   From: 2010.05.17/outbox.cif.g08.bks.cpg/sg53_7_cif.got.tgz:13069.got - 2010.06.03 12:45:16.
