data_PCOD9416500
_publ_section_title
;
Structure prediction by ZEFSAII (Michael W. Deem and Ramdas Pophale) SiO2 
 PCOD9416500
Probable space group: P M N A
;
_chemical_formula_sum "Si O2"
_cell_formula_units_Z 64
_cell_length_a 8.928736
_cell_length_b 12.706325
_cell_length_c 31.308272
_cell_angle_alpha 90.000000
_cell_angle_beta 90.000000
_cell_angle_gamma 90.000000
_cell_volume 3551.967962
_symmetry_space_group_name_H-M "P M N A"
_symmetry_group_IT_number 53
_symmetry_cell_setting 'orthorhombic'
loop_
_space_group_symop_operation_xyz
x,y,z
1/2-x,-y,1/2+z
x,-y,-z
1/2-x,y,1/2-z
-x,-y,-z
1/2+x,y,1/2-z
-x,y,z
1/2+x,-y,1/2+z
loop_
_atom_site_type_symbol
_atom_site_label
_atom_site_fract_x
_atom_site_fract_y
_atom_site_fract_z
Si Si1 0.178443 0.175569 0.383227
Si Si2 0.177474 0.384410 0.591003
Si Si3 0.831050 0.862851 0.792434
Si Si4 0.680964 0.824738 0.383303
Si Si5 0.175056 0.385653 0.088196
Si Si6 0.666520 0.887404 0.291071
Si Si7 0.664996 0.373999 0.005098
Si Si8 0.681691 0.992818 0.550689
O O1 0.240454 0.145819 0.336454
O O2 0.231661 0.296092 0.388270
O O3 0.249517 0.103355 0.421238
O O4 0.000000 0.165832 0.384999
O O5 0.253383 0.292195 0.617203
O O6 0.257557 0.497462 0.594592
O O7 0.194601 0.339581 0.542682
O O8 0.000000 0.397336 0.598621
O O9 0.750000 0.818647 0.750000
O O10 0.000000 0.819874 0.797486
O O11 0.845472 0.987653 0.784974
O O12 0.500000 0.821090 0.384905
O O13 0.732393 0.873003 0.338157
O O14 0.724814 0.901588 0.422597
O O15 0.000000 0.383063 0.098229
O O16 0.205262 0.355547 0.038584
O O17 0.750000 0.843080 0.250000
O O18 0.500000 0.841703 0.291947
O O19 0.500000 0.336536 0.020139
O O20 0.653716 0.500000 0.000000
O O21 0.500000 0.982413 0.552135
O O22 0.723866 0.000000 0.500000
#
# Coordination Sequence:
#
# PCOD9416500 Si02
#       8
#     8   8   8   8   8   8   8   8
#     4  12  24  38  58  84 117 154 192 236 288 345
#     4  10  21  36  54  79 111 145 186 236 284 334
#     4  10  19  36  59  86 116 147 186 235 286 338
#     4  10  20  36  56  82 115 150 189 233 279 335
#     4  11  22  36  56  79 106 146 193 238 284 334
#     4   9  18  33  55  81 112 142 179 230 278 328
#     4   8  16  32  50  72 103 136 177 232 280 320
#     4  10  22  40  58  81 116 158 198 237 283 339
#
# _framework density 18.018180999999998
#
# number of rings (size 3 to 8) (size 9 to 14) (size 15 to 20)
#    0.000    2.000    1.250    3.750    1.750    4.500 
#    0.000    0.000    0.000    0.750    0.000    3.500 
#    0.000    0.000    0.000    0.000    0.000    0.000 
#
# Total GULP energy -356398.589955 kJ/mol
# GULP energy per Si atom -5568.727968 kJ/mol
# Density = 1.797717 g / cm^3
# Si number density = 18.018181 Si / 1000 Ang^3
#
#
#
# Elastic Constant Matrix: (Units=GPa)
#
#
# Indices 1 2 3 4 5 6 
#
# 1 83.4361 35.1214 51.0297 0.0000 0.0000 0.0000
# 2 35.1214 74.8548 31.5336 0.0000 0.0000 0.0000
# 3 51.0297 31.5336 123.1012 0.0000 0.0000 0.0000
# 4 0.0000 0.0000 0.0000 15.4203 0.0000 0.0000
# 5 0.0000 0.0000 0.0000 0.0000 20.8280 0.0000
# 6 0.0000 0.0000 0.0000 0.0000 0.0000 20.7598
#
#
#
# Elastic Compliance Matrix: (Units=1/GPa)
#
#
# Indices 1 2 3 4 5 6 
#
# 1 0.018181 -0.006003 -0.005999 0.000000 0.000000 0.000000
# 2 -0.006003 0.016957 -0.001855 0.000000 0.000000 0.000000
# 3 -0.005999 -0.001855 0.011085 0.000000 0.000000 0.000000
# 4 0.000000 0.000000 0.000000 0.064850 0.000000 0.000000
# 5 0.000000 0.000000 0.000000 0.000000 0.048012 0.000000
# 6 0.000000 0.000000 0.000000 0.000000 0.000000 0.048170
#
#
# Mechanical properties :
#
#
# Convention : Reuss Voigt Hill
#
# Bulk Modulus (GPa) = 54.02762 57.41793 55.72278
# Shear Modulus (GPa) = 20.73477 22.31544 21.52511
#
# Velocity S-wave (km/s) = 3.39598 3.52304 3.46010
# Velocity P-wave (km/s) = 6.73996 6.96312 6.85245
#
# Compressibility (1/GPa) = 0.01850905
#
# Stress axis : x y z
#
# Youngs Moduli (GPa) = 55.00178 58.97103 90.20885
#
# Poissons Ratio (x) = 0.35403 0.54116
# Poissons Ratio (y) = 0.33020 0.16736
# Poissons Ratio (z) = 0.32995 0.10940
#
# Static dielectric constant tensor:
#      x y z
#    x 1.638060 0.000000 0.000000 
#    y 0.000000 1.622900 0.000000 
#    z 0.000000 0.000000 1.670250 
# 
# From -- ./inp_files/38259.got.cif
#   From: 2010.05.17/outbox.cif.g08.bks.cpg/sg53_20_cif.got.tgz:38259.got - 2010.06.03 12:45:16.
