data_PCOD9416670
_publ_section_title
;
Structure prediction by ZEFSAII (Michael W. Deem and Ramdas Pophale) SiO2 
 PCOD9416670
Probable space group: P M N A
;
_chemical_formula_sum "Si O2"
_cell_formula_units_Z 64
_cell_length_a 11.331142
_cell_length_b 12.600539
_cell_length_c 17.613892
_cell_angle_alpha 90.000000
_cell_angle_beta 90.000000
_cell_angle_gamma 90.000000
_cell_volume 2514.885021
_symmetry_space_group_name_H-M "P M N A"
_symmetry_group_IT_number 53
_symmetry_cell_setting 'orthorhombic'
loop_
_space_group_symop_operation_xyz
x,y,z
1/2-x,-y,1/2+z
x,-y,-z
1/2-x,y,1/2-z
-x,-y,-z
1/2+x,y,1/2-z
-x,y,z
1/2+x,-y,1/2+z
loop_
_atom_site_type_symbol
_atom_site_label
_atom_site_fract_x
_atom_site_fract_y
_atom_site_fract_z
Si Si1 0.131196 0.327476 0.218840
Si Si2 0.627429 0.025868 0.327239
Si Si3 0.125465 0.155982 0.555701
Si Si4 0.873280 0.060044 0.350334
Si Si5 0.371724 0.464309 0.825939
Si Si6 0.134192 0.491369 0.091067
Si Si7 0.372479 0.882979 0.462987
Si Si8 0.626253 0.760380 0.222436
O O1 0.250000 0.270253 0.250000
O O2 0.130026 0.429346 0.275682
O O3 0.140168 0.376196 0.133936
O O4 0.000000 0.277359 0.226391
O O5 0.500000 0.070158 0.349942
O O6 0.737714 0.096998 0.354240
O O7 0.626365 0.015494 0.236305
O O8 0.636933 0.915896 0.373915
O O9 0.250495 0.173416 0.515977
O O10 0.125214 0.223993 0.631954
O O11 0.000000 0.174806 0.515933
O O12 0.123303 0.034891 0.587923
O O13 0.000000 0.117290 0.357119
O O14 0.500000 0.462382 0.866786
O O15 0.254361 0.456191 0.876616
O O16 0.373376 0.365910 0.768132
O O17 0.000000 0.530843 0.110895
O O18 0.140731 0.500000 0.000000
O O19 0.500000 0.831072 0.476334
O O20 0.373624 0.000000 0.500000
O O21 0.750000 0.803297 0.250000
O O22 0.500000 0.801663 0.250751
#
# Coordination Sequence:
#
# PCOD9416670 Si02
#       8
#     8   8   8   8   8   8   8   8
#     4   8  13  22  36  50  69  98 130 161 196 233
#     4   8  13  20  32  45  60  81 105 135 173 211
#     4   9  18  28  38  54  74  96 127 163 197 233
#     4   8  13  21  32  46  63  83 107 137 175 213
#     4   9  17  29  41  55  79 111 143 172 203 241
#     4   9  16  25  39  58  77 100 136 177 211 242
#     4   9  17  27  38  51  67  91 124 158 192 232
#     4  10  20  29  40  59  81 106 139 174 205 238
#
# _framework density 25.448478999999999
#
# number of rings (size 3 to 8) (size 9 to 14) (size 15 to 20)
#    0.000    3.250    0.000    1.125    3.500    2.500 
#    0.000    0.000    0.000    0.000    0.000    0.000 
#    0.000    0.000    0.000    0.000   28.500    0.000 
#
# Total GULP energy -356519.879322 kJ/mol
# GULP energy per Si atom -5570.623114 kJ/mol
# Density = 2.539056 g / cm^3
# Si number density = 25.448479 Si / 1000 Ang^3
#
#
#
# Elastic Constant Matrix: (Units=GPa)
#
#
# Indices 1 2 3 4 5 6 
#
# 1 360.4439 12.8957 27.3002 0.0000 0.0000 0.0000
# 2 12.8957 43.9621 2.9032 0.0000 0.0000 0.0000
# 3 27.3002 2.9032 92.9213 0.0000 0.0000 0.0000
# 4 0.0000 0.0000 0.0000 8.3473 0.0000 0.0000
# 5 0.0000 0.0000 0.0000 0.0000 4.7231 0.0000
# 6 0.0000 0.0000 0.0000 0.0000 0.0000 -1.8927
#
#
#
# Elastic Compliance Matrix: (Units=1/GPa)
#
#
# Indices 1 2 3 4 5 6 
#
# 1 0.002864 -0.000786 -0.000817 0.000000 0.000000 0.000000
# 2 -0.000786 0.023010 -0.000488 0.000000 0.000000 0.000000
# 3 -0.000817 -0.000488 0.011017 0.000000 0.000000 0.000000
# 4 0.000000 0.000000 0.000000 0.119799 0.000000 0.000000
# 5 0.000000 0.000000 0.000000 0.000000 0.211724 0.000000
# 6 0.000000 0.000000 0.000000 0.000000 0.000000 -0.528337
#
#
# Mechanical properties :
#
#
# Convention : Reuss Voigt Hill
#
# Bulk Modulus (GPa) = 30.57278 64.83618 47.70448
# Shear Modulus (GPa) = -34.52129 32.51743 -1.00193
#
# Velocity S-wave (km/s) = -3.68709 3.57848 -0.62814
# Velocity P-wave (km/s) = 2.46708 6.52738 4.27319
#
# Compressibility (1/GPa) = 0.03270884
#
# Stress axis : x y z
#
# Youngs Moduli (GPa) = 349.11741 43.45989 90.76827
#
# Poissons Ratio (x) = 0.03417 0.07416
# Poissons Ratio (y) = 0.27450 0.04429
# Poissons Ratio (z) = 0.28522 0.02120
#
# Static dielectric constant tensor:
#      x y z
#    x 2.101660 0.000000 0.000000 
#    y 0.000000 1.989570 0.000000 
#    z 0.000000 0.000000 2.020870 
# 
# From -- ./inp_files/27737.got.cif
#   From: 2010.05.17/outbox.cif.g08.bks.cpg/sg53_14_cif.got.tgz:27737.got - 2010.06.03 12:45:16.
