data_PCOD9416907
_publ_section_title
;
Structure prediction by ZEFSAII (Michael W. Deem and Ramdas Pophale) SiO2 
 PCOD9416907
Probable space group: P M N A
;
_chemical_formula_sum "Si O2"
_cell_formula_units_Z 64
_cell_length_a 7.964393
_cell_length_b 23.041672
_cell_length_c 16.742081
_cell_angle_alpha 90.000000
_cell_angle_beta 90.000000
_cell_angle_gamma 90.000000
_cell_volume 3072.388358
_symmetry_space_group_name_H-M "P M N A"
_symmetry_group_IT_number 53
_symmetry_cell_setting 'orthorhombic'
loop_
_space_group_symop_operation_xyz
x,y,z
1/2-x,-y,1/2+z
x,-y,-z
1/2-x,y,1/2-z
-x,-y,-z
1/2+x,y,1/2-z
-x,y,z
1/2+x,-y,1/2+z
loop_
_atom_site_type_symbol
_atom_site_label
_atom_site_fract_x
_atom_site_fract_y
_atom_site_fract_z
Si Si1 0.703145 0.356197 0.843542
Si Si2 0.693322 0.893769 0.084232
Si Si3 0.701733 0.434164 0.994518
Si Si4 0.310497 0.871977 0.899238
Si Si5 0.201531 0.372686 0.159977
Si Si6 0.297561 0.774999 0.157893
Si Si7 0.696049 0.757365 0.663770
Si Si8 0.297048 0.009276 0.161277
O O1 0.750000 0.369001 0.750000
O O2 0.500000 0.356481 0.844915
O O3 0.762129 0.399087 0.915061
O O4 0.761836 0.290171 0.863868
O O5 0.500000 0.894331 0.115798
O O6 0.768277 0.832639 0.113799
O O7 0.768067 0.955523 0.109133
O O8 0.684790 0.892118 0.989838
O O9 0.500000 0.436435 0.986125
O O10 0.766964 0.500000 0.000000
O O11 0.738617 0.405247 0.080460
O O12 0.500000 0.863938 0.868081
O O13 0.233724 0.808350 0.896771
O O14 0.227654 0.926042 0.854043
O O15 0.250000 0.393483 0.250000
O O16 0.271888 0.306517 0.152784
O O17 0.000000 0.373544 0.157659
O O18 0.250000 0.782283 0.250000
O O19 0.500000 0.773702 0.147556
O O20 0.750000 0.780447 0.750000
O O21 0.500000 0.747937 0.665341
O O22 0.250000 0.992463 0.250000
O O23 0.500000 0.013991 0.149142
#
# Coordination Sequence:
#
# PCOD9416907 Si02
#       8
#     8   8   8   8   8   8   8   8
#     4   9  19  35  56  82 114 151 190 235 284 336
#     4   9  18  32  51  74 101 134 176 218 265 326
#     4  10  22  39  60  89 123 157 196 240 286 344
#     4  10  20  33  53  77 103 138 176 221 274 326
#     4  10  22  40  62  88 119 157 198 245 296 346
#     4   9  17  31  51  75 100 134 176 218 266 321
#     4  10  21  37  56  81 110 141 182 228 277 332
#     4  10  20  34  51  72  99 135 178 222 267 323
#
# _framework density 20.830698999999999
#
# number of rings (size 3 to 8) (size 9 to 14) (size 15 to 20)
#    0.000    2.375    0.000    1.875    1.750    5.750 
#    0.000    2.500    0.000    1.500    0.000    0.000 
#    0.000    0.000    0.000    0.000    0.000    0.000 
#
# Total GULP energy -356511.927602 kJ/mol
# GULP energy per Si atom -5570.498869 kJ/mol
# Density = 2.078329 g / cm^3
# Si number density = 20.830699 Si / 1000 Ang^3
#
#
#
# Elastic Constant Matrix: (Units=GPa)
#
#
# Indices 1 2 3 4 5 6 
#
# 1 17.2115 7.0912 -4.5904 0.0000 0.0000 0.0000
# 2 7.0912 79.5404 39.0464 0.0000 0.0000 0.0000
# 3 -4.5904 39.0464 69.0790 0.0000 0.0000 0.0000
# 4 0.0000 0.0000 0.0000 41.9158 0.0000 0.0000
# 5 0.0000 0.0000 0.0000 0.0000 26.9894 0.0000
# 6 0.0000 0.0000 0.0000 0.0000 0.0000 96.5158
#
#
#
# Elastic Compliance Matrix: (Units=1/GPa)
#
#
# Indices 1 2 3 4 5 6 
#
# 1 0.065471 -0.011034 0.010588 0.000000 0.000000 0.000000
# 2 -0.011034 0.019260 -0.011620 0.000000 0.000000 0.000000
# 3 0.010588 -0.011620 0.021748 0.000000 0.000000 0.000000
# 4 0.000000 0.000000 0.000000 0.023857 0.000000 0.000000
# 5 0.000000 0.000000 0.000000 0.000000 0.037052 0.000000
# 6 0.000000 0.000000 0.000000 0.000000 0.000000 0.010361
#
#
# Mechanical properties :
#
#
# Convention : Reuss Voigt Hill
#
# Bulk Modulus (GPa) = 12.14392 27.65836 19.90114
# Shear Modulus (GPa) = 21.80258 41.36977 31.58618
#
# Velocity S-wave (km/s) = 3.23872 4.46129 3.89823
# Velocity P-wave (km/s) = 4.45289 6.31221 5.46224
#
# Compressibility (1/GPa) = 0.08234572
#
# Stress axis : x y z
#
# Youngs Moduli (GPa) = 15.27397 51.92052 45.98161
#
# Poissons Ratio (x) = 0.57291 -0.48684
# Poissons Ratio (y) = 0.16854 0.53430
# Poissons Ratio (z) = -0.16172 0.60331
#
# Static dielectric constant tensor:
#      x y z
#    x 1.679650 0.000000 0.000000 
#    y 0.000000 1.810240 0.000000 
#    z 0.000000 0.000000 1.728540 
# 
# From -- ./inp_files/20899.got.cif
#   From: 2010.05.17/outbox.cif.g08.bks.cpg/sg53_11_cif.got.tgz:20899.got - 2010.06.03 12:45:16.
