data_PCOD9416713
_publ_section_title
;
Structure prediction by ZEFSAII (Michael W. Deem and Ramdas Pophale) SiO2 
 PCOD9416713
Probable space group: P M N A
;
_chemical_formula_sum "Si O2"
_cell_formula_units_Z 48
_cell_length_a 8.757191
_cell_length_b 32.515478
_cell_length_c 9.143319
_cell_angle_alpha 90.000000
_cell_angle_beta 90.000000
_cell_angle_gamma 90.000000
_cell_volume 2603.507523
_symmetry_space_group_name_H-M "P M N A"
_symmetry_group_IT_number 53
_symmetry_cell_setting 'orthorhombic'
loop_
_space_group_symop_operation_xyz
x,y,z
1/2-x,-y,1/2+z
x,-y,-z
1/2-x,y,1/2-z
-x,-y,-z
1/2+x,y,1/2-z
-x,y,z
1/2+x,-y,1/2+z
loop_
_atom_site_type_symbol
_atom_site_label
_atom_site_fract_x
_atom_site_fract_y
_atom_site_fract_z
Si Si1 0.182994 0.958427 0.412218
Si Si2 0.816987 0.624773 0.415118
Si Si3 0.682801 0.541142 0.413072
Si Si4 0.183039 0.285413 0.585061
Si Si5 0.182735 0.798694 0.086362
Si Si6 0.683176 0.118605 0.412309
O O1 0.250000 0.960590 0.250000
O O2 0.250579 0.919202 0.495500
O O3 0.000000 0.954907 0.405519
O O4 0.221694 0.000000 0.500000
O O5 0.750000 0.625615 0.250000
O O6 0.748113 0.583307 0.482344
O O7 0.779038 0.669690 0.481179
O O8 0.000000 0.621292 0.407677
O O9 0.724242 0.500000 0.500000
O O10 0.750000 0.537899 0.250000
O O11 0.500000 0.544303 0.405328
O O12 0.250000 0.286215 0.750000
O O13 0.252412 0.243830 0.519795
O O14 0.000000 0.281941 0.592042
O O15 0.250000 0.803465 0.250000
O O16 0.000000 0.795641 0.097233
O O17 0.223221 0.838468 0.991408
O O18 0.750000 0.117542 0.250000
O O19 0.500000 0.115422 0.407164
#
# Coordination Sequence:
#
# PCOD9416713 Si02
#       6
#     8   8   8   8   8   8
#     4  11  24  41  63  90 119 151 187 228 273 322
#     4   9  16  26  43  68  96 127 163 204 252 303
#     4  10  20  32  48  71  97 128 166 206 252 305
#     4   9  16  26  44  71 100 130 165 207 255 306
#     4  10  20  33  52  79 107 137 173 214 262 313
#     4  11  24  40  59  83 112 148 188 228 272 321
#
# _framework density 18.436665999999999
#
# number of rings (size 3 to 8) (size 9 to 14) (size 15 to 20)
#    0.000    2.000    0.000    6.000    0.000   10.000 
#    0.000    0.000    0.000    1.000    0.000    0.000 
#    0.000    0.000    0.000    0.000    0.000    0.000 
#
# Total GULP energy -267812.176396 kJ/mol
# GULP energy per Si atom -5579.420342 kJ/mol
# Density = 1.839470 g / cm^3
# Si number density = 18.436666 Si / 1000 Ang^3
#
#
#
# Elastic Constant Matrix: (Units=GPa)
#
#
# Indices 1 2 3 4 5 6 
#
# 1 68.0895 80.3085 34.4316 0.0000 0.0000 0.0000
# 2 80.3085 239.3536 77.6003 0.0000 0.0000 0.0000
# 3 34.4316 77.6003 80.4297 0.0000 0.0000 0.0000
# 4 0.0000 0.0000 0.0000 21.5955 0.0000 0.0000
# 5 0.0000 0.0000 0.0000 0.0000 22.7603 0.0000
# 6 0.0000 0.0000 0.0000 0.0000 0.0000 36.8449
#
#
#
# Elastic Compliance Matrix: (Units=1/GPa)
#
#
# Indices 1 2 3 4 5 6 
#
# 1 0.025082 -0.007180 -0.003810 0.000000 0.000000 0.000000
# 2 -0.007180 0.008135 -0.004775 0.000000 0.000000 0.000000
# 3 -0.003810 -0.004775 0.018671 0.000000 0.000000 0.000000
# 4 0.000000 0.000000 0.000000 0.046306 0.000000 0.000000
# 5 0.000000 0.000000 0.000000 0.000000 0.043936 0.000000
# 6 0.000000 0.000000 0.000000 0.000000 0.000000 0.027141
#
#
# Mechanical properties :
#
#
# Convention : Reuss Voigt Hill
#
# Bulk Modulus (GPa) = 49.12055 85.83928 67.47991
# Shear Modulus (GPa) = 24.08616 29.27564 26.68090
#
# Velocity S-wave (km/s) = 3.61837 3.98917 3.80829
# Velocity P-wave (km/s) = 6.64511 8.23882 7.48450
#
# Compressibility (1/GPa) = 0.02035808
#
# Stress axis : x y z
#
# Youngs Moduli (GPa) = 39.86907 122.92146 53.55817
#
# Poissons Ratio (x) = 0.88264 0.20404
# Poissons Ratio (y) = 0.28628 0.25575
# Poissons Ratio (z) = 0.15189 0.58697
#
# Static dielectric constant tensor:
#      x y z
#    x 1.616310 0.000000 0.000000 
#    y 0.000000 1.690010 0.000000 
#    z 0.000000 0.000000 1.604170 
# 
# From -- ./inp_files/6667.got.cif
#   From: 2010.05.17/outbox.cif.g08.bks.cpg/sg53_4_cif.got.tgz:6667.got - 2010.06.03 12:45:16.
