data_PCOD9416135
_publ_section_title
;
Structure prediction by ZEFSAII (Michael W. Deem and Ramdas Pophale) SiO2 
 PCOD9416135
Probable space group: P M N A
;
_chemical_formula_sum "Si O2"
_cell_formula_units_Z 64
_cell_length_a 8.893830
_cell_length_b 20.277053
_cell_length_c 20.483597
_cell_angle_alpha 90.000000
_cell_angle_beta 90.000000
_cell_angle_gamma 90.000000
_cell_volume 3694.025449
_symmetry_space_group_name_H-M "P M N A"
_symmetry_group_IT_number 53
_symmetry_cell_setting 'orthorhombic'
loop_
_space_group_symop_operation_xyz
x,y,z
1/2-x,-y,1/2+z
x,-y,-z
1/2-x,y,1/2-z
-x,-y,-z
1/2+x,y,1/2-z
-x,y,z
1/2+x,-y,1/2+z
loop_
_atom_site_type_symbol
_atom_site_label
_atom_site_fract_x
_atom_site_fract_y
_atom_site_fract_z
Si Si1 0.679692 0.204660 0.543969
Si Si2 0.827805 0.217283 0.682906
Si Si3 0.818855 0.683160 0.541327
Si Si4 0.820497 0.369367 0.318116
Si Si5 0.169153 0.942955 0.313321
Si Si6 0.680589 0.473938 0.819666
Si Si7 0.682087 0.938751 0.046380
Si Si8 0.679056 0.433888 0.543403
O O1 0.500000 0.205551 0.545077
O O2 0.740744 0.229036 0.615139
O O3 0.746136 0.251614 0.488504
O O4 0.741014 0.130805 0.531783
O O5 0.750000 0.241191 0.750000
O O6 0.832998 0.137161 0.688389
O O7 0.000000 0.240837 0.678454
O O8 0.772277 0.667532 0.615934
O O9 0.761214 0.624000 0.495605
O O10 0.000000 0.686686 0.538943
O O11 0.750000 0.346245 0.250000
O O12 0.785950 0.447440 0.325365
O O13 0.000000 0.363762 0.313245
O O14 0.250000 0.967951 0.250000
O O15 0.239386 0.959777 0.382214
O O16 0.000000 0.072524 0.549767
O O17 0.750000 0.451894 0.750000
O O18 0.500000 0.465115 0.819373
O O19 0.752971 0.441797 0.884036
O O20 0.500000 0.967176 0.187478
O O21 0.709816 0.000000 0.000000
O O22 0.701468 0.500000 0.500000
O O23 0.500000 0.421630 0.547643
#
# Coordination Sequence:
#
# PCOD9416135 Si02
#       8
#     8   8   8   8   8   8   8   8
#     4  11  22  35  52  79 111 143 180 224 272 324
#     4   9  16  29  49  73 101 136 175 215 257 307
#     4  11  22  38  57  79 108 145 183 222 270 325
#     4   9  19  33  54  80 105 135 176 223 270 318
#     4   8  14  24  42  69  98 127 161 203 249 297
#     4  10  19  34  54  79 109 143 182 225 272 322
#     4   9  18  34  55  77 103 138 179 221 267 320
#     4  11  22  35  54  81 110 141 177 221 270 318
#
# _framework density 17.325271999999998
#
# number of rings (size 3 to 8) (size 9 to 14) (size 15 to 20)
#    0.000    2.250    1.250    3.375    0.000    5.250 
#    0.000    0.625    0.000    0.750    0.000    1.750 
#    0.000    0.000    0.000    0.000    0.000    0.000 
#
# Total GULP energy -356863.849064 kJ/mol
# GULP energy per Si atom -5575.997642 kJ/mol
# Density = 1.728584 g / cm^3
# Si number density = 17.325272 Si / 1000 Ang^3
#
#
#
# Elastic Constant Matrix: (Units=GPa)
#
#
# Indices 1 2 3 4 5 6 
#
# 1 85.4361 38.1513 66.7492 0.0000 0.0000 0.0000
# 2 38.1513 54.7020 62.8832 0.0000 0.0000 0.0000
# 3 66.7492 62.8832 181.2376 0.0000 0.0000 0.0000
# 4 0.0000 0.0000 0.0000 21.9413 0.0000 0.0000
# 5 0.0000 0.0000 0.0000 0.0000 32.5509 0.0000
# 6 0.0000 0.0000 0.0000 0.0000 0.0000 13.5472
#
#
#
# Elastic Compliance Matrix: (Units=1/GPa)
#
#
# Indices 1 2 3 4 5 6 
#
# 1 0.018512 -0.008440 -0.003890 0.000000 0.000000 0.000000
# 2 -0.008440 0.034258 -0.008778 0.000000 0.000000 0.000000
# 3 -0.003890 -0.008778 0.009996 0.000000 0.000000 0.000000
# 4 0.000000 0.000000 0.000000 0.045576 0.000000 0.000000
# 5 0.000000 0.000000 0.000000 0.000000 0.030721 0.000000
# 6 0.000000 0.000000 0.000000 0.000000 0.000000 0.073816
#
#
# Mechanical properties :
#
#
# Convention : Reuss Voigt Hill
#
# Bulk Modulus (GPa) = 48.65902 72.99370 60.82636
# Shear Modulus (GPa) = 19.08800 23.84734 21.46767
#
# Velocity S-wave (km/s) = 3.32285 3.71408 3.52390
# Velocity P-wave (km/s) = 6.54739 7.78558 7.19318
#
# Compressibility (1/GPa) = 0.02055118
#
# Stress axis : x y z
#
# Youngs Moduli (GPa) = 54.01792 29.19028 100.04138
#
# Poissons Ratio (x) = 0.24636 0.38913
# Poissons Ratio (y) = 0.45590 0.87816
# Poissons Ratio (z) = 0.21012 0.25623
#
# Static dielectric constant tensor:
#      x y z
#    x 1.588570 0.000000 0.000000 
#    y 0.000000 1.582990 0.000000 
#    z 0.000000 0.000000 1.603090 
# 
# From -- ./inp_files/26911.got.cif
#   From: 2010.05.17/outbox.cif.g08.bks.cpg/sg53_14_cif.got.tgz:26911.got - 2010.06.03 12:45:16.
