data_PCOD9416139
_publ_section_title
;
Structure prediction by ZEFSAII (Michael W. Deem and Ramdas Pophale) SiO2 
 PCOD9416139
Probable space group: P M N A
;
_chemical_formula_sum "Si O2"
_cell_formula_units_Z 48
_cell_length_a 18.420883
_cell_length_b 15.378461
_cell_length_c 8.805447
_cell_angle_alpha 90.000000
_cell_angle_beta 90.000000
_cell_angle_gamma 90.000000
_cell_volume 2494.449564
_symmetry_space_group_name_H-M "P M N A"
_symmetry_group_IT_number 53
_symmetry_cell_setting 'orthorhombic'
loop_
_space_group_symop_operation_xyz
x,y,z
1/2-x,-y,1/2+z
x,-y,-z
1/2-x,y,1/2-z
-x,-y,-z
1/2+x,y,1/2-z
-x,y,z
1/2+x,-y,1/2+z
loop_
_atom_site_type_symbol
_atom_site_label
_atom_site_fract_x
_atom_site_fract_y
_atom_site_fract_z
Si Si1 0.663266 0.590611 0.425043
Si Si2 0.159588 0.590790 0.425899
Si Si3 0.832760 0.769709 0.922846
Si Si4 0.843233 0.229773 0.420375
Si Si5 0.684714 0.930416 0.370570
Si Si6 0.918589 0.920112 0.385759
O O1 0.639750 0.500000 0.500000
O O2 0.639063 0.596731 0.250647
O O3 0.751833 0.590581 0.427374
O O4 0.641615 0.676031 0.518267
O O5 0.135955 0.500000 0.500000
O O6 0.134679 0.674876 0.520000
O O7 0.744525 0.769272 0.917398
O O8 0.863508 0.787201 0.754986
O O9 0.844221 0.844891 0.044901
O O10 0.872718 0.157037 0.535061
O O11 0.750000 0.915209 0.250000
O O12 0.618853 0.958064 0.264078
O O13 0.706181 0.000000 0.500000
O O14 0.000000 0.888497 0.356287
O O15 0.920717 0.000000 0.500000
#
# Coordination Sequence:
#
# PCOD9416139 Si02
#       6
#     8   8   8   8   8   8
#     4   9  16  26  42  73 114 150 182 222 283 334
#     4   9  16  26  45  71 109 149 186 229 274 332
#     4  10  20  31  55  83 114 144 184 242 279 332
#     4  10  19  34  54  81 111 148 190 229 285 333
#     4  12  24  37  60  86 114 144 188 238 287 338
#     4  11  24  42  60  80 113 152 188 231 285 346
#
# _framework density 19.242722000000001
#
# number of rings (size 3 to 8) (size 9 to 14) (size 15 to 20)
#    0.000    1.833    1.667    3.500    4.667    4.333 
#    0.000    0.833    0.000    0.500    0.000    0.000 
#    0.000    6.000    0.000    0.000    0.000    0.000 
#
# Total GULP energy -267714.653510 kJ/mol
# GULP energy per Si atom -5577.388615 kJ/mol
# Density = 1.919892 g / cm^3
# Si number density = 19.242722 Si / 1000 Ang^3
#
#
#
# Elastic Constant Matrix: (Units=GPa)
#
#
# Indices 1 2 3 4 5 6 
#
# 1 24.5417 7.0036 21.4629 0.0000 0.0000 0.0000
# 2 7.0036 79.0929 18.1696 0.0000 0.0000 0.0000
# 3 21.4629 18.1696 114.7344 0.0000 0.0000 0.0000
# 4 0.0000 0.0000 0.0000 37.6883 0.0000 0.0000
# 5 0.0000 0.0000 0.0000 0.0000 6.3872 0.0000
# 6 0.0000 0.0000 0.0000 0.0000 0.0000 -89.8249
#
#
#
# Elastic Compliance Matrix: (Units=1/GPa)
#
#
# Indices 1 2 3 4 5 6 
#
# 1 0.049125 -0.002323 -0.008822 0.000000 0.000000 0.000000
# 2 -0.002323 0.013231 -0.001661 0.000000 0.000000 0.000000
# 3 -0.008822 -0.001661 0.010629 0.000000 0.000000 0.000000
# 4 0.000000 0.000000 0.000000 0.026533 0.000000 0.000000
# 5 0.000000 0.000000 0.000000 0.000000 0.156562 0.000000
# 6 0.000000 0.000000 0.000000 0.000000 0.000000 -0.011133
#
#
# Mechanical properties :
#
#
# Convention : Reuss Voigt Hill
#
# Bulk Modulus (GPa) = 21.10901 34.62682 27.86792
# Shear Modulus (GPa) = 17.46115 2.29900 9.88008
#
# Velocity S-wave (km/s) = 3.01560 1.09423 2.26839
# Velocity P-wave (km/s) = 4.80820 4.43061 4.62326
#
# Compressibility (1/GPa) = 0.04737313
#
# Stress axis : x y z
#
# Youngs Moduli (GPa) = 20.35626 75.58255 94.08233
#
# Poissons Ratio (x) = 0.17561 0.82996
# Poissons Ratio (y) = 0.04730 0.15623
# Poissons Ratio (z) = 0.17958 0.12551
#
# Static dielectric constant tensor:
#      x y z
#    x 1.676320 0.000000 0.000000 
#    y 0.000000 1.686530 0.000000 
#    z 0.000000 0.000000 1.666060 
# 
# From -- ./inp_files/9970.got.cif
#   From: 2010.05.17/outbox.cif.g08.bks.cpg/sg53_5_cif.got.tgz:9970.got - 2010.06.03 12:45:16.
