data_PCOD9416929
_publ_section_title
;
Structure prediction by ZEFSAII (Michael W. Deem and Ramdas Pophale) SiO2 
 PCOD9416929
Probable space group: P M N A
;
_chemical_formula_sum "Si O2"
_cell_formula_units_Z 56
_cell_length_a 18.223375
_cell_length_b 11.629540
_cell_length_c 15.125106
_cell_angle_alpha 90.000000
_cell_angle_beta 90.000000
_cell_angle_gamma 90.000000
_cell_volume 3205.455676
_symmetry_space_group_name_H-M "P M N A"
_symmetry_group_IT_number 53
_symmetry_cell_setting 'orthorhombic'
loop_
_space_group_symop_operation_xyz
x,y,z
1/2-x,-y,1/2+z
x,-y,-z
1/2-x,y,1/2-z
-x,-y,-z
1/2+x,y,1/2-z
-x,y,z
1/2+x,-y,1/2+z
loop_
_atom_site_type_symbol
_atom_site_label
_atom_site_fract_x
_atom_site_fract_y
_atom_site_fract_z
Si Si1 0.087299 0.645935 0.859351
Si Si2 0.414580 0.257639 0.849902
Si Si3 0.089418 0.006842 0.602452
Si Si4 0.912440 0.234165 0.317548
Si Si5 0.645214 0.364605 0.021712
Si Si6 0.669498 0.418875 0.712516
Si Si7 0.190622 0.637467 0.017485
O O1 0.101020 0.741183 0.784711
O O2 0.122616 0.529908 0.817468
O O3 0.000000 0.630075 0.871989
O O4 0.127766 0.677499 0.950493
O O5 0.500000 0.261121 0.824641
O O6 0.387571 0.125743 0.851559
O O7 0.369777 0.342720 0.786868
O O8 0.405695 0.300895 0.950708
O O9 0.000000 0.009524 0.602441
O O10 0.112497 0.000000 0.500000
O O11 0.113219 0.890774 0.650956
O O12 0.878243 0.332147 0.379858
O O13 0.000000 0.240020 0.331331
O O14 0.641735 0.500000 0.000000
O O15 0.728298 0.321723 0.007462
O O16 0.750000 0.452225 0.750000
O O17 0.677994 0.347072 0.621462
O O18 0.192545 0.500000 0.000000
#
# Coordination Sequence:
#
# PCOD9416929 Si02
#       7
#     8   8   8   8   8   8   8
#     4  10  22  37  57  84 112 146 194 232 267 330
#     4  11  21  33  56  82 108 144 186 228 275 336
#     4   9  17  33  53  77 108 147 186 224 277 332
#     4  10  20  33  54  81 113 144 182 234 274 324
#     4  11  20  31  51  82 116 145 174 218 284 338
#     4  11  21  36  55  81 115 148 180 228 284 336
#     4   9  21  36  54  75 108 156 182 216 275 333
#
# _framework density 17.470215
#
# number of rings (size 3 to 8) (size 9 to 14) (size 15 to 20)
#    0.000    1.857    2.857    1.714    4.000    5.429 
#    0.000    0.000    3.143    0.857    0.000    4.000 
#    0.000    0.000    0.000    0.000    0.000    0.000 
#
# Total GULP energy -312320.283603 kJ/mol
# GULP energy per Si atom -5577.147921 kJ/mol
# Density = 1.743045 g / cm^3
# Si number density = 17.470215 Si / 1000 Ang^3
#
#
#
# Elastic Constant Matrix: (Units=GPa)
#
#
# Indices 1 2 3 4 5 6 
#
# 1 52.8067 14.7214 22.4799 0.0000 0.0000 0.0000
# 2 14.7214 53.5550 -0.8455 0.0000 0.0000 0.0000
# 3 22.4799 -0.8455 75.0538 0.0000 0.0000 0.0000
# 4 0.0000 0.0000 0.0000 15.2072 0.0000 0.0000
# 5 0.0000 0.0000 0.0000 0.0000 29.1353 0.0000
# 6 0.0000 0.0000 0.0000 0.0000 0.0000 -3.7142
#
#
#
# Elastic Compliance Matrix: (Units=1/GPa)
#
#
# Indices 1 2 3 4 5 6 
#
# 1 0.023874 -0.006677 -0.007226 0.000000 0.000000 0.000000
# 2 -0.006677 0.020543 0.002231 0.000000 0.000000 0.000000
# 3 -0.007226 0.002231 0.015513 0.000000 0.000000 0.000000
# 4 0.000000 0.000000 0.000000 0.065758 0.000000 0.000000
# 5 0.000000 0.000000 0.000000 0.000000 0.034323 0.000000
# 6 0.000000 0.000000 0.000000 0.000000 0.000000 -0.269235
#
#
# Mechanical properties :
#
#
# Convention : Reuss Voigt Hill
#
# Bulk Modulus (GPa) = 27.33174 28.23634 27.78404
# Shear Modulus (GPa) = -67.85644 17.79632 -25.03006
#
# Velocity S-wave (km/s) = -6.23903 3.19512 -3.78925
# Velocity P-wave (km/s) = 6.01847 5.45979 1.79062
#
# Compressibility (1/GPa) = 0.03658750
#
# Stress axis : x y z
#
# Youngs Moduli (GPa) = 41.88580 48.67849 64.46117
#
# Poissons Ratio (x) = 0.32502 0.46580
# Poissons Ratio (y) = 0.27966 -0.14383
# Poissons Ratio (z) = 0.30267 -0.10861
#
# Static dielectric constant tensor:
#      x y z
#    x 1.601050 0.000000 0.000000 
#    y 0.000000 1.596530 0.000000 
#    z 0.000000 0.000000 1.601850 
# 
# From -- ./inp_files/22866.got.cif
#   From: 2010.05.17/outbox.cif.g08.bks.cpg/sg53_12_cif.got.tgz:22866.got - 2010.06.03 12:45:16.
