data_PCOD9416852
_publ_section_title
;
Structure prediction by ZEFSAII (Michael W. Deem and Ramdas Pophale) SiO2 
 PCOD9416852
Probable space group: P M N A
;
_chemical_formula_sum "Si O2"
_cell_formula_units_Z 56
_cell_length_a 9.168057
_cell_length_b 19.194046
_cell_length_c 17.693534
_cell_angle_alpha 90.000000
_cell_angle_beta 90.000000
_cell_angle_gamma 90.000000
_cell_volume 3113.568472
_symmetry_space_group_name_H-M "P M N A"
_symmetry_group_IT_number 53
_symmetry_cell_setting 'orthorhombic'
loop_
_space_group_symop_operation_xyz
x,y,z
1/2-x,-y,1/2+z
x,-y,-z
1/2-x,y,1/2-z
-x,-y,-z
1/2+x,y,1/2-z
-x,y,z
1/2+x,-y,1/2+z
loop_
_atom_site_type_symbol
_atom_site_label
_atom_site_fract_x
_atom_site_fract_y
_atom_site_fract_z
Si Si1 0.324425 0.329510 0.169180
Si Si2 0.328487 0.287244 0.587234
Si Si3 0.326831 0.783138 0.946574
Si Si4 0.172782 0.144164 0.829248
Si Si5 0.169068 0.458835 0.428081
Si Si6 0.825353 0.922931 0.474065
Si Si7 0.167233 0.406749 0.671425
O O1 0.250000 0.338894 0.250000
O O2 0.500000 0.338044 0.177105
O O3 0.294999 0.253517 0.133063
O O4 0.272268 0.387513 0.107856
O O5 0.500000 0.300636 0.580233
O O6 0.262794 0.257404 0.510256
O O7 0.307068 0.225621 0.648719
O O8 0.243767 0.355432 0.612698
O O9 0.500000 0.772601 0.960562
O O10 0.296608 0.864601 0.961311
O O11 0.250000 0.129235 0.750000
O O12 0.000000 0.130844 0.825006
O O13 0.243719 0.101481 0.898377
O O14 0.235522 0.500000 0.500000
O O15 0.169765 0.515446 0.361368
O O16 0.000000 0.442998 0.450167
O O17 0.000000 0.922613 0.459914
O O18 0.782673 0.000000 0.500000
O O19 0.250000 0.402866 0.750000
O O20 0.000000 0.385170 0.681345
#
# Coordination Sequence:
#
# PCOD9416852 Si02
#       7
#     8   8   8   8   8   8   8
#     4  10  20  35  55  77 103 137 177 219 263 311
#     4  10  20  33  51  76 104 133 168 210 255 305
#     4   9  18  34  56  78 101 135 174 208 252 310
#     4  10  20  33  51  76 105 137 172 210 254 306
#     4   9  18  33  52  72  95 128 171 216 261 309
#     4   9  18  34  56  80 107 137 170 212 261 313
#     4  11  21  32  48  70  99 132 165 204 251 300
#
# _framework density 17.985793000000001
#
# number of rings (size 3 to 8) (size 9 to 14) (size 15 to 20)
#    0.000    2.286    0.000    3.000    0.000    6.000 
#    0.000    1.429    0.000    4.714    0.000    0.000 
#    0.000    0.000    0.000    0.000    0.000    0.000 
#
# Total GULP energy -312340.635054 kJ/mol
# GULP energy per Si atom -5577.511340 kJ/mol
# Density = 1.794486 g / cm^3
# Si number density = 17.985793 Si / 1000 Ang^3
#
#
#
# Elastic Constant Matrix: (Units=GPa)
#
#
# Indices 1 2 3 4 5 6 
#
# 1 41.6506 38.1649 25.2386 0.0000 0.0000 0.0000
# 2 38.1649 109.0557 40.9414 0.0000 0.0000 0.0000
# 3 25.2386 40.9414 80.8066 0.0000 0.0000 0.0000
# 4 0.0000 0.0000 0.0000 14.4247 0.0000 0.0000
# 5 0.0000 0.0000 0.0000 0.0000 29.9410 0.0000
# 6 0.0000 0.0000 0.0000 0.0000 0.0000 17.1169
#
#
#
# Elastic Compliance Matrix: (Units=1/GPa)
#
#
# Indices 1 2 3 4 5 6 
#
# 1 0.037771 -0.010854 -0.006298 0.000000 0.000000 0.000000
# 2 -0.010854 0.014442 -0.003927 0.000000 0.000000 0.000000
# 3 -0.006298 -0.003927 0.016332 0.000000 0.000000 0.000000
# 4 0.000000 0.000000 0.000000 0.069325 0.000000 0.000000
# 5 0.000000 0.000000 0.000000 0.000000 0.033399 0.000000
# 6 0.000000 0.000000 0.000000 0.000000 0.000000 0.058422
#
#
# Mechanical properties :
#
#
# Convention : Reuss Voigt Hill
#
# Bulk Modulus (GPa) = 37.89711 48.91140 43.40425
# Shear Modulus (GPa) = 17.81602 20.77439 19.29520
#
# Velocity S-wave (km/s) = 3.15073 3.40228 3.27892
# Velocity P-wave (km/s) = 5.86110 6.53357 6.20645
#
# Compressibility (1/GPa) = 0.02638724
#
# Stress axis : x y z
#
# Youngs Moduli (GPa) = 26.47519 69.24035 61.22907
#
# Poissons Ratio (x) = 0.75153 0.38562
# Poissons Ratio (y) = 0.28736 0.24047
# Poissons Ratio (z) = 0.16674 0.27193
#
# Static dielectric constant tensor:
#      x y z
#    x 1.605690 0.000000 0.000000 
#    y 0.000000 1.629700 0.000000 
#    z 0.000000 0.000000 1.605050 
# 
# From -- ./inp_files/20468.got.cif
#   From: 2010.05.17/outbox.cif.g08.bks.cpg/sg53_11_cif.got.tgz:20468.got - 2010.06.03 12:45:16.
