data_PCOD9416525
_publ_section_title
;
Structure prediction by ZEFSAII (Michael W. Deem and Ramdas Pophale) SiO2 
 PCOD9416525
Probable space group: P M N A
;
_chemical_formula_sum "Si O2"
_cell_formula_units_Z 40
_cell_length_a 11.392578
_cell_length_b 7.693344
_cell_length_c 20.729061
_cell_angle_alpha 90.000000
_cell_angle_beta 90.000000
_cell_angle_gamma 90.000000
_cell_volume 1816.840457
_symmetry_space_group_name_H-M "P M N A"
_symmetry_group_IT_number 53
_symmetry_cell_setting 'orthorhombic'
loop_
_space_group_symop_operation_xyz
x,y,z
1/2-x,-y,1/2+z
x,-y,-z
1/2-x,y,1/2-z
-x,-y,-z
1/2+x,y,1/2-z
-x,y,z
1/2+x,-y,1/2+z
loop_
_atom_site_type_symbol
_atom_site_label
_atom_site_fract_x
_atom_site_fract_y
_atom_site_fract_z
Si Si1 0.371120 0.646266 0.878877
Si Si2 0.249299 0.030674 0.326377
Si Si3 0.366052 0.698170 0.202622
Si Si4 0.872281 0.209366 0.518769
Si Si5 0.374007 0.864469 0.439448
O O1 0.500000 0.707896 0.856220
O O2 0.354376 0.460615 0.846770
O O3 0.371883 0.670641 0.955237
O O4 0.277815 0.783688 0.854991
O O5 0.250000 0.054270 0.250000
O O6 0.148790 0.883435 0.332879
O O7 0.355340 0.956253 0.369730
O O8 0.250000 0.688679 0.250000
O O9 0.500000 0.689660 0.230773
O O10 0.745581 0.240472 0.550036
O O11 0.000000 0.241774 0.550401
O O12 0.872683 0.000000 0.500000
O O13 0.500000 0.772661 0.439831
O O14 0.376357 0.000000 0.500000
#
# Coordination Sequence:
#
# PCOD9416525 Si02
#       5
#     8   8   8   8   8
#     4  10  19  36  61  89 121 160 207 255 308 370
#     4  11  22  37  63  92 123 165 210 258 316 377
#     4  10  23  41  61  90 129 166 208 263 315 377
#     4   9  16  31  59  86 114 159 206 252 305 363
#     4  10  20  37  61  91 128 166 207 258 317 376
#
# _framework density 22.01624
#
# number of rings (size 3 to 8) (size 9 to 14) (size 15 to 20)
#    0.000    2.000    4.000    1.200    0.000    4.800 
#    0.000    3.000    0.000    4.800    0.000    0.000 
#    0.000    0.000    0.000    0.000    0.000    0.000 
#
# Total GULP energy -222718.602880 kJ/mol
# GULP energy per Si atom -5567.965072 kJ/mol
# Density = 2.196613 g / cm^3
# Si number density = 22.016240 Si / 1000 Ang^3
#
#
#
# Elastic Constant Matrix: (Units=GPa)
#
#
# Indices 1 2 3 4 5 6 
#
# 1 192.8104 19.0185 41.3449 0.0000 0.0000 0.0000
# 2 19.0185 75.1375 6.9037 0.0000 0.0000 0.0000
# 3 41.3449 6.9037 92.3519 0.0000 0.0000 0.0000
# 4 0.0000 0.0000 0.0000 30.9058 0.0000 0.0000
# 5 0.0000 0.0000 0.0000 0.0000 27.2795 0.0000
# 6 0.0000 0.0000 0.0000 0.0000 0.0000 18.8467
#
#
#
# Elastic Compliance Matrix: (Units=1/GPa)
#
#
# Indices 1 2 3 4 5 6 
#
# 1 0.005851 -0.001249 -0.002526 0.000000 0.000000 0.000000
# 2 -0.001249 0.013668 -0.000463 0.000000 0.000000 0.000000
# 3 -0.002526 -0.000463 0.011994 0.000000 0.000000 0.000000
# 4 0.000000 0.000000 0.000000 0.032356 0.000000 0.000000
# 5 0.000000 0.000000 0.000000 0.000000 0.036658 0.000000
# 6 0.000000 0.000000 0.000000 0.000000 0.000000 0.053060
#
#
# Mechanical properties :
#
#
# Convention : Reuss Voigt Hill
#
# Bulk Modulus (GPa) = 43.40824 54.98157 49.19490
# Shear Modulus (GPa) = 29.45668 34.94191 32.19930
#
# Velocity S-wave (km/s) = 3.66177 3.98816 3.82845
# Velocity P-wave (km/s) = 6.13493 6.79961 6.47580
#
# Compressibility (1/GPa) = 0.02303710
#
# Stress axis : x y z
#
# Youngs Moduli (GPa) = 170.90105 73.16593 83.37727
#
# Poissons Ratio (x) = 0.09138 0.21063
# Poissons Ratio (y) = 0.21345 0.03857
# Poissons Ratio (z) = 0.43173 0.03384
#
# Static dielectric constant tensor:
#      x y z
#    x 1.824810 0.000000 0.000000 
#    y 0.000000 1.802140 0.000000 
#    z 0.000000 0.000000 1.684050 
# 
# From -- ./inp_files/31785.got.cif
#   From: 2010.05.17/outbox.cif.g08.bks.cpg/sg53_16_cif.got.tgz:31785.got - 2010.06.03 12:45:16.
