data_PCOD9416152
_publ_section_title
;
Structure prediction by ZEFSAII (Michael W. Deem and Ramdas Pophale) SiO2 
 PCOD9416152
Probable space group: P M N A
;
_chemical_formula_sum "Si O2"
_cell_formula_units_Z 64
_cell_length_a 17.471234
_cell_length_b 17.025869
_cell_length_c 12.393443
_cell_angle_alpha 90.000000
_cell_angle_beta 90.000000
_cell_angle_gamma 90.000000
_cell_volume 3686.590008
_symmetry_space_group_name_H-M "P M N A"
_symmetry_group_IT_number 53
_symmetry_cell_setting 'orthorhombic'
loop_
_space_group_symop_operation_xyz
x,y,z
1/2-x,-y,1/2+z
x,-y,-z
1/2-x,y,1/2-z
-x,-y,-z
1/2+x,y,1/2-z
-x,y,z
1/2+x,-y,1/2+z
loop_
_atom_site_type_symbol
_atom_site_label
_atom_site_fract_x
_atom_site_fract_y
_atom_site_fract_z
Si Si1 0.844186 0.672344 0.566914
Si Si2 0.407972 0.370866 0.839057
Si Si3 0.907067 0.108184 0.914889
Si Si4 0.409758 0.546882 0.771707
Si Si5 0.663075 0.344464 0.399153
Si Si6 0.092019 0.714313 0.115608
Si Si7 0.408134 0.055951 0.342334
Si Si8 0.340830 0.203023 0.236734
O O1 0.864944 0.663392 0.442524
O O2 0.892675 0.608130 0.632789
O O3 0.754775 0.655919 0.591172
O O4 0.859919 0.756477 0.622669
O O5 0.500000 0.368316 0.858830
O O6 0.386766 0.460980 0.813155
O O7 0.390994 0.322550 0.731141
O O8 0.880447 0.195399 0.888086
O O9 0.000000 0.108923 0.910149
O O10 0.881771 0.034859 0.840800
O O11 0.886740 0.087845 0.038390
O O12 0.500000 0.545048 0.746903
O O13 0.365265 0.580052 0.667536
O O14 0.627901 0.333998 0.517099
O O15 0.637303 0.268423 0.327573
O O16 0.000000 0.713704 0.101252
O O17 0.500000 0.055858 0.336602
O O18 0.377613 0.119019 0.258158
O O19 0.250000 0.194201 0.250000
#
# Coordination Sequence:
#
# PCOD9416152 Si02
#       8
#     8   8   8   8   8   8   8   8
#     4  10  21  37  52  76 107 142 182 214 257 316
#     4  10  22  38  55  75 103 144 182 215 260 315
#     4   8  15  27  49  80 106 126 160 214 267 311
#     4  10  20  37  58  78 102 131 176 228 267 309
#     4  10  20  35  53  80 106 135 172 222 276 314
#     4  10  19  34  55  78 107 140 173 217 268 317
#     4   9  15  26  50  81 104 127 167 215 263 308
#     4   9  18  31  51  73 107 138 171 216 262 305
#
# _framework density 17.360216000000001
#
# number of rings (size 3 to 8) (size 9 to 14) (size 15 to 20)
#    0.000    2.500    1.250    3.000    0.000    4.500 
#    6.750    1.875    2.750    0.750    0.000    3.500 
#    0.000    0.000    0.000    0.000    0.000    0.000 
#
# Total GULP energy -356773.860427 kJ/mol
# GULP energy per Si atom -5574.591569 kJ/mol
# Density = 1.732070 g / cm^3
# Si number density = 17.360216 Si / 1000 Ang^3
#
#
#
# Elastic Constant Matrix: (Units=GPa)
#
#
# Indices 1 2 3 4 5 6 
#
# 1 19.2543 9.1974 27.8132 0.0000 0.0000 0.0000
# 2 9.1974 68.4733 42.8613 0.0000 0.0000 0.0000
# 3 27.8132 42.8613 104.7719 0.0000 0.0000 0.0000
# 4 0.0000 0.0000 0.0000 23.2208 0.0000 0.0000
# 5 0.0000 0.0000 0.0000 0.0000 11.2583 0.0000
# 6 0.0000 0.0000 0.0000 0.0000 0.0000 2.1166
#
#
#
# Elastic Compliance Matrix: (Units=1/GPa)
#
#
# Indices 1 2 3 4 5 6 
#
# 1 0.084907 0.003635 -0.024027 0.000000 0.000000 0.000000
# 2 0.003635 0.019787 -0.009060 0.000000 0.000000 0.000000
# 3 -0.024027 -0.009060 0.019629 0.000000 0.000000 0.000000
# 4 0.000000 0.000000 0.000000 0.043065 0.000000 0.000000
# 5 0.000000 0.000000 0.000000 0.000000 0.088823 0.000000
# 6 0.000000 0.000000 0.000000 0.000000 0.000000 0.472461
#
#
# Mechanical properties :
#
#
# Convention : Reuss Voigt Hill
#
# Bulk Modulus (GPa) = 15.28581 39.13814 27.21197
# Shear Modulus (GPa) = 6.17755 14.82765 10.50260
#
# Velocity S-wave (km/s) = 1.88843 2.92570 2.46230
# Velocity P-wave (km/s) = 3.68498 5.83152 4.87779
#
# Compressibility (1/GPa) = 0.06542015
#
# Stress axis : x y z
#
# Youngs Moduli (GPa) = 11.77756 50.53849 50.94499
#
# Poissons Ratio (x) = -0.18370 1.22405
# Poissons Ratio (y) = -0.04281 0.46154
# Poissons Ratio (z) = 0.28298 0.45786
#
# Static dielectric constant tensor:
#      x y z
#    x 1.589270 0.000000 0.000000 
#    y 0.000000 1.604250 0.000000 
#    z 0.000000 0.000000 1.578340 
# 
# From -- ./inp_files/16230.got.cif
#   From: 2010.05.17/outbox.cif.g08.bks.cpg/sg53_9_cif.got.tgz:16230.got - 2010.06.03 12:45:16.
