data_PCOD9416886
_publ_section_title
;
Structure prediction by ZEFSAII (Michael W. Deem and Ramdas Pophale) SiO2 
 PCOD9416886
Probable space group: P M N A
;
_chemical_formula_sum "Si O2"
_cell_formula_units_Z 64
_cell_length_a 8.734543
_cell_length_b 22.217026
_cell_length_c 18.121953
_cell_angle_alpha 90.000000
_cell_angle_beta 90.000000
_cell_angle_gamma 90.000000
_cell_volume 3516.665900
_symmetry_space_group_name_H-M "P M N A"
_symmetry_group_IT_number 53
_symmetry_cell_setting 'orthorhombic'
loop_
_space_group_symop_operation_xyz
x,y,z
1/2-x,-y,1/2+z
x,-y,-z
1/2-x,y,1/2-z
-x,-y,-z
1/2+x,y,1/2-z
-x,y,z
1/2+x,-y,1/2+z
loop_
_atom_site_type_symbol
_atom_site_label
_atom_site_fract_x
_atom_site_fract_y
_atom_site_fract_z
Si Si1 0.314919 0.066172 0.974961
Si Si2 0.817219 0.501863 0.329010
Si Si3 0.684728 0.607160 0.935599
Si Si4 0.315824 0.720271 0.831653
Si Si5 0.315599 0.245950 0.599960
Si Si6 0.683058 0.122525 0.671913
Si Si7 0.815389 0.811033 0.547471
Si Si8 0.683192 0.619343 0.400690
O O1 0.500000 0.066605 0.970127
O O2 0.247246 0.083957 0.895906
O O3 0.269445 0.120118 0.030929
O O4 0.265901 0.000000 0.000000
O O5 0.750000 0.483798 0.250000
O O6 0.774495 0.453655 0.391950
O O7 0.757223 0.567192 0.352160
O O8 0.000000 0.502504 0.324116
O O9 0.500000 0.608222 0.946701
O O10 0.726025 0.663339 0.883047
O O11 0.764691 0.611090 0.014534
O O12 0.250000 0.716076 0.750000
O O13 0.500000 0.720442 0.826330
O O14 0.266088 0.780057 0.876387
O O15 0.500000 0.245363 0.593593
O O16 0.270728 0.191868 0.654394
O O17 0.246968 0.228455 0.520518
O O18 0.268593 0.313047 0.622104
O O19 0.750000 0.103555 0.750000
O O20 0.500000 0.119269 0.672852
O O21 0.000000 0.808442 0.545087
O O22 0.500000 0.614908 0.395663
#
# Coordination Sequence:
#
# PCOD9416886 Si02
#       8
#     8   8   8   8   8   8   8   8
#     4   9  18  34  57  83 111 146 185 224 268 320
#     4  11  24  40  56  75 105 141 180 225 274 324
#     4  10  21  38  57  78 104 138 179 224 271 325
#     4  10  20  33  52  78 106 136 175 219 269 321
#     4   9  19  34  53  79 107 137 175 221 267 319
#     4  10  20  35  55  81 113 145 184 227 271 319
#     4   9  17  32  54  77 105 140 177 217 263 319
#     4  11  22  36  57  83 109 139 178 222 272 328
#
# _framework density 18.199055000000001
#
# number of rings (size 3 to 8) (size 9 to 14) (size 15 to 20)
#    0.000    2.125    1.250    1.875    0.000    5.250 
#    0.000    1.875    0.000    1.500    0.000    0.000 
#    0.000    0.000    0.000    0.000    0.000    0.000 
#
# Total GULP energy -357253.891844 kJ/mol
# GULP energy per Si atom -5582.092060 kJ/mol
# Density = 1.815763 g / cm^3
# Si number density = 18.199055 Si / 1000 Ang^3
#
#
#
# Elastic Constant Matrix: (Units=GPa)
#
#
# Indices 1 2 3 4 5 6 
#
# 1 12.9604 20.9936 9.3892 0.0000 0.0000 0.0000
# 2 20.9936 108.5944 8.9622 0.0000 0.0000 0.0000
# 3 9.3892 8.9622 44.1015 0.0000 0.0000 0.0000
# 4 0.0000 0.0000 0.0000 16.0214 0.0000 0.0000
# 5 0.0000 0.0000 0.0000 0.0000 30.0810 0.0000
# 6 0.0000 0.0000 0.0000 0.0000 0.0000 19.8362
#
#
#
# Elastic Compliance Matrix: (Units=1/GPa)
#
#
# Indices 1 2 3 4 5 6 
#
# 1 0.132452 -0.023676 -0.023388 0.000000 0.000000 0.000000
# 2 -0.023676 0.013598 0.002277 0.000000 0.000000 0.000000
# 3 -0.023388 0.002277 0.027191 0.000000 0.000000 0.000000
# 4 0.000000 0.000000 0.000000 0.062416 0.000000 0.000000
# 5 0.000000 0.000000 0.000000 0.000000 0.033244 0.000000
# 6 0.000000 0.000000 0.000000 0.000000 0.000000 0.050413
#
#
# Mechanical properties :
#
#
# Convention : Reuss Voigt Hill
#
# Bulk Modulus (GPa) = 11.95186 27.14961 19.55074
# Shear Modulus (GPa) = 11.44750 21.60848 16.52799
#
# Velocity S-wave (km/s) = 2.51074 3.44952 3.01687
# Velocity P-wave (km/s) = 3.87126 5.55123 4.78554
#
# Compressibility (1/GPa) = 0.08366897
#
# Stress axis : x y z
#
# Youngs Moduli (GPa) = 7.54988 73.54206 36.77626
#
# Poissons Ratio (x) = 1.74116 0.86012
# Poissons Ratio (y) = 0.17875 -0.08375
# Poissons Ratio (z) = 0.17658 -0.16748
#
# Static dielectric constant tensor:
#      x y z
#    x 1.611790 0.000000 0.000000 
#    y 0.000000 1.643860 0.000000 
#    z 0.000000 0.000000 1.588370 
# 
# From -- ./inp_files/20900.got.cif
#   From: 2010.05.17/outbox.cif.g08.bks.cpg/sg53_11_cif.got.tgz:20900.got - 2010.06.03 12:45:16.
