data_PCOD9416553
_publ_section_title
;
Structure prediction by ZEFSAII (Michael W. Deem and Ramdas Pophale) SiO2 
 PCOD9416553
Probable space group: P M N A
;
_chemical_formula_sum "Si O2"
_cell_formula_units_Z 64
_cell_length_a 8.709155
_cell_length_b 12.230629
_cell_length_c 31.611719
_cell_angle_alpha 90.000000
_cell_angle_beta 90.000000
_cell_angle_gamma 90.000000
_cell_volume 3367.231111
_symmetry_space_group_name_H-M "P M N A"
_symmetry_group_IT_number 53
_symmetry_cell_setting 'orthorhombic'
loop_
_space_group_symop_operation_xyz
x,y,z
1/2-x,-y,1/2+z
x,-y,-z
1/2-x,y,1/2-z
-x,-y,-z
1/2+x,y,1/2-z
-x,y,z
1/2+x,-y,1/2+z
loop_
_atom_site_type_symbol
_atom_site_label
_atom_site_fract_x
_atom_site_fract_y
_atom_site_fract_z
Si Si1 0.682799 0.509827 0.048507
Si Si2 0.681774 0.266322 0.581561
Si Si3 0.187213 0.032140 0.953306
Si Si4 0.314569 0.504772 0.294609
Si Si5 0.185478 0.634137 0.876799
Si Si6 0.814151 0.112790 0.126351
Si Si7 0.681482 0.750150 0.317357
Si Si8 0.681596 0.019441 0.794434
O O1 0.500000 0.496150 0.048933
O O2 0.728053 0.628890 0.065640
O O3 0.754760 0.422403 0.080653
O O4 0.737428 0.500000 0.000000
O O5 0.500000 0.283227 0.573024
O O6 0.733055 0.154566 0.559368
O O7 0.697349 0.252363 0.631894
O O8 0.000000 0.031090 0.953494
O O9 0.235311 0.948192 0.916696
O O10 0.240065 0.000000 0.000000
O O11 0.250000 0.463933 0.250000
O O12 0.500000 0.502420 0.293624
O O13 0.264634 0.434678 0.335404
O O14 0.267778 0.631622 0.300742
O O15 0.232831 0.760501 0.873562
O O16 0.000000 0.630303 0.877777
O O17 0.750909 0.047316 0.166402
O O18 0.000000 0.108544 0.128027
O O19 0.500000 0.764635 0.307636
O O20 0.772080 0.853449 0.299887
O O21 0.750000 0.979886 0.750000
O O22 0.500000 0.008693 0.794131
#
# Coordination Sequence:
#
# PCOD9416553 Si02
#       8
#     8   8   8   8   8   8   8   8
#     4  11  25  41  58  86 126 163 199 247 301 355
#     4  10  19  36  64  90 119 154 197 249 295 351
#     4   9  18  33  58  93 121 147 189 244 298 347
#     4  10  21  37  57  86 117 148 191 241 294 351
#     4  10  22  41  64  88 115 156 205 247 292 353
#     4  10  21  40  63  87 120 155 197 251 299 350
#     4  10  19  37  61  88 122 152 192 249 299 349
#     4  12  25  40  61  88 121 159 203 246 297 360
#
# _framework density 19.006715
#
# number of rings (size 3 to 8) (size 9 to 14) (size 15 to 20)
#    0.000    1.750    2.500    1.875    1.750    4.500 
#    0.000    1.250    0.000    0.750    0.000    0.000 
#    0.000    0.000    0.000    0.000    0.000    0.000 
#
# Total GULP energy -357583.326881 kJ/mol
# GULP energy per Si atom -5587.239483 kJ/mol
# Density = 1.896345 g / cm^3
# Si number density = 19.006715 Si / 1000 Ang^3
#
#
#
# Elastic Constant Matrix: (Units=GPa)
#
#
# Indices 1 2 3 4 5 6 
#
# 1 17.5682 27.0767 31.2155 0.0000 0.0000 0.0000
# 2 27.0767 131.3943 69.1697 0.0000 0.0000 0.0000
# 3 31.2155 69.1697 152.1720 0.0000 0.0000 0.0000
# 4 0.0000 0.0000 0.0000 92.6912 0.0000 0.0000
# 5 0.0000 0.0000 0.0000 0.0000 23.6879 0.0000
# 6 0.0000 0.0000 0.0000 0.0000 0.0000 7.4272
#
#
#
# Elastic Compliance Matrix: (Units=1/GPa)
#
#
# Indices 1 2 3 4 5 6 
#
# 1 0.105228 -0.013568 -0.015418 0.000000 0.000000 0.000000
# 2 -0.013568 0.011754 -0.002560 0.000000 0.000000 0.000000
# 3 -0.015418 -0.002560 0.010898 0.000000 0.000000 0.000000
# 4 0.000000 0.000000 0.000000 0.010789 0.000000 0.000000
# 5 0.000000 0.000000 0.000000 0.000000 0.042216 0.000000
# 6 0.000000 0.000000 0.000000 0.000000 0.000000 0.134640
#
#
# Mechanical properties :
#
#
# Convention : Reuss Voigt Hill
#
# Bulk Modulus (GPa) = 15.43499 61.78424 38.60961
# Shear Modulus (GPa) = 12.49339 36.33944 24.41642
#
# Velocity S-wave (km/s) = 2.56660 4.37730 3.58805
# Velocity P-wave (km/s) = 4.11359 7.62396 6.12562
#
# Compressibility (1/GPa) = 0.06478788
#
# Stress axis : x y z
#
# Youngs Moduli (GPa) = 9.50322 85.07700 91.76156
#
# Poissons Ratio (x) = 1.15430 1.41482
# Poissons Ratio (y) = 0.12894 0.23487
# Poissons Ratio (z) = 0.14652 0.21776
#
# Static dielectric constant tensor:
#      x y z
#    x 1.643860 0.000000 0.000000 
#    y 0.000000 1.639230 0.000000 
#    z 0.000000 0.000000 1.645710 
# 
# From -- ./inp_files/38249.got.cif
#   From: 2010.05.17/outbox.cif.g08.bks.cpg/sg53_20_cif.got.tgz:38249.got - 2010.06.03 12:45:16.
