data_PCOD9416507
_publ_section_title
;
Structure prediction by ZEFSAII (Michael W. Deem and Ramdas Pophale) SiO2 
 PCOD9416507
Probable space group: P M N A
;
_chemical_formula_sum "Si O2"
_cell_formula_units_Z 56
_cell_length_a 8.501144
_cell_length_b 19.310784
_cell_length_c 16.392632
_cell_angle_alpha 90.000000
_cell_angle_beta 90.000000
_cell_angle_gamma 90.000000
_cell_volume 2691.076032
_symmetry_space_group_name_H-M "P M N A"
_symmetry_group_IT_number 53
_symmetry_cell_setting 'orthorhombic'
loop_
_space_group_symop_operation_xyz
x,y,z
1/2-x,-y,1/2+z
x,-y,-z
1/2-x,y,1/2-z
-x,-y,-z
1/2+x,y,1/2-z
-x,y,z
1/2+x,-y,1/2+z
loop_
_atom_site_type_symbol
_atom_site_label
_atom_site_fract_x
_atom_site_fract_y
_atom_site_fract_z
Si Si1 0.818615 0.294951 0.089663
Si Si2 0.816918 0.422336 0.332633
Si Si3 0.186256 0.842368 0.663271
Si Si4 0.809240 0.841014 0.163247
Si Si5 0.315247 0.699243 0.401786
Si Si6 0.812415 0.082149 0.003474
Si Si7 0.187268 0.544375 0.077358
O O1 0.718745 0.364249 0.100511
O O2 0.760736 0.232999 0.145714
O O3 0.000000 0.312326 0.107306
O O4 0.809017 0.273922 0.995063
O O5 0.750000 0.390345 0.250000
O O6 0.720658 0.492003 0.349552
O O7 0.000000 0.437365 0.328020
O O8 0.250000 0.869326 0.750000
O O9 0.232194 0.887276 0.584223
O O10 0.000000 0.835728 0.668386
O O11 0.750000 0.868641 0.250000
O O12 0.749272 0.761611 0.151986
O O13 0.760691 0.883459 0.082337
O O14 0.000000 0.840549 0.163891
O O15 0.500000 0.692202 0.379608
O O16 0.248687 0.621098 0.403916
O O17 0.000000 0.095868 0.011571
O O18 0.788146 0.000000 0.000000
O O19 0.000000 0.552905 0.062604
O O20 0.251398 0.500000 0.000000
#
# Coordination Sequence:
#
# PCOD9416507 Si02
#       7
#     8   8   8   8   8   8   8
#     4  11  20  39  65  89 120 161 207 257 315 379
#     4  12  25  39  55  83 119 157 201 253 312 372
#     4  12  25  41  64  97 133 170 212 262 317 380
#     4  10  21  40  64  93 127 165 210 259 314 373
#     4   9  18  35  62  88 116 156 204 255 312 373
#     4  10  22  43  70  98 131 171 213 260 316 376
#     4  10  19  36  60  84 111 153 201 251 316 377
#
# _framework density 20.809519999999999
#
# number of rings (size 3 to 8) (size 9 to 14) (size 15 to 20)
#    0.000    1.429    2.857    3.429    0.000    2.286 
#    0.000    3.571    0.000    0.000    0.000    0.000 
#    0.000    0.000    0.000    0.000    0.000    0.000 
#
# Total GULP energy -312647.362977 kJ/mol
# GULP energy per Si atom -5582.988625 kJ/mol
# Density = 2.076216 g / cm^3
# Si number density = 20.809520 Si / 1000 Ang^3
#
#
#
# Elastic Constant Matrix: (Units=GPa)
#
#
# Indices 1 2 3 4 5 6 
#
# 1 19.3121 18.4296 6.3492 0.0000 0.0000 0.0000
# 2 18.4296 63.2801 36.4088 0.0000 0.0000 0.0000
# 3 6.3492 36.4088 100.1218 0.0000 0.0000 0.0000
# 4 0.0000 0.0000 0.0000 26.5749 0.0000 0.0000
# 5 0.0000 0.0000 0.0000 0.0000 28.0901 0.0000
# 6 0.0000 0.0000 0.0000 0.0000 0.0000 -440.2479
#
#
#
# Elastic Compliance Matrix: (Units=1/GPa)
#
#
# Indices 1 2 3 4 5 6 
#
# 1 0.072907 -0.023487 0.003918 0.000000 0.000000 0.000000
# 2 -0.023487 0.027551 -0.008529 0.000000 0.000000 0.000000
# 3 0.003918 -0.008529 0.012841 0.000000 0.000000 0.000000
# 4 0.000000 0.000000 0.000000 0.037630 0.000000 0.000000
# 5 0.000000 0.000000 0.000000 0.000000 0.035600 0.000000
# 6 0.000000 0.000000 0.000000 0.000000 0.000000 -0.002271
#
#
# Mechanical properties :
#
#
# Convention : Reuss Voigt Hill
#
# Bulk Modulus (GPa) = 17.51289 33.89882 25.70585
# Shear Modulus (GPa) = 19.26872 -69.01483 -24.87306
#
# Velocity S-wave (km/s) = 3.04626 -5.76516 -3.46102
# Velocity P-wave (km/s) = 4.56147 5.29062 1.89521
#
# Compressibility (1/GPa) = 0.05710080
#
# Stress axis : x y z
#
# Youngs Moduli (GPa) = 13.71608 36.29694 77.87565
#
# Poissons Ratio (x) = 0.85252 -0.30509
# Poissons Ratio (y) = 0.32216 0.66421
# Poissons Ratio (z) = -0.05374 0.30958
#
# Static dielectric constant tensor:
#      x y z
#    x 1.715290 0.000000 0.000000 
#    y 0.000000 1.762250 0.000000 
#    z 0.000000 0.000000 1.813560 
# 
# From -- ./inp_files/20616.got.cif
#   From: 2010.05.17/outbox.cif.g08.bks.cpg/sg53_11_cif.got.tgz:20616.got - 2010.06.03 12:45:16.
