data_PCOD9416495
_publ_section_title
;
Structure prediction by ZEFSAII (Michael W. Deem and Ramdas Pophale) SiO2 
 PCOD9416495
Probable space group: P M N A
;
_chemical_formula_sum "Si O2"
_cell_formula_units_Z 48
_cell_length_a 7.764336
_cell_length_b 17.316755
_cell_length_c 16.165996
_cell_angle_alpha 90.000000
_cell_angle_beta 90.000000
_cell_angle_gamma 90.000000
_cell_volume 2173.568345
_symmetry_space_group_name_H-M "P M N A"
_symmetry_group_IT_number 53
_symmetry_cell_setting 'orthorhombic'
loop_
_space_group_symop_operation_xyz
x,y,z
1/2-x,-y,1/2+z
x,-y,-z
1/2-x,y,1/2-z
-x,-y,-z
1/2+x,y,1/2-z
-x,y,z
1/2+x,-y,1/2+z
loop_
_atom_site_type_symbol
_atom_site_label
_atom_site_fract_x
_atom_site_fract_y
_atom_site_fract_z
Si Si1 0.291577 0.327054 0.887569
Si Si2 0.293406 0.497586 0.842827
Si Si3 0.803971 0.839894 0.158864
Si Si4 0.290373 0.348009 0.077282
Si Si5 0.292633 0.806634 0.842866
Si Si6 0.799314 0.085167 0.490385
O O1 0.500000 0.322999 0.878999
O O2 0.229130 0.410651 0.856915
O O3 0.215147 0.252813 0.843354
O O4 0.247780 0.323392 0.984501
O O5 0.250000 0.521437 0.750000
O O6 0.500000 0.493093 0.853875
O O7 0.228274 0.565969 0.901672
O O8 0.750000 0.867334 0.250000
O O9 0.706278 0.872412 0.078935
O O10 0.000000 0.861889 0.145656
O O11 0.500000 0.351370 0.081290
O O12 0.230246 0.280773 0.138797
O O13 0.250000 0.831329 0.750000
O O14 0.500000 0.803883 0.849855
O O15 0.226362 0.862374 0.916105
O O16 0.000000 0.074300 0.467924
O O17 0.721078 0.000000 0.500000
#
# Coordination Sequence:
#
# PCOD9416495 Si02
#       6
#     8   8   8   8   8   8
#     4  10  19  36  59  82 114 154 204 252 299 355
#     4  10  20  32  51  79 112 153 198 247 296 355
#     4  12  25  41  64  92 124 162 206 252 304 363
#     4   9  17  33  56  81 111 153 200 243 296 356
#     4  10  20  36  60  88 121 157 195 241 293 357
#     4  10  22  43  68  93 123 159 198 246 306 365
#
# _framework density 22.083500999999998
#
# number of rings (size 3 to 8) (size 9 to 14) (size 15 to 20)
#    0.000    1.833    1.667    3.000    0.000    5.667 
#    0.000    2.500    0.000    2.000    0.000    0.000 
#    0.000    0.000    0.000    0.000    0.000    0.000 
#
# Total GULP energy -268131.905759 kJ/mol
# GULP energy per Si atom -5586.081370 kJ/mol
# Density = 2.203324 g / cm^3
# Si number density = 22.083501 Si / 1000 Ang^3
#
#
#
# Elastic Constant Matrix: (Units=GPa)
#
#
# Indices 1 2 3 4 5 6 
#
# 1 30.2851 -3.7583 -17.3444 0.0000 0.0000 0.0000
# 2 -3.7583 108.7853 28.9870 0.0000 0.0000 0.0000
# 3 -17.3444 28.9870 107.2092 0.0000 0.0000 0.0000
# 4 0.0000 0.0000 0.0000 7.2028 0.0000 0.0000
# 5 0.0000 0.0000 0.0000 0.0000 237.8682 0.0000
# 6 0.0000 0.0000 0.0000 0.0000 0.0000 -0.7259
#
#
#
# Elastic Compliance Matrix: (Units=1/GPa)
#
#
# Indices 1 2 3 4 5 6 
#
# 1 0.036403 -0.000336 0.005980 0.000000 0.000000 0.000000
# 2 -0.000336 0.009909 -0.002734 0.000000 0.000000 0.000000
# 3 0.005980 -0.002734 0.011034 0.000000 0.000000 0.000000
# 4 0.000000 0.000000 0.000000 0.138834 0.000000 0.000000
# 5 0.000000 0.000000 0.000000 0.000000 0.004204 0.000000
# 6 0.000000 0.000000 0.000000 0.000000 0.000000 -1.377580
#
#
# Mechanical properties :
#
#
# Convention : Reuss Voigt Hill
#
# Bulk Modulus (GPa) = 15.83095 29.11646 22.47370
# Shear Modulus (GPa) = -4.30307 64.76203 30.22948
#
# Velocity S-wave (km/s) = -1.39742 5.42122 3.70384
# Velocity P-wave (km/s) = 2.14022 7.23875 5.33761
#
# Compressibility (1/GPa) = 0.06316740
#
# Stress axis : x y z
#
# Youngs Moduli (GPa) = 27.47049 100.91629 90.62799
#
# Poissons Ratio (x) = 0.03389 -0.54196
# Poissons Ratio (y) = 0.00923 0.24774
# Poissons Ratio (z) = -0.16428 0.27586
#
# Static dielectric constant tensor:
#      x y z
#    x 1.821610 0.000000 0.000000 
#    y 0.000000 1.820310 0.000000 
#    z 0.000000 0.000000 1.802220 
# 
# From -- ./inp_files/20158.got.cif
#   From: 2010.05.17/outbox.cif.g08.bks.cpg/sg53_11_cif.got.tgz:20158.got - 2010.06.03 12:45:16.
