data_PCOD9416771
_publ_section_title
;
Structure prediction by ZEFSAII (Michael W. Deem and Ramdas Pophale) SiO2 
 PCOD9416771
Probable space group: P M N A
;
_chemical_formula_sum "Si O2"
_cell_formula_units_Z 56
_cell_length_a 8.764493
_cell_length_b 20.111919
_cell_length_c 18.787626
_cell_angle_alpha 90.000000
_cell_angle_beta 90.000000
_cell_angle_gamma 90.000000
_cell_volume 3311.709363
_symmetry_space_group_name_H-M "P M N A"
_symmetry_group_IT_number 53
_symmetry_cell_setting 'orthorhombic'
loop_
_space_group_symop_operation_xyz
x,y,z
1/2-x,-y,1/2+z
x,-y,-z
1/2-x,y,1/2-z
-x,-y,-z
1/2+x,y,1/2-z
-x,y,z
1/2+x,-y,1/2+z
loop_
_atom_site_type_symbol
_atom_site_label
_atom_site_fract_x
_atom_site_fract_y
_atom_site_fract_z
Si Si1 0.174884 0.953427 0.070289
Si Si2 0.315941 0.936693 0.830541
Si Si3 0.681712 0.296036 0.459486
Si Si4 0.818592 0.361709 0.327669
Si Si5 0.180773 0.483696 0.672437
Si Si6 0.183426 0.430895 0.963901
Si Si7 0.682142 0.848338 0.968911
O O1 0.000000 0.939208 0.090788
O O2 0.257380 0.994308 0.133260
O O3 0.258005 0.889725 0.036942
O O4 0.171867 0.000000 0.000000
O O5 0.250000 0.926995 0.750000
O O6 0.500000 0.936863 0.825919
O O7 0.270641 0.881998 0.892147
O O8 0.500000 0.290646 0.467477
O O9 0.728644 0.313904 0.379570
O O10 0.736785 0.361474 0.502524
O O11 0.757842 0.226210 0.476650
O O12 0.750000 0.353683 0.250000
O O13 0.791329 0.438940 0.348052
O O14 0.000000 0.349757 0.329397
O O15 0.250000 0.474601 0.750000
O O16 0.263048 0.436880 0.616637
O O17 0.000000 0.473358 0.672863
O O18 0.000000 0.431394 0.969431
O O19 0.239397 0.500000 0.000000
O O20 0.500000 0.850169 0.968874
#
# Coordination Sequence:
#
# PCOD9416771 Si02
#       7
#     8   8   8   8   8   8   8
#     4   9  17  32  55  80 106 138 177 217 256 305
#     4  10  20  34  55  83 113 145 179 217 260 306
#     4  11  22  35  53  76 105 143 181 223 274 326
#     4  10  20  33  49  71 100 134 172 214 263 321
#     4  10  20  33  53  76 100 130 168 217 271 326
#     4  10  20  35  54  76 104 136 178 230 278 324
#     4  10  21  36  53  76 110 147 183 222 265 318
#
# _framework density 16.909697000000001
#
# number of rings (size 3 to 8) (size 9 to 14) (size 15 to 20)
#    0.000    2.000    1.429    2.571    0.000    6.571 
#    0.000    1.429    0.000    0.857    0.000    2.000 
#    0.000    0.000    0.000    0.000    0.000    0.000 
#
# Total GULP energy -312121.840044 kJ/mol
# GULP energy per Si atom -5573.604286 kJ/mol
# Density = 1.687121 g / cm^3
# Si number density = 16.909697 Si / 1000 Ang^3
#
#
#
# Elastic Constant Matrix: (Units=GPa)
#
#
# Indices 1 2 3 4 5 6 
#
# 1 29.4069 35.0120 15.8580 0.0000 0.0000 0.0000
# 2 35.0120 120.1329 48.6151 0.0000 0.0000 0.0000
# 3 15.8580 48.6151 54.0225 0.0000 0.0000 0.0000
# 4 0.0000 0.0000 0.0000 24.3156 0.0000 0.0000
# 5 0.0000 0.0000 0.0000 0.0000 30.0921 0.0000
# 6 0.0000 0.0000 0.0000 0.0000 0.0000 27.0093
#
#
#
# Elastic Compliance Matrix: (Units=1/GPa)
#
#
# Indices 1 2 3 4 5 6 
#
# 1 0.052302 -0.014202 -0.002572 0.000000 0.000000 0.000000
# 2 -0.014202 0.016948 -0.011083 0.000000 0.000000 0.000000
# 3 -0.002572 -0.011083 0.029239 0.000000 0.000000 0.000000
# 4 0.000000 0.000000 0.000000 0.041126 0.000000 0.000000
# 5 0.000000 0.000000 0.000000 0.000000 0.033231 0.000000
# 6 0.000000 0.000000 0.000000 0.000000 0.000000 0.037024
#
#
# Mechanical properties :
#
#
# Convention : Reuss Voigt Hill
#
# Bulk Modulus (GPa) = 23.37821 44.72586 34.05203
# Shear Modulus (GPa) = 17.86712 23.22188 20.54450
#
# Velocity S-wave (km/s) = 3.25410 3.70981 3.48940
# Velocity P-wave (km/s) = 5.28906 6.69757 6.03455
#
# Compressibility (1/GPa) = 0.04277487
#
# Stress axis : x y z
#
# Youngs Moduli (GPa) = 19.11980 59.00326 34.20045
#
# Poissons Ratio (x) = 0.83797 0.08797
# Poissons Ratio (y) = 0.27154 0.37904
# Poissons Ratio (z) = 0.04918 0.65392
#
# Static dielectric constant tensor:
#      x y z
#    x 1.569930 0.000000 0.000000 
#    y 0.000000 1.585370 0.000000 
#    z 0.000000 0.000000 1.473140 
# 
# From -- ./inp_files/26658.got.cif
#   From: 2010.05.17/outbox.cif.g08.bks.cpg/sg53_14_cif.got.tgz:26658.got - 2010.06.03 12:45:16.
