data_PCOD9416367
_publ_section_title
;
Structure prediction by ZEFSAII (Michael W. Deem and Ramdas Pophale) SiO2 
 PCOD9416367
Probable space group: P M N A
;
_chemical_formula_sum "Si O2"
_cell_formula_units_Z 64
_cell_length_a 9.324138
_cell_length_b 12.645409
_cell_length_c 31.003707
_cell_angle_alpha 90.000000
_cell_angle_beta 90.000000
_cell_angle_gamma 90.000000
_cell_volume 3655.570779
_symmetry_space_group_name_H-M "P M N A"
_symmetry_group_IT_number 53
_symmetry_cell_setting 'orthorhombic'
loop_
_space_group_symop_operation_xyz
x,y,z
1/2-x,-y,1/2+z
x,-y,-z
1/2-x,y,1/2-z
-x,-y,-z
1/2+x,y,1/2-z
-x,y,z
1/2+x,-y,1/2+z
loop_
_atom_site_type_symbol
_atom_site_label
_atom_site_fract_x
_atom_site_fract_y
_atom_site_fract_z
Si Si1 0.159637 0.123208 0.710438
Si Si2 0.826590 0.001672 0.551576
Si Si3 0.172107 0.189286 0.616540
Si Si4 0.659221 0.373301 0.996262
Si Si5 0.666903 0.851659 0.620054
Si Si6 0.337772 0.872389 0.790828
Si Si7 0.335929 0.629846 0.578435
Si Si8 0.830635 0.387429 0.911234
O O1 0.250000 0.167825 0.750000
O O2 0.216158 0.137007 0.661926
O O3 0.000000 0.169239 0.711625
O O4 0.148154 0.997781 0.717271
O O5 0.790770 0.112816 0.576029
O O6 0.000000 0.986404 0.555204
O O7 0.791914 0.000000 0.500000
O O8 0.744654 0.913919 0.580625
O O9 0.244192 0.303815 0.616732
O O10 0.000000 0.199019 0.615361
O O11 0.500000 0.329175 0.987320
O O12 0.725955 0.338299 0.041051
O O13 0.646087 0.500000 0.000000
O O14 0.772909 0.357506 0.958699
O O15 0.500000 0.886412 0.623078
O O16 0.751963 0.865485 0.664512
O O17 0.666199 0.725989 0.611206
O O18 0.250000 0.827374 0.750000
O O19 0.500000 0.829236 0.794283
O O20 0.500000 0.620517 0.561049
O O21 0.299107 0.512254 0.595351
O O22 0.000000 0.372358 0.907358
#
# Coordination Sequence:
#
# PCOD9416367 Si02
#       8
#     8   8   8   8   8   8   8   8
#     4   9  18  33  54  78 107 135 167 215 266 317
#     4  10  22  39  55  75 110 153 186 221 273 326
#     4  10  20  36  54  78 110 141 179 224 266 318
#     4   9  17  30  49  72  96 129 178 226 264 307
#     4  11  22  36  56  81 110 144 184 227 268 321
#     4  10  19  35  57  83 111 140 175 219 274 324
#     4   9  20  36  51  73 106 141 178 224 271 312
#     4  10  20  34  52  74 104 141 179 222 271 317
#
# _framework density 17.507525999999999
#
# number of rings (size 3 to 8) (size 9 to 14) (size 15 to 20)
#    0.000    2.250    1.250    1.500    1.750    4.750 
#    0.000    0.000    0.000    0.750    0.000    1.750 
#    0.000    0.000    0.000    0.000    0.000    0.000 
#
# Total GULP energy -356325.198905 kJ/mol
# GULP energy per Si atom -5567.581233 kJ/mol
# Density = 1.746768 g / cm^3
# Si number density = 17.507526 Si / 1000 Ang^3
#
#
#
# Elastic Constant Matrix: (Units=GPa)
#
#
# Indices 1 2 3 4 5 6 
#
# 1 68.6504 31.9634 54.9129 0.0000 0.0000 0.0000
# 2 31.9634 64.5271 21.7002 0.0000 0.0000 0.0000
# 3 54.9129 21.7002 115.4797 0.0000 0.0000 0.0000
# 4 0.0000 0.0000 0.0000 15.9590 0.0000 0.0000
# 5 0.0000 0.0000 0.0000 0.0000 40.8768 0.0000
# 6 0.0000 0.0000 0.0000 0.0000 0.0000 21.9812
#
#
#
# Elastic Compliance Matrix: (Units=1/GPa)
#
#
# Indices 1 2 3 4 5 6 
#
# 1 0.028745 -0.010293 -0.011735 0.000000 0.000000 0.000000
# 2 -0.010293 0.020228 0.001093 0.000000 0.000000 0.000000
# 3 -0.011735 0.001093 0.014034 0.000000 0.000000 0.000000
# 4 0.000000 0.000000 0.000000 0.062661 0.000000 0.000000
# 5 0.000000 0.000000 0.000000 0.000000 0.024464 0.000000
# 6 0.000000 0.000000 0.000000 0.000000 0.000000 0.045493
#
#
# Mechanical properties :
#
#
# Convention : Reuss Voigt Hill
#
# Bulk Modulus (GPa) = 47.30541 51.75669 49.53105
# Shear Modulus (GPa) = 20.44648 25.10210 22.77429
#
# Velocity S-wave (km/s) = 3.42112 3.79065 3.61061
# Velocity P-wave (km/s) = 6.53330 6.98466 6.76275
#
# Compressibility (1/GPa) = 0.02113923
#
# Stress axis : x y z
#
# Youngs Moduli (GPa) = 34.78811 49.43600 71.25404
#
# Poissons Ratio (x) = 0.50883 0.83616
# Poissons Ratio (y) = 0.35806 -0.07790
# Poissons Ratio (z) = 0.40824 -0.05404
#
# Static dielectric constant tensor:
#      x y z
#    x 1.624010 0.000000 0.000000 
#    y 0.000000 1.606580 0.000000 
#    z 0.000000 0.000000 1.606760 
# 
# From -- ./inp_files/38185.got.cif
#   From: 2010.05.17/outbox.cif.g08.bks.cpg/sg53_20_cif.got.tgz:38185.got - 2010.06.03 12:45:16.
