data_PCOD9416160
_publ_section_title
;
Structure prediction by ZEFSAII (Michael W. Deem and Ramdas Pophale) SiO2 
 PCOD9416160
Probable space group: P M N A
;
_chemical_formula_sum "Si O2"
_cell_formula_units_Z 56
_cell_length_a 8.892057
_cell_length_b 22.026321
_cell_length_c 14.577711
_cell_angle_alpha 90.000000
_cell_angle_beta 90.000000
_cell_angle_gamma 90.000000
_cell_volume 2855.180299
_symmetry_space_group_name_H-M "P M N A"
_symmetry_group_IT_number 53
_symmetry_cell_setting 'orthorhombic'
loop_
_space_group_symop_operation_xyz
x,y,z
1/2-x,-y,1/2+z
x,-y,-z
1/2-x,y,1/2-z
-x,-y,-z
1/2+x,y,1/2-z
-x,y,z
1/2+x,-y,1/2+z
loop_
_atom_site_type_symbol
_atom_site_label
_atom_site_fract_x
_atom_site_fract_y
_atom_site_fract_z
Si Si1 0.672406 0.222869 0.657152
Si Si2 0.321660 0.215984 0.038308
Si Si3 0.169757 0.369005 0.839630
Si Si4 0.180971 0.908376 0.955442
Si Si5 0.819664 0.967087 0.149354
Si Si6 0.183413 0.431620 0.020603
Si Si7 0.818824 0.672924 0.849709
O O1 0.750000 0.199616 0.750000
O O2 0.500000 0.200921 0.647630
O O3 0.770197 0.211975 0.567501
O O4 0.666295 0.296242 0.663995
O O5 0.500000 0.222035 0.046508
O O6 0.262554 0.152209 0.077925
O O7 0.240774 0.273368 0.084820
O O8 0.250000 0.392626 0.750000
O O9 0.000000 0.391526 0.837259
O O10 0.236463 0.391476 0.934485
O O11 0.215865 0.965451 0.889762
O O12 0.000000 0.900111 0.954754
O O13 0.223576 0.924929 0.061570
O O14 0.750000 0.955955 0.250000
O O15 0.000000 0.962588 0.158069
O O16 0.228041 0.392923 0.109474
O O17 0.000000 0.432675 0.023272
O O18 0.233739 0.500000 0.000000
O O19 0.750000 0.681587 0.750000
O O20 0.000000 0.675840 0.847673
#
# Coordination Sequence:
#
# PCOD9416160 Si02
#       7
#     8   8   8   8   8   8   8
#     4  10  19  34  55  82 113 149 188 235 292 352
#     4  12  24  38  59  88 120 159 203 248 298 354
#     4   9  17  31  52  79 106 140 178 221 279 338
#     4   9  20  39  59  84 119 159 197 239 294 354
#     4   9  19  37  62  87 116 155 196 240 294 348
#     4   9  18  35  59  84 113 151 192 236 294 357
#     4  11  23  42  63  86 118 157 200 248 301 357
#
# _framework density 19.613474
#
# number of rings (size 3 to 8) (size 9 to 14) (size 15 to 20)
#    0.000    2.143    1.429    3.000    0.000    3.429 
#    0.000    4.286    0.000    3.000    0.000    0.000 
#    0.000    0.000    0.000    0.000    0.000    0.000 
#
# Total GULP energy -312372.072582 kJ/mol
# GULP energy per Si atom -5578.072725 kJ/mol
# Density = 1.956883 g / cm^3
# Si number density = 19.613474 Si / 1000 Ang^3
#
#
#
# Elastic Constant Matrix: (Units=GPa)
#
#
# Indices 1 2 3 4 5 6 
#
# 1 62.4003 32.1447 23.2361 0.0000 0.0000 0.0000
# 2 32.1447 101.8065 33.3991 0.0000 0.0000 0.0000
# 3 23.2361 33.3991 94.0071 0.0000 0.0000 0.0000
# 4 0.0000 0.0000 0.0000 5.7039 0.0000 0.0000
# 5 0.0000 0.0000 0.0000 0.0000 31.1199 0.0000
# 6 0.0000 0.0000 0.0000 0.0000 0.0000 14.3771
#
#
#
# Elastic Compliance Matrix: (Units=1/GPa)
#
#
# Indices 1 2 3 4 5 6 
#
# 1 0.019876 -0.005279 -0.003037 0.000000 0.000000 0.000000
# 2 -0.005279 0.012521 -0.003143 0.000000 0.000000 0.000000
# 3 -0.003037 -0.003143 0.012505 0.000000 0.000000 0.000000
# 4 0.000000 0.000000 0.000000 0.175317 0.000000 0.000000
# 5 0.000000 0.000000 0.000000 0.000000 0.032134 0.000000
# 6 0.000000 0.000000 0.000000 0.000000 0.000000 0.069555
#
#
# Mechanical properties :
#
#
# Convention : Reuss Voigt Hill
#
# Bulk Modulus (GPa) = 45.49210 48.41930 46.95570
# Shear Modulus (GPa) = 14.19828 21.53579 17.86704
#
# Velocity S-wave (km/s) = 2.69347 3.31722 3.02148
# Velocity P-wave (km/s) = 5.73739 6.27792 6.01373
#
# Compressibility (1/GPa) = 0.02198184
#
# Stress axis : x y z
#
# Youngs Moduli (GPa) = 50.31164 79.86745 79.96778
#
# Poissons Ratio (x) = 0.42165 0.24288
# Poissons Ratio (y) = 0.26561 0.25138
# Poissons Ratio (z) = 0.15281 0.25106
#
# Static dielectric constant tensor:
#      x y z
#    x 1.667840 0.000000 0.000000 
#    y 0.000000 1.716500 0.000000 
#    z 0.000000 0.000000 1.699140 
# 
# From -- ./inp_files/20604.got.cif
#   From: 2010.05.17/outbox.cif.g08.bks.cpg/sg53_11_cif.got.tgz:20604.got - 2010.06.03 12:45:16.
