data_PCOD9416438
_publ_section_title
;
Structure prediction by ZEFSAII (Michael W. Deem and Ramdas Pophale) SiO2 
 PCOD9416438
Probable space group: P M N A
;
_chemical_formula_sum "Si O2"
_cell_formula_units_Z 48
_cell_length_a 18.019784
_cell_length_b 11.183793
_cell_length_c 11.599089
_cell_angle_alpha 90.000000
_cell_angle_beta 90.000000
_cell_angle_gamma 90.000000
_cell_volume 2337.559003
_symmetry_space_group_name_H-M "P M N A"
_symmetry_group_IT_number 53
_symmetry_cell_setting 'orthorhombic'
loop_
_space_group_symop_operation_xyz
x,y,z
1/2-x,-y,1/2+z
x,-y,-z
1/2-x,y,1/2-z
-x,-y,-z
1/2+x,y,1/2-z
-x,y,z
1/2+x,-y,1/2+z
loop_
_atom_site_type_symbol
_atom_site_label
_atom_site_fract_x
_atom_site_fract_y
_atom_site_fract_z
Si Si1 0.859970 0.635181 0.450192
Si Si2 0.084275 0.316930 0.806487
Si Si3 0.581399 0.222228 0.155865
Si Si4 0.724700 0.063055 0.125631
Si Si5 0.196304 0.734500 0.007550
Si Si6 0.418673 0.405028 0.365257
O O1 0.863080 0.500000 0.500000
O O2 0.888170 0.660242 0.322600
O O3 0.910164 0.715312 0.532991
O O4 0.775454 0.681918 0.456501
O O5 0.143090 0.241778 0.882603
O O6 0.082352 0.453676 0.851799
O O7 0.000000 0.269182 0.809929
O O8 0.500000 0.166872 0.171422
O O9 0.649425 0.131329 0.161073
O O10 0.587749 0.331149 0.246616
O O11 0.750000 0.005207 0.250000
O O12 0.786720 0.157797 0.080976
O O13 0.709810 0.000000 0.000000
O O14 0.150579 0.636971 0.937557
O O15 0.500000 0.370673 0.414726
#
# Coordination Sequence:
#
# PCOD9416438 Si02
#       6
#     8   8   8   8   8   8
#     4  11  21  33  54  86 129 170 210 251 301 372
#     4  11  22  35  56  90 133 175 210 249 302 371
#     4  10  21  38  64  91 120 162 207 254 311 382
#     4  11  25  46  70  93 121 162 216 278 337 385
#     4  11  23  38  59  88 123 162 211 259 317 374
#     4  10  19  35  60  88 124 166 206 243 300 377
#
# _framework density 20.534241000000002
#
# number of rings (size 3 to 8) (size 9 to 14) (size 15 to 20)
#    0.000    1.333    3.333    3.000    0.000    5.000 
#    0.000    0.000    0.000    4.500    0.000    0.000 
#    0.000    0.000    0.000    0.000    0.000    0.000 
#
# Total GULP energy -267594.172334 kJ/mol
# GULP energy per Si atom -5574.878590 kJ/mol
# Density = 2.048750 g / cm^3
# Si number density = 20.534241 Si / 1000 Ang^3
#
#
#
# Elastic Constant Matrix: (Units=GPa)
#
#
# Indices 1 2 3 4 5 6 
#
# 1 114.1981 13.5112 53.5243 0.0000 0.0000 0.0000
# 2 13.5112 21.4800 14.7380 0.0000 0.0000 0.0000
# 3 53.5243 14.7380 134.5453 0.0000 0.0000 0.0000
# 4 0.0000 0.0000 0.0000 33.1986 0.0000 0.0000
# 5 0.0000 0.0000 0.0000 0.0000 24.5210 0.0000
# 6 0.0000 0.0000 0.0000 0.0000 0.0000 13.2397
#
#
#
# Elastic Compliance Matrix: (Units=1/GPa)
#
#
# Indices 1 2 3 4 5 6 
#
# 1 0.011116 -0.004280 -0.003953 0.000000 0.000000 0.000000
# 2 -0.004280 0.051986 -0.003992 0.000000 0.000000 0.000000
# 3 -0.003953 -0.003992 0.009442 0.000000 0.000000 0.000000
# 4 0.000000 0.000000 0.000000 0.030122 0.000000 0.000000
# 5 0.000000 0.000000 0.000000 0.000000 0.040781 0.000000
# 6 0.000000 0.000000 0.000000 0.000000 0.000000 0.075530
#
#
# Mechanical properties :
#
#
# Convention : Reuss Voigt Hill
#
# Bulk Modulus (GPa) = 20.79245 48.19669 34.49457
# Shear Modulus (GPa) = 19.27087 26.75519 23.01303
#
# Velocity S-wave (km/s) = 3.06678 3.61356 3.35134
# Velocity P-wave (km/s) = 4.76318 6.39787 5.64007
#
# Compressibility (1/GPa) = 0.04809438
#
# Stress axis : x y z
#
# Youngs Moduli (GPa) = 89.96081 19.23602 105.90507
#
# Poissons Ratio (x) = 0.08232 0.41868
# Poissons Ratio (y) = 0.38499 0.42277
# Poissons Ratio (z) = 0.35564 0.07679
#
# Static dielectric constant tensor:
#      x y z
#    x 1.726470 0.000000 0.000000 
#    y 0.000000 1.737280 0.000000 
#    z 0.000000 0.000000 1.818760 
# 
# From -- ./inp_files/16894.got.cif
#   From: 2010.05.17/outbox.cif.g08.bks.cpg/sg53_9_cif.got.tgz:16894.got - 2010.06.03 12:45:16.
