data_PCOD9416007
_publ_section_title
;
Structure prediction by ZEFSAII (Michael W. Deem and Ramdas Pophale) SiO2 
 PCOD9416007
Probable space group: P M N A
;
_chemical_formula_sum "Si O2"
_cell_formula_units_Z 48
_cell_length_a 17.541394
_cell_length_b 16.535927
_cell_length_c 8.963778
_cell_angle_alpha 90.000000
_cell_angle_beta 90.000000
_cell_angle_gamma 90.000000
_cell_volume 2600.062226
_symmetry_space_group_name_H-M "P M N A"
_symmetry_group_IT_number 53
_symmetry_cell_setting 'orthorhombic'
loop_
_space_group_symop_operation_xyz
x,y,z
1/2-x,-y,1/2+z
x,-y,-z
1/2-x,y,1/2-z
-x,-y,-z
1/2+x,y,1/2-z
-x,y,z
1/2+x,-y,1/2+z
loop_
_atom_site_type_symbol
_atom_site_label
_atom_site_fract_x
_atom_site_fract_y
_atom_site_fract_z
Si Si1 0.590969 0.168115 0.192350
Si Si2 0.165649 0.500447 0.323037
Si Si3 0.837669 0.333035 0.195596
Si Si4 0.411530 0.589199 0.423646
Si Si5 0.912341 0.916255 0.404220
Si Si6 0.830284 0.984730 0.826376
O O1 0.500000 0.168974 0.186738
O O2 0.622181 0.251180 0.255747
O O3 0.616901 0.092419 0.292698
O O4 0.617831 0.149261 0.022282
O O5 0.171914 0.500000 0.500000
O O6 0.250000 0.504644 0.250000
O O7 0.131250 0.413129 0.278638
O O8 0.117598 0.571325 0.243746
O O9 0.750000 0.326853 0.250000
O O10 0.856324 0.353650 0.022276
O O11 0.407322 0.500000 0.500000
O O12 0.500000 0.615820 0.428893
O O13 0.000000 0.898512 0.365014
O O14 0.912058 0.000000 0.500000
O O15 0.864634 0.937321 0.258602
O O16 0.750000 0.966385 0.750000
O O17 0.821401 0.000000 0.000000
#
# Coordination Sequence:
#
# PCOD9416007 Si02
#       6
#     8   8   8   8   8   8
#     4  10  20  35  55  78 108 144 180 221 273 332
#     4  10  19  34  56  81 109 144 189 237 285 340
#     4  10  19  33  55  81 109 145 186 224 273 335
#     4   9  18  33  53  78 109 144 183 227 275 333
#     4   8  16  32  52  74 102 136 172 210 257 316
#     4  11  21  34  55  80 106 137 179 227 273 327
#
# _framework density 18.461096000000001
#
# number of rings (size 3 to 8) (size 9 to 14) (size 15 to 20)
#    0.000    2.333    0.000    6.500    0.000    2.333 
#    0.000    1.667    0.000    6.000    0.000    0.000 
#    0.000    0.000    0.000    0.000    0.000    0.000 
#
# Total GULP energy -267503.416914 kJ/mol
# GULP energy per Si atom -5572.987852 kJ/mol
# Density = 1.841908 g / cm^3
# Si number density = 18.461096 Si / 1000 Ang^3
#
#
#
# Elastic Constant Matrix: (Units=GPa)
#
#
# Indices 1 2 3 4 5 6 
#
# 1 77.6464 28.2803 45.8417 0.0000 0.0000 0.0000
# 2 28.2803 80.9726 45.6464 0.0000 0.0000 0.0000
# 3 45.8417 45.6464 163.3965 0.0000 0.0000 0.0000
# 4 0.0000 0.0000 0.0000 21.0316 0.0000 0.0000
# 5 0.0000 0.0000 0.0000 0.0000 23.8716 0.0000
# 6 0.0000 0.0000 0.0000 0.0000 0.0000 13.3060
#
#
#
# Elastic Compliance Matrix: (Units=1/GPa)
#
#
# Indices 1 2 3 4 5 6 
#
# 1 0.016320 -0.003702 -0.003544 0.000000 0.000000 0.000000
# 2 -0.003702 0.015498 -0.003291 0.000000 0.000000 0.000000
# 3 -0.003544 -0.003291 0.008034 0.000000 0.000000 0.000000
# 4 0.000000 0.000000 0.000000 0.047547 0.000000 0.000000
# 5 0.000000 0.000000 0.000000 0.000000 0.041891 0.000000
# 6 0.000000 0.000000 0.000000 0.000000 0.000000 0.075154
#
#
# Mechanical properties :
#
#
# Convention : Reuss Voigt Hill
#
# Bulk Modulus (GPa) = 53.25590 62.39471 57.82530
# Shear Modulus (GPa) = 21.57241 25.12497 23.34869
#
# Velocity S-wave (km/s) = 3.42209 3.69313 3.56019
# Velocity P-wave (km/s) = 6.67267 7.21505 6.94915
#
# Compressibility (1/GPa) = 0.01877726
#
# Stress axis : x y z
#
# Youngs Moduli (GPa) = 61.27538 64.52488 124.47304
#
# Poissons Ratio (x) = 0.23885 0.44119
# Poissons Ratio (y) = 0.22682 0.40964
# Poissons Ratio (z) = 0.21719 0.21235
#
# Static dielectric constant tensor:
#      x y z
#    x 1.659290 0.000000 0.000000 
#    y 0.000000 1.627950 0.000000 
#    z 0.000000 0.000000 1.662010 
# 
# From -- ./inp_files/8630.got.cif
#   From: 2010.05.17/outbox.cif.g08.bks.cpg/sg53_5_cif.got.tgz:8630.got - 2010.06.03 12:45:16.
