data_PCOD9416475
_publ_section_title
;
Structure prediction by ZEFSAII (Michael W. Deem and Ramdas Pophale) SiO2 
 PCOD9416475
Probable space group: P M N A
;
_chemical_formula_sum "Si O2"
_cell_formula_units_Z 64
_cell_length_a 20.430433
_cell_length_b 19.046413
_cell_length_c 8.547757
_cell_angle_alpha 90.000000
_cell_angle_beta 90.000000
_cell_angle_gamma 90.000000
_cell_volume 3326.158462
_symmetry_space_group_name_H-M "P M N A"
_symmetry_group_IT_number 53
_symmetry_cell_setting 'orthorhombic'
loop_
_space_group_symop_operation_xyz
x,y,z
1/2-x,-y,1/2+z
x,-y,-z
1/2-x,y,1/2-z
-x,-y,-z
1/2+x,y,1/2-z
-x,y,z
1/2+x,-y,1/2+z
loop_
_atom_site_type_symbol
_atom_site_label
_atom_site_fract_x
_atom_site_fract_y
_atom_site_fract_z
Si Si1 0.922435 0.543521 0.649672
Si Si2 0.720497 0.207611 0.084905
Si Si3 0.674428 0.704717 0.190074
Si Si4 0.684481 0.947682 0.853565
Si Si5 0.862228 0.202704 0.973373
Si Si6 0.574924 0.596255 0.310998
Si Si7 0.571967 0.933315 0.610727
Si Si8 0.077224 0.668296 0.852486
O O1 0.896192 0.500000 0.500000
O O2 0.917353 0.486596 0.788446
O O3 0.897445 0.618420 0.712248
O O4 0.000000 0.555017 0.619133
O O5 0.750000 0.232954 0.250000
O O6 0.682697 0.134932 0.103865
O O7 0.682092 0.263860 0.982516
O O8 0.786048 0.185923 0.992720
O O9 0.750000 0.693549 0.250000
O O10 0.636860 0.760548 0.303593
O O11 0.629640 0.636277 0.209422
O O12 0.750000 0.958381 0.750000
O O13 0.621872 0.955669 0.744765
O O14 0.685250 0.000000 0.000000
O O15 0.902131 0.133051 0.011000
O O16 0.884825 0.260961 0.101329
O O17 0.500000 0.613557 0.260004
O O18 0.581369 0.622220 0.488431
O O19 0.500000 0.915801 0.673299
O O20 0.567804 0.000000 0.500000
O O21 0.000000 0.684116 0.827159
#
# Coordination Sequence:
#
# PCOD9416475 Si02
#       8
#     8   8   8   8   8   8   8   8
#     4   9  17  29  47  76 109 145 192 243 293 347
#     4  10  20  36  55  84 112 147 195 244 287 350
#     4   9  20  34  58  84 113 154 192 245 298 353
#     4  11  23  39  64  89 115 154 204 248 291 363
#     4  10  19  36  57  83 114 148 199 246 300 359
#     4   9  17  32  53  79 111 144 193 244 291 350
#     4  11  24  41  60  88 124 159 196 250 309 361
#     4   9  17  30  52  78 107 150 191 237 295 355
#
# _framework density 19.241416000000001
#
# number of rings (size 3 to 8) (size 9 to 14) (size 15 to 20)
#    0.000    2.250    2.500    1.125    1.750    3.750 
#    0.000    0.625    0.000    5.250    0.000    0.000 
#    0.000    0.000    0.000    0.000    0.000    0.000 
#
# Total GULP energy -356603.896602 kJ/mol
# GULP energy per Si atom -5571.935884 kJ/mol
# Density = 1.919762 g / cm^3
# Si number density = 19.241416 Si / 1000 Ang^3
#
#
#
# Elastic Constant Matrix: (Units=GPa)
#
#
# Indices 1 2 3 4 5 6 
#
# 1 85.7596 35.8819 26.3211 0.0000 0.0000 0.0000
# 2 35.8819 98.8159 48.8977 0.0000 0.0000 0.0000
# 3 26.3211 48.8977 71.4899 0.0000 0.0000 0.0000
# 4 0.0000 0.0000 0.0000 30.0356 0.0000 0.0000
# 5 0.0000 0.0000 0.0000 0.0000 15.5463 0.0000
# 6 0.0000 0.0000 0.0000 0.0000 0.0000 87.9090
#
#
#
# Elastic Compliance Matrix: (Units=1/GPa)
#
#
# Indices 1 2 3 4 5 6 
#
# 1 0.014049 -0.003842 -0.002544 0.000000 0.000000 0.000000
# 2 -0.003842 0.016348 -0.009767 0.000000 0.000000 0.000000
# 3 -0.002544 -0.009767 0.021605 0.000000 0.000000 0.000000
# 4 0.000000 0.000000 0.000000 0.033294 0.000000 0.000000
# 5 0.000000 0.000000 0.000000 0.000000 0.064324 0.000000
# 6 0.000000 0.000000 0.000000 0.000000 0.000000 0.011375
#
#
# Mechanical properties :
#
#
# Convention : Reuss Voigt Hill
#
# Bulk Modulus (GPa) = 50.77531 53.14077 51.95804
# Shear Modulus (GPa) = 25.01637 36.36247 30.68942
#
# Velocity S-wave (km/s) = 3.60965 4.35190 3.99804
# Velocity P-wave (km/s) = 6.61956 7.27530 6.95516
#
# Compressibility (1/GPa) = 0.01969461
#
# Stress axis : x y z
#
# Youngs Moduli (GPa) = 71.17894 61.16862 46.28475
#
# Poissons Ratio (x) = 0.23503 0.11777
# Poissons Ratio (y) = 0.27350 0.45207
# Poissons Ratio (z) = 0.18111 0.59745
#
# Static dielectric constant tensor:
#      x y z
#    x 1.677700 0.000000 0.000000 
#    y 0.000000 1.686960 0.000000 
#    z 0.000000 0.000000 1.732440 
# 
# From -- ./inp_files/11223.got.cif
#   From: 2010.05.17/outbox.cif.g08.bks.cpg/sg53_6_cif.got.tgz:11223.got - 2010.06.03 12:45:16.
