data_PCOD9416950
_publ_section_title
;
Structure prediction by ZEFSAII (Michael W. Deem and Ramdas Pophale) SiO2 
 PCOD9416950
Probable space group: P M N A
;
_chemical_formula_sum "Si O2"
_cell_formula_units_Z 32
_cell_length_a 10.905454
_cell_length_b 4.968618
_cell_length_c 27.026742
_cell_angle_alpha 90.000000
_cell_angle_beta 90.000000
_cell_angle_gamma 90.000000
_cell_volume 1464.444962
_symmetry_space_group_name_H-M "P M N A"
_symmetry_group_IT_number 53
_symmetry_cell_setting 'orthorhombic'
loop_
_space_group_symop_operation_xyz
x,y,z
1/2-x,-y,1/2+z
x,-y,-z
1/2-x,y,1/2-z
-x,-y,-z
1/2+x,y,1/2-z
-x,y,z
1/2+x,-y,1/2+z
loop_
_atom_site_type_symbol
_atom_site_label
_atom_site_fract_x
_atom_site_fract_y
_atom_site_fract_z
Si Si1 0.359203 0.978072 0.577996
Si Si2 0.637018 0.696978 0.785140
Si Si3 0.290109 0.446254 0.947780
Si Si4 0.188695 0.814474 0.350157
O O1 0.500000 0.910501 0.572622
O O2 0.316046 0.221733 0.542441
O O3 0.325993 0.105247 0.631972
O O4 0.273154 0.719169 0.571118
O O5 0.750000 0.776869 0.750000
O O6 0.500000 0.681190 0.762541
O O7 0.672738 0.412481 0.809297
O O8 0.632285 0.916258 0.828735
O O9 0.360488 0.308348 0.902075
O O10 0.353447 0.500000 0.000000
#
# Coordination Sequence:
#
# PCOD9416950 Si02
#       4
#     8   8   8   8
#     4  10  20  33  56  90 131 175 221 268 319 379
#     4  12  26  46  72  97 129 168 218 276 337 403
#     4  10  20  35  59  91 135 181 224 267 320 391
#     4  10  22  43  61  94 131 171 213 266 338 385
#
# _framework density 21.851279000000002
#
# number of rings (size 3 to 8) (size 9 to 14) (size 15 to 20)
#    1.500    0.000    2.500    3.000    0.000    5.000 
#    0.000    0.000    0.000    4.500    0.000    0.000 
#    0.000    0.000    0.000    0.000    0.000    0.000 
#
# Total GULP energy -178170.878364 kJ/mol
# GULP energy per Si atom -5567.839949 kJ/mol
# Density = 2.180154 g / cm^3
# Si number density = 21.851279 Si / 1000 Ang^3
#
#
#
# Elastic Constant Matrix: (Units=GPa)
#
#
# Indices 1 2 3 4 5 6 
#
# 1 107.7797 22.0762 54.8700 0.0000 0.0000 0.0000
# 2 22.0762 133.5270 7.5640 0.0000 0.0000 0.0000
# 3 54.8700 7.5640 63.2815 0.0000 0.0000 0.0000
# 4 0.0000 0.0000 0.0000 31.5199 0.0000 0.0000
# 5 0.0000 0.0000 0.0000 0.0000 14.2274 0.0000
# 6 0.0000 0.0000 0.0000 0.0000 0.0000 -8.2170
#
#
#
# Elastic Compliance Matrix: (Units=1/GPa)
#
#
# Indices 1 2 3 4 5 6 
#
# 1 0.017127 -0.002004 -0.014611 0.000000 0.000000 0.000000
# 2 -0.002004 0.007775 0.000808 0.000000 0.000000 0.000000
# 3 -0.014611 0.000808 0.028375 0.000000 0.000000 0.000000
# 4 0.000000 0.000000 0.000000 0.031726 0.000000 0.000000
# 5 0.000000 0.000000 0.000000 0.000000 0.070287 0.000000
# 6 0.000000 0.000000 0.000000 0.000000 0.000000 -0.121699
#
#
# Mechanical properties :
#
#
# Convention : Reuss Voigt Hill
#
# Bulk Modulus (GPa) = 46.16148 52.62319 49.39233
# Shear Modulus (GPa) = 69.03768 22.17791 45.60780
#
# Velocity S-wave (km/s) = 5.62698 3.18928 4.57353
# Velocity P-wave (km/s) = 7.96168 6.13977 7.10933
#
# Compressibility (1/GPa) = 0.02166308
#
# Stress axis : x y z
#
# Youngs Moduli (GPa) = 58.38744 128.62310 35.24279
#
# Poissons Ratio (x) = 0.25776 0.51493
# Poissons Ratio (y) = 0.11701 -0.02849
# Poissons Ratio (z) = 0.85309 -0.10396
#
# Static dielectric constant tensor:
#      x y z
#    x 1.821560 0.000000 0.000000 
#    y 0.000000 1.785670 0.000000 
#    z 0.000000 0.000000 1.883240 
# 
# From -- ./inp_files/34640.got.cif
#   From: 2010.05.17/outbox.cif.g08.bks.cpg/sg53_18_cif.got.tgz:34640.got - 2010.06.03 12:45:16.
