data_PCOD9416571
_publ_section_title
;
Structure prediction by ZEFSAII (Michael W. Deem and Ramdas Pophale) SiO2 
 PCOD9416571
Probable space group: P M N A
;
_chemical_formula_sum "Si O2"
_cell_formula_units_Z 44
_cell_length_a 23.124936
_cell_length_b 9.085181
_cell_length_c 11.053153
_cell_angle_alpha 90.000000
_cell_angle_beta 90.000000
_cell_angle_gamma 90.000000
_cell_volume 2322.203659
_symmetry_space_group_name_H-M "P M N A"
_symmetry_group_IT_number 53
_symmetry_cell_setting 'orthorhombic'
loop_
_space_group_symop_operation_xyz
x,y,z
1/2-x,-y,1/2+z
x,-y,-z
1/2-x,y,1/2-z
-x,-y,-z
1/2+x,y,1/2-z
-x,y,z
1/2+x,-y,1/2+z
loop_
_atom_site_type_symbol
_atom_site_label
_atom_site_fract_x
_atom_site_fract_y
_atom_site_fract_z
Si Si1 0.148937 0.696754 0.212554
Si Si2 0.250000 0.506829 0.750000
Si Si3 0.165349 0.832076 0.536371
Si Si4 0.707962 0.724811 0.537898
Si Si5 0.066539 0.356124 0.586028
Si Si6 0.682342 0.036287 0.280250
O O1 0.197682 0.601939 0.283117
O O2 0.090521 0.637515 0.275560
O O3 0.153820 0.875034 0.225802
O O4 0.167252 0.673455 0.071845
O O5 0.224152 0.608543 0.856650
O O6 0.227389 0.769264 0.496888
O O7 0.111615 0.752678 0.477475
O O8 0.160864 0.845223 0.681099
O O9 0.165644 0.000000 0.500000
O O10 0.680877 0.872323 0.596011
O O11 0.069492 0.500000 0.500000
O O12 0.000000 0.307348 0.586929
O O13 0.750000 0.011415 0.250000
#
# Coordination Sequence:
#
# PCOD9416571 Si02
#       6
#     8   4   8   8   8   8
#     4  12  22  38  60  88 126 162 206 255 307 373
#     4  12  22  34  56  96 128 160 196 244 308 384
#     4  11  19  37  62  91 127 163 200 251 312 379
#     4  11  22  37  61  97 132 162 195 244 320 392
#     4  11  26  44  63  86 120 167 219 270 314 360
#     4  10  19  37  57  90 132 163 189 241 316 380
#
# _framework density 18.947520000000001
#
# number of rings (size 3 to 8) (size 9 to 14) (size 15 to 20)
#    0.000    0.909    5.455    5.455    0.000    0.364 
#    0.000    0.000    0.000    5.455    0.000    0.000 
#    0.000    0.000    0.000    0.000    0.000    0.000 
#
# Total GULP energy -245223.825056 kJ/mol
# GULP energy per Si atom -5573.268751 kJ/mol
# Density = 1.890439 g / cm^3
# Si number density = 18.947520 Si / 1000 Ang^3
#
#
#
# Elastic Constant Matrix: (Units=GPa)
#
#
# Indices 1 2 3 4 5 6 
#
# 1 100.5556 25.0112 42.1065 0.0000 0.0000 0.0000
# 2 25.0112 74.4116 40.5764 0.0000 0.0000 0.0000
# 3 42.1065 40.5764 131.6084 0.0000 0.0000 0.0000
# 4 0.0000 0.0000 0.0000 28.2610 0.0000 0.0000
# 5 0.0000 0.0000 0.0000 0.0000 2.4985 0.0000
# 6 0.0000 0.0000 0.0000 0.0000 0.0000 14.6030
#
#
#
# Elastic Compliance Matrix: (Units=1/GPa)
#
#
# Indices 1 2 3 4 5 6 
#
# 1 0.011800 -0.002293 -0.003068 0.000000 0.000000 0.000000
# 2 -0.002293 0.016600 -0.004384 0.000000 0.000000 0.000000
# 3 -0.003068 -0.004384 0.009932 0.000000 0.000000 0.000000
# 4 0.000000 0.000000 0.000000 0.035384 0.000000 0.000000
# 5 0.000000 0.000000 0.000000 0.000000 0.400236 0.000000
# 6 0.000000 0.000000 0.000000 0.000000 0.000000 0.068479
#
#
# Mechanical properties :
#
#
# Convention : Reuss Voigt Hill
#
# Bulk Modulus (GPa) = 53.07734 57.99598 55.53666
# Shear Modulus (GPa) = 8.79967 22.33127 15.56547
#
# Velocity S-wave (km/s) = 2.15739 3.43678 2.86930
# Velocity P-wave (km/s) = 5.85486 6.81350 6.35229
#
# Compressibility (1/GPa) = 0.01884043
#
# Stress axis : x y z
#
# Youngs Moduli (GPa) = 84.74652 60.23978 100.68747
#
# Poissons Ratio (x) = 0.13813 0.30893
# Poissons Ratio (y) = 0.19433 0.44146
# Poissons Ratio (z) = 0.26002 0.26412
#
# Static dielectric constant tensor:
#      x y z
#    x 1.609440 0.000000 0.000000 
#    y 0.000000 1.698610 0.000000 
#    z 0.000000 0.000000 1.881170 
# 
# From -- ./inp_files/18222.got.cif
#   From: 2010.05.17/outbox.cif.g08.bks.cpg/sg53_10_cif.got.tgz:18222.got - 2010.06.03 12:45:16.
