data_PCOD9416344
_publ_section_title
;
Structure prediction by ZEFSAII (Michael W. Deem and Ramdas Pophale) SiO2 
 PCOD9416344
Probable space group: P M N A
;
_chemical_formula_sum "Si O2"
_cell_formula_units_Z 64
_cell_length_a 20.438490
_cell_length_b 17.716302
_cell_length_c 8.739996
_cell_angle_alpha 90.000000
_cell_angle_beta 90.000000
_cell_angle_gamma 90.000000
_cell_volume 3164.704143
_symmetry_space_group_name_H-M "P M N A"
_symmetry_group_IT_number 53
_symmetry_cell_setting 'orthorhombic'
loop_
_space_group_symop_operation_xyz
x,y,z
1/2-x,-y,1/2+z
x,-y,-z
1/2-x,y,1/2-z
-x,-y,-z
1/2+x,y,1/2-z
-x,y,z
1/2+x,-y,1/2+z
loop_
_atom_site_type_symbol
_atom_site_label
_atom_site_fract_x
_atom_site_fract_y
_atom_site_fract_z
Si Si1 0.923882 0.552482 0.639621
Si Si2 0.721077 0.202911 0.092514
Si Si3 0.682170 0.693204 0.181788
Si Si4 0.682815 0.956084 0.843830
Si Si5 0.855446 0.192575 0.950372
Si Si6 0.425474 0.595484 0.310103
Si Si7 0.572601 0.044166 0.658282
Si Si8 0.078808 0.674855 0.869724
O O1 0.896930 0.500000 0.500000
O O2 0.923828 0.493348 0.780892
O O3 0.898080 0.630208 0.716577
O O4 0.000000 0.567785 0.596733
O O5 0.750000 0.235309 0.250000
O O6 0.672779 0.133448 0.126554
O O7 0.694742 0.266293 0.978849
O O8 0.785137 0.165650 0.011940
O O9 0.750000 0.660373 0.250000
O O10 0.661298 0.756607 0.303776
O O11 0.623917 0.633997 0.191108
O O12 0.750000 0.962226 0.750000
O O13 0.623404 0.997342 0.759627
O O14 0.692503 0.000000 0.000000
O O15 0.899978 0.125608 0.889879
O O16 0.888592 0.245871 0.080054
O O17 0.500000 0.621089 0.281324
O O18 0.408236 0.622587 0.480481
O O19 0.500000 0.049999 0.727915
O O20 0.567846 0.000000 0.500000
O O21 0.000000 0.683981 0.857674
#
# Coordination Sequence:
#
# PCOD9416344 Si02
#       8
#     8   8   8   8   8   8   8   8
#     4   9  17  29  47  75 110 146 183 225 275 333
#     4  10  20  33  52  76 103 138 184 232 280 345
#     4   9  19  35  55  78 106 143 185 233 285 339
#     4  11  21  36  58  80 106 144 190 236 286 352
#     4  10  19  35  56  78 105 141 187 236 284 339
#     4   9  17  31  53  78 105 140 184 232 279 329
#     4  11  23  38  56  81 114 147 182 232 294 351
#     4   9  17  30  51  78 105 139 183 228 277 334
#
# _framework density 20.223058999999999
#
# number of rings (size 3 to 8) (size 9 to 14) (size 15 to 20)
#    0.000    2.250    0.000    4.125    0.000    4.250 
#    0.000    0.625    0.000    6.000    0.000    0.000 
#    0.000    0.000    0.000    0.000    0.000    0.000 
#
# Total GULP energy -356832.661842 kJ/mol
# GULP energy per Si atom -5575.510341 kJ/mol
# Density = 2.017703 g / cm^3
# Si number density = 20.223059 Si / 1000 Ang^3
#
#
#
# Elastic Constant Matrix: (Units=GPa)
#
#
# Indices 1 2 3 4 5 6 
#
# 1 83.7267 40.7720 30.0779 0.0000 0.0000 0.0000
# 2 40.7720 73.9985 41.0526 0.0000 0.0000 0.0000
# 3 30.0779 41.0526 96.9381 0.0000 0.0000 0.0000
# 4 0.0000 0.0000 0.0000 34.4185 0.0000 0.0000
# 5 0.0000 0.0000 0.0000 0.0000 21.5809 0.0000
# 6 0.0000 0.0000 0.0000 0.0000 0.0000 15.0035
#
#
#
# Elastic Compliance Matrix: (Units=1/GPa)
#
#
# Indices 1 2 3 4 5 6 
#
# 1 0.016526 -0.008183 -0.001662 0.000000 0.000000 0.000000
# 2 -0.008183 0.021716 -0.006657 0.000000 0.000000 0.000000
# 3 -0.001662 -0.006657 0.013651 0.000000 0.000000 0.000000
# 4 0.000000 0.000000 0.000000 0.029054 0.000000 0.000000
# 5 0.000000 0.000000 0.000000 0.000000 0.046337 0.000000
# 6 0.000000 0.000000 0.000000 0.000000 0.000000 0.066651
#
#
# Mechanical properties :
#
#
# Convention : Reuss Voigt Hill
#
# Bulk Modulus (GPa) = 52.94629 53.16314 53.05471
# Shear Modulus (GPa) = 21.43749 23.71798 22.57774
#
# Velocity S-wave (km/s) = 3.25938 3.42836 3.34493
# Velocity P-wave (km/s) = 6.35631 6.48205 6.41949
#
# Compressibility (1/GPa) = 0.01888706
#
# Stress axis : x y z
#
# Youngs Moduli (GPa) = 60.51197 46.04880 73.25501
#
# Poissons Ratio (x) = 0.37683 0.12175
# Poissons Ratio (y) = 0.49519 0.48770
# Poissons Ratio (z) = 0.10057 0.30657
#
# Static dielectric constant tensor:
#      x y z
#    x 1.757740 0.000000 0.000000 
#    y 0.000000 1.725030 0.000000 
#    z 0.000000 0.000000 1.760760 
# 
# From -- ./inp_files/11222.got.cif
#   From: 2010.05.17/outbox.cif.g08.bks.cpg/sg53_6_cif.got.tgz:11222.got - 2010.06.03 12:45:16.
