data_PCOD9416422
_publ_section_title
;
Structure prediction by ZEFSAII (Michael W. Deem and Ramdas Pophale) SiO2 
 PCOD9416422
Probable space group: P M N A
;
_chemical_formula_sum "Si O2"
_cell_formula_units_Z 56
_cell_length_a 13.211324
_cell_length_b 9.202022
_cell_length_c 23.672116
_cell_angle_alpha 90.000000
_cell_angle_beta 90.000000
_cell_angle_gamma 90.000000
_cell_volume 2877.840307
_symmetry_space_group_name_H-M "P M N A"
_symmetry_group_IT_number 53
_symmetry_cell_setting 'orthorhombic'
loop_
_space_group_symop_operation_xyz
x,y,z
1/2-x,-y,1/2+z
x,-y,-z
1/2-x,y,1/2-z
-x,-y,-z
1/2+x,y,1/2-z
-x,y,z
1/2+x,-y,1/2+z
loop_
_atom_site_type_symbol
_atom_site_label
_atom_site_fract_x
_atom_site_fract_y
_atom_site_fract_z
Si Si1 0.120935 0.957121 0.661477
Si Si2 0.886154 0.000414 0.132611
Si Si3 0.383740 0.644401 0.537379
Si Si4 0.231239 0.095203 0.450122
Si Si5 0.266625 0.227719 0.684540
Si Si6 0.381209 0.502530 0.660321
Si Si7 0.878555 0.773288 0.772512
O O1 0.178529 0.113787 0.665996
O O2 0.000000 0.977054 0.663520
O O3 0.154567 0.884045 0.602243
O O4 0.151924 0.855285 0.715080
O O5 0.868157 0.864475 0.172785
O O6 0.000000 0.019704 0.115744
O O7 0.817821 0.993358 0.077829
O O8 0.852881 0.132901 0.172178
O O9 0.367586 0.500000 0.500000
O O10 0.500000 0.696839 0.524929
O O11 0.294664 0.763074 0.530757
O O12 0.382358 0.594054 0.602563
O O13 0.184003 0.000000 0.500000
O O14 0.250000 0.255961 0.750000
O O15 0.296144 0.378260 0.655123
O O16 0.500000 0.453941 0.668202
O O17 0.352015 0.608378 0.712382
O O18 0.000000 0.774628 0.770474
#
# Coordination Sequence:
#
# PCOD9416422 Si02
#       7
#     8   8   8   8   8   8   8
#     4  10  23  42  65  88 120 167 216 264 313 355
#     4  10  19  35  59  87 123 154 188 245 307 372
#     4  10  22  39  58  86 130 167 191 240 314 385
#     4  11  24  38  61  93 116 157 217 259 300 364
#     4  11  22  34  55  92 122 158 195 241 301 366
#     4  10  21  37  58  91 127 158 191 239 307 377
#     4   9  17  36  64  87 115 155 197 247 308 370
#
# _framework density 19.459036999999999
#
# number of rings (size 3 to 8) (size 9 to 14) (size 15 to 20)
#    0.000    1.857    2.857    0.857    4.000    3.143 
#    0.000    0.000    0.000    1.286    0.000    0.000 
#    0.000    0.000    0.000    0.000    0.000    0.000 
#
# Total GULP energy -311882.701440 kJ/mol
# GULP energy per Si atom -5569.333954 kJ/mol
# Density = 1.941475 g / cm^3
# Si number density = 19.459037 Si / 1000 Ang^3
#
#
#
# Elastic Constant Matrix: (Units=GPa)
#
#
# Indices 1 2 3 4 5 6 
#
# 1 63.7976 27.9542 16.3860 0.0000 0.0000 0.0000
# 2 27.9542 92.5449 28.5319 0.0000 0.0000 0.0000
# 3 16.3860 28.5319 80.3849 0.0000 0.0000 0.0000
# 4 0.0000 0.0000 0.0000 14.0887 0.0000 0.0000
# 5 0.0000 0.0000 0.0000 0.0000 11.7832 0.0000
# 6 0.0000 0.0000 0.0000 0.0000 0.0000 23.5014
#
#
#
# Elastic Compliance Matrix: (Units=1/GPa)
#
#
# Indices 1 2 3 4 5 6 
#
# 1 0.018345 -0.004928 -0.001990 0.000000 0.000000 0.000000
# 2 -0.004928 0.013457 -0.003772 0.000000 0.000000 0.000000
# 3 -0.001990 -0.003772 0.014185 0.000000 0.000000 0.000000
# 4 0.000000 0.000000 0.000000 0.070979 0.000000 0.000000
# 5 0.000000 0.000000 0.000000 0.000000 0.084866 0.000000
# 6 0.000000 0.000000 0.000000 0.000000 0.000000 0.042551
#
#
# Mechanical properties :
#
#
# Convention : Reuss Voigt Hill
#
# Bulk Modulus (GPa) = 40.63973 42.49685 41.56829
# Shear Modulus (GPa) = 18.25052 20.79835 19.52443
#
# Velocity S-wave (km/s) = 3.06583 3.27284 3.17102
# Velocity P-wave (km/s) = 5.78468 6.01403 5.90047
#
# Compressibility (1/GPa) = 0.02460646
#
# Stress axis : x y z
#
# Youngs Moduli (GPa) = 54.51088 74.31123 70.49843
#
# Poissons Ratio (x) = 0.36618 0.14033
# Poissons Ratio (y) = 0.26861 0.26592
# Poissons Ratio (z) = 0.10850 0.28030
#
# Static dielectric constant tensor:
#      x y z
#    x 1.723350 0.000000 0.000000 
#    y 0.000000 2.320360 0.000000 
#    z 0.000000 0.000000 1.690380 
# 
# From -- ./inp_files/32462.got.cif
#   From: 2010.05.17/outbox.cif.g08.bks.cpg/sg53_17_cif.got.tgz:32462.got - 2010.06.03 12:45:16.
