data_PCOD9416480
_publ_section_title
;
Structure prediction by ZEFSAII (Michael W. Deem and Ramdas Pophale) SiO2 
 PCOD9416480
Probable space group: P M N A
;
_chemical_formula_sum "Si O2"
_cell_formula_units_Z 56
_cell_length_a 14.845242
_cell_length_b 13.172830
_cell_length_c 14.471964
_cell_angle_alpha 90.000000
_cell_angle_beta 90.000000
_cell_angle_gamma 90.000000
_cell_volume 2830.048265
_symmetry_space_group_name_H-M "P M N A"
_symmetry_group_IT_number 53
_symmetry_cell_setting 'orthorhombic'
loop_
_space_group_symop_operation_xyz
x,y,z
1/2-x,-y,1/2+z
x,-y,-z
1/2-x,y,1/2-z
-x,-y,-z
1/2+x,y,1/2-z
-x,y,z
1/2+x,-y,1/2+z
loop_
_atom_site_type_symbol
_atom_site_label
_atom_site_fract_x
_atom_site_fract_y
_atom_site_fract_z
Si Si1 0.097781 0.699126 0.392285
Si Si2 0.892913 0.792698 0.791910
Si Si3 0.601995 0.702024 0.896244
Si Si4 0.606267 0.008286 0.396857
Si Si5 0.795635 0.616791 0.109287
Si Si6 0.708842 0.609347 0.609907
Si Si7 0.148751 0.188407 0.780155
O O1 0.107130 0.737982 0.497623
O O2 0.188334 0.634696 0.375244
O O3 0.098944 0.786087 0.315001
O O4 0.000000 0.645944 0.386977
O O5 0.883148 0.787597 0.681208
O O6 0.858603 0.896038 0.838431
O O7 0.840201 0.697338 0.834095
O O8 0.000000 0.780925 0.810742
O O9 0.500000 0.661699 0.882408
O O10 0.683075 0.622881 0.882945
O O11 0.500000 0.028572 0.407712
O O12 0.646089 0.000000 0.500000
O O13 0.614906 0.903634 0.341666
O O14 0.818694 0.503266 0.140501
O O15 0.846695 0.707183 0.161001
O O16 0.812096 0.621856 0.999228
O O17 0.250000 0.163475 0.750000
#
# Coordination Sequence:
#
# PCOD9416480 Si02
#       7
#     8   8   8   8   8   8   8
#     4   9  18  34  54  76 108 146 179 216 265 317
#     4  10  21  36  55  81 110 141 183 226 267 322
#     4   9  19  34  53  80 111 144 183 221 259 318
#     4  10  21  38  59  80 104 137 180 227 269 316
#     4   9  20  35  54  82 111 139 180 225 264 323
#     4  10  19  36  58  79 111 149 177 218 278 321
#     4  10  20  35  54  80 110 139 176 222 268 321
#
# _framework density 19.787648999999998
#
# number of rings (size 3 to 8) (size 9 to 14) (size 15 to 20)
#    0.000    2.429    0.000    1.714    0.000    5.143 
#    0.000    8.571    0.000    3.429    0.000    0.000 
#    0.000    0.000    0.000    0.000    0.000    0.000 
#
# Total GULP energy -312194.265192 kJ/mol
# GULP energy per Si atom -5574.897593 kJ/mol
# Density = 1.974261 g / cm^3
# Si number density = 19.787649 Si / 1000 Ang^3
#
#
#
# Elastic Constant Matrix: (Units=GPa)
#
#
# Indices 1 2 3 4 5 6 
#
# 1 39.3371 17.9337 16.2834 0.0000 0.0000 0.0000
# 2 17.9337 134.3303 73.9811 0.0000 0.0000 0.0000
# 3 16.2834 73.9811 103.9162 0.0000 0.0000 0.0000
# 4 0.0000 0.0000 0.0000 17.8201 0.0000 0.0000
# 5 0.0000 0.0000 0.0000 0.0000 20.7634 0.0000
# 6 0.0000 0.0000 0.0000 0.0000 0.0000 -3.1303
#
#
#
# Elastic Compliance Matrix: (Units=1/GPa)
#
#
# Indices 1 2 3 4 5 6 
#
# 1 0.027553 -0.002140 -0.002794 0.000000 0.000000 0.000000
# 2 -0.002140 0.012412 -0.008501 0.000000 0.000000 0.000000
# 3 -0.002794 -0.008501 0.016113 0.000000 0.000000 0.000000
# 4 0.000000 0.000000 0.000000 0.056116 0.000000 0.000000
# 5 0.000000 0.000000 0.000000 0.000000 0.048162 0.000000
# 6 0.000000 0.000000 0.000000 0.000000 0.000000 -0.319454
#
#
# Mechanical properties :
#
#
# Convention : Reuss Voigt Hill
#
# Bulk Modulus (GPa) = 34.23663 54.88667 44.56165
# Shear Modulus (GPa) = -40.81937 18.38300 -11.21819
#
# Velocity S-wave (km/s) = -4.54681 3.05128 -2.38361
# Velocity P-wave (km/s) = 3.19767 6.34128 3.87213
#
# Compressibility (1/GPa) = 0.02920848
#
# Stress axis : x y z
#
# Youngs Moduli (GPa) = 36.29314 80.56779 62.06078
#
# Poissons Ratio (x) = 0.17238 0.17342
# Poissons Ratio (y) = 0.07765 0.52759
# Poissons Ratio (z) = 0.10141 0.68492
#
# Static dielectric constant tensor:
#      x y z
#    x 1.730460 0.000000 0.000000 
#    y 0.000000 1.660550 0.000000 
#    z 0.000000 0.000000 1.736330 
# 
# From -- ./inp_files/22769.got.cif
#   From: 2010.05.17/outbox.cif.g08.bks.cpg/sg53_12_cif.got.tgz:22769.got - 2010.06.03 12:45:16.
