data_PCOD9416699
_publ_section_title
;
Structure prediction by ZEFSAII (Michael W. Deem and Ramdas Pophale) SiO2 
 PCOD9416699
Probable space group: P M N A
;
_chemical_formula_sum "Si O2"
_cell_formula_units_Z 40
_cell_length_a 8.211604
_cell_length_b 27.740469
_cell_length_c 9.253305
_cell_angle_alpha 90.000000
_cell_angle_beta 90.000000
_cell_angle_gamma 90.000000
_cell_volume 2107.845011
_symmetry_space_group_name_H-M "P M N A"
_symmetry_group_IT_number 53
_symmetry_cell_setting 'orthorhombic'
loop_
_space_group_symop_operation_xyz
x,y,z
1/2-x,-y,1/2+z
x,-y,-z
1/2-x,y,1/2-z
-x,-y,-z
1/2+x,y,1/2-z
-x,y,z
1/2+x,-y,1/2+z
loop_
_atom_site_type_symbol
_atom_site_label
_atom_site_fract_x
_atom_site_fract_y
_atom_site_fract_z
Si Si1 0.196860 0.452447 0.915045
Si Si2 0.194822 0.850827 0.918071
Si Si3 0.805820 0.046682 0.416020
Si Si4 0.802949 0.357862 0.083150
Si Si5 0.303389 0.747089 0.582123
O O1 0.250000 0.454325 0.750000
O O2 0.000000 0.452171 0.920541
O O3 0.253969 0.500000 0.000000
O O4 0.255855 0.403462 0.991916
O O5 0.250000 0.850956 0.750000
O O6 0.255470 0.901426 0.980576
O O7 0.252268 0.798928 0.979769
O O8 0.000000 0.851753 0.921279
O O9 0.750000 0.044650 0.250000
O O10 0.000000 0.045060 0.417303
O O11 0.740892 0.000000 0.500000
O O12 0.750000 0.362574 0.250000
O O13 0.747496 0.305135 0.025492
O O14 0.000000 0.358064 0.080535
O O15 0.250000 0.747045 0.750000
O O16 0.500000 0.747333 0.576510
#
# Coordination Sequence:
#
# PCOD9416699 Si02
#       5
#     8   8   8   8   8
#     4  10  21  35  51  72  97 126 160 197 235 276
#     4   9  15  24  41  64  89 118 151 187 229 273
#     4  10  20  32  47  68  93 121 154 192 233 277
#     4   9  17  30  48  71  98 124 153 190 231 276
#     4   8  14  24  40  64  91 118 148 185 227 270
#
# _framework density 18.976728000000001
#
# number of rings (size 3 to 8) (size 9 to 14) (size 15 to 20)
#    0.000    2.800    0.000    3.000    0.000    3.600 
#    0.000    0.000    0.000    1.200    0.000    5.600 
#    0.000    0.000    0.000    0.000    0.000    0.000 
#
# Total GULP energy -222709.549434 kJ/mol
# GULP energy per Si atom -5567.738736 kJ/mol
# Density = 1.893354 g / cm^3
# Si number density = 18.976728 Si / 1000 Ang^3
#
#
#
# Elastic Constant Matrix: (Units=GPa)
#
#
# Indices 1 2 3 4 5 6 
#
# 1 17.9668 22.8093 1.6914 0.0000 0.0000 0.0000
# 2 22.8093 263.2479 69.7332 0.0000 0.0000 0.0000
# 3 1.6914 69.7332 50.6579 0.0000 0.0000 0.0000
# 4 0.0000 0.0000 0.0000 23.7590 0.0000 0.0000
# 5 0.0000 0.0000 0.0000 0.0000 13.8198 0.0000
# 6 0.0000 0.0000 0.0000 0.0000 0.0000 27.0459
#
#
#
# Elastic Compliance Matrix: (Units=1/GPa)
#
#
# Indices 1 2 3 4 5 6 
#
# 1 0.064925 -0.007950 0.008776 0.000000 0.000000 0.000000
# 2 -0.007950 0.006952 -0.009305 0.000000 0.000000 0.000000
# 3 0.008776 -0.009305 0.032256 0.000000 0.000000 0.000000
# 4 0.000000 0.000000 0.000000 0.042089 0.000000 0.000000
# 5 0.000000 0.000000 0.000000 0.000000 0.072360 0.000000
# 6 0.000000 0.000000 0.000000 0.000000 0.000000 0.036974
#
#
# Mechanical properties :
#
#
# Convention : Reuss Voigt Hill
#
# Bulk Modulus (GPa) = 11.47112 57.81558 34.64335
# Shear Modulus (GPa) = 16.57975 28.76753 22.67364
#
# Velocity S-wave (km/s) = 2.95903 3.89773 3.46036
# Velocity P-wave (km/s) = 4.21099 7.12665 5.85327
#
# Compressibility (1/GPa) = 0.08717542
#
# Stress axis : x y z
#
# Youngs Moduli (GPa) = 15.40239 143.83593 31.00215
#
# Poissons Ratio (x) = 1.14353 -0.27208
# Poissons Ratio (y) = 0.12245 0.28847
# Poissons Ratio (z) = -0.13517 1.33837
#
# Static dielectric constant tensor:
#      x y z
#    x 1.652140 0.000000 0.000000 
#    y 0.000000 1.764610 0.000000 
#    z 0.000000 0.000000 1.624300 
# 
# From -- ./inp_files/6500.got.cif
#   From: 2010.05.17/outbox.cif.g08.bks.cpg/sg53_4_cif.got.tgz:6500.got - 2010.06.03 12:45:16.
