data_PCOD9416409
_publ_section_title
;
Structure prediction by ZEFSAII (Michael W. Deem and Ramdas Pophale) SiO2 
 PCOD9416409
Probable space group: P M N A
;
_chemical_formula_sum "Si O2"
_cell_formula_units_Z 64
_cell_length_a 23.468349
_cell_length_b 15.551751
_cell_length_c 9.203630
_cell_angle_alpha 90.000000
_cell_angle_beta 90.000000
_cell_angle_gamma 90.000000
_cell_volume 3359.084920
_symmetry_space_group_name_H-M "P M N A"
_symmetry_group_IT_number 53
_symmetry_cell_setting 'orthorhombic'
loop_
_space_group_symop_operation_xyz
x,y,z
1/2-x,-y,1/2+z
x,-y,-z
1/2-x,y,1/2-z
-x,-y,-z
1/2+x,y,1/2-z
-x,y,z
1/2+x,-y,1/2+z
loop_
_atom_site_type_symbol
_atom_site_label
_atom_site_fract_x
_atom_site_fract_y
_atom_site_fract_z
Si Si1 0.628464 0.667756 0.859264
Si Si2 0.935092 0.786073 0.430219
Si Si3 0.065528 0.333314 0.846594
Si Si4 0.567427 0.496090 0.174479
Si Si5 0.158019 0.730717 0.937634
Si Si6 0.244394 0.592749 0.575134
Si Si7 0.697865 0.906346 0.430381
Si Si8 0.329031 0.087783 0.910193
O O1 0.603148 0.585487 0.776257
O O2 0.650535 0.731969 0.735925
O O3 0.681825 0.633067 0.951515
O O4 0.579869 0.710426 0.956331
O O5 0.932660 0.743244 0.271339
O O6 0.882991 0.852266 0.443917
O O7 0.000000 0.817918 0.453851
O O8 0.084912 0.418533 0.759807
O O9 0.000000 0.346635 0.890015
O O10 0.104054 0.309265 0.981098
O O11 0.500000 0.484291 0.196579
O O12 0.576446 0.500000 0.000000
O O13 0.209876 0.664914 0.970018
O O14 0.166311 0.826502 0.996882
O O15 0.251056 0.500000 0.500000
O O16 0.250000 0.581475 0.750000
O O17 0.677486 0.918262 0.264297
O O18 0.764907 0.881837 0.448790
O O19 0.690031 0.000000 0.500000
O O20 0.337048 0.000000 0.000000
#
# Coordination Sequence:
#
# PCOD9416409 Si02
#       8
#     8   8   8   8   8   8   8   8
#     4  11  23  37  58  89 123 165 207 250 301 362
#     4  11  22  39  63  92 124 161 207 252 303 363
#     4  10  22  38  61  86 118 164 208 255 297 355
#     4  10  19  35  59  84 115 160 211 253 291 344
#     4  11  24  41  62  87 127 161 205 255 314 371
#     4  10  24  40  57  89 126 168 206 255 310 365
#     4  10  22  43  67  95 123 159 200 254 315 370
#     4  10  22  41  67  96 120 154 202 248 309 373
#
# _framework density 19.052807999999999
#
# number of rings (size 3 to 8) (size 9 to 14) (size 15 to 20)
#    0.000    1.625    2.500    1.500    5.250    1.250 
#    6.750    1.250    0.000    0.750    0.000    0.000 
#    0.000    0.000    0.000    0.000    0.000    0.000 
#
# Total GULP energy -357158.308160 kJ/mol
# GULP energy per Si atom -5580.598565 kJ/mol
# Density = 1.900944 g / cm^3
# Si number density = 19.052808 Si / 1000 Ang^3
#
#
#
# Elastic Constant Matrix: (Units=GPa)
#
#
# Indices 1 2 3 4 5 6 
#
# 1 87.6439 45.4003 27.0467 0.0000 0.0000 0.0000
# 2 45.4003 91.0623 31.0003 0.0000 0.0000 0.0000
# 3 27.0467 31.0003 34.2810 0.0000 0.0000 0.0000
# 4 0.0000 0.0000 0.0000 26.5439 0.0000 0.0000
# 5 0.0000 0.0000 0.0000 0.0000 19.5643 0.0000
# 6 0.0000 0.0000 0.0000 0.0000 0.0000 24.0535
#
#
#
# Elastic Compliance Matrix: (Units=1/GPa)
#
#
# Indices 1 2 3 4 5 6 
#
# 1 0.016850 -0.005599 -0.008231 0.000000 0.000000 0.000000
# 2 -0.005599 0.017726 -0.011612 0.000000 0.000000 0.000000
# 3 -0.008231 -0.011612 0.046166 0.000000 0.000000 0.000000
# 4 0.000000 0.000000 0.000000 0.037673 0.000000 0.000000
# 5 0.000000 0.000000 0.000000 0.000000 0.051113 0.000000
# 6 0.000000 0.000000 0.000000 0.000000 0.000000 0.041574
#
#
# Mechanical properties :
#
#
# Convention : Reuss Voigt Hill
#
# Bulk Modulus (GPa) = 33.49264 46.65353 40.07308
# Shear Modulus (GPa) = 18.38637 21.33502 19.86070
#
# Velocity S-wave (km/s) = 3.10985 3.34995 3.23213
# Velocity P-wave (km/s) = 5.52376 6.28510 5.91669
#
# Compressibility (1/GPa) = 0.02985731
#
# Stress axis : x y z
#
# Youngs Moduli (GPa) = 59.34663 56.41444 21.66084
#
# Poissons Ratio (x) = 0.31584 0.17830
# Poissons Ratio (y) = 0.33226 0.25154
# Poissons Ratio (z) = 0.48851 0.65511
#
# Static dielectric constant tensor:
#      x y z
#    x 1.674170 0.000000 0.000000 
#    y 0.000000 1.665860 0.000000 
#    z 0.000000 0.000000 1.661720 
# 
# From -- ./inp_files/11967.got.cif
#   From: 2010.05.17/outbox.cif.g08.bks.cpg/sg53_6_cif.got.tgz:11967.got - 2010.06.03 12:45:16.
