data_PCOD9416841
_publ_section_title
;
Structure prediction by ZEFSAII (Michael W. Deem and Ramdas Pophale) SiO2 
 PCOD9416841
Probable space group: P M N A
;
_chemical_formula_sum "Si O2"
_cell_formula_units_Z 48
_cell_length_a 8.651125
_cell_length_b 32.328724
_cell_length_c 9.513556
_cell_angle_alpha 90.000000
_cell_angle_beta 90.000000
_cell_angle_gamma 90.000000
_cell_volume 2660.749748
_symmetry_space_group_name_H-M "P M N A"
_symmetry_group_IT_number 53
_symmetry_cell_setting 'orthorhombic'
loop_
_space_group_symop_operation_xyz
x,y,z
1/2-x,-y,1/2+z
x,-y,-z
1/2-x,y,1/2-z
-x,-y,-z
1/2+x,y,1/2-z
-x,y,z
1/2+x,-y,1/2+z
loop_
_atom_site_type_symbol
_atom_site_label
_atom_site_fract_x
_atom_site_fract_y
_atom_site_fract_z
Si Si1 0.313370 0.460583 0.092588
Si Si2 0.185737 0.381870 0.592585
Si Si3 0.185014 0.214576 0.092117
Si Si4 0.314353 0.706726 0.406611
Si Si5 0.686650 0.038607 0.092195
Si Si6 0.185226 0.870590 0.590706
O O1 0.250000 0.462313 0.250000
O O2 0.500000 0.461280 0.099079
O O3 0.263072 0.500000 0.000000
O O4 0.267106 0.418790 0.010976
O O5 0.250000 0.389085 0.750000
O O6 0.248362 0.337354 0.543739
O O7 0.000000 0.380485 0.600123
O O8 0.250000 0.218105 0.250000
O O9 0.246482 0.171421 0.027399
O O10 0.000000 0.212544 0.098806
O O11 0.231040 0.254727 0.003453
O O12 0.250000 0.713068 0.250000
O O13 0.500000 0.704268 0.401827
O O14 0.750000 0.035448 0.250000
O O15 0.500000 0.037328 0.098774
O O16 0.728457 0.084142 0.031845
O O17 0.741159 0.000000 0.000000
O O18 0.250000 0.871334 0.750000
O O19 0.000000 0.867323 0.594122
#
# Coordination Sequence:
#
# PCOD9416841 Si02
#       6
#     8   8   8   8   8   8
#     4  10  22  38  56  81 110 140 175 213 255 302
#     4  10  20  35  56  79 104 136 173 211 252 300
#     4  10  20  33  51  75 100 128 165 207 249 296
#     4  10  21  36  54  76 103 136 171 207 252 303
#     4   9  18  32  49  71  98 127 162 202 245 295
#     4   9  16  28  48  70  95 128 163 202 246 292
#
# _framework density 18.040028
#
# number of rings (size 3 to 8) (size 9 to 14) (size 15 to 20)
#    0.000    2.333    0.000    4.500    0.000    6.000 
#    0.000    4.167    0.000    4.000    0.000    0.000 
#    0.000    0.000    0.000    0.000    0.000    0.000 
#
# Total GULP energy -267703.372956 kJ/mol
# GULP energy per Si atom -5577.153603 kJ/mol
# Density = 1.799897 g / cm^3
# Si number density = 18.040028 Si / 1000 Ang^3
#
#
#
# Elastic Constant Matrix: (Units=GPa)
#
#
# Indices 1 2 3 4 5 6 
#
# 1 37.9535 49.3836 22.5259 0.0000 0.0000 0.0000
# 2 49.3836 226.9756 96.6325 0.0000 0.0000 0.0000
# 3 22.5259 96.6325 73.8103 0.0000 0.0000 0.0000
# 4 0.0000 0.0000 0.0000 34.6935 0.0000 0.0000
# 5 0.0000 0.0000 0.0000 0.0000 16.5744 0.0000
# 6 0.0000 0.0000 0.0000 0.0000 0.0000 99.8302
#
#
#
# Elastic Compliance Matrix: (Units=1/GPa)
#
#
# Indices 1 2 3 4 5 6 
#
# 1 0.036846 -0.007296 -0.001693 0.000000 0.000000 0.000000
# 2 -0.007296 0.011398 -0.012696 0.000000 0.000000 0.000000
# 3 -0.001693 -0.012696 0.030687 0.000000 0.000000 0.000000
# 4 0.000000 0.000000 0.000000 0.028824 0.000000 0.000000
# 5 0.000000 0.000000 0.000000 0.000000 0.060334 0.000000
# 6 0.000000 0.000000 0.000000 0.000000 0.000000 0.010017
#
#
# Mechanical properties :
#
#
# Convention : Reuss Voigt Hill
#
# Bulk Modulus (GPa) = 28.12088 75.09147 51.60618
# Shear Modulus (GPa) = 21.42886 41.56611 31.49749
#
# Velocity S-wave (km/s) = 3.45026 4.80532 4.18302
# Velocity P-wave (km/s) = 5.61198 8.51489 7.21102
#
# Compressibility (1/GPa) = 0.03556076
#
# Stress axis : x y z
#
# Youngs Moduli (GPa) = 27.14001 87.73171 32.58726
#
# Poissons Ratio (x) = 0.64007 0.05518
# Poissons Ratio (y) = 0.19801 0.41373
# Poissons Ratio (z) = 0.04596 1.11386
#
# Static dielectric constant tensor:
#      x y z
#    x 1.609380 0.000000 0.000000 
#    y 0.000000 1.661610 0.000000 
#    z 0.000000 0.000000 1.586290 
# 
# From -- ./inp_files/6740.got.cif
#   From: 2010.05.17/outbox.cif.g08.bks.cpg/sg53_4_cif.got.tgz:6740.got - 2010.06.03 12:45:16.
