data_PCOD9416975
_publ_section_title
;
Structure prediction by ZEFSAII (Michael W. Deem and Ramdas Pophale) SiO2 
 PCOD9416975
Probable space group: P M N A
;
_chemical_formula_sum "Si O2"
_cell_formula_units_Z 48
_cell_length_a 8.786270
_cell_length_b 10.480757
_cell_length_c 31.088277
_cell_angle_alpha 90.000000
_cell_angle_beta 90.000000
_cell_angle_gamma 90.000000
_cell_volume 2862.818728
_symmetry_space_group_name_H-M "P M N A"
_symmetry_group_IT_number 53
_symmetry_cell_setting 'orthorhombic'
loop_
_space_group_symop_operation_xyz
x,y,z
1/2-x,-y,1/2+z
x,-y,-z
1/2-x,y,1/2-z
-x,-y,-z
1/2+x,y,1/2-z
-x,y,z
1/2+x,-y,1/2+z
loop_
_atom_site_type_symbol
_atom_site_label
_atom_site_fract_x
_atom_site_fract_y
_atom_site_fract_z
Si Si1 0.184902 0.874092 0.974552
Si Si2 0.676069 0.286401 0.704981
Si Si3 0.684087 0.625910 0.472793
Si Si4 0.681740 0.724396 0.113471
Si Si5 0.185691 0.009611 0.113317
Si Si6 0.825733 0.975853 0.793568
O O1 0.000000 0.871910 0.975446
O O2 0.229259 0.897014 0.925282
O O3 0.235075 0.747684 0.998920
O O4 0.234634 0.000000 0.000000
O O5 0.750000 0.330380 0.750000
O O6 0.500000 0.325204 0.702672
O O7 0.760940 0.320186 0.660640
O O8 0.679062 0.130962 0.706552
O O9 0.721024 0.500000 0.500000
O O10 0.500000 0.631095 0.467686
O O11 0.757563 0.638559 0.425771
O O12 0.500000 0.731004 0.113274
O O13 0.750446 0.867059 0.106288
O O14 0.239751 0.058548 0.159852
O O15 0.000000 0.998278 0.114323
O O16 0.750000 0.929849 0.750000
O O17 0.000000 0.935484 0.792619
#
# Coordination Sequence:
#
# PCOD9416975 Si02
#       6
#     8   8   8   8   8   8
#     4   9  15  27  50  71  89 116 155 199 243 288
#     4   9  16  27  43  65  94 125 159 196 239 286
#     4  10  20  34  51  70  92 123 163 205 247 295
#     4  11  20  29  44  67  97 129 160 195 241 287
#     4   9  16  28  45  65  89 120 157 194 237 285
#     4   8  14  22  35  56  85 117 145 178 220 272
#
# _framework density 16.766691999999999
#
# number of rings (size 3 to 8) (size 9 to 14) (size 15 to 20)
#    0.000    2.667    1.667    3.000    0.000    4.333 
#    0.000    1.667    0.000    0.000    0.000    1.167 
#    0.000    2.667    0.000    0.000    0.000    1.333 
#
# Total GULP energy -267284.536676 kJ/mol
# GULP energy per Si atom -5568.427847 kJ/mol
# Density = 1.672853 g / cm^3
# Si number density = 16.766692 Si / 1000 Ang^3
#
#
#
# Elastic Constant Matrix: (Units=GPa)
#
#
# Indices 1 2 3 4 5 6 
#
# 1 53.3722 18.1352 50.3079 0.0000 0.0000 0.0000
# 2 18.1352 54.9382 47.1284 0.0000 0.0000 0.0000
# 3 50.3079 47.1284 186.6352 0.0000 0.0000 0.0000
# 4 0.0000 0.0000 0.0000 16.0002 0.0000 0.0000
# 5 0.0000 0.0000 0.0000 0.0000 27.2266 0.0000
# 6 0.0000 0.0000 0.0000 0.0000 0.0000 1.1019
#
#
#
# Elastic Compliance Matrix: (Units=1/GPa)
#
#
# Indices 1 2 3 4 5 6 
#
# 1 0.025558 -0.003226 -0.006075 0.000000 0.000000 0.000000
# 2 -0.003226 0.023643 -0.005101 0.000000 0.000000 0.000000
# 3 -0.006075 -0.005101 0.008284 0.000000 0.000000 0.000000
# 4 0.000000 0.000000 0.000000 0.062499 0.000000 0.000000
# 5 0.000000 0.000000 0.000000 0.000000 0.036729 0.000000
# 6 0.000000 0.000000 0.000000 0.000000 0.000000 0.907542
#
#
# Mechanical properties :
#
#
# Convention : Reuss Voigt Hill
#
# Bulk Modulus (GPa) = 34.86467 58.45429 46.65948
# Shear Modulus (GPa) = 4.53466 20.82399 12.67933
#
# Velocity S-wave (km/s) = 1.64634 3.52800 2.75293
# Velocity P-wave (km/s) = 4.94500 7.17877 6.16392
#
# Compressibility (1/GPa) = 0.02868233
#
# Stress axis : x y z
#
# Youngs Moduli (GPa) = 39.12612 42.29640 120.72162
#
# Poissons Ratio (x) = 0.13643 0.73336
# Poissons Ratio (y) = 0.12621 0.61576
# Poissons Ratio (z) = 0.23768 0.21574
#
# Static dielectric constant tensor:
#      x y z
#    x 1.574060 0.000000 0.000000 
#    y 0.000000 1.534990 0.000000 
#    z 0.000000 0.000000 1.610810 
# 
# From -- ./inp_files/37920.got.cif
#   From: 2010.05.17/outbox.cif.g08.bks.cpg/sg53_19_cif.got.tgz:37920.got - 2010.06.03 12:45:16.
