data_PCOD9416233
_publ_section_title
;
Structure prediction by ZEFSAII (Michael W. Deem and Ramdas Pophale) SiO2 
 PCOD9416233
Probable space group: P M N A
;
_chemical_formula_sum "Si O2"
_cell_formula_units_Z 64
_cell_length_a 8.638079
_cell_length_b 21.040477
_cell_length_c 19.842432
_cell_angle_alpha 90.000000
_cell_angle_beta 90.000000
_cell_angle_gamma 90.000000
_cell_volume 3606.348176
_symmetry_space_group_name_H-M "P M N A"
_symmetry_group_IT_number 53
_symmetry_cell_setting 'orthorhombic'
loop_
_space_group_symop_operation_xyz
x,y,z
1/2-x,-y,1/2+z
x,-y,-z
1/2-x,y,1/2-z
-x,-y,-z
1/2+x,y,1/2-z
-x,y,z
1/2+x,-y,1/2+z
loop_
_atom_site_type_symbol
_atom_site_label
_atom_site_fract_x
_atom_site_fract_y
_atom_site_fract_z
Si Si1 0.685542 0.935456 0.962179
Si Si2 0.812558 0.563408 0.039770
Si Si3 0.814215 0.184728 0.956952
Si Si4 0.814425 0.761321 0.323441
Si Si5 0.185564 0.109168 0.176972
Si Si6 0.186289 0.742239 0.821947
Si Si7 0.685270 0.613052 0.176403
Si Si8 0.188366 0.689120 0.961404
O O1 0.500000 0.933581 0.959053
O O2 0.750868 0.929366 0.886563
O O3 0.745929 0.875808 0.005184
O O4 0.733251 0.000000 0.000000
O O5 0.749122 0.571163 0.115217
O O6 0.000000 0.564222 0.043239
O O7 0.765918 0.500000 0.000000
O O8 0.759334 0.625037 0.997399
O O9 0.754917 0.194559 0.881327
O O10 0.000000 0.180948 0.958359
O O11 0.766026 0.248631 0.996688
O O12 0.750000 0.778097 0.250000
O O13 0.768576 0.687209 0.336094
O O14 0.000000 0.764633 0.323904
O O15 0.250000 0.089330 0.250000
O O16 0.231290 0.183687 0.167206
O O17 0.000000 0.106165 0.177706
O O18 0.250000 0.721604 0.750000
O O19 0.239905 0.700152 0.884753
O O20 0.000000 0.740928 0.820077
O O21 0.750000 0.595439 0.250000
O O22 0.500000 0.610313 0.177889
O O23 0.000000 0.687643 0.960929
#
# Coordination Sequence:
#
# PCOD9416233 Si02
#       8
#     8   8   8   8   8   8   8   8
#     4  11  24  40  57  82 117 152 188 232 278 333
#     4  10  20  35  56  81 112 152 190 229 280 335
#     4  11  20  35  59  83 110 145 184 233 282 332
#     4  10  20  34  54  84 115 146 185 233 286 339
#     4  10  19  34  57  84 111 144 185 228 279 334
#     4   9  17  31  50  77 107 138 175 223 273 321
#     4  10  20  34  55  81 110 145 186 233 280 336
#     4   9  17  32  53  78 109 141 181 226 272 327
#
# _framework density 17.746483999999999
#
# number of rings (size 3 to 8) (size 9 to 14) (size 15 to 20)
#    0.000    2.000    2.500    1.875    0.000    2.750 
#    0.000    1.875    0.000    4.500    0.000    0.000 
#    0.000    0.000    0.000    0.000    0.000    0.000 
#
# Total GULP energy -357240.135792 kJ/mol
# GULP energy per Si atom -5581.877122 kJ/mol
# Density = 1.770609 g / cm^3
# Si number density = 17.746484 Si / 1000 Ang^3
#
#
#
# Elastic Constant Matrix: (Units=GPa)
#
#
# Indices 1 2 3 4 5 6 
#
# 1 32.7989 31.3555 39.5127 0.0000 0.0000 0.0000
# 2 31.3555 111.0451 83.8798 0.0000 0.0000 0.0000
# 3 39.5127 83.8798 189.1226 0.0000 0.0000 0.0000
# 4 0.0000 0.0000 0.0000 28.7984 0.0000 0.0000
# 5 0.0000 0.0000 0.0000 0.0000 34.7183 0.0000
# 6 0.0000 0.0000 0.0000 0.0000 0.0000 8.6120
#
#
#
# Elastic Compliance Matrix: (Units=1/GPa)
#
#
# Indices 1 2 3 4 5 6 
#
# 1 0.045551 -0.008532 -0.005733 0.000000 0.000000 0.000000
# 2 -0.008532 0.015140 -0.004933 0.000000 0.000000 0.000000
# 3 -0.005733 -0.004933 0.008673 0.000000 0.000000 0.000000
# 4 0.000000 0.000000 0.000000 0.034724 0.000000 0.000000
# 5 0.000000 0.000000 0.000000 0.000000 0.028803 0.000000
# 6 0.000000 0.000000 0.000000 0.000000 0.000000 0.116117
#
#
# Mechanical properties :
#
#
# Convention : Reuss Voigt Hill
#
# Bulk Modulus (GPa) = 32.28892 71.38471 51.83681
# Shear Modulus (GPa) = 16.79389 26.30699 21.55044
#
# Velocity S-wave (km/s) = 3.07957 3.85434 3.48853
# Velocity P-wave (km/s) = 5.55689 7.75371 6.74533
#
# Compressibility (1/GPa) = 0.03097038
#
# Stress axis : x y z
#
# Youngs Moduli (GPa) = 21.95320 66.04888 115.30050
#
# Poissons Ratio (x) = 0.56352 0.66100
# Poissons Ratio (y) = 0.18730 0.56872
# Poissons Ratio (z) = 0.12585 0.32579
#
# Static dielectric constant tensor:
#      x y z
#    x 1.598450 0.000000 0.000000 
#    y 0.000000 1.591880 0.000000 
#    z 0.000000 0.000000 1.599890 
# 
# From -- ./inp_files/26849.got.cif
#   From: 2010.05.17/outbox.cif.g08.bks.cpg/sg53_14_cif.got.tgz:26849.got - 2010.06.03 12:45:16.
