data_PCOD9416269
_publ_section_title
;
Structure prediction by ZEFSAII (Michael W. Deem and Ramdas Pophale) SiO2 
 PCOD9416269
Probable space group: P M N A
;
_chemical_formula_sum "Si O2"
_cell_formula_units_Z 48
_cell_length_a 18.750295
_cell_length_b 11.817415
_cell_length_c 12.191251
_cell_angle_alpha 90.000000
_cell_angle_beta 90.000000
_cell_angle_gamma 90.000000
_cell_volume 2701.337609
_symmetry_space_group_name_H-M "P M N A"
_symmetry_group_IT_number 53
_symmetry_cell_setting 'orthorhombic'
loop_
_space_group_symop_operation_xyz
x,y,z
1/2-x,-y,1/2+z
x,-y,-z
1/2-x,y,1/2-z
-x,-y,-z
1/2+x,y,1/2-z
-x,y,z
1/2+x,-y,1/2+z
loop_
_atom_site_type_symbol
_atom_site_label
_atom_site_fract_x
_atom_site_fract_y
_atom_site_fract_z
Si Si1 0.322428 0.257030 0.201310
Si Si2 0.083973 0.833160 0.359275
Si Si3 0.914961 0.880908 0.122343
Si Si4 0.914290 0.143817 0.116690
Si Si5 0.080635 0.368754 0.470214
Si Si6 0.786014 0.006018 0.373888
O O1 0.250000 0.305025 0.250000
O O2 0.375427 0.222642 0.298413
O O3 0.361672 0.338919 0.119529
O O4 0.303510 0.137996 0.142590
O O5 0.098203 0.810467 0.230778
O O6 0.091415 0.720449 0.430728
O O7 0.142522 0.929034 0.386299
O O8 0.000000 0.871643 0.369253
O O9 0.000000 0.887809 0.107636
O O10 0.894147 0.012250 0.138994
O O11 0.888798 0.833574 0.007318
O O12 0.000000 0.153533 0.126375
O O13 0.084814 0.500000 0.500000
O O14 0.000000 0.346555 0.428839
O O15 0.750000 0.975257 0.250000
O O16 0.752329 0.000000 0.500000
#
# Coordination Sequence:
#
# PCOD9416269 Si02
#       6
#     8   8   8   8   8   8
#     4  11  22  35  55  83 118 150 187 232 290 358
#     4  10  19  34  58  85 113 147 193 244 293 345
#     4   8  15  27  48  80 113 147 182 218 274 347
#     4   9  16  29  50  79 115 152 183 218 273 347
#     4  10  22  41  64  83 106 145 203 262 299 331
#     4  11  23  37  54  86 124 160 189 229 295 371
#
# _framework density 17.768975000000001
#
# number of rings (size 3 to 8) (size 9 to 14) (size 15 to 20)
#    0.000    2.167    3.333    1.500    0.000    3.667 
#    0.000    0.833    0.000    0.000    0.000    5.833 
#    0.000    0.000    0.000    0.000    0.000    0.000 
#
# Total GULP energy -267206.616106 kJ/mol
# GULP energy per Si atom -5566.804502 kJ/mol
# Density = 1.772853 g / cm^3
# Si number density = 17.768975 Si / 1000 Ang^3
#
#
#
# Elastic Constant Matrix: (Units=GPa)
#
#
# Indices 1 2 3 4 5 6 
#
# 1 95.8791 39.3622 64.3952 0.0000 0.0000 0.0000
# 2 39.3622 42.3158 25.8410 0.0000 0.0000 0.0000
# 3 64.3952 25.8410 127.6673 0.0000 0.0000 0.0000
# 4 0.0000 0.0000 0.0000 12.5388 0.0000 0.0000
# 5 0.0000 0.0000 0.0000 0.0000 25.1229 0.0000
# 6 0.0000 0.0000 0.0000 0.0000 0.0000 20.2689
#
#
#
# Elastic Compliance Matrix: (Units=1/GPa)
#
#
# Indices 1 2 3 4 5 6 
#
# 1 0.022368 -0.015880 -0.008068 0.000000 0.000000 0.000000
# 2 -0.015880 0.038238 0.000270 0.000000 0.000000 0.000000
# 3 -0.008068 0.000270 0.011848 0.000000 0.000000 0.000000
# 4 0.000000 0.000000 0.000000 0.079752 0.000000 0.000000
# 5 0.000000 0.000000 0.000000 0.000000 0.039804 0.000000
# 6 0.000000 0.000000 0.000000 0.000000 0.000000 0.049337
#
#
# Mechanical properties :
#
#
# Convention : Reuss Voigt Hill
#
# Bulk Modulus (GPa) = 39.84352 58.33987 49.09170
# Shear Modulus (GPa) = 16.83111 20.67037 18.75074
#
# Velocity S-wave (km/s) = 3.08103 3.41440 3.25199
# Velocity P-wave (km/s) = 5.92695 6.96045 6.46439
#
# Compressibility (1/GPa) = 0.02509818
#
# Stress axis : x y z
#
# Youngs Moduli (GPa) = 44.70714 26.15183 84.40404
#
# Poissons Ratio (x) = 0.41528 0.68098
# Poissons Ratio (y) = 0.70993 -0.02278
# Poissons Ratio (z) = 0.36070 -0.00706
#
# Static dielectric constant tensor:
#      x y z
#    x 1.679590 0.000000 0.000000 
#    y 0.000000 1.546610 0.000000 
#    z 0.000000 0.000000 1.680070 
# 
# From -- ./inp_files/17769.got.cif
#   From: 2010.05.17/outbox.cif.g08.bks.cpg/sg53_9_cif.got.tgz:17769.got - 2010.06.03 12:45:16.
