data_PCOD9416830
_publ_section_title
;
Structure prediction by ZEFSAII (Michael W. Deem and Ramdas Pophale) SiO2 
 PCOD9416830
Probable space group: P M N A
;
_chemical_formula_sum "Si O2"
_cell_formula_units_Z 64
_cell_length_a 14.774538
_cell_length_b 9.625688
_cell_length_c 26.647203
_cell_angle_alpha 90.000000
_cell_angle_beta 90.000000
_cell_angle_gamma 90.000000
_cell_volume 3789.634456
_symmetry_space_group_name_H-M "P M N A"
_symmetry_group_IT_number 53
_symmetry_cell_setting 'orthorhombic'
loop_
_space_group_symop_operation_xyz
x,y,z
1/2-x,-y,1/2+z
x,-y,-z
1/2-x,y,1/2-z
-x,-y,-z
1/2+x,y,1/2-z
-x,y,z
1/2+x,-y,1/2+z
loop_
_atom_site_type_symbol
_atom_site_label
_atom_site_fract_x
_atom_site_fract_y
_atom_site_fract_z
Si Si1 0.351503 0.303458 0.269328
Si Si2 0.105398 0.144664 0.971277
Si Si3 0.896392 0.014562 0.783745
Si Si4 0.210737 0.179329 0.867930
Si Si5 0.098788 0.502460 0.679066
Si Si6 0.604593 0.179274 0.817781
Si Si7 0.295131 0.493427 0.360440
Si Si8 0.397345 0.613473 0.543497
O O1 0.250000 0.277043 0.250000
O O2 0.398111 0.390126 0.224978
O O3 0.343515 0.404932 0.316945
O O4 0.390779 0.152293 0.281131
O O5 0.168487 0.148942 0.922421
O O6 0.000000 0.179047 0.957121
O O7 0.135841 0.252382 0.013827
O O8 0.104875 0.000000 0.000000
O O9 0.835025 0.079305 0.827032
O O10 0.872609 0.082601 0.729860
O O11 0.000000 0.055297 0.794127
O O12 0.319024 0.161650 0.860393
O O13 0.189164 0.341192 0.855737
O O14 0.108517 0.342503 0.697680
O O15 0.187158 0.529225 0.645526
O O16 0.000000 0.512495 0.654080
O O17 0.500000 0.150729 0.832650
O O18 0.333912 0.439386 0.412604
O O19 0.402607 0.500000 0.500000
O O20 0.500000 0.638460 0.562766
#
# Coordination Sequence:
#
# PCOD9416830 Si02
#       8
#     8   8   8   8   8   8   8   8
#     4  10  20  33  50  77 109 141 173 210 254 304
#     4  10  22  38  55  77 104 134 169 211 262 312
#     4  11  22  33  49  77 110 141 174 211 255 308
#     4  11  20  35  56  77 104 138 175 216 256 305
#     4   9  18  35  55  76 106 139 173 213 256 303
#     4   9  19  35  55  77 103 139 177 212 254 305
#     4  10  21  34  55  80 103 136 177 213 256 310
#     4  10  20  36  55  76 103 134 168 209 258 310
#
# _framework density 16.888172000000001
#
# number of rings (size 3 to 8) (size 9 to 14) (size 15 to 20)
#    0.000    2.000    1.250    2.625    1.750    3.500 
#    0.000    0.000    0.000    1.500    0.000    0.000 
#    0.000    0.000    0.000    0.000    0.000    0.000 
#
# Total GULP energy -356801.043398 kJ/mol
# GULP energy per Si atom -5575.016303 kJ/mol
# Density = 1.684973 g / cm^3
# Si number density = 16.888172 Si / 1000 Ang^3
#
#
#
# Elastic Constant Matrix: (Units=GPa)
#
#
# Indices 1 2 3 4 5 6 
#
# 1 89.7920 31.2054 55.4494 0.0000 0.0000 0.0000
# 2 31.2054 78.1346 39.1012 0.0000 0.0000 0.0000
# 3 55.4494 39.1012 84.4066 0.0000 0.0000 0.0000
# 4 0.0000 0.0000 0.0000 20.1080 0.0000 0.0000
# 5 0.0000 0.0000 0.0000 0.0000 28.3550 0.0000
# 6 0.0000 0.0000 0.0000 0.0000 0.0000 22.2794
#
#
#
# Elastic Compliance Matrix: (Units=1/GPa)
#
#
# Indices 1 2 3 4 5 6 
#
# 1 0.018919 -0.001739 -0.011622 0.000000 0.000000 0.000000
# 2 -0.001739 0.016821 -0.006649 0.000000 0.000000 0.000000
# 3 -0.011622 -0.006649 0.022563 0.000000 0.000000 0.000000
# 4 0.000000 0.000000 0.000000 0.049732 0.000000 0.000000
# 5 0.000000 0.000000 0.000000 0.000000 0.035267 0.000000
# 6 0.000000 0.000000 0.000000 0.000000 0.000000 0.044884
#
#
# Mechanical properties :
#
#
# Convention : Reuss Voigt Hill
#
# Bulk Modulus (GPa) = 54.70597 55.98279 55.34438
# Shear Modulus (GPa) = 21.34004 22.58695 21.96350
#
# Velocity S-wave (km/s) = 3.55858 3.66107 3.61019
# Velocity P-wave (km/s) = 7.02482 7.14789 7.08662
#
# Compressibility (1/GPa) = 0.01827954
#
# Stress axis : x y z
#
# Youngs Moduli (GPa) = 52.85811 59.45040 44.32051
#
# Poissons Ratio (x) = 0.10341 0.51511
# Poissons Ratio (y) = 0.09194 0.29471
# Poissons Ratio (z) = 0.61434 0.39531
#
# Static dielectric constant tensor:
#      x y z
#    x 1.603430 0.000000 0.000000 
#    y 0.000000 1.542560 0.000000 
#    z 0.000000 0.000000 1.530990 
# 
# From -- ./inp_files/35363.got.cif
#   From: 2010.05.17/outbox.cif.g08.bks.cpg/sg53_18_cif.got.tgz:35363.got - 2010.06.03 12:45:16.
