data_PCOD9416986
_publ_section_title
;
Structure prediction by ZEFSAII (Michael W. Deem and Ramdas Pophale) SiO2 
 PCOD9416986
Probable space group: P M N A
;
_chemical_formula_sum "Si O2"
_cell_formula_units_Z 56
_cell_length_a 8.626654
_cell_length_b 17.694597
_cell_length_c 20.450023
_cell_angle_alpha 90.000000
_cell_angle_beta 90.000000
_cell_angle_gamma 90.000000
_cell_volume 3121.597155
_symmetry_space_group_name_H-M "P M N A"
_symmetry_group_IT_number 53
_symmetry_cell_setting 'orthorhombic'
loop_
_space_group_symop_operation_xyz
x,y,z
1/2-x,-y,1/2+z
x,-y,-z
1/2-x,y,1/2-z
-x,-y,-z
1/2+x,y,1/2-z
-x,y,z
1/2+x,-y,1/2+z
loop_
_atom_site_type_symbol
_atom_site_label
_atom_site_fract_x
_atom_site_fract_y
_atom_site_fract_z
Si Si1 0.185982 0.444142 0.678947
Si Si2 0.686920 0.816234 0.321240
Si Si3 0.311962 0.952924 0.404674
Si Si4 0.312616 0.111458 0.451907
Si Si5 0.186713 0.619792 0.679566
Si Si6 0.185923 0.680127 0.082749
Si Si7 0.185757 0.721903 0.558078
O O1 0.250000 0.419582 0.750000
O O2 0.232121 0.531950 0.669739
O O3 0.252066 0.392222 0.621692
O O4 0.000000 0.439208 0.679780
O O5 0.750000 0.798484 0.250000
O O6 0.500000 0.816581 0.318913
O O7 0.741515 0.898213 0.346995
O O8 0.733004 0.753236 0.374190
O O9 0.500000 0.954717 0.402855
O O10 0.272633 0.913141 0.473758
O O11 0.261681 0.040066 0.407703
O O12 0.500000 0.117774 0.449108
O O13 0.240572 0.191671 0.435423
O O14 0.250000 0.644431 0.750000
O O15 0.239199 0.671934 0.619753
O O16 0.000000 0.621884 0.681825
O O17 0.000000 0.678319 0.080252
O O18 0.249965 0.689154 0.009920
O O19 0.000000 0.719546 0.555851
#
# Coordination Sequence:
#
# PCOD9416986 Si02
#       7
#     8   8   8   8   8   8   8
#     4  10  20  37  58  80 109 145 185 225 272 325
#     4  10  20  34  51  75 108 144 181 220 265 319
#     4   8  15  31  54  75  99 137 181 219 258 316
#     4   9  16  32  57  78 100 137 180 219 264 320
#     4   9  21  40  60  80 106 143 181 223 276 334
#     4  11  22  36  55  80 110 146 189 226 268 328
#     4  11  22  36  55  83 115 141 175 229 284 324
#
# _framework density 17.939534999999999
#
# number of rings (size 3 to 8) (size 9 to 14) (size 15 to 20)
#    0.000    2.286    1.429    2.571    0.000    4.571 
#    0.000    5.714    0.000    3.429    0.000    0.000 
#    0.000    0.000    0.000    0.000    0.000    0.000 
#
# Total GULP energy -312463.052368 kJ/mol
# GULP energy per Si atom -5579.697364 kJ/mol
# Density = 1.789870 g / cm^3
# Si number density = 17.939535 Si / 1000 Ang^3
#
#
#
# Elastic Constant Matrix: (Units=GPa)
#
#
# Indices 1 2 3 4 5 6 
#
# 1 26.9926 32.0079 33.6397 0.0000 0.0000 0.0000
# 2 32.0079 125.5686 93.2774 0.0000 0.0000 0.0000
# 3 33.6397 93.2774 150.6794 0.0000 0.0000 0.0000
# 4 0.0000 0.0000 0.0000 25.7253 0.0000 0.0000
# 5 0.0000 0.0000 0.0000 0.0000 23.2959 0.0000
# 6 0.0000 0.0000 0.0000 0.0000 0.0000 29.5694
#
#
#
# Elastic Compliance Matrix: (Units=1/GPa)
#
#
# Indices 1 2 3 4 5 6 
#
# 1 0.056694 -0.009348 -0.006870 0.000000 0.000000 0.000000
# 2 -0.009348 0.016285 -0.007994 0.000000 0.000000 0.000000
# 3 -0.006870 -0.007994 0.013119 0.000000 0.000000 0.000000
# 4 0.000000 0.000000 0.000000 0.038872 0.000000 0.000000
# 5 0.000000 0.000000 0.000000 0.000000 0.042926 0.000000
# 6 0.000000 0.000000 0.000000 0.000000 0.000000 0.033819
#
#
# Mechanical properties :
#
#
# Convention : Reuss Voigt Hill
#
# Bulk Modulus (GPa) = 26.54394 69.01004 47.77699
# Shear Modulus (GPa) = 19.03324 25.33916 22.18620
#
# Velocity S-wave (km/s) = 3.26078 3.76237 3.52052
# Velocity P-wave (km/s) = 5.38567 7.57796 6.57385
#
# Compressibility (1/GPa) = 0.03767338
#
# Stress axis : x y z
#
# Youngs Moduli (GPa) = 17.63849 61.40613 76.22420
#
# Poissons Ratio (x) = 0.57402 0.52368
# Poissons Ratio (y) = 0.16488 0.60935
# Poissons Ratio (z) = 0.12118 0.49089
#
# Static dielectric constant tensor:
#      x y z
#    x 1.609880 0.000000 0.000000 
#    y 0.000000 1.626530 0.000000 
#    z 0.000000 0.000000 1.587170 
# 
# From -- ./inp_files/31029.got.cif
#   From: 2010.05.17/outbox.cif.g08.bks.cpg/sg53_16_cif.got.tgz:31029.got - 2010.06.03 12:45:16.
