data_PCOD9416265
_publ_section_title
;
Structure prediction by ZEFSAII (Michael W. Deem and Ramdas Pophale) SiO2 
 PCOD9416265
Probable space group: P M N A
;
_chemical_formula_sum "Si O2"
_cell_formula_units_Z 64
_cell_length_a 8.774897
_cell_length_b 20.366539
_cell_length_c 20.394614
_cell_angle_alpha 90.000000
_cell_angle_beta 90.000000
_cell_angle_gamma 90.000000
_cell_volume 3644.808797
_symmetry_space_group_name_H-M "P M N A"
_symmetry_group_IT_number 53
_symmetry_cell_setting 'orthorhombic'
loop_
_space_group_symop_operation_xyz
x,y,z
1/2-x,-y,1/2+z
x,-y,-z
1/2-x,y,1/2-z
-x,-y,-z
1/2+x,y,1/2-z
-x,y,z
1/2+x,-y,1/2+z
loop_
_atom_site_type_symbol
_atom_site_label
_atom_site_fract_x
_atom_site_fract_y
_atom_site_fract_z
Si Si1 0.683165 0.807988 0.434477
Si Si2 0.182090 0.945154 0.679007
Si Si3 0.317392 0.567276 0.821096
Si Si4 0.818243 0.698356 0.605741
Si Si5 0.682167 0.470640 0.570952
Si Si6 0.819489 0.668413 0.453217
Si Si7 0.816583 0.089429 0.820660
Si Si8 0.181686 0.837017 0.915579
O O1 0.500000 0.799471 0.434440
O O2 0.759595 0.737210 0.424961
O O3 0.723271 0.859350 0.377776
O O4 0.725079 0.834092 0.507229
O O5 0.250000 0.925512 0.750000
O O6 0.235611 0.894183 0.624085
O O7 0.000000 0.947853 0.683159
O O8 0.248264 0.017603 0.664847
O O9 0.250000 0.554224 0.750000
O O10 0.500000 0.564826 0.819888
O O11 0.272492 0.640275 0.845549
O O12 0.256424 0.514934 0.873186
O O13 0.790167 0.672998 0.531589
O O14 0.729960 0.766400 0.613477
O O15 0.000000 0.710402 0.611801
O O16 0.727710 0.500000 0.500000
O O17 0.500000 0.473996 0.576001
O O18 0.736687 0.395592 0.574099
O O19 0.000000 0.662402 0.443428
O O20 0.750000 0.109768 0.750000
O O21 0.000000 0.084524 0.816499
O O22 0.000000 0.845732 0.911093
#
# Coordination Sequence:
#
# PCOD9416265 Si02
#       8
#     8   8   8   8   8   8   8   8
#     4   9  20  37  57  83 115 148 183 229 281 337
#     4  11  22  37  56  79 109 145 188 232 277 333
#     4  11  23  39  57  81 116 150 188 233 284 337
#     4   9  19  35  54  78 110 147 183 225 276 332
#     4  11  22  36  59  86 112 147 191 234 279 336
#     4  10  19  34  58  85 112 143 185 233 279 329
#     4  10  20  37  59  82 110 145 187 231 279 335
#     4  10  20  35  56  82 113 148 185 228 277 329
#
# _framework density 17.55922
#
# number of rings (size 3 to 8) (size 9 to 14) (size 15 to 20)
#    0.000    1.875    1.250    3.750    0.000    4.500 
#    0.000    4.375    0.000    1.500    0.000    0.000 
#    0.000    0.000    0.000    0.000    0.000    0.000 
#
# Total GULP energy -357440.067882 kJ/mol
# GULP energy per Si atom -5585.001061 kJ/mol
# Density = 1.751925 g / cm^3
# Si number density = 17.559220 Si / 1000 Ang^3
#
#
#
# Elastic Constant Matrix: (Units=GPa)
#
#
# Indices 1 2 3 4 5 6 
#
# 1 71.7310 58.5435 56.9352 0.0000 0.0000 0.0000
# 2 58.5435 127.2918 94.9844 0.0000 0.0000 0.0000
# 3 56.9352 94.9844 121.9835 0.0000 0.0000 0.0000
# 4 0.0000 0.0000 0.0000 27.4711 0.0000 0.0000
# 5 0.0000 0.0000 0.0000 0.0000 27.1003 0.0000
# 6 0.0000 0.0000 0.0000 0.0000 0.0000 34.0767
#
#
#
# Elastic Compliance Matrix: (Units=1/GPa)
#
#
# Indices 1 2 3 4 5 6 
#
# 1 0.024172 -0.006441 -0.006267 0.000000 0.000000 0.000000
# 2 -0.006441 0.020467 -0.012931 0.000000 0.000000 0.000000
# 3 -0.006267 -0.012931 0.021192 0.000000 0.000000 0.000000
# 4 0.000000 0.000000 0.000000 0.036402 0.000000 0.000000
# 5 0.000000 0.000000 0.000000 0.000000 0.036900 0.000000
# 6 0.000000 0.000000 0.000000 0.000000 0.000000 0.029346
#
#
# Mechanical properties :
#
#
# Convention : Reuss Voigt Hill
#
# Bulk Modulus (GPa) = 68.71123 82.43695 75.57409
# Shear Modulus (GPa) = 22.26118 25.09917 23.68017
#
# Velocity S-wave (km/s) = 3.56445 3.78484 3.67630
# Velocity P-wave (km/s) = 7.49376 8.13326 7.82005
#
# Compressibility (1/GPa) = 0.01455366
#
# Stress axis : x y z
#
# Youngs Moduli (GPa) = 41.37052 48.85894 47.18811
#
# Poissons Ratio (x) = 0.31468 0.29573
# Poissons Ratio (y) = 0.26645 0.61019
# Poissons Ratio (z) = 0.25927 0.63179
#
# Static dielectric constant tensor:
#      x y z
#    x 1.585250 0.000000 0.000000 
#    y 0.000000 1.571310 0.000000 
#    z 0.000000 0.000000 1.582960 
# 
# From -- ./inp_files/31239.got.cif
#   From: 2010.05.17/outbox.cif.g08.bks.cpg/sg53_16_cif.got.tgz:31239.got - 2010.06.03 12:45:16.
