data_PCOD9416787
_publ_section_title
;
Structure prediction by ZEFSAII (Michael W. Deem and Ramdas Pophale) SiO2 
 PCOD9416787
Probable space group: P M N A
;
_chemical_formula_sum "Si O2"
_cell_formula_units_Z 56
_cell_length_a 9.037176
_cell_length_b 21.107265
_cell_length_c 14.728159
_cell_angle_alpha 90.000000
_cell_angle_beta 90.000000
_cell_angle_gamma 90.000000
_cell_volume 2809.397341
_symmetry_space_group_name_H-M "P M N A"
_symmetry_group_IT_number 53
_symmetry_cell_setting 'orthorhombic'
loop_
_space_group_symop_operation_xyz
x,y,z
1/2-x,-y,1/2+z
x,-y,-z
1/2-x,y,1/2-z
-x,-y,-z
1/2+x,y,1/2-z
-x,y,z
1/2+x,-y,1/2+z
loop_
_atom_site_type_symbol
_atom_site_label
_atom_site_fract_x
_atom_site_fract_y
_atom_site_fract_z
Si Si1 0.321904 0.597764 0.967646
Si Si2 0.175981 0.268787 0.041635
Si Si3 0.666719 0.095058 0.904142
Si Si4 0.824560 0.781877 0.161324
Si Si5 0.177706 0.526410 0.349140
Si Si6 0.333450 0.852574 0.892343
Si Si7 0.324549 0.020627 0.341906
O O1 0.500000 0.606336 0.967352
O O2 0.280010 0.575718 0.070346
O O3 0.240388 0.661951 0.941673
O O4 0.287997 0.541517 0.896325
O O5 0.257019 0.215717 0.102491
O O6 0.000000 0.265449 0.055755
O O7 0.204267 0.252570 0.934767
O O8 0.500000 0.084211 0.869024
O O9 0.755129 0.148207 0.849159
O O10 0.756633 0.030170 0.910751
O O11 0.653621 0.124880 0.003641
O O12 0.750000 0.751283 0.250000
O O13 0.000000 0.785787 0.174176
O O14 0.250000 0.534454 0.250000
O O15 0.000000 0.530135 0.338834
O O16 0.500000 0.851362 0.852987
O O17 0.232471 0.907811 0.851815
O O18 0.250000 0.995995 0.250000
O O19 0.500000 0.018578 0.341620
#
# Coordination Sequence:
#
# PCOD9416787 Si02
#       7
#     8   8   8   8   8   8   8
#     4   9  19  37  58  82 116 154 187 224 274 328
#     4  10  21  36  55  80 108 142 184 226 267 317
#     4  10  20  35  55  77 102 134 173 218 272 330
#     4  10  20  33  49  73 106 140 178 224 274 328
#     4   9  19  36  59  87 118 151 187 227 272 322
#     4  10  21  38  58  78 103 137 176 218 267 323
#     4  12  24  37  54  76 104 135 172 221 273 323
#
# _framework density 19.933101000000001
#
# number of rings (size 3 to 8) (size 9 to 14) (size 15 to 20)
#    0.000    2.000    0.000    4.714    0.000    6.857 
#    0.000    5.000    0.000    1.714    0.000    0.000 
#    0.000    0.000    0.000    0.000    0.000    0.000 
#
# Total GULP energy -312535.970104 kJ/mol
# GULP energy per Si atom -5580.999466 kJ/mol
# Density = 1.988773 g / cm^3
# Si number density = 19.933101 Si / 1000 Ang^3
#
#
#
# Elastic Constant Matrix: (Units=GPa)
#
#
# Indices 1 2 3 4 5 6 
#
# 1 85.3371 28.2687 -9.2930 0.0000 0.0000 0.0000
# 2 28.2687 101.6104 -19.2653 0.0000 0.0000 0.0000
# 3 -9.2930 -19.2653 21.6062 0.0000 0.0000 0.0000
# 4 0.0000 0.0000 0.0000 11.8718 0.0000 0.0000
# 5 0.0000 0.0000 0.0000 0.0000 -32.0965 0.0000
# 6 0.0000 0.0000 0.0000 0.0000 0.0000 24.0179
#
#
#
# Elastic Compliance Matrix: (Units=1/GPa)
#
#
# Indices 1 2 3 4 5 6 
#
# 1 0.013053 -0.003089 0.002860 0.000000 0.000000 0.000000
# 2 -0.003089 0.012575 0.009884 0.000000 0.000000 0.000000
# 3 0.002860 0.009884 0.056326 0.000000 0.000000 0.000000
# 4 0.000000 0.000000 0.000000 0.084233 0.000000 0.000000
# 5 0.000000 0.000000 0.000000 0.000000 -0.031156 0.000000
# 6 0.000000 0.000000 0.000000 0.000000 0.000000 0.041636
#
#
# Mechanical properties :
#
#
# Convention : Reuss Voigt Hill
#
# Bulk Modulus (GPa) = 9.87535 23.10828 16.49182
# Shear Modulus (GPa) = 26.16261 14.68154 20.42207
#
# Velocity S-wave (km/s) = 3.62680 2.71687 3.20430
# Velocity P-wave (km/s) = 4.74376 4.63249 4.68845
#
# Compressibility (1/GPa) = 0.10126224
#
# Stress axis : x y z
#
# Youngs Moduli (GPa) = 76.61090 79.52328 17.75382
#
# Poissons Ratio (x) = 0.24567 -0.05077
# Poissons Ratio (y) = 0.23667 -0.17548
# Poissons Ratio (z) = -0.21908 -0.78599
#
# Static dielectric constant tensor:
#      x y z
#    x 1.677410 0.000000 0.000000 
#    y 0.000000 1.689470 0.000000 
#    z 0.000000 0.000000 1.730360 
# 
# From -- ./inp_files/20508.got.cif
#   From: 2010.05.17/outbox.cif.g08.bks.cpg/sg53_11_cif.got.tgz:20508.got - 2010.06.03 12:45:16.
