data_PCOD9416178
_publ_section_title
;
Structure prediction by ZEFSAII (Michael W. Deem and Ramdas Pophale) SiO2 
 PCOD9416178
Probable space group: P M N A
;
_chemical_formula_sum "Si O2"
_cell_formula_units_Z 56
_cell_length_a 8.784578
_cell_length_b 13.920080
_cell_length_c 24.786021
_cell_angle_alpha 90.000000
_cell_angle_beta 90.000000
_cell_angle_gamma 90.000000
_cell_volume 3030.884927
_symmetry_space_group_name_H-M "P M N A"
_symmetry_group_IT_number 53
_symmetry_cell_setting 'orthorhombic'
loop_
_space_group_symop_operation_xyz
x,y,z
1/2-x,-y,1/2+z
x,-y,-z
1/2-x,y,1/2-z
-x,-y,-z
1/2+x,y,1/2-z
-x,y,z
1/2+x,-y,1/2+z
loop_
_atom_site_type_symbol
_atom_site_label
_atom_site_fract_x
_atom_site_fract_y
_atom_site_fract_z
Si Si1 0.817171 0.840533 0.373333
Si Si2 0.818141 0.340294 0.809246
Si Si3 0.682708 0.233300 0.307149
Si Si4 0.681315 0.270602 0.978659
Si Si5 0.182595 0.990962 0.808011
Si Si6 0.181506 0.455369 0.595057
Si Si7 0.818196 0.661296 0.916056
O O1 0.746816 0.758037 0.335096
O O2 0.779075 0.810747 0.434753
O O3 0.752263 0.941399 0.353656
O O4 0.000000 0.837551 0.368109
O O5 0.750000 0.353411 0.750000
O O6 0.763165 0.423742 0.849734
O O7 0.000000 0.336381 0.807182
O O8 0.750000 0.265672 0.250000
O O9 0.500000 0.237849 0.303761
O O10 0.731429 0.294711 0.358689
O O11 0.724016 0.121081 0.315254
O O12 0.500000 0.266719 0.988540
O O13 0.714364 0.371493 0.948192
O O14 0.769092 0.270777 0.034675
O O15 0.250000 0.021656 0.750000
O O16 0.000000 0.999619 0.807084
O O17 0.239998 0.558253 0.576395
O O18 0.000000 0.456625 0.603115
O O19 0.000000 0.650235 0.915714
#
# Coordination Sequence:
#
# PCOD9416178 Si02
#       7
#     8   8   8   8   8   8   8
#     4  10  20  35  54  79 110 141 176 218 264 316
#     4  11  21  34  52  77 109 143 179 218 266 320
#     4   9  21  39  57  80 108 138 176 222 265 312
#     4   9  20  37  55  77 107 141 177 217 263 317
#     4  10  19  34  56  80 107 140 178 218 264 315
#     4  10  21  37  55  77 107 142 181 224 267 315
#     4  11  22  36  56  81 107 138 179 223 269 319
#
# _framework density 18.476451000000001
#
# number of rings (size 3 to 8) (size 9 to 14) (size 15 to 20)
#    0.000    2.000    0.000    4.714    0.000    7.429 
#    0.000    2.143    0.000    4.286    0.000    0.000 
#    0.000    0.000    0.000    0.000    0.000    0.000 
#
# Total GULP energy -312786.944319 kJ/mol
# GULP energy per Si atom -5585.481149 kJ/mol
# Density = 1.843440 g / cm^3
# Si number density = 18.476451 Si / 1000 Ang^3
#
#
#
# Elastic Constant Matrix: (Units=GPa)
#
#
# Indices 1 2 3 4 5 6 
#
# 1 61.7785 13.1284 35.5725 0.0000 0.0000 0.0000
# 2 13.1284 30.2622 12.9568 0.0000 0.0000 0.0000
# 3 35.5725 12.9568 100.2318 0.0000 0.0000 0.0000
# 4 0.0000 0.0000 0.0000 20.3118 0.0000 0.0000
# 5 0.0000 0.0000 0.0000 0.0000 32.4077 0.0000
# 6 0.0000 0.0000 0.0000 0.0000 0.0000 63.1773
#
#
#
# Elastic Compliance Matrix: (Units=1/GPa)
#
#
# Indices 1 2 3 4 5 6 
#
# 1 0.021455 -0.006402 -0.006787 0.000000 0.000000 0.000000
# 2 -0.006402 0.036891 -0.002497 0.000000 0.000000 0.000000
# 3 -0.006787 -0.002497 0.012708 0.000000 0.000000 0.000000
# 4 0.000000 0.000000 0.000000 0.049233 0.000000 0.000000
# 5 0.000000 0.000000 0.000000 0.000000 0.030857 0.000000
# 6 0.000000 0.000000 0.000000 0.000000 0.000000 0.015828
#
#
# Mechanical properties :
#
#
# Convention : Reuss Voigt Hill
#
# Bulk Modulus (GPa) = 25.19966 35.06535 30.13250
# Shear Modulus (GPa) = 23.63269 31.88701 27.75985
#
# Velocity S-wave (km/s) = 3.58029 4.15880 3.88034
# Velocity P-wave (km/s) = 5.54614 6.48695 6.03491
#
# Compressibility (1/GPa) = 0.03968308
#
# Stress axis : x y z
#
# Youngs Moduli (GPa) = 46.60848 27.10705 78.68841
#
# Poissons Ratio (x) = 0.17354 0.53406
# Poissons Ratio (y) = 0.29838 0.19647
# Poissons Ratio (z) = 0.31633 0.06768
#
# Static dielectric constant tensor:
#      x y z
#    x 1.613550 0.000000 0.000000 
#    y 0.000000 1.632630 0.000000 
#    z 0.000000 0.000000 1.631000 
# 
# From -- ./inp_files/30863.got.cif
#   From: 2010.05.17/outbox.cif.g08.bks.cpg/sg53_16_cif.got.tgz:30863.got - 2010.06.03 12:45:16.
