data_PCOD9416704
_publ_section_title
;
Structure prediction by ZEFSAII (Michael W. Deem and Ramdas Pophale) SiO2 
 PCOD9416704
Probable space group: P M N A
;
_chemical_formula_sum "Si O2"
_cell_formula_units_Z 48
_cell_length_a 8.263363
_cell_length_b 18.230137
_cell_length_c 13.727408
_cell_angle_alpha 90.000000
_cell_angle_beta 90.000000
_cell_angle_gamma 90.000000
_cell_volume 2067.927485
_symmetry_space_group_name_H-M "P M N A"
_symmetry_group_IT_number 53
_symmetry_cell_setting 'orthorhombic'
loop_
_space_group_symop_operation_xyz
x,y,z
1/2-x,-y,1/2+z
x,-y,-z
1/2-x,y,1/2-z
-x,-y,-z
1/2+x,y,1/2-z
-x,y,z
1/2+x,-y,1/2+z
loop_
_atom_site_type_symbol
_atom_site_label
_atom_site_fract_x
_atom_site_fract_y
_atom_site_fract_z
Si Si1 0.695874 0.137017 0.350597
Si Si2 0.693453 0.666324 0.070459
Si Si3 0.680835 0.513281 0.383974
Si Si4 0.316386 0.979905 0.385557
Si Si5 0.803661 0.822868 0.068334
Si Si6 0.816192 0.639102 0.646971
O O1 0.750000 0.172926 0.250000
O O2 0.500000 0.133741 0.353072
O O3 0.746067 0.171389 0.453824
O O4 0.765900 0.053706 0.348276
O O5 0.500000 0.657672 0.068301
O O6 0.740342 0.746289 0.108762
O O7 0.758955 0.661550 0.957635
O O8 0.764649 0.596927 0.127873
O O9 0.674759 0.500000 0.500000
O O10 0.500000 0.501236 0.345064
O O11 0.799639 0.449438 0.350049
O O12 0.500000 0.975691 0.345742
O O13 0.245282 0.898292 0.380509
O O14 0.331061 0.000000 0.500000
O O15 0.000000 0.823913 0.071231
O O16 0.750000 0.665412 0.750000
O O17 0.000000 0.662609 0.642129
#
# Coordination Sequence:
#
# PCOD9416704 Si02
#       6
#     8   8   8   8   8   8
#     4   9  17  29  46  68  93 120 151 189 233 279
#     4  10  20  32  47  70  99 126 154 193 237 278
#     4   9  17  31  51  71  91 120 159 196 231 277
#     4   7  12  26  46  64  83 114 156 193 223 264
#     4   9  17  30  48  67  89 121 159 193 226 272
#     4  10  20  33  49  70  97 127 157 191 232 277
#
# _framework density 23.211645999999998
#
# number of rings (size 3 to 8) (size 9 to 14) (size 15 to 20)
#    0.000    3.000    0.000    3.500    0.000    5.333 
#    0.000    4.167    0.000    4.000    0.000    4.667 
#    0.000    0.000    0.000    0.000    0.000    0.000 
#
# Total GULP energy -267600.428415 kJ/mol
# GULP energy per Si atom -5575.008925 kJ/mol
# Density = 2.315882 g / cm^3
# Si number density = 23.211646 Si / 1000 Ang^3
#
#
#
# Elastic Constant Matrix: (Units=GPa)
#
#
# Indices 1 2 3 4 5 6 
#
# 1 20.8137 -4.4987 1.0118 0.0000 0.0000 0.0000
# 2 -4.4987 168.0164 -8.2821 0.0000 0.0000 0.0000
# 3 1.0118 -8.2821 42.9898 0.0000 0.0000 0.0000
# 4 0.0000 0.0000 0.0000 -4.5563 0.0000 0.0000
# 5 0.0000 0.0000 0.0000 0.0000 7.0320 0.0000
# 6 0.0000 0.0000 0.0000 0.0000 0.0000 -14.6409
#
#
#
# Elastic Compliance Matrix: (Units=1/GPa)
#
#
# Indices 1 2 3 4 5 6 
#
# 1 0.048359 0.001251 -0.000897 0.000000 0.000000 0.000000
# 2 0.001251 0.006041 0.001134 0.000000 0.000000 0.000000
# 3 -0.000897 0.001134 0.023501 0.000000 0.000000 0.000000
# 4 0.000000 0.000000 0.000000 -0.219475 0.000000 0.000000
# 5 0.000000 0.000000 0.000000 0.000000 0.142207 0.000000
# 6 0.000000 0.000000 0.000000 0.000000 0.000000 -0.068302
#
#
# Mechanical properties :
#
#
# Convention : Reuss Voigt Hill
#
# Bulk Modulus (GPa) = 12.36447 23.14245 17.75346
# Shear Modulus (GPa) = -114.45477 13.80622 -50.32428
#
# Velocity S-wave (km/s) = -7.02967 2.44149 -4.66130
# Velocity P-wave (km/s) = 7.78138 4.23553 4.61575
#
# Compressibility (1/GPa) = 0.08087691
#
# Stress axis : x y z
#
# Youngs Moduli (GPa) = 20.67861 165.52992 42.55142
#
# Poissons Ratio (x) = -0.20701 0.03818
# Poissons Ratio (y) = -0.02586 -0.04827
# Poissons Ratio (z) = 0.01855 -0.18778
#
# Static dielectric constant tensor:
#      x y z
#    x 1.832150 0.000000 0.000000 
#    y 0.000000 1.896390 0.000000 
#    z 0.000000 0.000000 1.947730 
# 
# From -- ./inp_files/26388.got.cif
#   From: 2010.05.17/outbox.cif.g08.bks.cpg/sg53_14_cif.got.tgz:26388.got - 2010.06.03 12:45:16.
