data_PCOD9416818
_publ_section_title
;
Structure prediction by ZEFSAII (Michael W. Deem and Ramdas Pophale) SiO2 
 PCOD9416818
Probable space group: P M N A
;
_chemical_formula_sum "Si O2"
_cell_formula_units_Z 64
_cell_length_a 8.856806
_cell_length_b 28.061949
_cell_length_c 14.917315
_cell_angle_alpha 90.000000
_cell_angle_beta 90.000000
_cell_angle_gamma 90.000000
_cell_volume 3707.538107
_symmetry_space_group_name_H-M "P M N A"
_symmetry_group_IT_number 53
_symmetry_cell_setting 'orthorhombic'
loop_
_space_group_symop_operation_xyz
x,y,z
1/2-x,-y,1/2+z
x,-y,-z
1/2-x,y,1/2-z
-x,-y,-z
1/2+x,y,1/2-z
-x,y,z
1/2+x,-y,1/2+z
loop_
_atom_site_type_symbol
_atom_site_label
_atom_site_fract_x
_atom_site_fract_y
_atom_site_fract_z
Si Si1 0.179963 0.573009 0.656029
Si Si2 0.679769 0.194575 0.653017
Si Si3 0.679737 0.613061 0.033166
Si Si4 0.679839 0.693200 0.346962
Si Si5 0.819025 0.112763 0.538619
Si Si6 0.828970 0.981778 0.102748
Si Si7 0.820176 0.922144 0.659198
Si Si8 0.818945 0.531008 0.153343
O O1 0.250000 0.589498 0.750000
O O2 0.206566 0.607915 0.572886
O O3 0.256373 0.521980 0.634914
O O4 0.000000 0.565650 0.666042
O O5 0.750000 0.182679 0.750000
O O6 0.500000 0.187196 0.655588
O O7 0.708553 0.250712 0.636953
O O8 0.753388 0.161213 0.578351
O O9 0.500000 0.610355 0.048630
O O10 0.745977 0.660259 0.078030
O O11 0.758989 0.568377 0.081313
O O12 0.750000 0.680962 0.250000
O O13 0.500000 0.685422 0.344116
O O14 0.752296 0.068984 0.596799
O O15 0.776354 0.103508 0.434302
O O16 0.000000 0.111987 0.544110
O O17 0.000000 0.977724 0.137669
O O18 0.737426 0.023452 0.150849
O O19 0.837270 0.000000 0.000000
O O20 0.750000 0.901301 0.750000
O O21 0.000000 0.921638 0.665374
O O22 0.750000 0.544841 0.250000
O O23 0.000000 0.530708 0.156830
#
# Coordination Sequence:
#
# PCOD9416818 Si02
#       8
#     8   8   8   8   8   8   8   8
#     4  10  21  36  53  74 103 138 175 215 255 298
#     4  10  21  37  57  80 105 133 166 207 256 308
#     4  11  22  35  53  77 105 137 172 211 256 305
#     4  10  21  37  57  81 107 133 164 206 255 308
#     4  10  20  34  53  77 105 136 172 214 257 304
#     4   9  17  30  48  70  98 132 169 209 251 296
#     4  10  20  33  50  74 105 140 176 214 255 300
#     4  11  21  33  51  75 106 141 175 213 254 300
#
# _framework density 17.262127
#
# number of rings (size 3 to 8) (size 9 to 14) (size 15 to 20)
#    0.000    1.875    0.000    5.250    0.000    8.500 
#    0.000    2.500    0.000    0.750    0.000    0.000 
#    0.000    0.000    0.000    0.000    0.000    0.000 
#
# Total GULP energy -357394.198334 kJ/mol
# GULP energy per Si atom -5584.284349 kJ/mol
# Density = 1.722284 g / cm^3
# Si number density = 17.262127 Si / 1000 Ang^3
#
#
#
# Elastic Constant Matrix: (Units=GPa)
#
#
# Indices 1 2 3 4 5 6 
#
# 1 106.9512 56.2862 68.0369 0.0000 0.0000 0.0000
# 2 56.2862 72.1096 71.1145 0.0000 0.0000 0.0000
# 3 68.0369 71.1145 121.0157 0.0000 0.0000 0.0000
# 4 0.0000 0.0000 0.0000 26.8567 0.0000 0.0000
# 5 0.0000 0.0000 0.0000 0.0000 29.1906 0.0000
# 6 0.0000 0.0000 0.0000 0.0000 0.0000 41.8163
#
#
#
# Elastic Compliance Matrix: (Units=1/GPa)
#
#
# Indices 1 2 3 4 5 6 
#
# 1 0.016686 -0.008973 -0.004108 0.000000 0.000000 0.000000
# 2 -0.008973 0.037808 -0.017173 0.000000 0.000000 0.000000
# 3 -0.004108 -0.017173 0.020665 0.000000 0.000000 0.000000
# 4 0.000000 0.000000 0.000000 0.037235 0.000000 0.000000
# 5 0.000000 0.000000 0.000000 0.000000 0.034258 0.000000
# 6 0.000000 0.000000 0.000000 0.000000 0.000000 0.023914
#
#
# Mechanical properties :
#
#
# Convention : Reuss Voigt Hill
#
# Bulk Modulus (GPa) = 68.25808 76.77241 72.51525
# Shear Modulus (GPa) = 21.19049 26.54864 23.86956
#
# Velocity S-wave (km/s) = 3.50747 3.92595 3.72260
# Velocity P-wave (km/s) = 7.48539 8.06981 7.78309
#
# Compressibility (1/GPa) = 0.01465028
#
# Stress axis : x y z
#
# Youngs Moduli (GPa) = 59.93187 26.44976 48.39214
#
# Poissons Ratio (x) = 0.23733 0.19880
# Poissons Ratio (y) = 0.53776 0.83103
# Poissons Ratio (z) = 0.24620 0.45422
#
# Static dielectric constant tensor:
#      x y z
#    x 1.579820 0.000000 0.000000 
#    y 0.000000 1.562340 0.000000 
#    z 0.000000 0.000000 1.602880 
# 
# From -- ./inp_files/20925.got.cif
#   From: 2010.05.17/outbox.cif.g08.bks.cpg/sg53_11_cif.got.tgz:20925.got - 2010.06.03 12:45:16.
