data_PCOD9416968
_publ_section_title
;
Structure prediction by ZEFSAII (Michael W. Deem and Ramdas Pophale) SiO2 
 PCOD9416968
Probable space group: P M N A
;
_chemical_formula_sum "Si O2"
_cell_formula_units_Z 40
_cell_length_a 8.043815
_cell_length_b 13.241386
_cell_length_c 20.754161
_cell_angle_alpha 90.000000
_cell_angle_beta 90.000000
_cell_angle_gamma 90.000000
_cell_volume 2210.551824
_symmetry_space_group_name_H-M "P M N A"
_symmetry_group_IT_number 53
_symmetry_cell_setting 'orthorhombic'
loop_
_space_group_symop_operation_xyz
x,y,z
1/2-x,-y,1/2+z
x,-y,-z
1/2-x,y,1/2-z
-x,-y,-z
1/2+x,y,1/2-z
-x,y,z
1/2+x,-y,1/2+z
loop_
_atom_site_type_symbol
_atom_site_label
_atom_site_fract_x
_atom_site_fract_y
_atom_site_fract_z
Si Si1 0.200679 0.693061 0.598793
Si Si2 0.692962 0.523387 0.077002
Si Si3 0.302057 0.116195 0.322934
Si Si4 0.799696 0.960752 0.069605
Si Si5 0.298757 0.738080 0.046870
O O1 0.265472 0.578393 0.608009
O O2 0.247875 0.773898 0.652050
O O3 0.257146 0.732351 0.528146
O O4 0.000000 0.686758 0.595917
O O5 0.500000 0.529799 0.097685
O O6 0.764553 0.636092 0.081938
O O7 0.692400 0.500000 0.000000
O O8 0.250000 0.097437 0.250000
O O9 0.500000 0.112741 0.325850
O O10 0.236043 0.032775 0.373459
O O11 0.753586 0.843832 0.076606
O O12 0.000000 0.967638 0.068642
O O13 0.737764 0.000000 0.000000
O O14 0.500000 0.733079 0.046297
#
# Coordination Sequence:
#
# PCOD9416968 Si02
#       5
#     8   8   8   8   8
#     4   9  16  29  50  74 102 132 164 202 247 298
#     4   7  12  24  43  71 103 129 154 192 240 285
#     4  11  23  37  52  71 100 135 171 211 257 307
#     4  10  20  34  50  71 103 136 166 211 264 304
#     4   9  16  27  49  78 103 130 166 206 245 294
#
# _framework density 18.095029
#
# number of rings (size 3 to 8) (size 9 to 14) (size 15 to 20)
#    0.000    2.800    2.000    3.000    0.000    2.000 
#    0.000    1.000    0.000    4.800    0.000    2.800 
#    0.000    0.000    0.000    0.000    0.000    0.000 
#
# Total GULP energy -222804.884830 kJ/mol
# GULP energy per Si atom -5570.122121 kJ/mol
# Density = 1.805384 g / cm^3
# Si number density = 18.095029 Si / 1000 Ang^3
#
#
#
# Elastic Constant Matrix: (Units=GPa)
#
#
# Indices 1 2 3 4 5 6 
#
# 1 14.7877 8.6292 11.2741 0.0000 0.0000 0.0000
# 2 8.6292 187.7203 74.9793 0.0000 0.0000 0.0000
# 3 11.2741 74.9793 94.0608 0.0000 0.0000 0.0000
# 4 0.0000 0.0000 0.0000 14.7970 0.0000 0.0000
# 5 0.0000 0.0000 0.0000 0.0000 12.2833 0.0000
# 6 0.0000 0.0000 0.0000 0.0000 0.0000 50.8689
#
#
#
# Elastic Compliance Matrix: (Units=1/GPa)
#
#
# Indices 1 2 3 4 5 6 
#
# 1 0.074430 0.000208 -0.009087 0.000000 0.000000 0.000000
# 2 0.000208 0.007816 -0.006255 0.000000 0.000000 0.000000
# 3 -0.009087 -0.006255 0.016707 0.000000 0.000000 0.000000
# 4 0.000000 0.000000 0.000000 0.067581 0.000000 0.000000
# 5 0.000000 0.000000 0.000000 0.000000 0.081411 0.000000
# 6 0.000000 0.000000 0.000000 0.000000 0.000000 0.019658
#
#
# Mechanical properties :
#
#
# Convention : Reuss Voigt Hill
#
# Bulk Modulus (GPa) = 14.55932 54.03713 34.29822
# Shear Modulus (GPa) = 15.58760 29.03560 22.31160
#
# Velocity S-wave (km/s) = 2.93820 4.01011 3.51525
# Velocity P-wave (km/s) = 4.42427 7.16723 5.95581
#
# Compressibility (1/GPa) = 0.06868454
#
# Stress axis : x y z
#
# Youngs Moduli (GPa) = 13.43539 127.94196 59.85503
#
# Poissons Ratio (x) = -0.02663 0.54391
# Poissons Ratio (y) = -0.00280 0.37442
# Poissons Ratio (z) = 0.12209 0.80033
#
# Static dielectric constant tensor:
#      x y z
#    x 1.644370 0.000000 0.000000 
#    y 0.000000 1.668960 0.000000 
#    z 0.000000 0.000000 1.640010 
# 
# From -- ./inp_files/25862.got.cif
#   From: 2010.05.17/outbox.cif.g08.bks.cpg/sg53_13_cif.got.tgz:25862.got - 2010.06.03 12:45:16.
