data_PCOD9416754
_publ_section_title
;
Structure prediction by ZEFSAII (Michael W. Deem and Ramdas Pophale) SiO2 
 PCOD9416754
Probable space group: P M N A
;
_chemical_formula_sum "Si O2"
_cell_formula_units_Z 40
_cell_length_a 7.380669
_cell_length_b 10.306869
_cell_length_c 26.954186
_cell_angle_alpha 90.000000
_cell_angle_beta 90.000000
_cell_angle_gamma 90.000000
_cell_volume 2050.447746
_symmetry_space_group_name_H-M "P M N A"
_symmetry_group_IT_number 53
_symmetry_cell_setting 'orthorhombic'
loop_
_space_group_symop_operation_xyz
x,y,z
1/2-x,-y,1/2+z
x,-y,-z
1/2-x,y,1/2-z
-x,-y,-z
1/2+x,y,1/2-z
-x,y,z
1/2+x,-y,1/2+z
loop_
_atom_site_type_symbol
_atom_site_label
_atom_site_fract_x
_atom_site_fract_y
_atom_site_fract_z
Si Si1 0.000000 0.374244 0.931837
Si Si2 0.785990 0.558548 0.694788
Si Si3 0.500000 0.683860 0.546634
Si Si4 0.279690 0.706771 0.149797
Si Si5 0.215590 0.015678 0.691789
Si Si6 0.780144 0.781418 0.620429
O O1 0.000000 0.531507 0.936595
O O2 0.825375 0.324321 0.901029
O O3 0.000000 0.319195 0.987360
O O4 0.750000 0.604536 0.750000
O O5 0.723106 0.412615 0.685315
O O6 0.721364 0.659435 0.654279
O O7 0.000000 0.554917 0.688573
O O8 0.673778 0.757813 0.569621
O O9 0.500000 0.707145 0.143568
O O10 0.222196 0.842234 0.174429
O O11 0.250000 0.989472 0.750000
O O12 0.000000 0.016426 0.687238
O O13 0.276778 0.906462 0.652792
O O14 0.000000 0.782425 0.614315
#
# Coordination Sequence:
#
# PCOD9416754 Si02
#       6
#     4   8   4   8   8   8
#     4  11  24  41  67  93 115 161 215 265 320 353
#     4  10  20  32  54  83 115 158 196 240 301 356
#     4  11  24  41  67  93 115 161 215 265 320 353
#     4  10  22  40  58  88 126 157 201 256 304 367
#     4  10  22  38  60  91 127 170 202 238 307 370
#     4  10  22  40  58  88 126 157 201 256 304 367
#
# _framework density 19.507935
#
# number of rings (size 3 to 8) (size 9 to 14) (size 15 to 20)
#    0.000    1.800    2.000    1.200    5.600    0.800 
#    0.000    4.000    0.000    3.600    0.000    0.000 
#    0.000    0.000    0.000    0.000    0.000    0.000 
#
# Total GULP energy -223196.771428 kJ/mol
# GULP energy per Si atom -5579.919286 kJ/mol
# Density = 1.946353 g / cm^3
# Si number density = 19.507935 Si / 1000 Ang^3
#
#
#
# Elastic Constant Matrix: (Units=GPa)
#
#
# Indices 1 2 3 4 5 6 
#
# 1 81.1395 4.3016 11.6606 0.0000 0.0000 0.0000
# 2 4.3016 53.2018 -18.0319 0.0000 0.0000 0.0000
# 3 11.6606 -18.0319 78.7166 0.0000 0.0000 0.0000
# 4 0.0000 0.0000 0.0000 29.6626 0.0000 0.0000
# 5 0.0000 0.0000 0.0000 0.0000 33.8208 0.0000
# 6 0.0000 0.0000 0.0000 0.0000 0.0000 0.4143
#
#
#
# Elastic Compliance Matrix: (Units=1/GPa)
#
#
# Indices 1 2 3 4 5 6 
#
# 1 0.012752 -0.001812 -0.002304 0.000000 0.000000 0.000000
# 2 -0.001812 0.020636 0.004996 0.000000 0.000000 0.000000
# 3 -0.002304 0.004996 0.014189 0.000000 0.000000 0.000000
# 4 0.000000 0.000000 0.000000 0.033712 0.000000 0.000000
# 5 0.000000 0.000000 0.000000 0.000000 0.029568 0.000000
# 6 0.000000 0.000000 0.000000 0.000000 0.000000 2.413935
#
#
# Mechanical properties :
#
#
# Convention : Reuss Voigt Hill
#
# Bulk Modulus (GPa) = 20.26900 23.21315 21.74107
# Shear Modulus (GPa) = 1.96891 27.12138 14.54515
#
# Velocity S-wave (km/s) = 1.00572 3.73268 2.73353
# Velocity P-wave (km/s) = 3.42948 5.52290 4.59694
#
# Compressibility (1/GPa) = 0.04933642
#
# Stress axis : x y z
#
# Youngs Moduli (GPa) = 78.42143 48.45893 70.47485
#
# Poissons Ratio (x) = 0.08780 0.16237
# Poissons Ratio (y) = 0.14209 -0.35206
# Poissons Ratio (z) = 0.18068 -0.24208
#
# Static dielectric constant tensor:
#      x y z
#    x 1.694320 0.000000 0.000000 
#    y 0.000000 1.711660 0.000000 
#    z 0.000000 0.000000 1.642260 
# 
# From -- ./inp_files/11526.got.cif
#   From: 2010.05.17/outbox.cif.g08.bks.cpg/sg53_6_cif.got.tgz:11526.got - 2010.06.03 12:45:16.
