data_PCOD9416539
_publ_section_title
;
Structure prediction by ZEFSAII (Michael W. Deem and Ramdas Pophale) SiO2 
 PCOD9416539
Probable space group: P M N A
;
_chemical_formula_sum "Si O2"
_cell_formula_units_Z 64
_cell_length_a 16.623964
_cell_length_b 12.508175
_cell_length_c 14.758263
_cell_angle_alpha 90.000000
_cell_angle_beta 90.000000
_cell_angle_gamma 90.000000
_cell_volume 3068.766071
_symmetry_space_group_name_H-M "P M N A"
_symmetry_group_IT_number 53
_symmetry_cell_setting 'orthorhombic'
loop_
_space_group_symop_operation_xyz
x,y,z
1/2-x,-y,1/2+z
x,-y,-z
1/2-x,y,1/2-z
-x,-y,-z
1/2+x,y,1/2-z
-x,y,z
1/2+x,-y,1/2+z
loop_
_atom_site_type_symbol
_atom_site_label
_atom_site_fract_x
_atom_site_fract_y
_atom_site_fract_z
Si Si1 0.594269 0.083389 0.189418
Si Si2 0.406634 0.848166 0.162317
Si Si3 0.340593 0.640433 0.237651
Si Si4 0.802582 0.311719 0.057411
Si Si5 0.154357 0.695611 0.752074
Si Si6 0.306958 0.883154 0.984872
Si Si7 0.593793 0.408919 0.576992
Si Si8 0.649132 0.542783 0.907517
O O1 0.500000 0.100888 0.201751
O O2 0.639566 0.178996 0.238978
O O3 0.620299 0.095973 0.084897
O O4 0.613169 0.960087 0.212409
O O5 0.500000 0.856939 0.132438
O O6 0.395868 0.742844 0.221844
O O7 0.346318 0.839294 0.077077
O O8 0.250000 0.679240 0.250000
O O9 0.370088 0.572569 0.323931
O O10 0.339592 0.562262 0.152229
O O11 0.862797 0.327344 0.142549
O O12 0.753800 0.200910 0.059160
O O13 0.732456 0.401591 0.060306
O O14 0.852896 0.315206 0.965754
O O15 0.250000 0.671059 0.750000
O O16 0.116273 0.629682 0.667416
O O17 0.269133 0.000000 0.000000
O O18 0.602801 0.500000 0.500000
O O19 0.500000 0.385412 0.585547
O O20 0.607270 0.500000 0.000000
#
# Coordination Sequence:
#
# PCOD9416539 Si02
#       8
#     8   8   8   8   8   8   8   8
#     4  10  20  37  60  86 120 164 206 248 312 382
#     4  10  22  38  58  86 125 166 201 253 317 380
#     4  12  23  38  63  95 122 161 214 259 314 370
#     4  11  21  39  63  91 120 160 211 259 307 366
#     4  10  20  36  60  88 122 159 202 260 312 365
#     4  10  19  36  62  91 121 157 207 256 306 372
#     4  11  24  42  63  89 125 169 213 258 307 374
#     4  11  21  36  63  93 125 155 201 258 315 369
#
# _framework density 20.855288000000002
#
# number of rings (size 3 to 8) (size 9 to 14) (size 15 to 20)
#    0.000    1.375    2.500    6.000    0.000    2.500 
#    2.250    1.250    0.000    3.000    0.000    0.000 
#    0.000    0.000    0.000    0.000    0.000    0.000 
#
# Total GULP energy -356979.239521 kJ/mol
# GULP energy per Si atom -5577.800618 kJ/mol
# Density = 2.080782 g / cm^3
# Si number density = 20.855288 Si / 1000 Ang^3
#
#
#
# Elastic Constant Matrix: (Units=GPa)
#
#
# Indices 1 2 3 4 5 6 
#
# 1 45.4651 11.5557 11.5471 0.0000 0.0000 0.0000
# 2 11.5557 117.1770 34.5774 0.0000 0.0000 0.0000
# 3 11.5471 34.5774 108.6123 0.0000 0.0000 0.0000
# 4 0.0000 0.0000 0.0000 24.1019 0.0000 0.0000
# 5 0.0000 0.0000 0.0000 0.0000 7.4850 0.0000
# 6 0.0000 0.0000 0.0000 0.0000 0.0000 5.3739
#
#
#
# Elastic Compliance Matrix: (Units=1/GPa)
#
#
# Indices 1 2 3 4 5 6 
#
# 1 0.022908 -0.001700 -0.001894 0.000000 0.000000 0.000000
# 2 -0.001700 0.009545 -0.002858 0.000000 0.000000 0.000000
# 3 -0.001894 -0.002858 0.010318 0.000000 0.000000 0.000000
# 4 0.000000 0.000000 0.000000 0.041491 0.000000 0.000000
# 5 0.000000 0.000000 0.000000 0.000000 0.133600 0.000000
# 6 0.000000 0.000000 0.000000 0.000000 0.000000 0.186085
#
#
# Mechanical properties :
#
#
# Convention : Reuss Voigt Hill
#
# Bulk Modulus (GPa) = 33.48200 42.95717 38.21959
# Shear Modulus (GPa) = 11.71489 21.63044 16.67267
#
# Velocity S-wave (km/s) = 2.37264 3.22400 2.83051
# Velocity P-wave (km/s) = 4.85749 5.87379 5.38965
#
# Compressibility (1/GPa) = 0.02986679
#
# Stress axis : x y z
#
# Youngs Moduli (GPa) = 43.65263 104.76555 96.91515
#
# Poissons Ratio (x) = 0.17812 0.18358
# Poissons Ratio (y) = 0.07422 0.27698
# Poissons Ratio (z) = 0.08269 0.29942
#
# Static dielectric constant tensor:
#      x y z
#    x 1.699660 0.000000 0.000000 
#    y 0.000000 1.787050 0.000000 
#    z 0.000000 0.000000 1.817060 
# 
# From -- ./inp_files/23936.got.cif
#   From: 2010.05.17/outbox.cif.g08.bks.cpg/sg53_12_cif.got.tgz:23936.got - 2010.06.03 12:45:16.
