data_PCOD9416587
_publ_section_title
;
Structure prediction by ZEFSAII (Michael W. Deem and Ramdas Pophale) SiO2 
 PCOD9416587
Probable space group: P M N A
;
_chemical_formula_sum "Si O2"
_cell_formula_units_Z 64
_cell_length_a 8.967077
_cell_length_b 26.670211
_cell_length_c 14.936243
_cell_angle_alpha 90.000000
_cell_angle_beta 90.000000
_cell_angle_gamma 90.000000
_cell_volume 3572.059804
_symmetry_space_group_name_H-M "P M N A"
_symmetry_group_IT_number 53
_symmetry_cell_setting 'orthorhombic'
loop_
_space_group_symop_operation_xyz
x,y,z
1/2-x,-y,1/2+z
x,-y,-z
1/2-x,y,1/2-z
-x,-y,-z
1/2+x,y,1/2-z
-x,y,z
1/2+x,-y,1/2+z
loop_
_atom_site_type_symbol
_atom_site_label
_atom_site_fract_x
_atom_site_fract_y
_atom_site_fract_z
Si Si1 0.821121 0.134621 0.150860
Si Si2 0.678583 0.324426 0.991546
Si Si3 0.172106 0.504130 0.392834
Si Si4 0.676149 0.392042 0.657352
Si Si5 0.321005 0.058412 0.507749
Si Si6 0.178805 0.792478 0.508075
Si Si7 0.321661 0.393663 0.159825
Si Si8 0.179018 0.131496 0.650727
O O1 0.750000 0.131764 0.250000
O O2 0.000000 0.137617 0.159665
O O3 0.784810 0.087512 0.085055
O O4 0.759932 0.181058 0.091614
O O5 0.500000 0.328553 0.975214
O O6 0.766568 0.352568 0.914623
O O7 0.715497 0.266075 0.001109
O O8 0.713364 0.356191 0.080035
O O9 0.169584 0.500000 0.500000
O O10 0.266141 0.552113 0.365579
O O11 0.230379 0.450738 0.358044
O O12 0.000000 0.511435 0.362641
O O13 0.750000 0.377415 0.750000
O O14 0.500000 0.392382 0.662955
O O15 0.500000 0.062982 0.520826
O O16 0.240466 0.085060 0.591439
O O17 0.282833 0.000000 0.500000
O O18 0.215283 0.821321 0.415016
O O19 0.000000 0.797471 0.521202
O O20 0.250000 0.374712 0.250000
O O21 0.500000 0.396338 0.166880
O O22 0.250000 0.134302 0.750000
O O23 0.000000 0.128443 0.659400
#
# Coordination Sequence:
#
# PCOD9416587 Si02
#       8
#     8   8   8   8   8   8   8   8
#     4  10  20  35  57  82 113 150 190 235 279 332
#     4  10  21  41  61  81 111 146 182 228 283 331
#     4  10  19  37  61  82 108 144 181 222 275 329
#     4  12  25  39  58  84 113 146 184 227 274 332
#     4   9  19  36  56  82 116 152 190 234 281 327
#     4   9  20  38  60  82 108 143 187 235 282 333
#     4  10  21  36  57  81 109 142 176 219 270 328
#     4  10  20  35  56  83 112 147 188 232 280 333
#
# _framework density 17.916833
#
# number of rings (size 3 to 8) (size 9 to 14) (size 15 to 20)
#    0.000    2.000    1.250    2.250    0.000    5.500 
#    0.000    3.750    0.000    0.000    0.000    0.000 
#    0.000    0.000    0.000    0.000    0.000    0.000 
#
# Total GULP energy -357214.499429 kJ/mol
# GULP energy per Si atom -5581.476554 kJ/mol
# Density = 1.787605 g / cm^3
# Si number density = 17.916833 Si / 1000 Ang^3
#
#
#
# Elastic Constant Matrix: (Units=GPa)
#
#
# Indices 1 2 3 4 5 6 
#
# 1 66.6480 72.6958 80.9707 0.0000 0.0000 0.0000
# 2 72.6958 150.1130 80.1870 0.0000 0.0000 0.0000
# 3 80.9707 80.1870 169.8705 0.0000 0.0000 0.0000
# 4 0.0000 0.0000 0.0000 21.4718 0.0000 0.0000
# 5 0.0000 0.0000 0.0000 0.0000 26.2145 0.0000
# 6 0.0000 0.0000 0.0000 0.0000 0.0000 12.5023
#
#
#
# Elastic Compliance Matrix: (Units=1/GPa)
#
#
# Indices 1 2 3 4 5 6 
#
# 1 0.057254 -0.017582 -0.018991 0.000000 0.000000 0.000000
# 2 -0.017582 0.014307 0.001627 0.000000 0.000000 0.000000
# 3 -0.018991 0.001627 0.014171 0.000000 0.000000 0.000000
# 4 0.000000 0.000000 0.000000 0.046573 0.000000 0.000000
# 5 0.000000 0.000000 0.000000 0.000000 0.038147 0.000000
# 6 0.000000 0.000000 0.000000 0.000000 0.000000 0.079985
#
#
# Mechanical properties :
#
#
# Convention : Reuss Voigt Hill
#
# Bulk Modulus (GPa) = 63.13163 94.92650 79.02907
# Shear Modulus (GPa) = 15.35582 22.22292 18.78937
#
# Velocity S-wave (km/s) = 2.93074 3.52566 3.24188
# Velocity P-wave (km/s) = 6.83847 8.34689 7.63005
#
# Compressibility (1/GPa) = 0.01583992
#
# Stress axis : x y z
#
# Youngs Moduli (GPa) = 17.46600 69.89595 70.56555
#
# Poissons Ratio (x) = 1.22891 1.34013
# Poissons Ratio (y) = 0.30709 -0.11481
# Poissons Ratio (z) = 0.33170 -0.11372
#
# Static dielectric constant tensor:
#      x y z
#    x 1.600920 0.000000 0.000000 
#    y 0.000000 1.704350 0.000000 
#    z 0.000000 0.000000 1.669090 
# 
# From -- ./inp_files/20989.got.cif
#   From: 2010.05.17/outbox.cif.g08.bks.cpg/sg53_11_cif.got.tgz:20989.got - 2010.06.03 12:45:16.
