data_PCOD9416261
_publ_section_title
;
Structure prediction by ZEFSAII (Michael W. Deem and Ramdas Pophale) SiO2 
 PCOD9416261
Probable space group: P M N A
;
_chemical_formula_sum "Si O2"
_cell_formula_units_Z 64
_cell_length_a 15.282262
_cell_length_b 9.517705
_cell_length_c 23.787042
_cell_angle_alpha 90.000000
_cell_angle_beta 90.000000
_cell_angle_gamma 90.000000
_cell_volume 3459.874295
_symmetry_space_group_name_H-M "P M N A"
_symmetry_group_IT_number 53
_symmetry_cell_setting 'orthorhombic'
loop_
_space_group_symop_operation_xyz
x,y,z
1/2-x,-y,1/2+z
x,-y,-z
1/2-x,y,1/2-z
-x,-y,-z
1/2+x,y,1/2-z
-x,y,z
1/2+x,-y,1/2+z
loop_
_atom_site_type_symbol
_atom_site_label
_atom_site_fract_x
_atom_site_fract_y
_atom_site_fract_z
Si Si1 0.257139 0.747978 0.591868
Si Si2 0.905783 0.489373 0.667995
Si Si3 0.693310 0.051652 0.305782
Si Si4 0.599166 0.831574 0.500300
Si Si5 0.785913 0.477696 0.834262
Si Si6 0.597168 0.317306 0.263966
Si Si7 0.401326 0.390291 0.045753
Si Si8 0.394984 0.789172 0.369240
O O1 0.259101 0.856309 0.644656
O O2 0.333230 0.784344 0.547797
O O3 0.274117 0.590471 0.615400
O O4 0.164950 0.735365 0.559503
O O5 0.811641 0.421152 0.680156
O O6 0.902306 0.641957 0.698511
O O7 0.909328 0.519155 0.602495
O O8 0.000000 0.424803 0.685984
O O9 0.750000 0.014278 0.250000
O O10 0.622753 0.161555 0.280749
O O11 0.648865 0.920341 0.336810
O O12 0.500000 0.780940 0.512652
O O13 0.622531 0.791623 0.436375
O O14 0.597305 0.000000 0.500000
O O15 0.831856 0.576597 0.788668
O O16 0.850794 0.351767 0.846666
O O17 0.500000 0.348756 0.286048
O O18 0.500000 0.345555 0.029440
O O19 0.366276 0.500000 0.000000
O O20 0.500000 0.792898 0.361731
#
# Coordination Sequence:
#
# PCOD9416261 Si02
#       8
#     8   8   8   8   8   8   8   8
#     4  10  21  36  62  88 115 151 194 245 287 338
#     4   9  18  33  54  81 111 145 187 239 286 333
#     4  11  22  38  58  84 113 154 200 240 288 348
#     4  10  21  38  60  86 118 157 196 235 290 355
#     4  10  21  35  56  87 118 151 191 238 289 346
#     4  10  19  34  58  84 113 148 191 239 288 344
#     4   9  18  32  53  82 113 143 183 234 290 341
#     4  11  24  40  57  84 121 158 192 236 295 355
#
# _framework density 18.497781
#
# number of rings (size 3 to 8) (size 9 to 14) (size 15 to 20)
#    0.000    2.000    1.250    3.375    3.500    3.500 
#    0.000    1.875    0.000    1.875    0.000    0.000 
#    0.000    0.000    0.000    0.000    0.000    0.000 
#
# Total GULP energy -356367.229996 kJ/mol
# GULP energy per Si atom -5568.237969 kJ/mol
# Density = 1.845568 g / cm^3
# Si number density = 18.497781 Si / 1000 Ang^3
#
#
#
# Elastic Constant Matrix: (Units=GPa)
#
#
# Indices 1 2 3 4 5 6 
#
# 1 115.9365 21.9770 44.0043 0.0000 0.0000 0.0000
# 2 21.9770 68.7764 23.6046 0.0000 0.0000 0.0000
# 3 44.0043 23.6046 86.2484 0.0000 0.0000 0.0000
# 4 0.0000 0.0000 0.0000 9.5487 0.0000 0.0000
# 5 0.0000 0.0000 0.0000 0.0000 34.5170 0.0000
# 6 0.0000 0.0000 0.0000 0.0000 0.0000 27.6244
#
#
#
# Elastic Compliance Matrix: (Units=1/GPa)
#
#
# Indices 1 2 3 4 5 6 
#
# 1 0.010881 -0.001735 -0.005077 0.000000 0.000000 0.000000
# 2 -0.001735 0.016324 -0.003583 0.000000 0.000000 0.000000
# 3 -0.005077 -0.003583 0.015165 0.000000 0.000000 0.000000
# 4 0.000000 0.000000 0.000000 0.104726 0.000000 0.000000
# 5 0.000000 0.000000 0.000000 0.000000 0.028971 0.000000
# 6 0.000000 0.000000 0.000000 0.000000 0.000000 0.036200
#
#
# Mechanical properties :
#
#
# Convention : Reuss Voigt Hill
#
# Bulk Modulus (GPa) = 46.33478 50.01476 48.17477
# Shear Modulus (GPa) = 20.81173 26.42972 23.62072
#
# Velocity S-wave (km/s) = 3.35788 3.78405 3.57732
# Velocity P-wave (km/s) = 6.33538 6.79625 6.56986
#
# Compressibility (1/GPa) = 0.02158206
#
# Stress axis : x y z
#
# Youngs Moduli (GPa) = 91.90176 61.26068 65.94072
#
# Poissons Ratio (x) = 0.10626 0.33477
# Poissons Ratio (y) = 0.15941 0.23623
# Poissons Ratio (z) = 0.46658 0.21947
#
# Static dielectric constant tensor:
#      x y z
#    x 1.714030 0.000000 0.000000 
#    y 0.000000 1.602680 0.000000 
#    z 0.000000 0.000000 1.610390 
# 
# From -- ./inp_files/35396.got.cif
#   From: 2010.05.17/outbox.cif.g08.bks.cpg/sg53_18_cif.got.tgz:35396.got - 2010.06.03 12:45:16.
