data_PCOD9416991
_publ_section_title
;
Structure prediction by ZEFSAII (Michael W. Deem and Ramdas Pophale) SiO2 
 PCOD9416991
Probable space group: P M N A
;
_chemical_formula_sum "Si O2"
_cell_formula_units_Z 56
_cell_length_a 8.170132
_cell_length_b 21.292249
_cell_length_c 13.958786
_cell_angle_alpha 90.000000
_cell_angle_beta 90.000000
_cell_angle_gamma 90.000000
_cell_volume 2428.277181
_symmetry_space_group_name_H-M "P M N A"
_symmetry_group_IT_number 53
_symmetry_cell_setting 'orthorhombic'
loop_
_space_group_symop_operation_xyz
x,y,z
1/2-x,-y,1/2+z
x,-y,-z
1/2-x,y,1/2-z
-x,-y,-z
1/2+x,y,1/2-z
-x,y,z
1/2+x,-y,1/2+z
loop_
_atom_site_type_symbol
_atom_site_label
_atom_site_fract_x
_atom_site_fract_y
_atom_site_fract_z
Si Si1 0.303480 0.714079 0.434451
Si Si2 0.301635 0.311422 0.349422
Si Si3 0.691028 0.446658 0.380430
Si Si4 0.684485 0.979568 0.388571
Si Si5 0.692023 0.153025 0.940094
Si Si6 0.696191 0.886938 0.650135
Si Si7 0.689545 0.419793 0.608934
O O1 0.500000 0.707202 0.435407
O O2 0.248351 0.713641 0.546513
O O3 0.261981 0.782775 0.396119
O O4 0.239164 0.650514 0.382452
O O5 0.250000 0.280258 0.250000
O O6 0.500000 0.312587 0.352120
O O7 0.231066 0.382479 0.344969
O O8 0.500000 0.449030 0.350485
O O9 0.685209 0.433393 0.494707
O O10 0.767040 0.514450 0.356043
O O11 0.500000 0.026711 0.649782
O O12 0.764295 0.911454 0.385422
O O13 0.672179 0.000000 0.500000
O O14 0.769276 0.041974 0.348611
O O15 0.500000 0.159339 0.944176
O O16 0.755313 0.144277 0.049680
O O17 0.750000 0.857042 0.750000
O O18 0.500000 0.890933 0.648323
O O19 0.500000 0.417647 0.642522
#
# Coordination Sequence:
#
# PCOD9416991 Si02
#       7
#     8   8   8   8   8   8   8
#     4   9  17  29  43  60  84 115 149 184 220 259
#     4   9  17  27  40  58  83 114 144 176 215 263
#     4   7  10  19  36  58  77  95 129 175 216 250
#     4   8  16  32  51  69  91 119 150 187 228 269
#     4  11  21  31  46  68  95 127 158 189 226 270
#     4  10  20  34  52  73  96 121 151 188 228 271
#     4   7  10  19  38  59  76  96 129 176 219 250
#
# _framework density 23.061616999999998
#
# number of rings (size 3 to 8) (size 9 to 14) (size 15 to 20)
#    0.000    3.286    0.000    5.143    0.000    4.286 
#    0.000    1.429    0.000    0.857    0.000    5.000 
#    0.000    2.286    0.000    0.000    0.000    0.000 
#
# Total GULP energy -311778.574292 kJ/mol
# GULP energy per Si atom -5567.474541 kJ/mol
# Density = 2.300913 g / cm^3
# Si number density = 23.061617 Si / 1000 Ang^3
#
#
#
# Elastic Constant Matrix: (Units=GPa)
#
#
# Indices 1 2 3 4 5 6 
#
# 1 32.2002 12.4987 -8.0859 0.0000 0.0000 0.0000
# 2 12.4987 214.3045 -4.2538 0.0000 0.0000 0.0000
# 3 -8.0859 -4.2538 28.4101 0.0000 0.0000 0.0000
# 4 0.0000 0.0000 0.0000 -10.2323 0.0000 0.0000
# 5 0.0000 0.0000 0.0000 0.0000 7.4977 0.0000
# 6 0.0000 0.0000 0.0000 0.0000 0.0000 -26.3838
#
#
#
# Elastic Compliance Matrix: (Units=1/GPa)
#
#
# Indices 1 2 3 4 5 6 
#
# 1 0.034127 -0.001803 0.009443 0.000000 0.000000 0.000000
# 2 -0.001803 0.004775 0.000202 0.000000 0.000000 0.000000
# 3 0.009443 0.000202 0.037917 0.000000 0.000000 0.000000
# 4 0.000000 0.000000 0.000000 -0.097730 0.000000 0.000000
# 5 0.000000 0.000000 0.000000 0.000000 0.133374 0.000000
# 6 0.000000 0.000000 0.000000 0.000000 0.000000 -0.037902
#
#
# Mechanical properties :
#
#
# Convention : Reuss Voigt Hill
#
# Bulk Modulus (GPa) = 10.81047 30.58142 20.69595
# Shear Modulus (GPa) = 55.73401 12.49336 34.11369
#
# Velocity S-wave (km/s) = 4.92137 2.33005 3.85026
# Velocity P-wave (km/s) = 6.08202 4.53083 5.36281
#
# Compressibility (1/GPa) = 0.09250291
#
# Stress axis : x y z
#
# Youngs Moduli (GPa) = 29.30246 209.40589 26.37363
#
# Poissons Ratio (x) = 0.37754 -0.24905
# Poissons Ratio (y) = 0.05283 -0.00532
# Poissons Ratio (z) = -0.27670 -0.04228
#
# Static dielectric constant tensor:
#      x y z
#    x 1.804840 0.000000 0.000000 
#    y 0.000000 1.968330 0.000000 
#    z 0.000000 0.000000 1.913710 
# 
# From -- ./inp_files/31296.got.cif
#   From: 2010.05.17/outbox.cif.g08.bks.cpg/sg53_16_cif.got.tgz:31296.got - 2010.06.03 12:45:16.
