data_PCOD9416600
_publ_section_title
;
Structure prediction by ZEFSAII (Michael W. Deem and Ramdas Pophale) SiO2 
 PCOD9416600
Probable space group: P M N A
;
_chemical_formula_sum "Si O2"
_cell_formula_units_Z 56
_cell_length_a 8.785959
_cell_length_b 21.665216
_cell_length_c 15.749491
_cell_angle_alpha 90.000000
_cell_angle_beta 90.000000
_cell_angle_gamma 90.000000
_cell_volume 2997.910879
_symmetry_space_group_name_H-M "P M N A"
_symmetry_group_IT_number 53
_symmetry_cell_setting 'orthorhombic'
loop_
_space_group_symop_operation_xyz
x,y,z
1/2-x,-y,1/2+z
x,-y,-z
1/2-x,y,1/2-z
-x,-y,-z
1/2+x,y,1/2-z
-x,y,z
1/2+x,-y,1/2+z
loop_
_atom_site_type_symbol
_atom_site_label
_atom_site_fract_x
_atom_site_fract_y
_atom_site_fract_z
Si Si1 0.316798 0.366474 0.339621
Si Si2 0.316481 0.291052 0.506383
Si Si3 0.317145 0.146983 0.496255
Si Si4 0.317278 0.064353 0.659571
Si Si5 0.319459 0.369316 0.839976
Si Si6 0.818254 0.928068 0.659053
Si Si7 0.818179 0.502605 0.101308
O O1 0.250000 0.346277 0.250000
O O2 0.500000 0.365322 0.335635
O O3 0.269897 0.323946 0.418559
O O4 0.270801 0.437190 0.359206
O O5 0.500000 0.297080 0.513548
O O6 0.278208 0.218895 0.505140
O O7 0.242716 0.326702 0.584637
O O8 0.500000 0.142198 0.483449
O O9 0.280104 0.109833 0.582274
O O10 0.235001 0.116010 0.416505
O O11 0.250000 0.085439 0.750000
O O12 0.500000 0.059100 0.666200
O O13 0.247979 0.996667 0.642585
O O14 0.250000 0.350024 0.750000
O O15 0.500000 0.366555 0.836366
O O16 0.266489 0.439222 0.859425
O O17 0.750000 0.908118 0.750000
O O18 0.000000 0.930975 0.664502
O O19 0.000000 0.510598 0.114245
O O20 0.792403 0.500000 0.000000
#
# Coordination Sequence:
#
# PCOD9416600 Si02
#       7
#     8   8   8   8   8   8   8
#     4  10  21  37  60  85 114 150 189 237 289 348
#     4  10  22  43  62  82 116 159 199 240 292 345
#     4  10  22  39  61  86 117 156 197 241 292 348
#     4  10  20  36  59  88 119 151 190 240 293 348
#     4  12  25  40  61  88 118 154 197 245 295 352
#     4  11  22  37  60  88 120 155 194 241 289 345
#     4  10  19  37  63  88 116 150 189 239 299 352
#
# _framework density 18.679673999999999
#
# number of rings (size 3 to 8) (size 9 to 14) (size 15 to 20)
#    0.000    1.571    1.429    4.714    0.000    7.143 
#    0.000    2.857    0.000    0.000    0.000    0.000 
#    0.000    0.000    0.000    0.000    0.000    0.000 
#
# Total GULP energy -313070.061323 kJ/mol
# GULP energy per Si atom -5590.536809 kJ/mol
# Density = 1.863716 g / cm^3
# Si number density = 18.679674 Si / 1000 Ang^3
#
#
#
# Elastic Constant Matrix: (Units=GPa)
#
#
# Indices 1 2 3 4 5 6 
#
# 1 70.1860 59.6828 73.3557 0.0000 0.0000 0.0000
# 2 59.6828 115.3609 98.7237 0.0000 0.0000 0.0000
# 3 73.3557 98.7237 181.2189 0.0000 0.0000 0.0000
# 4 0.0000 0.0000 0.0000 -7.5255 0.0000 0.0000
# 5 0.0000 0.0000 0.0000 0.0000 35.7027 0.0000
# 6 0.0000 0.0000 0.0000 0.0000 0.0000 28.8267
#
#
#
# Elastic Compliance Matrix: (Units=1/GPa)
#
#
# Indices 1 2 3 4 5 6 
#
# 1 0.029260 -0.009370 -0.006739 0.000000 0.000000 0.000000
# 2 -0.009370 0.019240 -0.006689 0.000000 0.000000 0.000000
# 3 -0.006739 -0.006689 0.011890 0.000000 0.000000 0.000000
# 4 0.000000 0.000000 0.000000 -0.132881 0.000000 0.000000
# 5 0.000000 0.000000 0.000000 0.000000 0.028009 0.000000
# 6 0.000000 0.000000 0.000000 0.000000 0.000000 0.034690
#
#
# Mechanical properties :
#
#
# Convention : Reuss Voigt Hill
#
# Bulk Modulus (GPa) = 67.59777 92.25445 79.92611
# Shear Modulus (GPa) = 122.74460 20.40101 71.57281
#
# Velocity S-wave (km/s) = 8.11498 3.30835 6.19670
# Velocity P-wave (km/s) = 11.13868 8.00553 9.69945
#
# Compressibility (1/GPa) = 0.01479339
#
# Stress axis : x y z
#
# Youngs Moduli (GPa) = 34.17686 51.97441 84.10456
#
# Poissons Ratio (x) = 0.48702 0.56680
# Poissons Ratio (y) = 0.32025 0.56254
# Poissons Ratio (z) = 0.23033 0.34764
#
# Static dielectric constant tensor:
#      x y z
#    x 1.626670 0.000000 0.000000 
#    y 0.000000 1.621610 0.000000 
#    z 0.000000 0.000000 1.627600 
# 
# From -- ./inp_files/20539.got.cif
#   From: 2010.05.17/outbox.cif.g08.bks.cpg/sg53_11_cif.got.tgz:20539.got - 2010.06.03 12:45:16.
