data_PCOD9416866
_publ_section_title
;
Structure prediction by ZEFSAII (Michael W. Deem and Ramdas Pophale) SiO2 
 PCOD9416866
Probable space group: P M N A
;
_chemical_formula_sum "Si O2"
_cell_formula_units_Z 64
_cell_length_a 9.511510
_cell_length_b 22.037735
_cell_length_c 16.578046
_cell_angle_alpha 90.000000
_cell_angle_beta 90.000000
_cell_angle_gamma 90.000000
_cell_volume 3474.959647
_symmetry_space_group_name_H-M "P M N A"
_symmetry_group_IT_number 53
_symmetry_cell_setting 'orthorhombic'
loop_
_space_group_symop_operation_xyz
x,y,z
1/2-x,-y,1/2+z
x,-y,-z
1/2-x,y,1/2-z
-x,-y,-z
1/2+x,y,1/2-z
-x,y,z
1/2+x,-y,1/2+z
loop_
_atom_site_type_symbol
_atom_site_label
_atom_site_fract_x
_atom_site_fract_y
_atom_site_fract_z
Si Si1 0.164164 0.396191 0.669267
Si Si2 0.653665 0.193990 0.544982
Si Si3 0.665706 0.116794 0.174824
Si Si4 0.340942 0.932110 0.531825
Si Si5 0.337360 0.427481 0.506916
Si Si6 0.341564 0.232606 0.360088
Si Si7 0.833077 0.625046 0.830738
Si Si8 0.341936 0.750093 0.175399
O O1 0.250000 0.416925 0.750000
O O2 0.242960 0.411955 0.585202
O O3 0.161906 0.322949 0.672676
O O4 0.000000 0.416846 0.670538
O O5 0.500000 0.206973 0.581636
O O6 0.669115 0.121674 0.533817
O O7 0.654389 0.223491 0.456349
O O8 0.775571 0.223267 0.595453
O O9 0.750000 0.089963 0.250000
O O10 0.500000 0.113880 0.183118
O O11 0.722688 0.082756 0.096414
O O12 0.722240 0.185993 0.167210
O O13 0.500000 0.924489 0.566878
O O14 0.329418 0.000000 0.500000
O O15 0.339335 0.500000 0.500000
O O16 0.500000 0.406106 0.519864
O O17 0.290482 0.401832 0.418821
O O18 0.500000 0.215656 0.330774
O O19 0.315665 0.302093 0.337858
O O20 0.750000 0.604444 0.750000
O O21 0.000000 0.611970 0.821229
O O22 0.250000 0.771113 0.250000
O O23 0.500000 0.770240 0.185597
#
# Coordination Sequence:
#
# PCOD9416866 Si02
#       8
#     8   8   8   8   8   8   8   8
#     4  10  21  37  59  85 111 142 181 227 277 328
#     4   9  17  31  53  78 104 135 170 213 265 317
#     4  11  21  33  52  78 107 136 170 212 256 304
#     4   9  19  37  57  75 100 136 176 215 257 306
#     4  10  22  40  59  80 109 146 188 231 274 322
#     4   9  18  33  53  78 107 138 171 209 262 322
#     4  10  21  36  55  80 111 146 181 222 272 327
#     4  10  20  33  51  77 107 137 172 215 265 320
#
# _framework density 18.417480999999999
#
# number of rings (size 3 to 8) (size 9 to 14) (size 15 to 20)
#    0.000    2.250    0.000    3.750    0.000    7.500 
#    0.000    1.875    0.000    0.000    0.000    0.000 
#    0.000    0.000    0.000    0.000    0.000    0.000 
#
# Total GULP energy -356823.455706 kJ/mol
# GULP energy per Si atom -5575.366495 kJ/mol
# Density = 1.837556 g / cm^3
# Si number density = 18.417481 Si / 1000 Ang^3
#
#
#
# Elastic Constant Matrix: (Units=GPa)
#
#
# Indices 1 2 3 4 5 6 
#
# 1 153.3231 26.0234 77.7389 0.0000 0.0000 0.0000
# 2 26.0234 32.0852 21.1048 0.0000 0.0000 0.0000
# 3 77.7389 21.1048 118.6400 0.0000 0.0000 0.0000
# 4 0.0000 0.0000 0.0000 3.0902 0.0000 0.0000
# 5 0.0000 0.0000 0.0000 0.0000 28.6166 0.0000
# 6 0.0000 0.0000 0.0000 0.0000 0.0000 -5.8037
#
#
#
# Elastic Compliance Matrix: (Units=1/GPa)
#
#
# Indices 1 2 3 4 5 6 
#
# 1 0.010295 -0.004431 -0.005957 0.000000 0.000000 0.000000
# 2 -0.004431 0.037205 -0.003715 0.000000 0.000000 0.000000
# 3 -0.005957 -0.003715 0.012993 0.000000 0.000000 0.000000
# 4 0.000000 0.000000 0.000000 0.323606 0.000000 0.000000
# 5 0.000000 0.000000 0.000000 0.000000 0.034945 0.000000
# 6 0.000000 0.000000 0.000000 0.000000 0.000000 -0.172304
#
#
# Mechanical properties :
#
#
# Convention : Reuss Voigt Hill
#
# Bulk Modulus (GPa) = 30.97326 61.53138 46.25232
# Shear Modulus (GPa) = 17.50033 17.12604 17.31318
#
# Velocity S-wave (km/s) = 3.08588 3.05270 3.06933
# Velocity P-wave (km/s) = 5.43605 6.77548 6.14238
#
# Compressibility (1/GPa) = 0.03228591
#
# Stress axis : x y z
#
# Youngs Moduli (GPa) = 97.13586 26.87843 76.96288
#
# Poissons Ratio (x) = 0.11910 0.45850
# Poissons Ratio (y) = 0.43043 0.28590
# Poissons Ratio (z) = 0.57868 0.09985
#
# Static dielectric constant tensor:
#      x y z
#    x 1.644390 0.000000 0.000000 
#    y 0.000000 1.622150 0.000000 
#    z 0.000000 0.000000 2.010160 
# 
# From -- ./inp_files/20961.got.cif
#   From: 2010.05.17/outbox.cif.g08.bks.cpg/sg53_11_cif.got.tgz:20961.got - 2010.06.03 12:45:16.
