data_PCOD9416896
_publ_section_title
;
Structure prediction by ZEFSAII (Michael W. Deem and Ramdas Pophale) SiO2 
 PCOD9416896
Probable space group: P M N A
;
_chemical_formula_sum "Si O2"
_cell_formula_units_Z 64
_cell_length_a 9.126314
_cell_length_b 11.103766
_cell_length_c 34.237790
_cell_angle_alpha 90.000000
_cell_angle_beta 90.000000
_cell_angle_gamma 90.000000
_cell_volume 3469.536269
_symmetry_space_group_name_H-M "P M N A"
_symmetry_group_IT_number 53
_symmetry_cell_setting 'orthorhombic'
loop_
_space_group_symop_operation_xyz
x,y,z
1/2-x,-y,1/2+z
x,-y,-z
1/2-x,y,1/2-z
-x,-y,-z
1/2+x,y,1/2-z
-x,y,z
1/2+x,-y,1/2+z
loop_
_atom_site_type_symbol
_atom_site_label
_atom_site_fract_x
_atom_site_fract_y
_atom_site_fract_z
Si Si1 0.170661 0.936312 0.554927
Si Si2 0.325182 0.588964 0.908147
Si Si3 0.325191 0.786644 0.053106
Si Si4 0.824966 0.665255 0.367373
Si Si5 0.173591 0.047284 0.209608
Si Si6 0.826156 0.703893 0.979413
Si Si7 0.670020 0.830880 0.861606
Si Si8 0.174943 0.236857 0.790970
O O1 0.273502 0.834250 0.537111
O O2 0.179386 0.921643 0.601699
O O3 0.000000 0.910507 0.543990
O O4 0.205259 0.073150 0.544165
O O5 0.500000 0.595254 0.916141
O O6 0.294293 0.465443 0.885929
O O7 0.241375 0.609379 0.948744
O O8 0.289515 0.701486 0.879848
O O9 0.500000 0.767649 0.049200
O O10 0.286355 0.757570 0.097780
O O11 0.242421 0.701962 0.022559
O O12 0.739768 0.692484 0.327804
O O13 0.000000 0.673879 0.360088
O O14 0.250000 0.083214 0.250000
O O15 0.207741 0.905578 0.202909
O O16 0.000000 0.058878 0.213380
O O17 0.232623 0.124595 0.173738
O O18 0.000000 0.694585 0.980568
O O19 0.500000 0.825833 0.849200
O O20 0.250000 0.272186 0.750000
O O21 0.000000 0.251213 0.788320
#
# Coordination Sequence:
#
# PCOD9416896 Si02
#       8
#     8   8   8   8   8   8   8   8
#     4   9  18  33  53  76 104 138 174 215 267 325
#     4   9  20  39  58  75 101 140 182 221 262 312
#     4  10  20  34  54  79 107 140 177 219 268 323
#     4  10  21  38  60  82 104 137 183 226 264 312
#     4  10  20  33  52  80 111 140 169 206 256 314
#     4  11  22  34  51  76 107 142 179 222 268 313
#     4   9  17  32  54  77 102 133 171 216 263 310
#     4  10  21  37  58  84 114 143 171 210 260 313
#
# _framework density 18.446269999999998
#
# number of rings (size 3 to 8) (size 9 to 14) (size 15 to 20)
#    0.000    2.250    0.000    3.750    0.000    8.000 
#    0.000    3.125    0.000    0.000    0.000    0.000 
#    0.000    0.000    0.000    0.000    0.000    0.000 
#
# Total GULP energy -357385.590364 kJ/mol
# GULP energy per Si atom -5584.149849 kJ/mol
# Density = 1.840429 g / cm^3
# Si number density = 18.446270 Si / 1000 Ang^3
#
#
#
# Elastic Constant Matrix: (Units=GPa)
#
#
# Indices 1 2 3 4 5 6 
#
# 1 42.8072 18.7344 40.1177 0.0000 0.0000 0.0000
# 2 18.7344 42.4753 20.4548 0.0000 0.0000 0.0000
# 3 40.1177 20.4548 104.1903 0.0000 0.0000 0.0000
# 4 0.0000 0.0000 0.0000 17.4263 0.0000 0.0000
# 5 0.0000 0.0000 0.0000 0.0000 35.5851 0.0000
# 6 0.0000 0.0000 0.0000 0.0000 0.0000 21.1054
#
#
#
# Elastic Compliance Matrix: (Units=1/GPa)
#
#
# Indices 1 2 3 4 5 6 
#
# 1 0.041162 -0.011621 -0.013567 0.000000 0.000000 0.000000
# 2 -0.011621 0.029282 -0.001274 0.000000 0.000000 0.000000
# 3 -0.013567 -0.001274 0.015072 0.000000 0.000000 0.000000
# 4 0.000000 0.000000 0.000000 0.057385 0.000000 0.000000
# 5 0.000000 0.000000 0.000000 0.000000 0.028102 0.000000
# 6 0.000000 0.000000 0.000000 0.000000 0.000000 0.047381
#
#
# Mechanical properties :
#
#
# Convention : Reuss Voigt Hill
#
# Bulk Modulus (GPa) = 30.68391 38.67629 34.68010
# Shear Modulus (GPa) = 17.71966 22.16774 19.94370
#
# Velocity S-wave (km/s) = 3.10273 3.47038 3.29169
# Velocity P-wave (km/s) = 5.43197 6.08856 5.76961
#
# Compressibility (1/GPa) = 0.03259037
#
# Stress axis : x y z
#
# Youngs Moduli (GPa) = 24.29452 34.15024 66.34817
#
# Poissons Ratio (x) = 0.39687 0.90018
# Poissons Ratio (y) = 0.28233 0.08453
# Poissons Ratio (z) = 0.32962 0.04351
#
# Static dielectric constant tensor:
#      x y z
#    x 1.613440 0.000000 0.000000 
#    y 0.000000 1.642090 0.000000 
#    z 0.000000 0.000000 1.622640 
# 
# From -- ./inp_files/38156.got.cif
#   From: 2010.05.17/outbox.cif.g08.bks.cpg/sg53_20_cif.got.tgz:38156.got - 2010.06.03 12:45:16.
