data_PCOD9416258
_publ_section_title
;
Structure prediction by ZEFSAII (Michael W. Deem and Ramdas Pophale) SiO2 
 PCOD9416258
Probable space group: P M N A
;
_chemical_formula_sum "Si O2"
_cell_formula_units_Z 48
_cell_length_a 8.467284
_cell_length_b 11.345200
_cell_length_c 24.272335
_cell_angle_alpha 90.000000
_cell_angle_beta 90.000000
_cell_angle_gamma 90.000000
_cell_volume 2331.674056
_symmetry_space_group_name_H-M "P M N A"
_symmetry_group_IT_number 53
_symmetry_cell_setting 'orthorhombic'
loop_
_space_group_symop_operation_xyz
x,y,z
1/2-x,-y,1/2+z
x,-y,-z
1/2-x,y,1/2-z
-x,-y,-z
1/2+x,y,1/2-z
-x,y,z
1/2+x,-y,1/2+z
loop_
_atom_site_type_symbol
_atom_site_label
_atom_site_fract_x
_atom_site_fract_y
_atom_site_fract_z
Si Si1 0.809148 0.804127 0.911739
Si Si2 0.310903 0.199710 0.688828
Si Si3 0.192445 0.695137 0.020265
Si Si4 0.686695 0.670133 0.812186
Si Si5 0.691030 0.559662 0.374975
Si Si6 0.307857 0.066739 0.584035
O O1 0.751709 0.773922 0.850971
O O2 0.000000 0.802853 0.911509
O O3 0.756726 0.934968 0.929983
O O4 0.756829 0.707010 0.956949
O O5 0.250000 0.187242 0.750000
O O6 0.500000 0.196320 0.689979
O O7 0.268707 0.325305 0.661624
O O8 0.258289 0.099565 0.646088
O O9 0.242895 0.592867 0.062553
O O10 0.238433 0.821104 0.047362
O O11 0.000000 0.689279 0.020305
O O12 0.750000 0.670706 0.750000
O O13 0.500000 0.676205 0.809864
O O14 0.738399 0.552312 0.844688
O O15 0.500000 0.546226 0.375887
O O16 0.500000 0.065882 0.581260
#
# Coordination Sequence:
#
# PCOD9416258 Si02
#       6
#     8   8   8   8   8   8
#     4  10  19  34  58  84 111 145 182 217 257 311
#     4   9  17  29  48  75 105 135 172 221 269 313
#     4   8  15  30  57  89 114 139 175 218 262 314
#     4  12  26  42  57  75 104 142 184 226 270 319
#     4   9  18  35  57  81 108 137 175 221 269 319
#     4   8  15  29  51  81 112 142 178 218 259 307
#
# _framework density 20.586068000000001
#
# number of rings (size 3 to 8) (size 9 to 14) (size 15 to 20)
#    0.000    2.667    0.000    4.500    0.000    5.333 
#    0.000    6.667    0.000    4.000    0.000    0.000 
#    0.000    0.000    0.000    0.000    0.000    0.000 
#
# Total GULP energy -267734.204836 kJ/mol
# GULP energy per Si atom -5577.795934 kJ/mol
# Density = 2.053921 g / cm^3
# Si number density = 20.586068 Si / 1000 Ang^3
#
#
#
# Elastic Constant Matrix: (Units=GPa)
#
#
# Indices 1 2 3 4 5 6 
#
# 1 5.9868 3.8616 10.5559 0.0000 0.0000 0.0000
# 2 3.8616 49.3063 13.3289 0.0000 0.0000 0.0000
# 3 10.5559 13.3289 111.6872 0.0000 0.0000 0.0000
# 4 0.0000 0.0000 0.0000 21.2257 0.0000 0.0000
# 5 0.0000 0.0000 0.0000 0.0000 1.7075 0.0000
# 6 0.0000 0.0000 0.0000 0.0000 0.0000 2.1244
#
#
#
# Elastic Compliance Matrix: (Units=1/GPa)
#
#
# Indices 1 2 3 4 5 6 
#
# 1 0.206301 -0.011249 -0.018156 0.000000 0.000000 0.000000
# 2 -0.011249 0.021571 -0.001511 0.000000 0.000000 0.000000
# 3 -0.018156 -0.001511 0.010850 0.000000 0.000000 0.000000
# 4 0.000000 0.000000 0.000000 0.047113 0.000000 0.000000
# 5 0.000000 0.000000 0.000000 0.000000 0.585655 0.000000
# 6 0.000000 0.000000 0.000000 0.000000 0.000000 0.470719
#
#
# Mechanical properties :
#
#
# Convention : Reuss Voigt Hill
#
# Bulk Modulus (GPa) = 5.65323 24.71922 15.18622
# Shear Modulus (GPa) = 3.41763 14.29379 8.85571
#
# Velocity S-wave (km/s) = 1.28987 2.63790 2.07633
# Velocity P-wave (km/s) = 2.22945 4.61647 3.62507
#
# Compressibility (1/GPa) = 0.17689003
#
# Stress axis : x y z
#
# Youngs Moduli (GPa) = 4.84729 46.35880 92.16696
#
# Poissons Ratio (x) = 0.52149 1.67336
# Poissons Ratio (y) = 0.05453 0.13927
# Poissons Ratio (z) = 0.08801 0.07005
#
# Static dielectric constant tensor:
#      x y z
#    x 1.711890 0.000000 0.000000 
#    y 0.000000 1.757430 0.000000 
#    z 0.000000 0.000000 1.776290 
# 
# From -- ./inp_files/33916.got.cif
#   From: 2010.05.17/outbox.cif.g08.bks.cpg/sg53_17_cif.got.tgz:33916.got - 2010.06.03 12:45:16.
