data_PCOD9416190
_publ_section_title
;
Structure prediction by ZEFSAII (Michael W. Deem and Ramdas Pophale) SiO2 
 PCOD9416190
Probable space group: P M N A
;
_chemical_formula_sum "Si O2"
_cell_formula_units_Z 40
_cell_length_a 8.526995
_cell_length_b 27.125179
_cell_length_c 9.240594
_cell_angle_alpha 90.000000
_cell_angle_beta 90.000000
_cell_angle_gamma 90.000000
_cell_volume 2137.314885
_symmetry_space_group_name_H-M "P M N A"
_symmetry_group_IT_number 53
_symmetry_cell_setting 'orthorhombic'
loop_
_space_group_symop_operation_xyz
x,y,z
1/2-x,-y,1/2+z
x,-y,-z
1/2-x,y,1/2-z
-x,-y,-z
1/2+x,y,1/2-z
-x,y,z
1/2+x,-y,1/2+z
loop_
_atom_site_type_symbol
_atom_site_label
_atom_site_fract_x
_atom_site_fract_y
_atom_site_fract_z
Si Si1 0.188257 0.049120 0.086756
Si Si2 0.186839 0.856703 0.412869
Si Si3 0.811052 0.654716 0.914703
Si Si4 0.810109 0.547869 0.913947
Si Si5 0.311047 0.237170 0.415219
O O1 0.250000 0.047432 0.250000
O O2 0.000000 0.051074 0.088974
O O3 0.251348 0.097140 0.005134
O O4 0.236878 0.000000 0.000000
O O5 0.250000 0.859859 0.250000
O O6 0.244664 0.806626 0.488562
O O7 0.000000 0.857649 0.410923
O O8 0.750000 0.654345 0.750000
O O9 0.761060 0.601574 0.977359
O O10 0.762480 0.708303 0.973284
O O11 0.000000 0.654827 0.913089
O O12 0.750000 0.545245 0.750000
O O13 0.000000 0.546839 0.912360
O O14 0.753743 0.500000 0.000000
O O15 0.250000 0.232524 0.250000
O O16 0.500000 0.234417 0.412987
#
# Coordination Sequence:
#
# PCOD9416190 Si02
#       5
#     8   8   8   8   8
#     4  11  24  42  65  92 121 153 189 228 271 319
#     4  12  25  41  60  83 114 149 186 227 274 325
#     4   8  15  28  48  72  99 133 172 216 263 314
#     4   9  17  30  48  71 100 133 171 215 263 316
#     4  10  19  34  56  81 108 139 180 226 273 324
#
# _framework density 18.715070999999998
#
# number of rings (size 3 to 8) (size 9 to 14) (size 15 to 20)
#    0.000    2.000    0.000    4.200    0.000    4.400 
#    0.000    1.000    0.000    2.400    0.000    0.000 
#    0.000    0.000    0.000    0.000    0.000    0.000 
#
# Total GULP energy -223158.130355 kJ/mol
# GULP energy per Si atom -5578.953259 kJ/mol
# Density = 1.867247 g / cm^3
# Si number density = 18.715071 Si / 1000 Ang^3
#
#
#
# Elastic Constant Matrix: (Units=GPa)
#
#
# Indices 1 2 3 4 5 6 
#
# 1 54.8957 52.2501 32.0404 0.0000 0.0000 0.0000
# 2 52.2501 243.7288 98.4327 0.0000 0.0000 0.0000
# 3 32.0404 98.4327 111.3780 0.0000 0.0000 0.0000
# 4 0.0000 0.0000 0.0000 33.9276 0.0000 0.0000
# 5 0.0000 0.0000 0.0000 0.0000 29.0321 0.0000
# 6 0.0000 0.0000 0.0000 0.0000 0.0000 51.7038
#
#
#
# Elastic Compliance Matrix: (Units=1/GPa)
#
#
# Indices 1 2 3 4 5 6 
#
# 1 0.023796 -0.003634 -0.003634 0.000000 0.000000 0.000000
# 2 -0.003634 0.006935 -0.005084 0.000000 0.000000 0.000000
# 3 -0.003634 -0.005084 0.014517 0.000000 0.000000 0.000000
# 4 0.000000 0.000000 0.000000 0.029475 0.000000 0.000000
# 5 0.000000 0.000000 0.000000 0.000000 0.034445 0.000000
# 6 0.000000 0.000000 0.000000 0.000000 0.000000 0.019341
#
#
# Mechanical properties :
#
#
# Convention : Reuss Voigt Hill
#
# Bulk Modulus (GPa) = 48.67419 86.16100 67.41759
# Shear Modulus (GPa) = 31.23851 38.08466 34.66159
#
# Velocity S-wave (km/s) = 4.08997 4.51596 4.30823
# Velocity P-wave (km/s) = 6.95473 8.56330 7.80059
#
# Compressibility (1/GPa) = 0.02054477
#
# Stress axis : x y z
#
# Youngs Moduli (GPa) = 42.02390 144.19650 68.88637
#
# Poissons Ratio (x) = 0.52396 0.25034
# Poissons Ratio (y) = 0.15270 0.35019
# Poissons Ratio (z) = 0.15272 0.73304
#
# Static dielectric constant tensor:
#      x y z
#    x 1.626170 0.000000 0.000000 
#    y 0.000000 1.697680 0.000000 
#    z 0.000000 0.000000 1.589340 
# 
# From -- ./inp_files/6275.got.cif
#   From: 2010.05.17/outbox.cif.g08.bks.cpg/sg53_4_cif.got.tgz:6275.got - 2010.06.03 12:45:16.
