data_PCOD9416168
_publ_section_title
;
Structure prediction by ZEFSAII (Michael W. Deem and Ramdas Pophale) SiO2 
 PCOD9416168
Probable space group: P M N A
;
_chemical_formula_sum "Si O2"
_cell_formula_units_Z 64
_cell_length_a 7.548610
_cell_length_b 22.477145
_cell_length_c 17.622919
_cell_angle_alpha 90.000000
_cell_angle_beta 90.000000
_cell_angle_gamma 90.000000
_cell_volume 2990.101841
_symmetry_space_group_name_H-M "P M N A"
_symmetry_group_IT_number 53
_symmetry_cell_setting 'orthorhombic'
loop_
_space_group_symop_operation_xyz
x,y,z
1/2-x,-y,1/2+z
x,-y,-z
1/2-x,y,1/2-z
-x,-y,-z
1/2+x,y,1/2-z
-x,y,z
1/2+x,-y,1/2+z
loop_
_atom_site_type_symbol
_atom_site_label
_atom_site_fract_x
_atom_site_fract_y
_atom_site_fract_z
Si Si1 0.296313 0.065054 0.991168
Si Si2 0.787733 0.502090 0.165362
Si Si3 0.794092 0.600866 0.939790
Si Si4 0.289366 0.713416 0.839003
Si Si5 0.293241 0.242772 0.624911
Si Si6 0.711151 0.115935 0.667661
Si Si7 0.784667 0.807461 0.539426
Si Si8 0.717680 0.628115 0.390798
O O1 0.500000 0.060356 0.018079
O O2 0.292628 0.081046 0.902365
O O3 0.221013 0.124306 0.031555
O O4 0.212907 0.000000 0.000000
O O5 0.750000 0.480147 0.250000
O O6 0.716494 0.456974 0.101821
O O7 0.724369 0.569546 0.154039
O O8 0.000000 0.503466 0.157124
O O9 0.785090 0.655469 0.881270
O O10 0.000000 0.586947 0.954575
O O11 0.722552 0.619353 0.021813
O O12 0.250000 0.715274 0.750000
O O13 0.500000 0.709652 0.847971
O O14 0.229396 0.771705 0.885767
O O15 0.500000 0.244814 0.645628
O O16 0.216950 0.183835 0.663766
O O17 0.278292 0.228587 0.534872
O O18 0.218051 0.308146 0.639328
O O19 0.750000 0.090490 0.750000
O O20 0.500000 0.117324 0.655105
O O21 0.000000 0.808704 0.535778
O O22 0.500000 0.630621 0.390009
#
# Coordination Sequence:
#
# PCOD9416168 Si02
#       8
#     8   8   8   8   8   8   8   8
#     4   9  18  35  59  82 107 142 178 215 262 311
#     4  10  21  35  50  71  99 133 171 213 261 311
#     4  10  19  34  56  75  96 130 173 217 260 308
#     4  11  22  34  51  76 105 134 168 210 258 308
#     4   9  17  31  53  77 100 131 172 213 255 306
#     4  10  20  33  52  80 112 144 179 219 260 307
#     4   9  18  33  52  76 105 133 166 208 253 305
#     4   9  17  32  54  76  98 129 172 214 257 312
#
# _framework density 21.403953999999999
#
# number of rings (size 3 to 8) (size 9 to 14) (size 15 to 20)
#    0.000    2.375    1.250    1.500    0.000    4.750 
#    0.000    1.875    0.000    3.000    0.000    0.000 
#    0.000    0.000    0.000    0.000    0.000    0.000 
#
# Total GULP energy -357241.313647 kJ/mol
# GULP energy per Si atom -5581.895526 kJ/mol
# Density = 2.135524 g / cm^3
# Si number density = 21.403954 Si / 1000 Ang^3
#
#
#
# Elastic Constant Matrix: (Units=GPa)
#
#
# Indices 1 2 3 4 5 6 
#
# 1 56.9017 -0.6944 -16.4638 0.0000 0.0000 0.0000
# 2 -0.6944 124.2527 -2.2878 0.0000 0.0000 0.0000
# 3 -16.4638 -2.2878 54.3925 0.0000 0.0000 0.0000
# 4 0.0000 0.0000 0.0000 5.9166 0.0000 0.0000
# 5 0.0000 0.0000 0.0000 0.0000 12.0542 0.0000
# 6 0.0000 0.0000 0.0000 0.0000 0.0000 -4.7326
#
#
#
# Elastic Compliance Matrix: (Units=1/GPa)
#
#
# Indices 1 2 3 4 5 6 
#
# 1 0.019267 0.000215 0.005841 0.000000 0.000000 0.000000
# 2 0.000215 0.008057 0.000404 0.000000 0.000000 0.000000
# 3 0.005841 0.000404 0.020170 0.000000 0.000000 0.000000
# 4 0.000000 0.000000 0.000000 0.169017 0.000000 0.000000
# 5 0.000000 0.000000 0.000000 0.000000 0.082958 0.000000
# 6 0.000000 0.000000 0.000000 0.000000 0.000000 -0.211298
#
#
# Mechanical properties :
#
#
# Convention : Reuss Voigt Hill
#
# Bulk Modulus (GPa) = 16.55264 21.85057 19.20161
# Shear Modulus (GPa) = 52.41767 19.64715 36.03241
#
# Velocity S-wave (km/s) = 4.95408 3.03301 4.10743
# Velocity P-wave (km/s) = 6.36192 4.74303 5.61117
#
# Compressibility (1/GPa) = 0.06041331
#
# Stress axis : x y z
#
# Youngs Moduli (GPa) = 51.90292 124.11941 49.57909
#
# Poissons Ratio (x) = -0.02671 -0.28958
# Poissons Ratio (y) = -0.01117 -0.02003
# Poissons Ratio (z) = -0.30315 -0.05015
#
# Static dielectric constant tensor:
#      x y z
#    x 1.848290 0.000000 0.000000 
#    y 0.000000 1.798430 0.000000 
#    z 0.000000 0.000000 1.778160 
# 
# From -- ./inp_files/26794.got.cif
#   From: 2010.05.17/outbox.cif.g08.bks.cpg/sg53_14_cif.got.tgz:26794.got - 2010.06.03 12:45:16.
