data_PCOD9416932
_publ_section_title
;
Structure prediction by ZEFSAII (Michael W. Deem and Ramdas Pophale) SiO2 
 PCOD9416932
Probable space group: P M N A
;
_chemical_formula_sum "Si O2"
_cell_formula_units_Z 48
_cell_length_a 18.877566
_cell_length_b 8.787852
_cell_length_c 14.415370
_cell_angle_alpha 90.000000
_cell_angle_beta 90.000000
_cell_angle_gamma 90.000000
_cell_volume 2391.412668
_symmetry_space_group_name_H-M "P M N A"
_symmetry_group_IT_number 53
_symmetry_cell_setting 'orthorhombic'
loop_
_space_group_symop_operation_xyz
x,y,z
1/2-x,-y,1/2+z
x,-y,-z
1/2-x,y,1/2-z
-x,-y,-z
1/2+x,y,1/2-z
-x,y,z
1/2+x,-y,1/2+z
loop_
_atom_site_type_symbol
_atom_site_label
_atom_site_fract_x
_atom_site_fract_y
_atom_site_fract_z
Si Si1 0.727342 0.165582 0.524398
Si Si2 0.500000 0.048502 0.109317
Si Si3 0.000000 0.841761 0.124487
Si Si4 0.500000 0.190407 0.401782
Si Si5 0.500000 0.322412 0.000655
Si Si6 0.123904 0.171199 0.612657
Si Si7 0.144604 0.307788 0.807578
Si Si8 0.863604 0.393223 0.089569
O O1 0.810564 0.146507 0.543663
O O2 0.695278 0.221672 0.621096
O O3 0.700552 0.286767 0.447555
O O4 0.696802 0.000000 0.500000
O O5 0.500000 0.230404 0.098519
O O6 0.426300 0.972638 0.143341
O O7 0.500000 0.000000 0.000000
O O8 0.067140 0.752850 0.163811
O O9 0.000000 0.023239 0.144590
O O10 0.000000 0.830285 0.013234
O O11 0.570707 0.287022 0.382210
O O12 0.500000 0.500000 0.000000
O O13 0.431488 0.273166 0.942719
O O14 0.153236 0.257082 0.702482
O O15 0.152869 0.486309 0.829765
O O16 0.883310 0.500000 0.000000
#
# Coordination Sequence:
#
# PCOD9416932 Si02
#       8
#     8   4   4   4   4   8   8   8
#     4  11  21  37  60  82 109 152 198 234 280 351
#     4   8  17  38  63  87 109 146 196 230 279 341
#     4  11  19  31  56  80 112 147 189 227 273 336
#     4  11  18  31  52  84 108 151 191 225 257 338
#     4  10  21  39  64  90 113 146 194 238 281 344
#     4  10  21  40  61  83 111 150 188 241 289 339
#     4  11  22  36  57  85 118 147 187 237 297 338
#     4  10  20  33  54  82 114 152 188 229 279 348
#
# _framework density 20.071819000000001
#
# number of rings (size 3 to 8) (size 9 to 14) (size 15 to 20)
#    0.000    1.833    3.333    4.750    0.000    2.000 
#    0.000    5.000    0.000   10.000    0.000    0.000 
#    0.000    0.000    0.000    0.000    0.000    0.000 
#
# Total GULP energy -267684.170330 kJ/mol
# GULP energy per Si atom -5576.753549 kJ/mol
# Density = 2.002613 g / cm^3
# Si number density = 20.071819 Si / 1000 Ang^3
#
#
#
# Elastic Constant Matrix: (Units=GPa)
#
#
# Indices 1 2 3 4 5 6 
#
# 1 121.5271 54.4462 25.7475 0.0000 0.0000 0.0000
# 2 54.4462 171.8710 46.0769 0.0000 0.0000 0.0000
# 3 25.7475 46.0769 60.0534 0.0000 0.0000 0.0000
# 4 0.0000 0.0000 0.0000 25.2531 0.0000 0.0000
# 5 0.0000 0.0000 0.0000 0.0000 12.5011 0.0000
# 6 0.0000 0.0000 0.0000 0.0000 0.0000 6.9184
#
#
#
# Elastic Compliance Matrix: (Units=1/GPa)
#
#
# Indices 1 2 3 4 5 6 
#
# 1 0.009835 -0.002499 -0.002299 0.000000 0.000000 0.000000
# 2 -0.002499 0.007960 -0.005036 0.000000 0.000000 0.000000
# 3 -0.002299 -0.005036 0.021502 0.000000 0.000000 0.000000
# 4 0.000000 0.000000 0.000000 0.039599 0.000000 0.000000
# 5 0.000000 0.000000 0.000000 0.000000 0.079993 0.000000
# 6 0.000000 0.000000 0.000000 0.000000 0.000000 0.144543
#
#
# Mechanical properties :
#
#
# Convention : Reuss Voigt Hill
#
# Bulk Modulus (GPa) = 50.94740 67.33254 59.13997
# Shear Modulus (GPa) = 15.16786 24.07989 19.62387
#
# Velocity S-wave (km/s) = 2.75194 3.46741 3.13018
# Velocity P-wave (km/s) = 5.96115 7.04622 6.52627
#
# Compressibility (1/GPa) = 0.01962809
#
# Stress axis : x y z
#
# Youngs Moduli (GPa) = 101.67253 125.62545 46.50824
#
# Poissons Ratio (x) = 0.31398 0.10693
# Poissons Ratio (y) = 0.25411 0.23422
# Poissons Ratio (z) = 0.23377 0.63265
#
# Static dielectric constant tensor:
#      x y z
#    x 1.802920 0.000000 0.000000 
#    y 0.000000 1.773860 0.000000 
#    z 0.000000 0.000000 1.716890 
# 
# From -- ./inp_files/23733.got.cif
#   From: 2010.05.17/outbox.cif.g08.bks.cpg/sg53_12_cif.got.tgz:23733.got - 2010.06.03 12:45:16.
