data_PCOD9416047
_publ_section_title
;
Structure prediction by ZEFSAII (Michael W. Deem and Ramdas Pophale) SiO2 
 PCOD9416047
Probable space group: P M N A
;
_chemical_formula_sum "Si O2"
_cell_formula_units_Z 48
_cell_length_a 15.449214
_cell_length_b 10.397077
_cell_length_c 16.494467
_cell_angle_alpha 90.000000
_cell_angle_beta 90.000000
_cell_angle_gamma 90.000000
_cell_volume 2649.451267
_symmetry_space_group_name_H-M "P M N A"
_symmetry_group_IT_number 53
_symmetry_cell_setting 'orthorhombic'
loop_
_space_group_symop_operation_xyz
x,y,z
1/2-x,-y,1/2+z
x,-y,-z
1/2-x,y,1/2-z
-x,-y,-z
1/2+x,y,1/2-z
-x,y,z
1/2+x,-y,1/2+z
loop_
_atom_site_type_symbol
_atom_site_label
_atom_site_fract_x
_atom_site_fract_y
_atom_site_fract_z
Si Si1 0.843545 0.758581 0.708937
Si Si2 0.901826 0.471803 0.688666
Si Si3 0.225033 0.128992 0.451012
Si Si4 0.097890 0.524389 0.118956
Si Si5 0.096250 0.214983 0.117866
Si Si6 0.223441 0.380329 0.556476
O O1 0.750000 0.729205 0.750000
O O2 0.882255 0.623802 0.678865
O O3 0.827532 0.851051 0.632844
O O4 0.897780 0.809576 0.785171
O O5 0.896014 0.449056 0.785009
O O6 0.831723 0.393564 0.638151
O O7 0.000000 0.444251 0.662366
O O8 0.326060 0.141538 0.425387
O O9 0.207326 0.250083 0.508808
O O10 0.207579 0.000000 0.500000
O O11 0.110240 0.369920 0.109198
O O12 0.174985 0.598937 0.075764
O O13 0.000000 0.556201 0.091907
O O14 0.000000 0.184569 0.088461
O O15 0.197077 0.500000 0.500000
#
# Coordination Sequence:
#
# PCOD9416047 Si02
#       6
#     8   8   8   8   8   8
#     4   9  16  33  56  78 103 140 186 222 263 324
#     4  10  19  33  56  84 109 137 183 231 270 318
#     4  11  23  36  51  78 115 145 179 220 271 321
#     4   9  18  33  57  86 110 138 178 229 276 322
#     4   9  17  33  58  81 103 137 183 225 266 321
#     4  12  20  34  55  82 110 142 173 224 276 327
#
# _framework density 18.116959999999999
#
# number of rings (size 3 to 8) (size 9 to 14) (size 15 to 20)
#    0.000    2.000    3.333    4.000    0.000    1.667 
#    0.000    5.000    0.000    6.500    0.000    0.000 
#    0.000    0.000    0.000    0.000    0.000    0.000 
#
# Total GULP energy -267885.270520 kJ/mol
# GULP energy per Si atom -5580.943136 kJ/mol
# Density = 1.807573 g / cm^3
# Si number density = 18.116960 Si / 1000 Ang^3
#
#
#
# Elastic Constant Matrix: (Units=GPa)
#
#
# Indices 1 2 3 4 5 6 
#
# 1 54.9498 6.5220 24.1962 0.0000 0.0000 0.0000
# 2 6.5220 76.1426 35.5449 0.0000 0.0000 0.0000
# 3 24.1962 35.5449 84.9683 0.0000 0.0000 0.0000
# 4 0.0000 0.0000 0.0000 20.4098 0.0000 0.0000
# 5 0.0000 0.0000 0.0000 0.0000 18.2316 0.0000
# 6 0.0000 0.0000 0.0000 0.0000 0.0000 6.6584
#
#
#
# Elastic Compliance Matrix: (Units=1/GPa)
#
#
# Indices 1 2 3 4 5 6 
#
# 1 0.020900 0.001228 -0.006465 0.000000 0.000000 0.000000
# 2 0.001228 0.016393 -0.007207 0.000000 0.000000 0.000000
# 3 -0.006465 -0.007207 0.016625 0.000000 0.000000 0.000000
# 4 0.000000 0.000000 0.000000 0.048996 0.000000 0.000000
# 5 0.000000 0.000000 0.000000 0.000000 0.054850 0.000000
# 6 0.000000 0.000000 0.000000 0.000000 0.000000 0.150186
#
#
# Mechanical properties :
#
#
# Convention : Reuss Voigt Hill
#
# Bulk Modulus (GPa) = 34.44908 38.73185 36.59047
# Shear Modulus (GPa) = 14.59795 19.04647 16.82221
#
# Velocity S-wave (km/s) = 2.84167 3.24590 3.05049
# Velocity P-wave (km/s) = 5.46104 5.95592 5.71384
#
# Compressibility (1/GPa) = 0.02902835
#
# Stress axis : x y z
#
# Youngs Moduli (GPa) = 47.84798 61.00336 60.14977
#
# Poissons Ratio (x) = -0.07491 0.38888
# Poissons Ratio (y) = -0.05875 0.43351
# Poissons Ratio (z) = 0.30935 0.43966
#
# Static dielectric constant tensor:
#      x y z
#    x 1.651250 0.000000 0.000000 
#    y 0.000000 1.575850 0.000000 
#    z 0.000000 0.000000 1.646790 
# 
# From -- ./inp_files/28908.got.cif
#   From: 2010.05.17/outbox.cif.g08.bks.cpg/sg53_15_cif.got.tgz:28908.got - 2010.06.03 12:45:16.
