data_PCOD9416224
_publ_section_title
;
Structure prediction by ZEFSAII (Michael W. Deem and Ramdas Pophale) SiO2 
 PCOD9416224
Probable space group: P M N A
;
_chemical_formula_sum "Si O2"
_cell_formula_units_Z 48
_cell_length_a 9.073205
_cell_length_b 15.808931
_cell_length_c 18.311598
_cell_angle_alpha 90.000000
_cell_angle_beta 90.000000
_cell_angle_gamma 90.000000
_cell_volume 2626.572984
_symmetry_space_group_name_H-M "P M N A"
_symmetry_group_IT_number 53
_symmetry_cell_setting 'orthorhombic'
loop_
_space_group_symop_operation_xyz
x,y,z
1/2-x,-y,1/2+z
x,-y,-z
1/2-x,y,1/2-z
-x,-y,-z
1/2+x,y,1/2-z
-x,y,z
1/2+x,-y,1/2+z
loop_
_atom_site_type_symbol
_atom_site_label
_atom_site_fract_x
_atom_site_fract_y
_atom_site_fract_z
Si Si1 0.824468 0.823951 0.087026
Si Si2 0.824710 0.169875 0.086312
Si Si3 0.676476 0.341706 0.329078
Si Si4 0.323754 0.668764 0.170938
Si Si5 0.669437 0.997572 0.088824
Si Si6 0.675674 0.494674 0.085524
O O1 0.743827 0.749175 0.129481
O O2 0.000000 0.819708 0.097956
O O3 0.762405 0.915382 0.110755
O O4 0.794710 0.815937 0.999939
O O5 0.785532 0.253641 0.130867
O O6 0.739386 0.086460 0.112278
O O7 0.000000 0.154738 0.092976
O O8 0.750000 0.344625 0.250000
O O9 0.500000 0.346732 0.322858
O O10 0.736349 0.419699 0.376182
O O11 0.250000 0.661119 0.250000
O O12 0.500000 0.677996 0.177752
O O13 0.293578 0.583751 0.124820
O O14 0.500000 0.989603 0.111977
O O15 0.672458 0.000000 0.000000
O O16 0.500000 0.478126 0.092118
O O17 0.711933 0.500000 0.000000
#
# Coordination Sequence:
#
# PCOD9416224 Si02
#       6
#     8   8   8   8   8   8
#     4  10  19  34  57  82 110 144 184 231 279 329
#     4   9  19  35  55  81 111 145 186 231 279 329
#     4  11  23  38  57  82 114 150 187 228 276 331
#     4  11  23  38  56  80 112 147 183 224 272 328
#     4   9  17  30  52  82 112 143 182 229 278 327
#     4  10  22  40  62  87 113 143 182 229 278 329
#
# _framework density 18.274763
#
# number of rings (size 3 to 8) (size 9 to 14) (size 15 to 20)
#    0.000    2.000    0.000    3.500    0.000    7.000 
#    0.000    0.833    0.000    2.000    0.000    0.000 
#    0.000    0.000    0.000    0.000    0.000    0.000 
#
# Total GULP energy -268141.859110 kJ/mol
# GULP energy per Si atom -5586.288731 kJ/mol
# Density = 1.823317 g / cm^3
# Si number density = 18.274763 Si / 1000 Ang^3
#
#
#
# Elastic Constant Matrix: (Units=GPa)
#
#
# Indices 1 2 3 4 5 6 
#
# 1 91.4762 103.1992 71.7921 0.0000 0.0000 0.0000
# 2 103.1992 195.8139 93.2927 0.0000 0.0000 0.0000
# 3 71.7921 93.2927 105.8467 0.0000 0.0000 0.0000
# 4 0.0000 0.0000 0.0000 -21.8330 0.0000 0.0000
# 5 0.0000 0.0000 0.0000 0.0000 20.3643 0.0000
# 6 0.0000 0.0000 0.0000 0.0000 0.0000 22.1326
#
#
#
# Elastic Compliance Matrix: (Units=1/GPa)
#
#
# Indices 1 2 3 4 5 6 
#
# 1 0.034782 -0.012225 -0.012816 0.000000 0.000000 0.000000
# 2 -0.012225 0.013100 -0.003255 0.000000 0.000000 0.000000
# 3 -0.012816 -0.003255 0.021010 0.000000 0.000000 0.000000
# 4 0.000000 0.000000 0.000000 -0.045802 0.000000 0.000000
# 5 0.000000 0.000000 0.000000 0.000000 0.049106 0.000000
# 6 0.000000 0.000000 0.000000 0.000000 0.000000 0.045182
#
#
# Mechanical properties :
#
#
# Convention : Reuss Voigt Hill
#
# Bulk Modulus (GPa) = 81.30539 103.30055 92.30297
# Shear Modulus (GPa) = 28.07889 12.45628 20.26758
#
# Velocity S-wave (km/s) = 3.92405 2.61360 3.33385
# Velocity P-wave (km/s) = 8.06958 8.10906 8.08934
#
# Compressibility (1/GPa) = 0.01229931
#
# Stress axis : x y z
#
# Youngs Moduli (GPa) = 28.75076 76.33300 47.59732
#
# Poissons Ratio (x) = 0.93315 0.61003
# Poissons Ratio (y) = 0.35147 0.15493
# Poissons Ratio (z) = 0.36848 0.24847
#
# Static dielectric constant tensor:
#      x y z
#    x 1.607620 0.000000 0.000000 
#    y 0.000000 1.597000 0.000000 
#    z 0.000000 0.000000 1.602950 
# 
# From -- ./inp_files/26237.got.cif
#   From: 2010.05.17/outbox.cif.g08.bks.cpg/sg53_14_cif.got.tgz:26237.got - 2010.06.03 12:45:16.
