data_PCOD9416608
_publ_section_title
;
Structure prediction by ZEFSAII (Michael W. Deem and Ramdas Pophale) SiO2 
 PCOD9416608
Probable space group: P M N A
;
_chemical_formula_sum "Si O2"
_cell_formula_units_Z 48
_cell_length_a 17.323680
_cell_length_b 9.652361
_cell_length_c 13.660836
_cell_angle_alpha 90.000000
_cell_angle_beta 90.000000
_cell_angle_gamma 90.000000
_cell_volume 2284.288676
_symmetry_space_group_name_H-M "P M N A"
_symmetry_group_IT_number 53
_symmetry_cell_setting 'orthorhombic'
loop_
_space_group_symop_operation_xyz
x,y,z
1/2-x,-y,1/2+z
x,-y,-z
1/2-x,y,1/2-z
-x,-y,-z
1/2+x,y,1/2-z
-x,y,z
1/2+x,-y,1/2+z
loop_
_atom_site_type_symbol
_atom_site_label
_atom_site_fract_x
_atom_site_fract_y
_atom_site_fract_z
Si Si1 0.089367 0.457333 0.780685
Si Si2 0.750318 0.334676 0.024098
Si Si3 0.090681 0.022347 0.783114
Si Si4 0.163364 0.734887 0.718870
Si Si5 0.908498 0.236628 0.955584
Si Si6 0.817762 0.233727 0.673511
O O1 0.123177 0.609726 0.776375
O O2 0.094011 0.369295 0.881253
O O3 0.142843 0.375915 0.705301
O O4 0.000000 0.457881 0.751997
O O5 0.838214 0.269441 0.030651
O O6 0.717632 0.252502 0.931240
O O7 0.756827 0.500000 0.000000
O O8 0.684496 0.310042 0.107046
O O9 0.120031 0.872880 0.751436
O O10 0.000000 0.018703 0.787976
O O11 0.111158 0.102511 0.886076
O O12 0.118670 0.119703 0.694702
O O13 0.250000 0.759978 0.750000
O O14 0.000000 0.224914 0.988877
O O15 0.750000 0.201744 0.750000
#
# Coordination Sequence:
#
# PCOD9416608 Si02
#       6
#     8   8   8   8   8   8
#     4  10  19  37  64  93 129 168 210 264 326 379
#     4  12  23  38  66 101 131 166 219 268 324 392
#     4  10  22  43  67  91 124 171 219 266 324 383
#     4  12  25  40  60  95 133 172 214 267 325 387
#     4   9  20  41  71  97 124 170 221 273 334 391
#     4  11  19  39  67  94 125 165 217 261 321 389
#
# _framework density 21.013106000000001
#
# number of rings (size 3 to 8) (size 9 to 14) (size 15 to 20)
#    0.000    1.333    5.000    4.000    0.000    1.000 
#    0.000    6.667    0.000    2.000    0.000    0.000 
#    0.000    0.000    0.000    0.000    0.000    0.000 
#
# Total GULP energy -267527.794999 kJ/mol
# GULP energy per Si atom -5573.495729 kJ/mol
# Density = 2.096528 g / cm^3
# Si number density = 21.013106 Si / 1000 Ang^3
#
#
#
# Elastic Constant Matrix: (Units=GPa)
#
#
# Indices 1 2 3 4 5 6 
#
# 1 96.3727 26.7699 14.1784 0.0000 0.0000 0.0000
# 2 26.7699 144.9590 9.6362 0.0000 0.0000 0.0000
# 3 14.1784 9.6362 60.5368 0.0000 0.0000 0.0000
# 4 0.0000 0.0000 0.0000 2.2987 0.0000 0.0000
# 5 0.0000 0.0000 0.0000 0.0000 22.2335 0.0000
# 6 0.0000 0.0000 0.0000 0.0000 0.0000 45.8934
#
#
#
# Elastic Compliance Matrix: (Units=1/GPa)
#
#
# Indices 1 2 3 4 5 6 
#
# 1 0.011253 -0.001923 -0.002330 0.000000 0.000000 0.000000
# 2 -0.001923 0.007301 -0.000712 0.000000 0.000000 0.000000
# 3 -0.002330 -0.000712 0.017178 0.000000 0.000000 0.000000
# 4 0.000000 0.000000 0.000000 0.435026 0.000000 0.000000
# 5 0.000000 0.000000 0.000000 0.000000 0.044977 0.000000
# 6 0.000000 0.000000 0.000000 0.000000 0.000000 0.021790
#
#
# Mechanical properties :
#
#
# Convention : Reuss Voigt Hill
#
# Bulk Modulus (GPa) = 38.75514 44.78196 41.76855
# Shear Modulus (GPa) = 8.99191 30.83739 19.91465
#
# Velocity S-wave (km/s) = 2.07087 3.83499 3.08185
# Velocity P-wave (km/s) = 4.91948 6.40057 5.70827
#
# Compressibility (1/GPa) = 0.02580303
#
# Stress axis : x y z
#
# Youngs Moduli (GPa) = 88.86241 136.96754 58.21482
#
# Poissons Ratio (x) = 0.26343 0.13561
# Poissons Ratio (y) = 0.17091 0.04143
# Poissons Ratio (z) = 0.20701 0.09748
#
# Static dielectric constant tensor:
#      x y z
#    x 1.806280 0.000000 0.000000 
#    y 0.000000 1.797780 0.000000 
#    z 0.000000 0.000000 1.877550 
# 
# From -- ./inp_files/23637.got.cif
#   From: 2010.05.17/outbox.cif.g08.bks.cpg/sg53_12_cif.got.tgz:23637.got - 2010.06.03 12:45:16.
