data_PCOD9416741
_publ_section_title
;
Structure prediction by ZEFSAII (Michael W. Deem and Ramdas Pophale) SiO2 
 PCOD9416741
Probable space group: P M N A
;
_chemical_formula_sum "Si O2"
_cell_formula_units_Z 40
_cell_length_a 28.185293
_cell_length_b 9.717889
_cell_length_c 8.074277
_cell_angle_alpha 90.000000
_cell_angle_beta 90.000000
_cell_angle_gamma 90.000000
_cell_volume 2211.556976
_symmetry_space_group_name_H-M "P M N A"
_symmetry_group_IT_number 53
_symmetry_cell_setting 'orthorhombic'
loop_
_space_group_symop_operation_xyz
x,y,z
1/2-x,-y,1/2+z
x,-y,-z
1/2-x,y,1/2-z
-x,-y,-z
1/2+x,y,1/2-z
-x,y,z
1/2+x,-y,1/2+z
loop_
_atom_site_type_symbol
_atom_site_label
_atom_site_fract_x
_atom_site_fract_y
_atom_site_fract_z
Si Si1 0.946656 0.340517 0.940938
Si Si2 0.804606 0.757667 0.200661
Si Si3 0.197282 0.944592 0.689317
Si Si4 0.879311 0.431726 0.671542
Si Si5 0.643989 0.291769 0.364000
O O1 0.922605 0.354562 0.761199
O O2 0.000000 0.285107 0.942674
O O3 0.948904 0.500000 0.000000
O O4 0.908116 0.264873 0.056684
O O5 0.750000 0.740289 0.250000
O O6 0.836602 0.676705 0.332852
O O7 0.815536 0.919641 0.205972
O O8 0.819677 0.706546 0.018921
O O9 0.250000 0.902456 0.750000
O O10 0.161876 0.821345 0.733703
O O11 0.198648 0.000000 0.500000
O O12 0.892947 0.500000 0.500000
O O13 0.860599 0.558137 0.783726
#
# Coordination Sequence:
#
# PCOD9416741 Si02
#       5
#     8   8   8   8   8
#     4   8  16  33  55  76 101 134 171 212 261 312
#     4  10  20  34  50  72 103 140 174 207 253 307
#     4  11  21  34  52  75 103 139 175 208 252 306
#     4  10  20  32  50  79 106 132 170 215 260 303
#     4  10  20  35  54  77 103 135 176 215 254 303
#
# _framework density 18.086804999999998
#
# number of rings (size 3 to 8) (size 9 to 14) (size 15 to 20)
#    0.000    2.200    0.000    6.000    0.000    2.800 
#    0.000    0.000    0.000   10.200    0.000    0.000 
#    0.000    0.000    0.000    0.000    0.000    0.000 
#
# Total GULP energy -222988.421457 kJ/mol
# GULP energy per Si atom -5574.710536 kJ/mol
# Density = 1.804564 g / cm^3
# Si number density = 18.086805 Si / 1000 Ang^3
#
#
#
# Elastic Constant Matrix: (Units=GPa)
#
#
# Indices 1 2 3 4 5 6 
#
# 1 126.0112 51.1552 31.4896 0.0000 0.0000 0.0000
# 2 51.1552 51.5288 13.4473 0.0000 0.0000 0.0000
# 3 31.4896 13.4473 79.6769 0.0000 0.0000 0.0000
# 4 0.0000 0.0000 0.0000 23.7341 0.0000 0.0000
# 5 0.0000 0.0000 0.0000 0.0000 9.6959 0.0000
# 6 0.0000 0.0000 0.0000 0.0000 0.0000 -5.0599
#
#
#
# Elastic Compliance Matrix: (Units=1/GPa)
#
#
# Indices 1 2 3 4 5 6 
#
# 1 0.014103 -0.013124 -0.003359 0.000000 0.000000 0.000000
# 2 -0.013124 0.032514 -0.000301 0.000000 0.000000 0.000000
# 3 -0.003359 -0.000301 0.013929 0.000000 0.000000 0.000000
# 4 0.000000 0.000000 0.000000 0.042133 0.000000 0.000000
# 5 0.000000 0.000000 0.000000 0.000000 0.103137 0.000000
# 6 0.000000 0.000000 0.000000 0.000000 0.000000 -0.197634
#
#
# Mechanical properties :
#
#
# Convention : Reuss Voigt Hill
#
# Bulk Modulus (GPa) = 37.06602 49.93347 43.49975
# Shear Modulus (GPa) = 98.53638 16.41567 57.47602
#
# Velocity S-wave (km/s) = 7.38904 3.01592 5.64330
# Velocity P-wave (km/s) = 9.66101 6.30835 8.15875
#
# Compressibility (1/GPa) = 0.02697889
#
# Stress axis : x y z
#
# Youngs Moduli (GPa) = 70.90668 30.75579 71.79346
#
# Poissons Ratio (x) = 0.40365 0.24113
# Poissons Ratio (y) = 0.93060 0.02158
# Poissons Ratio (z) = 0.23816 0.00924
#
# Static dielectric constant tensor:
#      x y z
#    x 1.619790 0.000000 0.000000 
#    y 0.000000 1.610100 0.000000 
#    z 0.000000 0.000000 1.678730 
# 
# From -- ./inp_files/12278.got.cif
#   From: 2010.05.17/outbox.cif.g08.bks.cpg/sg53_7_cif.got.tgz:12278.got - 2010.06.03 12:45:16.
