data_PCOD9416638
_publ_section_title
;
Structure prediction by ZEFSAII (Michael W. Deem and Ramdas Pophale) SiO2 
 PCOD9416638
Probable space group: P M N A
;
_chemical_formula_sum "Si O2"
_cell_formula_units_Z 36
_cell_length_a 15.610667
_cell_length_b 7.733781
_cell_length_c 14.378080
_cell_angle_alpha 90.000000
_cell_angle_beta 90.000000
_cell_angle_gamma 90.000000
_cell_volume 1735.858120
_symmetry_space_group_name_H-M "P M N A"
_symmetry_group_IT_number 53
_symmetry_cell_setting 'orthorhombic'
loop_
_space_group_symop_operation_xyz
x,y,z
1/2-x,-y,1/2+z
x,-y,-z
1/2-x,y,1/2-z
-x,-y,-z
1/2+x,y,1/2-z
-x,y,z
1/2+x,-y,1/2+z
loop_
_atom_site_type_symbol
_atom_site_label
_atom_site_fract_x
_atom_site_fract_y
_atom_site_fract_z
Si Si1 0.651647 0.000000 0.500000
Si Si2 0.093338 0.690982 0.117285
Si Si3 0.287815 0.142243 0.145921
Si Si4 0.098515 0.182775 0.667866
Si Si5 0.731062 0.527632 0.139607
O O1 0.598068 0.154987 0.543572
O O2 0.713960 0.069391 0.419838
O O3 0.102626 0.775289 0.220902
O O4 0.175361 0.570841 0.099752
O O5 0.000000 0.603802 0.114409
O O6 0.250000 0.144608 0.250000
O O7 0.305126 0.339329 0.115986
O O8 0.366238 0.008375 0.146821
O O9 0.163690 0.319699 0.621706
O O10 0.000000 0.203570 0.639368
O O11 0.750000 0.526853 0.250000
#
# Coordination Sequence:
#
# PCOD9416638 Si02
#       5
#     4   8   8   8   8
#     4  12  21  36  65  88 122 164 197 246 303 360
#     4  10  20  37  61  92 124 157 197 246 306 365
#     4  11  21  39  62  88 121 163 201 243 301 362
#     4  10  19  38  64  87 121 160 201 252 298 349
#     4   9  19  37  61  84 122 161 198 243 297 356
#
# _framework density 20.739021999999999
#
# number of rings (size 3 to 8) (size 9 to 14) (size 15 to 20)
#    0.000    1.778    4.444    1.000    0.000    1.778 
#    0.000    7.222    0.000    1.333    0.000    0.000 
#    0.000    0.000    0.000    0.000    0.000    0.000 
#
# Total GULP energy -201069.310442 kJ/mol
# GULP energy per Si atom -5585.258623 kJ/mol
# Density = 2.069182 g / cm^3
# Si number density = 20.739022 Si / 1000 Ang^3
#
#
#
# Elastic Constant Matrix: (Units=GPa)
#
#
# Indices 1 2 3 4 5 6 
#
# 1 169.5941 83.0447 26.3793 0.0000 0.0000 0.0000
# 2 83.0447 147.4013 10.8709 0.0000 0.0000 0.0000
# 3 26.3793 10.8709 65.8527 0.0000 0.0000 0.0000
# 4 0.0000 0.0000 0.0000 14.7942 0.0000 0.0000
# 5 0.0000 0.0000 0.0000 0.0000 10.2199 0.0000
# 6 0.0000 0.0000 0.0000 0.0000 0.0000 -3.5564
#
#
#
# Elastic Compliance Matrix: (Units=1/GPa)
#
#
# Indices 1 2 3 4 5 6 
#
# 1 0.008584 -0.004639 -0.002673 0.000000 0.000000 0.000000
# 2 -0.004639 0.009375 0.000311 0.000000 0.000000 0.000000
# 3 -0.002673 0.000311 0.016205 0.000000 0.000000 0.000000
# 4 0.000000 0.000000 0.000000 0.067594 0.000000 0.000000
# 5 0.000000 0.000000 0.000000 0.000000 0.097848 0.000000
# 6 0.000000 0.000000 0.000000 0.000000 0.000000 -0.281186
#
#
# Mechanical properties :
#
#
# Convention : Reuss Voigt Hill
#
# Bulk Modulus (GPa) = 49.59959 69.27086 59.43523
# Shear Modulus (GPa) = -82.15746 21.79510 -30.18118
#
# Velocity S-wave (km/s) = -6.30087 3.24531 -3.81896
# Velocity P-wave (km/s) = 5.38206 6.89322 3.04548
#
# Compressibility (1/GPa) = 0.02016146
#
# Stress axis : x y z
#
# Youngs Moduli (GPa) = 116.50080 106.66920 61.71031
#
# Poissons Ratio (x) = 0.49482 0.16493
# Poissons Ratio (y) = 0.54043 -0.01917
# Poissons Ratio (z) = 0.31137 -0.03314
#
# Static dielectric constant tensor:
#      x y z
#    x 1.722570 0.000000 0.000000 
#    y 0.000000 1.748880 0.000000 
#    z 0.000000 0.000000 1.750310 
# 
# From -- ./inp_files/22299.got.cif
#   From: 2010.05.17/outbox.cif.g08.bks.cpg/sg53_12_cif.got.tgz:22299.got - 2010.06.03 12:45:16.
