data_PCOD9416656
_publ_section_title
;
Structure prediction by ZEFSAII (Michael W. Deem and Ramdas Pophale) SiO2 
 PCOD9416656
Probable space group: P M N A
;
_chemical_formula_sum "Si O2"
_cell_formula_units_Z 48
_cell_length_a 9.703738
_cell_length_b 17.034664
_cell_length_c 14.659985
_cell_angle_alpha 90.000000
_cell_angle_beta 90.000000
_cell_angle_gamma 90.000000
_cell_volume 2423.294295
_symmetry_space_group_name_H-M "P M N A"
_symmetry_group_IT_number 53
_symmetry_cell_setting 'orthorhombic'
loop_
_space_group_symop_operation_xyz
x,y,z
1/2-x,-y,1/2+z
x,-y,-z
1/2-x,y,1/2-z
-x,-y,-z
1/2+x,y,1/2-z
-x,y,z
1/2+x,-y,1/2+z
loop_
_atom_site_type_symbol
_atom_site_label
_atom_site_fract_x
_atom_site_fract_y
_atom_site_fract_z
Si Si1 0.342849 0.677379 0.330516
Si Si2 0.343404 0.031494 0.839532
Si Si3 0.340520 0.499918 0.390068
Si Si4 0.665608 0.649061 0.838003
Si Si5 0.847814 0.745154 0.970411
Si Si6 0.270263 0.918533 0.521358
O O1 0.250000 0.708377 0.250000
O O2 0.500000 0.677472 0.299127
O O3 0.307629 0.587107 0.355261
O O4 0.334649 0.725989 0.423118
O O5 0.250000 0.039341 0.750000
O O6 0.500000 0.039798 0.811110
O O7 0.319682 0.948081 0.892387
O O8 0.310654 0.089678 0.924896
O O9 0.338744 0.500000 0.500000
O O10 0.500000 0.480549 0.362585
O O11 0.228911 0.437526 0.356086
O O12 0.750000 0.678545 0.750000
O O13 0.500000 0.649637 0.829463
O O14 0.723410 0.702727 0.919437
O O15 0.842786 0.838200 0.956674
O O16 0.000000 0.714270 0.941215
O O17 0.351821 0.000000 0.500000
#
# Coordination Sequence:
#
# PCOD9416656 Si02
#       6
#     8   8   8   8   8   8
#     4  10  22  39  62  90 124 163 204 249 307 366
#     4   9  19  37  62  88 119 154 198 248 303 366
#     4  10  19  39  67  90 123 166 206 252 309 365
#     4  12  26  42  64  94 127 165 211 256 309 370
#     4  11  23  43  65  90 125 164 207 260 315 369
#     4   8  21  40  62  89 118 160 204 252 308 371
#
# _framework density 19.807748
#
# number of rings (size 3 to 8) (size 9 to 14) (size 15 to 20)
#    1.000    0.833    1.667    3.000    0.000    7.333 
#    0.000    1.667    0.000    0.000    0.000    0.000 
#    0.000    0.000    0.000    0.000    0.000    0.000 
#
# Total GULP energy -267354.266542 kJ/mol
# GULP energy per Si atom -5569.880553 kJ/mol
# Density = 1.976266 g / cm^3
# Si number density = 19.807748 Si / 1000 Ang^3
#
#
#
# Elastic Constant Matrix: (Units=GPa)
#
#
# Indices 1 2 3 4 5 6 
#
# 1 134.8665 10.6818 38.8279 0.0000 0.0000 0.0000
# 2 10.6818 49.8316 -32.8473 0.0000 0.0000 0.0000
# 3 38.8279 -32.8473 62.4022 0.0000 0.0000 0.0000
# 4 0.0000 0.0000 0.0000 -17.1015 0.0000 0.0000
# 5 0.0000 0.0000 0.0000 0.0000 14.3053 0.0000
# 6 0.0000 0.0000 0.0000 0.0000 0.0000 24.4753
#
#
#
# Elastic Compliance Matrix: (Units=1/GPa)
#
#
# Indices 1 2 3 4 5 6 
#
# 1 0.012354 -0.011814 -0.013906 0.000000 0.000000 0.000000
# 2 -0.011814 0.042028 0.029474 0.000000 0.000000 0.000000
# 3 -0.013906 0.029474 0.040192 0.000000 0.000000 0.000000
# 4 0.000000 0.000000 0.000000 -0.058475 0.000000 0.000000
# 5 0.000000 0.000000 0.000000 0.000000 0.069904 0.000000
# 6 0.000000 0.000000 0.000000 0.000000 0.000000 0.040857
#
#
# Mechanical properties :
#
#
# Convention : Reuss Voigt Hill
#
# Bulk Modulus (GPa) = 9.79604 31.15836 20.47720
# Shear Modulus (GPa) = 28.83830 19.69836 24.26833
#
# Velocity S-wave (km/s) = 3.81978 3.15695 3.50407
# Velocity P-wave (km/s) = 4.94071 5.39009 5.17028
#
# Compressibility (1/GPa) = 0.10208203
#
# Stress axis : x y z
#
# Youngs Moduli (GPa) = 80.94628 23.79353 24.88064
#
# Poissons Ratio (x) = 0.28110 0.34598
# Poissons Ratio (y) = 0.95632 -0.73333
# Poissons Ratio (z) = 1.12561 -0.70129
#
# Static dielectric constant tensor:
#      x y z
#    x 1.710310 0.000000 0.000000 
#    y 0.000000 1.716510 0.000000 
#    z 0.000000 0.000000 1.722130 
# 
# From -- ./inp_files/20230.got.cif
#   From: 2010.05.17/outbox.cif.g08.bks.cpg/sg53_11_cif.got.tgz:20230.got - 2010.06.03 12:45:16.
