data_PCOD9416546
_publ_section_title
;
Structure prediction by ZEFSAII (Michael W. Deem and Ramdas Pophale) SiO2 
 PCOD9416546
Probable space group: P M N A
;
_chemical_formula_sum "Si O2"
_cell_formula_units_Z 48
_cell_length_a 27.332211
_cell_length_b 10.270047
_cell_length_c 9.228787
_cell_angle_alpha 90.000000
_cell_angle_beta 90.000000
_cell_angle_gamma 90.000000
_cell_volume 2590.549042
_symmetry_space_group_name_H-M "P M N A"
_symmetry_group_IT_number 53
_symmetry_cell_setting 'orthorhombic'
loop_
_space_group_symop_operation_xyz
x,y,z
1/2-x,-y,1/2+z
x,-y,-z
1/2-x,y,1/2-z
-x,-y,-z
1/2+x,y,1/2-z
-x,y,z
1/2+x,-y,1/2+z
loop_
_atom_site_type_symbol
_atom_site_label
_atom_site_fract_x
_atom_site_fract_y
_atom_site_fract_z
Si Si1 0.718830 0.373098 0.102048
Si Si2 0.225332 0.877181 0.405684
Si Si3 0.111844 0.734504 0.665210
Si Si4 0.441291 0.520813 0.662994
Si Si5 0.885247 0.969924 0.342591
Si Si6 0.941279 0.268841 0.647585
O O1 0.750000 0.385947 0.250000
O O2 0.663472 0.337516 0.146703
O O3 0.721154 0.500000 0.000000
O O4 0.733937 0.250211 0.002122
O O5 0.250000 0.868028 0.250000
O O6 0.167644 0.905417 0.374775
O O7 0.243138 0.000000 0.500000
O O8 0.079752 0.653677 0.776078
O O9 0.084021 0.726799 0.510256
O O10 0.120032 0.883999 0.716869
O O11 0.423764 0.500000 0.500000
O O12 0.500000 0.526649 0.662723
O O13 0.427758 0.399027 0.765056
O O14 0.919330 0.859794 0.274058
O O15 0.908539 0.000000 0.500000
O O16 0.000000 0.261654 0.634870
#
# Coordination Sequence:
#
# PCOD9416546 Si02
#       6
#     8   8   8   8   8   8
#     4  12  25  42  61  91 126 161 207 259 310 367
#     4  11  21  41  65  87 123 165 203 254 309 367
#     4  11  21  38  63  85 118 155 202 251 295 362
#     4  10  22  39  58  85 121 161 199 242 303 365
#     4   9  19  36  57  91 118 148 196 246 303 351
#     4  10  19  36  63  91 118 154 200 249 302 358
#
# _framework density 18.528891000000002
#
# number of rings (size 3 to 8) (size 9 to 14) (size 15 to 20)
#    0.000    1.500    5.000    3.000    0.000    5.667 
#    3.000    0.833    0.000    3.000    0.000    0.000 
#    0.000    0.000    0.000    0.000    0.000    0.000 
#
# Total GULP energy -267644.555657 kJ/mol
# GULP energy per Si atom -5575.928243 kJ/mol
# Density = 1.848672 g / cm^3
# Si number density = 18.528891 Si / 1000 Ang^3
#
#
#
# Elastic Constant Matrix: (Units=GPa)
#
#
# Indices 1 2 3 4 5 6 
#
# 1 49.2699 29.7460 21.8945 0.0000 0.0000 0.0000
# 2 29.7460 147.9800 39.0076 0.0000 0.0000 0.0000
# 3 21.8945 39.0076 74.4441 0.0000 0.0000 0.0000
# 4 0.0000 0.0000 0.0000 -0.8668 0.0000 0.0000
# 5 0.0000 0.0000 0.0000 0.0000 -101.6941 0.0000
# 6 0.0000 0.0000 0.0000 0.0000 0.0000 17.5699
#
#
#
# Elastic Compliance Matrix: (Units=1/GPa)
#
#
# Indices 1 2 3 4 5 6 
#
# 1 0.024868 -0.003563 -0.005447 0.000000 0.000000 0.000000
# 2 -0.003563 0.008351 -0.003328 0.000000 0.000000 0.000000
# 3 -0.005447 -0.003328 0.016779 0.000000 0.000000 0.000000
# 4 0.000000 0.000000 0.000000 -1.153642 0.000000 0.000000
# 5 0.000000 0.000000 0.000000 0.000000 -0.009833 0.000000
# 6 0.000000 0.000000 0.000000 0.000000 0.000000 0.056915
#
#
# Mechanical properties :
#
#
# Convention : Reuss Voigt Hill
#
# Bulk Modulus (GPa) = 39.49125 50.33225 44.91175
# Shear Modulus (GPa) = -4.88546 -4.92846 -4.90696
#
# Velocity S-wave (km/s) = -1.62554 -1.63268 -1.62912
# Velocity P-wave (km/s) = 4.22332 4.86508 4.55551
#
# Compressibility (1/GPa) = 0.02532206
#
# Stress axis : x y z
#
# Youngs Moduli (GPa) = 40.21244 119.74419 59.59952
#
# Poissons Ratio (x) = 0.42665 0.32463
# Poissons Ratio (y) = 0.14328 0.19835
# Poissons Ratio (z) = 0.21903 0.39851
#
# Static dielectric constant tensor:
#      x y z
#    x 1.640350 0.000000 0.000000 
#    y 0.000000 1.683960 0.000000 
#    z 0.000000 0.000000 1.624310 
# 
# From -- ./inp_files/13014.got.cif
#   From: 2010.05.17/outbox.cif.g08.bks.cpg/sg53_7_cif.got.tgz:13014.got - 2010.06.03 12:45:16.
