data_PCOD9416455
_publ_section_title
;
Structure prediction by ZEFSAII (Michael W. Deem and Ramdas Pophale) SiO2 
 PCOD9416455
Probable space group: P M N A
;
_chemical_formula_sum "Si O2"
_cell_formula_units_Z 64
_cell_length_a 8.554774
_cell_length_b 12.184193
_cell_length_c 31.808306
_cell_angle_alpha 90.000000
_cell_angle_beta 90.000000
_cell_angle_gamma 90.000000
_cell_volume 3315.475716
_symmetry_space_group_name_H-M "P M N A"
_symmetry_group_IT_number 53
_symmetry_cell_setting 'orthorhombic'
loop_
_space_group_symop_operation_xyz
x,y,z
1/2-x,-y,1/2+z
x,-y,-z
1/2-x,y,1/2-z
-x,-y,-z
1/2+x,y,1/2-z
-x,y,z
1/2+x,-y,1/2+z
loop_
_atom_site_type_symbol
_atom_site_label
_atom_site_fract_x
_atom_site_fract_y
_atom_site_fract_z
Si Si1 0.812641 0.880986 0.874333
Si Si2 0.190710 0.266291 0.546163
Si Si3 0.810268 0.501598 0.579133
Si Si4 0.312610 0.733435 0.705329
Si Si5 0.689614 0.259040 0.048116
Si Si6 0.185807 0.734087 0.205294
Si Si7 0.312330 0.127145 0.873017
Si Si8 0.687777 0.499076 0.822506
O O1 0.762675 0.809063 0.833850
O O2 0.756198 0.820142 0.916386
O O3 0.000000 0.886451 0.874089
O O4 0.744176 0.002558 0.872055
O O5 0.242806 0.390672 0.556334
O O6 0.238458 0.231516 0.499437
O O7 0.240431 0.187233 0.583967
O O8 0.000000 0.267550 0.546314
O O9 0.760745 0.615854 0.558452
O O10 0.766442 0.499004 0.628179
O O11 0.000000 0.500660 0.577560
O O12 0.250000 0.774829 0.750000
O O13 0.500000 0.729655 0.706285
O O14 0.248139 0.611098 0.697752
O O15 0.500000 0.254930 0.050290
O O16 0.250000 0.774351 0.250000
O O17 0.249108 0.805805 0.166744
O O18 0.243412 0.609436 0.198455
O O19 0.000000 0.736826 0.205624
O O20 0.500000 0.131063 0.872037
O O21 0.500000 0.495138 0.819867
#
# Coordination Sequence:
#
# PCOD9416455 Si02
#       8
#     8   8   8   8   8   8   8   8
#     4  11  25  43  60  84 121 161 204 255 308 366
#     4   9  18  34  60  94 124 152 198 251 301 356
#     4   9  16  30  58  92 123 153 192 243 299 355
#     4  11  24  41  62  88 120 156 198 247 303 362
#     4  10  19  35  63  93 120 158 202 249 300 359
#     4  12  25  42  64  92 125 162 201 245 301 360
#     4  11  23  42  65  89 119 158 206 258 304 356
#     4  11  20  36  63  93 125 160 199 243 299 358
#
# _framework density 19.303414
#
# number of rings (size 3 to 8) (size 9 to 14) (size 15 to 20)
#    0.000    1.500    2.500    3.375    0.000    4.000 
#    0.000    5.000    0.000    0.750    0.000    0.000 
#    0.000    0.000    0.000    0.000    0.000    0.000 
#
# Total GULP energy -357753.805672 kJ/mol
# GULP energy per Si atom -5589.903214 kJ/mol
# Density = 1.925948 g / cm^3
# Si number density = 19.303414 Si / 1000 Ang^3
#
#
#
# Elastic Constant Matrix: (Units=GPa)
#
#
# Indices 1 2 3 4 5 6 
#
# 1 55.2877 38.6598 47.0380 0.0000 0.0000 0.0000
# 2 38.6598 147.5419 87.9631 0.0000 0.0000 0.0000
# 3 47.0380 87.9631 199.8971 0.0000 0.0000 0.0000
# 4 0.0000 0.0000 0.0000 -7.8278 0.0000 0.0000
# 5 0.0000 0.0000 0.0000 0.0000 24.2400 0.0000
# 6 0.0000 0.0000 0.0000 0.0000 0.0000 25.5905
#
#
#
# Elastic Compliance Matrix: (Units=1/GPa)
#
#
# Indices 1 2 3 4 5 6 
#
# 1 0.024239 -0.004000 -0.003944 0.000000 0.000000 0.000000
# 2 -0.004000 0.009848 -0.003392 0.000000 0.000000 0.000000
# 3 -0.003944 -0.003392 0.007423 0.000000 0.000000 0.000000
# 4 0.000000 0.000000 0.000000 -0.127750 0.000000 0.000000
# 5 0.000000 0.000000 0.000000 0.000000 0.041254 0.000000
# 6 0.000000 0.000000 0.000000 0.000000 0.000000 0.039077
#
#
# Mechanical properties :
#
#
# Convention : Reuss Voigt Hill
#
# Bulk Modulus (GPa) = 53.08191 83.33872 68.21032
# Shear Modulus (GPa) = 216.97416 23.67160 120.32288
#
# Velocity S-wave (km/s) = 10.61348 3.50564 7.90365
# Velocity P-wave (km/s) = 13.33241 7.72352 10.89509
#
# Compressibility (1/GPa) = 0.01883881
#
# Stress axis : x y z
#
# Youngs Moduli (GPa) = 41.25504 101.53895 134.71032
#
# Poissons Ratio (x) = 0.40618 0.53123
# Poissons Ratio (y) = 0.16503 0.45699
# Poissons Ratio (z) = 0.16269 0.34446
#
# Static dielectric constant tensor:
#      x y z
#    x 1.662390 0.000000 0.000000 
#    y 0.000000 1.638540 0.000000 
#    z 0.000000 0.000000 1.675080 
# 
# From -- ./inp_files/38312.got.cif
#   From: 2010.05.17/outbox.cif.g08.bks.cpg/sg53_20_cif.got.tgz:38312.got - 2010.06.03 12:45:16.
