data_PCOD9416478
_publ_section_title
;
Structure prediction by ZEFSAII (Michael W. Deem and Ramdas Pophale) SiO2 
 PCOD9416478
Probable space group: P M N A
;
_chemical_formula_sum "Si O2"
_cell_formula_units_Z 44
_cell_length_a 13.713890
_cell_length_b 7.894259
_cell_length_c 20.057641
_cell_angle_alpha 90.000000
_cell_angle_beta 90.000000
_cell_angle_gamma 90.000000
_cell_volume 2171.460263
_symmetry_space_group_name_H-M "P M N A"
_symmetry_group_IT_number 53
_symmetry_cell_setting 'orthorhombic'
loop_
_space_group_symop_operation_xyz
x,y,z
1/2-x,-y,1/2+z
x,-y,-z
1/2-x,y,1/2-z
-x,-y,-z
1/2+x,y,1/2-z
-x,y,z
1/2+x,-y,1/2+z
loop_
_atom_site_type_symbol
_atom_site_label
_atom_site_fract_x
_atom_site_fract_y
_atom_site_fract_z
Si Si1 0.000000 0.720864 0.874462
Si Si2 0.799360 0.568627 0.318722
Si Si3 0.500000 0.971317 0.735996
Si Si4 0.500000 0.413500 0.228675
Si Si5 0.681607 0.956273 0.194005
Si Si6 0.297519 0.375265 0.440210
Si Si7 0.113605 0.139242 0.441643
O O1 0.000000 0.904056 0.838426
O O2 0.899379 0.706379 0.915319
O O3 0.000000 0.585610 0.811106
O O4 0.750000 0.519385 0.250000
O O5 0.785392 0.770302 0.327795
O O6 0.745896 0.476990 0.378187
O O7 0.908360 0.499888 0.307244
O O8 0.500000 0.792204 0.777135
O O9 0.590211 0.078619 0.758770
O O10 0.750000 0.045544 0.250000
O O11 0.649170 0.059945 0.129223
O O12 0.321966 0.500000 0.500000
O O13 0.203839 0.261181 0.460624
O O14 0.000000 0.204404 0.436014
O O15 0.109693 0.000000 0.500000
#
# Coordination Sequence:
#
# PCOD9416478 Si02
#       7
#     4   8   4   4   8   8   8
#     4  10  23  42  71  92 132 171 224 274 327 392
#     4  11  22  39  62  99 132 169 216 273 322 392
#     4  10  19  36  57  92 120 167 207 260 319 379
#     4  10  21  36  63  90 131 163 214 265 330 379
#     4  11  22  37  63  95 133 168 217 268 323 389
#     4  12  25  44  67  96 129 176 227 272 331 392
#     4  11  25  45  65  93 136 179 217 273 338 400
#
# _framework density 20.262861999999998
#
# number of rings (size 3 to 8) (size 9 to 14) (size 15 to 20)
#    0.545    0.545    2.727    4.091    1.273    1.818 
#    0.000    0.455    0.000    0.000    0.000    0.000 
#    0.000    0.000    0.000    0.000    0.000    0.000 
#
# Total GULP energy -245059.105156 kJ/mol
# GULP energy per Si atom -5569.525117 kJ/mol
# Density = 2.021674 g / cm^3
# Si number density = 20.262862 Si / 1000 Ang^3
#
#
#
# Elastic Constant Matrix: (Units=GPa)
#
#
# Indices 1 2 3 4 5 6 
#
# 1 97.0409 -8.2978 9.2213 0.0000 0.0000 0.0000
# 2 -8.2978 33.6331 -1.6293 0.0000 0.0000 0.0000
# 3 9.2213 -1.6293 59.7690 0.0000 0.0000 0.0000
# 4 0.0000 0.0000 0.0000 162.1958 0.0000 0.0000
# 5 0.0000 0.0000 0.0000 0.0000 25.9214 0.0000
# 6 0.0000 0.0000 0.0000 0.0000 0.0000 4.6117
#
#
#
# Elastic Compliance Matrix: (Units=1/GPa)
#
#
# Indices 1 2 3 4 5 6 
#
# 1 0.010673 0.002557 -0.001577 0.000000 0.000000 0.000000
# 2 0.002557 0.030384 0.000434 0.000000 0.000000 0.000000
# 3 -0.001577 0.000434 0.016986 0.000000 0.000000 0.000000
# 4 0.000000 0.000000 0.000000 0.006165 0.000000 0.000000
# 5 0.000000 0.000000 0.000000 0.000000 0.038578 0.000000
# 6 0.000000 0.000000 0.000000 0.000000 0.000000 0.216840
#
#
# Mechanical properties :
#
#
# Convention : Reuss Voigt Hill
#
# Bulk Modulus (GPa) = 16.42806 21.00349 18.71577
# Shear Modulus (GPa) = 14.83280 51.28903 33.06092
#
# Velocity S-wave (km/s) = 2.70852 5.03655 4.04369
# Velocity P-wave (km/s) = 4.23161 6.64909 5.57301
#
# Compressibility (1/GPa) = 0.06087148
#
# Stress axis : x y z
#
# Youngs Moduli (GPa) = 93.69063 32.91152 58.87131
#
# Poissons Ratio (x) = -0.08415 0.09284
# Poissons Ratio (y) = -0.23956 -0.02554
# Poissons Ratio (z) = 0.14775 -0.01428
#
# Static dielectric constant tensor:
#      x y z
#    x 1.781680 0.000000 0.000000 
#    y 0.000000 1.720170 0.000000 
#    z 0.000000 0.000000 1.697080 
# 
# From -- ./inp_files/28216.got.cif
#   From: 2010.05.17/outbox.cif.g08.bks.cpg/sg53_15_cif.got.tgz:28216.got - 2010.06.03 12:45:16.
