data_PCOD9416622
_publ_section_title
;
Structure prediction by ZEFSAII (Michael W. Deem and Ramdas Pophale) SiO2 
 PCOD9416622
Probable space group: P M N A
;
_chemical_formula_sum "Si O2"
_cell_formula_units_Z 52
_cell_length_a 14.387961
_cell_length_b 9.003498
_cell_length_c 19.087757
_cell_angle_alpha 90.000000
_cell_angle_beta 90.000000
_cell_angle_gamma 90.000000
_cell_volume 2472.665799
_symmetry_space_group_name_H-M "P M N A"
_symmetry_group_IT_number 53
_symmetry_cell_setting 'orthorhombic'
loop_
_space_group_symop_operation_xyz
x,y,z
1/2-x,-y,1/2+z
x,-y,-z
1/2-x,y,1/2-z
-x,-y,-z
1/2+x,y,1/2-z
-x,y,z
1/2+x,-y,1/2+z
loop_
_atom_site_type_symbol
_atom_site_label
_atom_site_fract_x
_atom_site_fract_y
_atom_site_fract_z
Si Si1 0.250000 0.546749 0.250000
Si Si2 0.896933 0.238408 0.742661
Si Si3 0.647143 0.906784 0.779382
Si Si4 0.396119 0.667396 0.671173
Si Si5 0.230142 0.500000 0.000000
Si Si6 0.774760 0.750662 0.589390
Si Si7 0.295127 0.000000 0.500000
Si Si8 0.890247 0.743500 0.087425
O O1 0.181457 0.657740 0.291222
O O2 0.177362 0.445477 0.207292
O O3 0.879158 0.241002 0.827642
O O4 0.000000 0.299898 0.732008
O O5 0.893252 0.070939 0.713581
O O6 0.750000 0.935507 0.750000
O O7 0.596356 0.808115 0.722021
O O8 0.663812 0.797557 0.844856
O O9 0.500000 0.609352 0.656493
O O10 0.335711 0.726625 0.606820
O O11 0.295131 0.398889 0.048859
O O12 0.167342 0.608911 0.050023
O O13 0.772491 0.891906 0.541163
O O14 0.355715 0.103514 0.551596
O O15 0.000000 0.722349 0.074358
#
# Coordination Sequence:
#
# PCOD9416622 Si02
#       8
#     4   8   8   8   4   8   4   8
#     4  12  22  36  56  86 130 154 192 240 298 364
#     4  11  23  37  59  90 123 159 199 253 312 363
#     4  10  19  38  60  83 119 160 202 255 303 350
#     4  11  22  38  62  91 123 162 200 247 308 367
#     4  10  21  34  54  80 121 166 204 232 293 372
#     4  10  21  39  57  85 122 159 202 251 300 364
#     4  10  21  32  56  84 117 162 208 238 291 360
#     4  10  20  33  51  82 122 160 198 240 289 361
#
# _framework density 21.029935999999999
#
# number of rings (size 3 to 8) (size 9 to 14) (size 15 to 20)
#    0.000    1.538    3.077    4.154    0.000    6.154 
#    0.000    0.000    0.000    0.000    0.000    4.308 
#    0.000    0.154    0.000    0.000    0.000    0.000 
#
# Total GULP energy -290056.998853 kJ/mol
# GULP energy per Si atom -5578.019209 kJ/mol
# Density = 2.098207 g / cm^3
# Si number density = 21.029936 Si / 1000 Ang^3
#
#
#
# Elastic Constant Matrix: (Units=GPa)
#
#
# Indices 1 2 3 4 5 6 
#
# 1 79.3644 10.4351 -1.9678 0.0000 0.0000 0.0000
# 2 10.4351 107.3878 7.0690 0.0000 0.0000 0.0000
# 3 -1.9678 7.0690 43.2481 0.0000 0.0000 0.0000
# 4 0.0000 0.0000 0.0000 34.1494 0.0000 0.0000
# 5 0.0000 0.0000 0.0000 0.0000 -4.1534 0.0000
# 6 0.0000 0.0000 0.0000 0.0000 0.0000 -10.6621
#
#
#
# Elastic Compliance Matrix: (Units=1/GPa)
#
#
# Indices 1 2 3 4 5 6 
#
# 1 0.012790 -0.001295 0.000794 0.000000 0.000000 0.000000
# 2 -0.001295 0.009544 -0.001619 0.000000 0.000000 0.000000
# 3 0.000794 -0.001619 0.023423 0.000000 0.000000 0.000000
# 4 0.000000 0.000000 0.000000 0.029283 0.000000 0.000000
# 5 0.000000 0.000000 0.000000 0.000000 -0.240765 0.000000
# 6 0.000000 0.000000 0.000000 0.000000 0.000000 -0.093790
#
#
# Mechanical properties :
#
#
# Convention : Reuss Voigt Hill
#
# Bulk Modulus (GPa) = 24.08663 29.00810 26.54737
# Shear Modulus (GPa) = -20.70955 18.16438 -1.27259
#
# Velocity S-wave (km/s) = -3.14150 2.94213 -0.77875
# Velocity P-wave (km/s) = 1.29628 5.03639 3.44128
#
# Compressibility (1/GPa) = 0.04151680
#
# Stress axis : x y z
#
# Youngs Moduli (GPa) = 78.18571 104.77281 42.69281
#
# Poissons Ratio (x) = 0.13569 -0.03388
# Poissons Ratio (y) = 0.10126 0.06912
# Poissons Ratio (z) = -0.06205 0.16963
#
# Static dielectric constant tensor:
#      x y z
#    x 2.091260 0.000000 0.000000 
#    y 0.000000 1.825150 0.000000 
#    z 0.000000 0.000000 1.855340 
# 
# From -- ./inp_files/32383.got.cif
#   From: 2010.05.17/outbox.cif.g08.bks.cpg/sg53_17_cif.got.tgz:32383.got - 2010.06.03 12:45:16.
