data_PCOD9416502
_publ_section_title
;
Structure prediction by ZEFSAII (Michael W. Deem and Ramdas Pophale) SiO2 
 PCOD9416502
Probable space group: P M N A
;
_chemical_formula_sum "Si O2"
_cell_formula_units_Z 52
_cell_length_a 8.768890
_cell_length_b 21.740431
_cell_length_c 14.256098
_cell_angle_alpha 90.000000
_cell_angle_beta 90.000000
_cell_angle_gamma 90.000000
_cell_volume 2717.774653
_symmetry_space_group_name_H-M "P M N A"
_symmetry_group_IT_number 53
_symmetry_cell_setting 'orthorhombic'
loop_
_space_group_symop_operation_xyz
x,y,z
1/2-x,-y,1/2+z
x,-y,-z
1/2-x,y,1/2-z
-x,-y,-z
1/2+x,y,1/2-z
-x,y,z
1/2+x,-y,1/2+z
loop_
_atom_site_type_symbol
_atom_site_label
_atom_site_fract_x
_atom_site_fract_y
_atom_site_fract_z
Si Si1 0.771050 0.000000 0.500000
Si Si2 0.817461 0.797076 0.502824
Si Si3 0.181132 0.661830 0.002096
Si Si4 0.814055 0.097304 0.644650
Si Si5 0.182548 0.429042 0.353575
Si Si6 0.317510 0.566987 0.146355
Si Si7 0.328038 0.894735 0.848684
O O1 0.719354 0.951364 0.419649
O O2 0.835826 0.949652 0.574499
O O3 0.741120 0.731204 0.496437
O O4 0.795140 0.838006 0.409157
O O5 0.760549 0.837553 0.592002
O O6 0.000000 0.789910 0.513713
O O7 0.245723 0.621507 0.087290
O O8 0.000000 0.661517 0.003249
O O9 0.243763 0.624903 0.912896
O O10 0.750000 0.097450 0.750000
O O11 0.000000 0.082771 0.641745
O O12 0.250000 0.426462 0.250000
O O13 0.217823 0.498024 0.390477
O O14 0.000000 0.422692 0.353093
O O15 0.250000 0.569706 0.250000
O O16 0.500000 0.573031 0.147341
O O17 0.250000 0.910841 0.750000
O O18 0.500000 0.878219 0.823416
#
# Coordination Sequence:
#
# PCOD9416502 Si02
#       7
#     4   8   8   8   8   8   8
#     4  10  19  36  59  86 117 148 181 216 271 340
#     4   9  21  40  56  74 108 152 191 229 278 336
#     4  12  24  37  58  85 114 151 193 238 285 338
#     4  10  20  36  59  83 111 147 184 226 276 330
#     4  10  21  38  60  86 116 149 187 234 287 343
#     4  10  21  38  60  86 116 149 187 234 287 343
#     4  10  20  36  59  83 111 147 184 226 276 330
#
# _framework density 19.133302
#
# number of rings (size 3 to 8) (size 9 to 14) (size 15 to 20)
#    0.000    1.846    0.000    5.538    0.000    6.154 
#    0.000    6.154    0.000    0.000    0.000    0.000 
#    0.000    0.000    0.000    0.000    0.000    0.000 
#
# Total GULP energy -289627.017003 kJ/mol
# GULP energy per Si atom -5569.750327 kJ/mol
# Density = 1.908975 g / cm^3
# Si number density = 19.133302 Si / 1000 Ang^3
#
#
#
# Elastic Constant Matrix: (Units=GPa)
#
#
# Indices 1 2 3 4 5 6 
#
# 1 62.4392 55.9926 41.2823 0.0000 0.0000 0.0000
# 2 55.9926 162.3759 64.6827 0.0000 0.0000 0.0000
# 3 41.2823 64.6827 154.8521 0.0000 0.0000 0.0000
# 4 0.0000 0.0000 0.0000 24.7210 0.0000 0.0000
# 5 0.0000 0.0000 0.0000 0.0000 19.9085 0.0000
# 6 0.0000 0.0000 0.0000 0.0000 0.0000 -56.8194
#
#
#
# Elastic Compliance Matrix: (Units=1/GPa)
#
#
# Indices 1 2 3 4 5 6 
#
# 1 0.024789 -0.007096 -0.003644 0.000000 0.000000 0.000000
# 2 -0.007096 0.009419 -0.002043 0.000000 0.000000 0.000000
# 3 -0.003644 -0.002043 0.008283 0.000000 0.000000 0.000000
# 4 0.000000 0.000000 0.000000 0.040451 0.000000 0.000000
# 5 0.000000 0.000000 0.000000 0.000000 0.050230 0.000000
# 6 0.000000 0.000000 0.000000 0.000000 0.000000 -0.017600
#
#
# Mechanical properties :
#
#
# Convention : Reuss Voigt Hill
#
# Bulk Modulus (GPa) = 59.08765 78.17583 68.63174
# Shear Modulus (GPa) = 34.06462 12.07598 23.07030
#
# Velocity S-wave (km/s) = 4.22404 2.51500 3.47618
# Velocity P-wave (km/s) = 7.39859 7.02715 7.21526
#
# Compressibility (1/GPa) = 0.01692401
#
# Stress axis : x y z
#
# Youngs Moduli (GPa) = 40.34103 106.16516 120.73555
#
# Poissons Ratio (x) = 0.75337 0.44000
# Poissons Ratio (y) = 0.28627 0.24663
# Poissons Ratio (z) = 0.14702 0.21686
#
# Static dielectric constant tensor:
#      x y z
#    x 1.664480 0.000000 0.000000 
#    y 0.000000 1.658230 0.000000 
#    z 0.000000 0.000000 1.643250 
# 
# From -- ./inp_files/20420.got.cif
#   From: 2010.05.17/outbox.cif.g08.bks.cpg/sg53_11_cif.got.tgz:20420.got - 2010.06.03 12:45:16.
