data_PCOD9416351
_publ_section_title
;
Structure prediction by ZEFSAII (Michael W. Deem and Ramdas Pophale) SiO2 
 PCOD9416351
Probable space group: P M N A
;
_chemical_formula_sum "Si O2"
_cell_formula_units_Z 64
_cell_length_a 8.988494
_cell_length_b 21.878339
_cell_length_c 19.172760
_cell_angle_alpha 90.000000
_cell_angle_beta 90.000000
_cell_angle_gamma 90.000000
_cell_volume 3770.386885
_symmetry_space_group_name_H-M "P M N A"
_symmetry_group_IT_number 53
_symmetry_cell_setting 'orthorhombic'
loop_
_space_group_symop_operation_xyz
x,y,z
1/2-x,-y,1/2+z
x,-y,-z
1/2-x,y,1/2-z
-x,-y,-z
1/2+x,y,1/2-z
-x,y,z
1/2+x,-y,1/2+z
loop_
_atom_site_type_symbol
_atom_site_label
_atom_site_fract_x
_atom_site_fract_y
_atom_site_fract_z
Si Si1 0.172090 0.025330 0.611999
Si Si2 0.325493 0.434496 0.537825
Si Si3 0.677179 0.138153 0.677462
Si Si4 0.821802 0.496342 0.823190
Si Si5 0.323139 0.679024 0.964450
Si Si6 0.172628 0.906279 0.537979
Si Si7 0.322647 0.203961 0.531839
Si Si8 0.178871 0.360642 0.174973
O O1 0.268075 0.069162 0.660615
O O2 0.173865 0.057918 0.536049
O O3 0.000000 0.024607 0.635537
O O4 0.220524 0.955743 0.596158
O O5 0.318497 0.500000 0.500000
O O6 0.500000 0.415326 0.535992
O O7 0.277003 0.450122 0.616203
O O8 0.227532 0.383688 0.501306
O O9 0.750000 0.158656 0.750000
O O10 0.500000 0.139127 0.683647
O O11 0.718207 0.178895 0.609365
O O12 0.750000 0.480596 0.750000
O O13 0.784349 0.567391 0.839163
O O14 0.000000 0.494291 0.818593
O O15 0.500000 0.682518 0.957977
O O16 0.247534 0.677805 0.888085
O O17 0.260423 0.734557 0.010398
O O18 0.273414 0.847828 0.523788
O O19 0.000000 0.889207 0.551297
O O20 0.500000 0.212387 0.530207
O O21 0.250000 0.345705 0.250000
O O22 0.000000 0.354919 0.176909
#
# Coordination Sequence:
#
# PCOD9416351 Si02
#       8
#     8   8   8   8   8   8   8   8
#     4   8  14  26  47  74 103 132 163 203 255 306
#     4  10  19  36  56  76 105 141 175 218 279 330
#     4  10  20  33  52  77 106 142 186 231 275 320
#     4   9  18  32  53  77 104 136 167 207 263 323
#     4  12  24  36  54  81 108 141 183 228 271 325
#     4   8  14  27  48  74 102 131 163 205 254 306
#     4  10  21  36  53  75 104 143 186 229 274 325
#     4  10  19  35  56  81 108 135 167 209 261 321
#
# _framework density 16.974385999999999
#
# number of rings (size 3 to 8) (size 9 to 14) (size 15 to 20)
#    0.000    2.375    1.250    3.000    0.000    3.250 
#    0.000    3.125    0.000    0.750    0.000    1.750 
#    0.000    0.000    0.000    0.000    0.000    0.000 
#
# Total GULP energy -356747.659277 kJ/mol
# GULP energy per Si atom -5574.182176 kJ/mol
# Density = 1.693575 g / cm^3
# Si number density = 16.974386 Si / 1000 Ang^3
#
#
#
# Elastic Constant Matrix: (Units=GPa)
#
#
# Indices 1 2 3 4 5 6 
#
# 1 73.1009 43.7908 51.6144 0.0000 0.0000 0.0000
# 2 43.7908 70.8336 45.7571 0.0000 0.0000 0.0000
# 3 51.6144 45.7571 107.1160 0.0000 0.0000 0.0000
# 4 0.0000 0.0000 0.0000 18.4119 0.0000 0.0000
# 5 0.0000 0.0000 0.0000 0.0000 20.7502 0.0000
# 6 0.0000 0.0000 0.0000 0.0000 0.0000 26.4241
#
#
#
# Elastic Compliance Matrix: (Units=1/GPa)
#
#
# Indices 1 2 3 4 5 6 
#
# 1 0.025633 -0.010867 -0.007709 0.000000 0.000000 0.000000
# 2 -0.010867 0.024105 -0.005061 0.000000 0.000000 0.000000
# 3 -0.007709 -0.005061 0.015212 0.000000 0.000000 0.000000
# 4 0.000000 0.000000 0.000000 0.054313 0.000000 0.000000
# 5 0.000000 0.000000 0.000000 0.000000 0.048192 0.000000
# 6 0.000000 0.000000 0.000000 0.000000 0.000000 0.037844
#
#
# Mechanical properties :
#
#
# Convention : Reuss Voigt Hill
#
# Bulk Modulus (GPa) = 56.57290 59.26389 57.91840
# Shear Modulus (GPa) = 19.34504 20.44312 19.89408
#
# Velocity S-wave (km/s) = 3.37955 3.47414 3.42717
# Velocity P-wave (km/s) = 6.97346 7.14719 7.06086
#
# Compressibility (1/GPa) = 0.01767631
#
# Stress axis : x y z
#
# Youngs Moduli (GPa) = 39.01280 41.48577 65.73643
#
# Poissons Ratio (x) = 0.45081 0.50678
# Poissons Ratio (y) = 0.42393 0.33268
# Poissons Ratio (z) = 0.30076 0.20995
#
# Static dielectric constant tensor:
#      x y z
#    x 1.564410 0.000000 0.000000 
#    y 0.000000 1.574640 0.000000 
#    z 0.000000 0.000000 1.588960 
# 
# From -- ./inp_files/31388.got.cif
#   From: 2010.05.17/outbox.cif.g08.bks.cpg/sg53_16_cif.got.tgz:31388.got - 2010.06.03 12:45:16.
