data_PCOD9416652
_publ_section_title
;
Structure prediction by ZEFSAII (Michael W. Deem and Ramdas Pophale) SiO2 
 PCOD9416652
Probable space group: P M N A
;
_chemical_formula_sum "Si O2"
_cell_formula_units_Z 48
_cell_length_a 14.975986
_cell_length_b 17.065150
_cell_length_c 9.712144
_cell_angle_alpha 90.000000
_cell_angle_beta 90.000000
_cell_angle_gamma 90.000000
_cell_volume 2482.107852
_symmetry_space_group_name_H-M "P M N A"
_symmetry_group_IT_number 53
_symmetry_cell_setting 'orthorhombic'
loop_
_space_group_symop_operation_xyz
x,y,z
1/2-x,-y,1/2+z
x,-y,-z
1/2-x,y,1/2-z
-x,-y,-z
1/2+x,y,1/2-z
-x,y,z
1/2+x,-y,1/2+z
loop_
_atom_site_type_symbol
_atom_site_label
_atom_site_fract_x
_atom_site_fract_y
_atom_site_fract_z
Si Si1 0.891884 0.589055 0.988549
Si Si2 0.727435 0.072591 0.912149
Si Si3 0.894040 0.285911 0.229673
Si Si4 0.145989 0.286887 0.781059
Si Si5 0.900322 0.154928 0.998727
Si Si6 0.897886 0.780860 0.487408
O O1 0.858864 0.639754 0.856907
O O2 0.000000 0.588166 0.979508
O O3 0.859925 0.500000 0.000000
O O4 0.868424 0.637428 0.125473
O O5 0.750000 0.058972 0.750000
O O6 0.821300 0.094201 0.983756
O O7 0.661770 0.146752 0.934163
O O8 0.689794 0.000000 0.000000
O O9 0.856801 0.259619 0.376757
O O10 0.000000 0.301197 0.252221
O O11 0.887618 0.210792 0.130226
O O12 0.250000 0.276003 0.750000
O O13 0.109021 0.214355 0.870066
O O14 0.100607 0.283227 0.633331
O O15 0.000000 0.121410 0.001375
O O16 0.000000 0.806846 0.515440
#
# Coordination Sequence:
#
# PCOD9416652 Si02
#       6
#     8   8   8   8   8   8
#     4   9  18  36  60  87 121 160 200 242 290 351
#     4  12  27  42  58  89 118 153 195 245 305 364
#     4   8  18  33  58  89 112 150 202 236 284 349
#     4  11  19  36  60  87 114 154 203 242 291 353
#     4  10  19  39  63  83 112 154 200 240 283 353
#     4  11  21  39  62  86 118 154 197 248 296 352
#
# _framework density 19.338401999999999
#
# number of rings (size 3 to 8) (size 9 to 14) (size 15 to 20)
#    0.000    1.833    3.333    2.500    2.333    0.667 
#    0.000    2.500    0.000    4.000    0.000    0.000 
#    0.000    0.000    0.000    0.000    0.000    0.000 
#
# Total GULP energy -267742.908186 kJ/mol
# GULP energy per Si atom -5577.977254 kJ/mol
# Density = 1.929439 g / cm^3
# Si number density = 19.338402 Si / 1000 Ang^3
#
#
#
# Elastic Constant Matrix: (Units=GPa)
#
#
# Indices 1 2 3 4 5 6 
#
# 1 61.0317 17.7380 5.4263 0.0000 0.0000 0.0000
# 2 17.7380 100.0244 53.1298 0.0000 0.0000 0.0000
# 3 5.4263 53.1298 154.9186 0.0000 0.0000 0.0000
# 4 0.0000 0.0000 0.0000 10.3168 0.0000 0.0000
# 5 0.0000 0.0000 0.0000 0.0000 -44.0455 0.0000
# 6 0.0000 0.0000 0.0000 0.0000 0.0000 17.9284
#
#
#
# Elastic Compliance Matrix: (Units=1/GPa)
#
#
# Indices 1 2 3 4 5 6 
#
# 1 0.017313 -0.003360 0.000546 0.000000 0.000000 0.000000
# 2 -0.003360 0.012877 -0.004298 0.000000 0.000000 0.000000
# 3 0.000546 -0.004298 0.007910 0.000000 0.000000 0.000000
# 4 0.000000 0.000000 0.000000 0.096929 0.000000 0.000000
# 5 0.000000 0.000000 0.000000 0.000000 -0.022704 0.000000
# 6 0.000000 0.000000 0.000000 0.000000 0.000000 0.055778
#
#
# Mechanical properties :
#
#
# Convention : Reuss Voigt Hill
#
# Bulk Modulus (GPa) = 41.88592 52.06254 46.97423
# Shear Modulus (GPa) = 26.27624 12.81865 19.54745
#
# Velocity S-wave (km/s) = 3.69013 2.57740 3.18277
# Velocity P-wave (km/s) = 6.31368 5.98645 6.15224
#
# Compressibility (1/GPa) = 0.02387437
#
# Stress axis : x y z
#
# Youngs Moduli (GPa) = 57.76009 77.66016 126.42188
#
# Poissons Ratio (x) = 0.26096 -0.06903
# Poissons Ratio (y) = 0.19409 0.54341
# Poissons Ratio (z) = -0.03154 0.33381
#
# Static dielectric constant tensor:
#      x y z
#    x 1.683410 0.000000 0.000000 
#    y 0.000000 1.657450 0.000000 
#    z 0.000000 0.000000 1.699150 
# 
# From -- ./inp_files/8622.got.cif
#   From: 2010.05.17/outbox.cif.g08.bks.cpg/sg53_5_cif.got.tgz:8622.got - 2010.06.03 12:45:16.
