data_PCOD9416939
_publ_section_title
;
Structure prediction by ZEFSAII (Michael W. Deem and Ramdas Pophale) SiO2 
 PCOD9416939
Probable space group: P M N A
;
_chemical_formula_sum "Si O2"
_cell_formula_units_Z 48
_cell_length_a 7.927869
_cell_length_b 10.306080
_cell_length_c 29.828605
_cell_angle_alpha 90.000000
_cell_angle_beta 90.000000
_cell_angle_gamma 90.000000
_cell_volume 2437.153693
_symmetry_space_group_name_H-M "P M N A"
_symmetry_group_IT_number 53
_symmetry_cell_setting 'orthorhombic'
loop_
_space_group_symop_operation_xyz
x,y,z
1/2-x,-y,1/2+z
x,-y,-z
1/2-x,y,1/2-z
-x,-y,-z
1/2+x,y,1/2-z
-x,y,z
1/2+x,-y,1/2+z
loop_
_atom_site_type_symbol
_atom_site_label
_atom_site_fract_x
_atom_site_fract_y
_atom_site_fract_z
Si Si1 0.794456 0.882852 0.032753
Si Si2 0.798835 0.781162 0.301398
Si Si3 0.793325 0.365879 0.022302
Si Si4 0.202878 0.286643 0.121896
Si Si5 0.701733 0.009114 0.626524
Si Si6 0.201124 0.509928 0.698355
O O1 0.732409 0.918379 0.082102
O O2 0.000000 0.876614 0.034390
O O3 0.737343 0.750490 0.010012
O O4 0.749828 0.000000 0.000000
O O5 0.750000 0.803150 0.250000
O O6 0.734768 0.897635 0.331878
O O7 0.733724 0.635746 0.313262
O O8 0.000000 0.778817 0.305266
O O9 0.737546 0.340117 0.073471
O O10 0.000000 0.365691 0.023162
O O11 0.739053 0.500000 0.000000
O O12 0.243411 0.382951 0.162617
O O13 0.000000 0.280342 0.119066
O O14 0.265924 0.139006 0.129625
O O15 0.500000 0.998137 0.621275
O O16 0.250000 0.538544 0.750000
O O17 0.000000 0.504850 0.697018
#
# Coordination Sequence:
#
# PCOD9416939 Si02
#       6
#     8   8   8   8   8   8
#     4   9  15  28  48  74 111 147 180 221 264 309
#     4  10  22  40  60  82 108 139 181 228 276 332
#     4   9  17  28  46  78 113 145 183 225 266 312
#     4  10  20  34  54  84 117 146 183 226 271 324
#     4  10  20  33  55  85 114 147 184 224 272 323
#     4  10  22  40  60  81 107 141 181 226 278 331
#
# _framework density 19.695105000000002
#
# number of rings (size 3 to 8) (size 9 to 14) (size 15 to 20)
#    0.000    2.333    1.667    1.000    2.333    3.333 
#    0.000    0.000    0.000    2.000    0.000    0.000 
#    0.000    0.000    0.000    0.000    0.000    0.000 
#
# Total GULP energy -267836.053839 kJ/mol
# GULP energy per Si atom -5579.917788 kJ/mol
# Density = 1.965028 g / cm^3
# Si number density = 19.695105 Si / 1000 Ang^3
#
#
#
# Elastic Constant Matrix: (Units=GPa)
#
#
# Indices 1 2 3 4 5 6 
#
# 1 19.5058 9.8186 3.9662 0.0000 0.0000 0.0000
# 2 9.8186 222.8198 135.7645 0.0000 0.0000 0.0000
# 3 3.9662 135.7645 152.1187 0.0000 0.0000 0.0000
# 4 0.0000 0.0000 0.0000 39.5353 0.0000 0.0000
# 5 0.0000 0.0000 0.0000 0.0000 12.1503 0.0000
# 6 0.0000 0.0000 0.0000 0.0000 0.0000 16.0070
#
#
#
# Elastic Compliance Matrix: (Units=1/GPa)
#
#
# Indices 1 2 3 4 5 6 
#
# 1 0.052591 -0.003248 0.001528 0.000000 0.000000 0.000000
# 2 -0.003248 0.010038 -0.008874 0.000000 0.000000 0.000000
# 3 0.001528 -0.008874 0.014454 0.000000 0.000000 0.000000
# 4 0.000000 0.000000 0.000000 0.025294 0.000000 0.000000
# 5 0.000000 0.000000 0.000000 0.000000 0.082303 0.000000
# 6 0.000000 0.000000 0.000000 0.000000 0.000000 0.062473
#
#
# Mechanical properties :
#
#
# Convention : Reuss Voigt Hill
#
# Bulk Modulus (GPa) = 17.89100 77.06033 47.47567
# Shear Modulus (GPa) = 17.42320 29.86484 23.64402
#
# Velocity S-wave (km/s) = 2.97753 3.89827 3.46859
# Velocity P-wave (km/s) = 4.57434 7.71191 6.34028
#
# Compressibility (1/GPa) = 0.05589402
#
# Stress axis : x y z
#
# Youngs Moduli (GPa) = 19.01461 99.61943 69.18399
#
# Poissons Ratio (x) = 0.32361 -0.10571
# Poissons Ratio (y) = 0.06177 0.61396
# Poissons Ratio (z) = -0.02905 0.88405
#
# Static dielectric constant tensor:
#      x y z
#    x 1.724990 0.000000 0.000000 
#    y 0.000000 1.706090 0.000000 
#    z 0.000000 0.000000 2.201540 
# 
# From -- ./inp_files/37726.got.cif
#   From: 2010.05.17/outbox.cif.g08.bks.cpg/sg53_19_cif.got.tgz:37726.got - 2010.06.03 12:45:16.
