data_PCOD9416278
_publ_section_title
;
Structure prediction by ZEFSAII (Michael W. Deem and Ramdas Pophale) SiO2 
 PCOD9416278
Probable space group: P M N A
;
_chemical_formula_sum "Si O2"
_cell_formula_units_Z 40
_cell_length_a 19.431778
_cell_length_b 8.953388
_cell_length_c 9.139870
_cell_angle_alpha 90.000000
_cell_angle_beta 90.000000
_cell_angle_gamma 90.000000
_cell_volume 1590.156849
_symmetry_space_group_name_H-M "P M N A"
_symmetry_group_IT_number 53
_symmetry_cell_setting 'orthorhombic'
loop_
_space_group_symop_operation_xyz
x,y,z
1/2-x,-y,1/2+z
x,-y,-z
1/2-x,y,1/2-z
-x,-y,-z
1/2+x,y,1/2-z
-x,y,z
1/2+x,-y,1/2+z
loop_
_atom_site_type_symbol
_atom_site_label
_atom_site_fract_x
_atom_site_fract_y
_atom_site_fract_z
Si Si1 0.078868 0.965973 0.276369
Si Si2 0.181965 0.453780 0.682199
Si Si3 0.421052 0.303725 0.587599
Si Si4 0.211454 0.141443 0.596179
Si Si5 0.419427 0.309524 0.243502
O O1 0.082137 0.873155 0.124641
O O2 0.130092 0.884497 0.384852
O O3 0.000000 0.958995 0.324446
O O4 0.100885 0.136724 0.267747
O O5 0.250000 0.527619 0.750000
O O6 0.137475 0.370537 0.809087
O O7 0.213346 0.322568 0.577468
O O8 0.126886 0.582058 0.646683
O O9 0.500000 0.349284 0.628342
O O10 0.411618 0.340547 0.417860
O O11 0.250000 0.119774 0.750000
O O12 0.236532 0.000000 0.500000
O O13 0.500000 0.323116 0.206935
#
# Coordination Sequence:
#
# PCOD9416278 Si02
#       5
#     8   8   8   8   8
#     4   9  19  35  58  90 122 157 204 254 309 379
#     4  10  21  35  52  83 122 159 203 255 318 384
#     4   9  17  33  59  87 118 159 208 260 309 363
#     4  10  23  43  65  88 119 163 213 267 325 386
#     4  10  19  34  58  90 126 162 203 255 313 373
#
# _framework density 25.154752999999999
#
# number of rings (size 3 to 8) (size 9 to 14) (size 15 to 20)
#    0.000    2.400    0.000    1.800    0.000   10.800 
#    0.000    5.000    0.000    2.400    0.000    0.000 
#    0.000    0.000    0.000    0.000    0.000    0.000 
#
# Total GULP energy -223223.007241 kJ/mol
# GULP energy per Si atom -5580.575181 kJ/mol
# Density = 2.509750 g / cm^3
# Si number density = 25.154753 Si / 1000 Ang^3
#
#
#
# Elastic Constant Matrix: (Units=GPa)
#
#
# Indices 1 2 3 4 5 6 
#
# 1 79.4908 28.1207 15.4302 0.0000 0.0000 0.0000
# 2 28.1207 148.2952 22.1365 0.0000 0.0000 0.0000
# 3 15.4302 22.1365 78.8278 0.0000 0.0000 0.0000
# 4 0.0000 0.0000 0.0000 43.1115 0.0000 0.0000
# 5 0.0000 0.0000 0.0000 0.0000 26.2588 0.0000
# 6 0.0000 0.0000 0.0000 0.0000 0.0000 32.4906
#
#
#
# Elastic Compliance Matrix: (Units=1/GPa)
#
#
# Indices 1 2 3 4 5 6 
#
# 1 0.013795 -0.002310 -0.002052 0.000000 0.000000 0.000000
# 2 -0.002310 0.007425 -0.001633 0.000000 0.000000 0.000000
# 3 -0.002052 -0.001633 0.013546 0.000000 0.000000 0.000000
# 4 0.000000 0.000000 0.000000 0.023196 0.000000 0.000000
# 5 0.000000 0.000000 0.000000 0.000000 0.038083 0.000000
# 6 0.000000 0.000000 0.000000 0.000000 0.000000 0.030778
#
#
# Mechanical properties :
#
#
# Convention : Reuss Voigt Hill
#
# Bulk Modulus (GPa) = 43.90278 48.66541 46.28410
# Shear Modulus (GPa) = 34.15198 36.43393 35.29295
#
# Velocity S-wave (km/s) = 3.68866 3.80990 3.74977
# Velocity P-wave (km/s) = 5.96930 6.22432 6.09815
#
# Compressibility (1/GPa) = 0.02277760
#
# Stress axis : x y z
#
# Youngs Moduli (GPa) = 72.48775 134.67920 73.82203
#
# Poissons Ratio (x) = 0.31107 0.15147
# Poissons Ratio (y) = 0.16743 0.12055
# Poissons Ratio (z) = 0.14873 0.21993
#
# Static dielectric constant tensor:
#      x y z
#    x 1.923300 0.000000 0.000000 
#    y 0.000000 2.083720 0.000000 
#    z 0.000000 0.000000 2.061740 
# 
# From -- ./inp_files/17658.got.cif
#   From: 2010.05.17/outbox.cif.g08.bks.cpg/sg53_9_cif.got.tgz:17658.got - 2010.06.03 12:45:16.
