data_PCOD9416323
_publ_section_title
;
Structure prediction by ZEFSAII (Michael W. Deem and Ramdas Pophale) SiO2 
 PCOD9416323
Probable space group: P M N A
;
_chemical_formula_sum "Si O2"
_cell_formula_units_Z 56
_cell_length_a 8.322043
_cell_length_b 15.241320
_cell_length_c 23.189696
_cell_angle_alpha 90.000000
_cell_angle_beta 90.000000
_cell_angle_gamma 90.000000
_cell_volume 2941.356005
_symmetry_space_group_name_H-M "P M N A"
_symmetry_group_IT_number 53
_symmetry_cell_setting 'orthorhombic'
loop_
_space_group_symop_operation_xyz
x,y,z
1/2-x,-y,1/2+z
x,-y,-z
1/2-x,y,1/2-z
-x,-y,-z
1/2+x,y,1/2-z
-x,y,z
1/2+x,-y,1/2+z
loop_
_atom_site_type_symbol
_atom_site_label
_atom_site_fract_x
_atom_site_fract_y
_atom_site_fract_z
Si Si1 0.306447 0.703845 0.914499
Si Si2 0.805449 0.196773 0.812560
Si Si3 0.692819 0.402597 0.975048
Si Si4 0.806312 0.113392 0.052960
Si Si5 0.195840 0.915912 0.077128
Si Si6 0.810887 0.389059 0.846468
Si Si7 0.309326 0.579278 0.812353
O O1 0.500000 0.698605 0.914384
O O2 0.252705 0.664694 0.975864
O O3 0.255414 0.804286 0.911368
O O4 0.244837 0.641037 0.863566
O O5 0.750000 0.164223 0.750000
O O6 0.749826 0.139095 0.867401
O O7 0.748324 0.297384 0.820859
O O8 0.000000 0.197268 0.813870
O O9 0.500000 0.394591 0.965762
O O10 0.720893 0.500000 0.000000
O O11 0.779394 0.387916 0.914853
O O12 0.000000 0.114609 0.052741
O O13 0.756209 0.018344 0.077107
O O14 0.752853 0.120047 0.985746
O O15 0.000000 0.913592 0.077277
O O16 0.734646 0.477902 0.822608
O O17 0.000000 0.393794 0.834771
O O18 0.250000 0.607809 0.750000
O O19 0.500000 0.585497 0.813761
#
# Coordination Sequence:
#
# PCOD9416323 Si02
#       7
#     8   8   8   8   8   8   8
#     4  10  21  36  54  78 111 143 173 218 272 319
#     4  10  21  36  53  77 110 143 180 221 267 321
#     4  10  19  35  54  76 109 148 177 212 274 326
#     4   9  17  33  60  84 104 136 176 218 271 326
#     4   8  16  34  57  81 108 137 171 219 271 320
#     4  11  22  35  55  83 109 140 183 229 268 316
#     4  11  23  40  56  73 104 146 186 224 267 318
#
# _framework density 19.038837000000001
#
# number of rings (size 3 to 8) (size 9 to 14) (size 15 to 20)
#    0.000    2.143    1.429    3.000    0.000    5.429 
#    0.000    3.571    0.000    3.429    0.000    0.000 
#    0.000    0.000    0.000    0.000    0.000    0.000 
#
# Total GULP energy -312625.949187 kJ/mol
# GULP energy per Si atom -5582.606235 kJ/mol
# Density = 1.899550 g / cm^3
# Si number density = 19.038837 Si / 1000 Ang^3
#
#
#
# Elastic Constant Matrix: (Units=GPa)
#
#
# Indices 1 2 3 4 5 6 
#
# 1 6.9866 5.1544 3.8984 0.0000 0.0000 0.0000
# 2 5.1544 106.5235 43.5133 0.0000 0.0000 0.0000
# 3 3.8984 43.5133 95.0243 0.0000 0.0000 0.0000
# 4 0.0000 0.0000 0.0000 14.1550 0.0000 0.0000
# 5 0.0000 0.0000 0.0000 0.0000 29.0840 0.0000
# 6 0.0000 0.0000 0.0000 0.0000 0.0000 20.7618
#
#
#
# Elastic Compliance Matrix: (Units=1/GPa)
#
#
# Indices 1 2 3 4 5 6 
#
# 1 0.149352 -0.005811 -0.003466 0.000000 0.000000 0.000000
# 2 -0.005811 0.011774 -0.005153 0.000000 0.000000 0.000000
# 3 -0.003466 -0.005153 0.013025 0.000000 0.000000 0.000000
# 4 0.000000 0.000000 0.000000 0.070646 0.000000 0.000000
# 5 0.000000 0.000000 0.000000 0.000000 0.034383 0.000000
# 6 0.000000 0.000000 0.000000 0.000000 0.000000 0.048165
#
#
# Mechanical properties :
#
#
# Convention : Reuss Voigt Hill
#
# Bulk Modulus (GPa) = 6.88274 34.85185 20.86729
# Shear Modulus (GPa) = 12.35676 23.19805 17.77740
#
# Velocity S-wave (km/s) = 2.55037 3.49443 3.05904
# Velocity P-wave (km/s) = 3.50649 5.88445 4.84367
#
# Compressibility (1/GPa) = 0.14529101
#
# Stress axis : x y z
#
# Youngs Moduli (GPa) = 6.69559 84.93503 76.77258
#
# Poissons Ratio (x) = 0.49355 0.26611
# Poissons Ratio (y) = 0.03891 0.39561
# Poissons Ratio (z) = 0.02321 0.43767
#
# Static dielectric constant tensor:
#      x y z
#    x 1.660460 0.000000 0.000000 
#    y 0.000000 1.664590 0.000000 
#    z 0.000000 0.000000 1.655670 
# 
# From -- ./inp_files/30872.got.cif
#   From: 2010.05.17/outbox.cif.g08.bks.cpg/sg53_16_cif.got.tgz:30872.got - 2010.06.03 12:45:16.
