data_PCOD9416431
_publ_section_title
;
Structure prediction by ZEFSAII (Michael W. Deem and Ramdas Pophale) SiO2 
 PCOD9416431
Probable space group: P M N A
;
_chemical_formula_sum "Si O2"
_cell_formula_units_Z 58
_cell_length_a 24.769481
_cell_length_b 13.843182
_cell_length_c 9.631395
_cell_angle_alpha 90.000000
_cell_angle_beta 90.000000
_cell_angle_gamma 90.000000
_cell_volume 3302.493944
_symmetry_space_group_name_H-M "P M N A"
_symmetry_group_IT_number 53
_symmetry_cell_setting 'orthorhombic'
loop_
_space_group_symop_operation_xyz
x,y,z
1/2-x,-y,1/2+z
x,-y,-z
1/2-x,y,1/2-z
-x,-y,-z
1/2+x,y,1/2-z
-x,y,z
1/2+x,-y,1/2+z
loop_
_atom_site_type_symbol
_atom_site_label
_atom_site_fract_x
_atom_site_fract_y
_atom_site_fract_z
Si Si1 0.357660 0.140270 0.284945
Si Si2 0.938390 0.787182 0.004948
Si Si3 0.062677 0.571601 0.125765
Si Si4 0.626775 0.914972 0.286999
Si Si5 0.390226 0.586997 0.078765
Si Si6 0.770740 0.889703 0.014579
Si Si7 0.000000 0.500000 0.500000
Si Si8 0.159385 0.204116 0.529148
O O1 0.399243 0.203113 0.374120
O O2 0.301864 0.136957 0.372512
O O3 0.351480 0.177726 0.130255
O O4 0.378382 0.029822 0.283132
O O5 0.934770 0.680864 0.071339
O O6 0.918230 0.864193 0.118693
O O7 0.000000 0.805095 0.965399
O O8 0.099830 0.562146 0.259963
O O9 0.000000 0.550097 0.169009
O O10 0.075851 0.500000 0.000000
O O11 0.683249 0.893434 0.367441
O O12 0.629594 0.867466 0.136297
O O13 0.360119 0.500000 0.000000
O O14 0.450933 0.581888 0.013699
O O15 0.360925 0.688391 0.060927
O O16 0.722992 0.816944 0.048908
O O17 0.748818 0.000000 0.000000
#
# Coordination Sequence:
#
# PCOD9416431 Si02
#       8
#     8   8   8   8   8   8   2   8
#     4  10  22  36  55  89 121 158 197 233 284 349
#     4  10  21  37  57  80 117 157 194 239 293 346
#     4  10  19  35  60  83 103 140 196 244 283 337
#     4  10  20  37  59  85 118 157 200 236 288 346
#     4  10  21  38  59  82 115 145 185 239 299 344
#     4   9  19  37  61  86 118 158 198 240 284 340
#     4   8  20  40  62  76 118 150 188 236 304 350
#     4  12  21  34  60  90 116 146 195 249 293 340
#
# _framework density 17.562486
#
# number of rings (size 3 to 8) (size 9 to 14) (size 15 to 20)
#    0.414    1.517    2.069    3.310    1.931    3.310 
#    3.724    0.000    0.000    8.276    0.000    0.000 
#    0.000    0.000    0.000    0.000    0.000    0.000 
#
# Total GULP energy -323011.903197 kJ/mol
# GULP energy per Si atom -5569.170745 kJ/mol
# Density = 1.752251 g / cm^3
# Si number density = 17.562486 Si / 1000 Ang^3
#
#
#
# Elastic Constant Matrix: (Units=GPa)
#
#
# Indices 1 2 3 4 5 6 
#
# 1 54.5019 28.9225 8.9953 0.0000 0.0000 0.0000
# 2 28.9225 79.8106 22.2593 0.0000 0.0000 0.0000
# 3 8.9953 22.2593 106.5353 0.0000 0.0000 0.0000
# 4 0.0000 0.0000 0.0000 28.8453 0.0000 0.0000
# 5 0.0000 0.0000 0.0000 0.0000 12.9131 0.0000
# 6 0.0000 0.0000 0.0000 0.0000 0.0000 33.9349
#
#
#
# Elastic Compliance Matrix: (Units=1/GPa)
#
#
# Indices 1 2 3 4 5 6 
#
# 1 0.022721 -0.008175 -0.000210 0.000000 0.000000 0.000000
# 2 -0.008175 0.016246 -0.002704 0.000000 0.000000 0.000000
# 3 -0.000210 -0.002704 0.009969 0.000000 0.000000 0.000000
# 4 0.000000 0.000000 0.000000 0.034668 0.000000 0.000000
# 5 0.000000 0.000000 0.000000 0.000000 0.077441 0.000000
# 6 0.000000 0.000000 0.000000 0.000000 0.000000 0.029468
#
#
# Mechanical properties :
#
#
# Convention : Reuss Voigt Hill
#
# Bulk Modulus (GPa) = 37.37296 40.13355 38.75325
# Shear Modulus (GPa) = 22.56193 27.18336 24.87265
#
# Velocity S-wave (km/s) = 3.58811 3.93849 3.76738
# Velocity P-wave (km/s) = 6.20421 6.60180 6.40609
#
# Compressibility (1/GPa) = 0.02675732
#
# Stress axis : x y z
#
# Youngs Moduli (GPa) = 44.01206 61.55180 100.30755
#
# Poissons Ratio (x) = 0.50320 0.02110
# Poissons Ratio (y) = 0.35981 0.27126
# Poissons Ratio (z) = 0.00926 0.16645
#
# Static dielectric constant tensor:
#      x y z
#    x 1.593980 0.000000 0.000000 
#    y 0.000000 1.585210 0.000000 
#    z 0.000000 0.000000 1.627170 
# 
# From -- ./inp_files/11897.got.cif
#   From: 2010.05.17/outbox.cif.g08.bks.cpg/sg53_6_cif.got.tgz:11897.got - 2010.06.03 12:45:16.
