data_PCOD9416358
_publ_section_title
;
Structure prediction by ZEFSAII (Michael W. Deem and Ramdas Pophale) SiO2 
 PCOD9416358
Probable space group: P M N A
;
_chemical_formula_sum "Si O2"
_cell_formula_units_Z 64
_cell_length_a 7.593575
_cell_length_b 24.510784
_cell_length_c 15.517725
_cell_angle_alpha 90.000000
_cell_angle_beta 90.000000
_cell_angle_gamma 90.000000
_cell_volume 2888.228444
_symmetry_space_group_name_H-M "P M N A"
_symmetry_group_IT_number 53
_symmetry_cell_setting 'orthorhombic'
loop_
_space_group_symop_operation_xyz
x,y,z
1/2-x,-y,1/2+z
x,-y,-z
1/2-x,y,1/2-z
-x,-y,-z
1/2+x,y,1/2-z
-x,y,z
1/2+x,-y,1/2+z
loop_
_atom_site_type_symbol
_atom_site_label
_atom_site_fract_x
_atom_site_fract_y
_atom_site_fract_z
Si Si1 0.285052 0.127336 0.116655
Si Si2 0.704845 0.704450 0.476579
Si Si3 0.790605 0.753652 0.657288
Si Si4 0.705757 0.901155 0.069448
Si Si5 0.789129 0.006766 0.344731
Si Si6 0.708843 0.205714 0.654665
Si Si7 0.710860 0.512185 0.646974
Si Si8 0.784125 0.417615 0.984036
O O1 0.500000 0.127950 0.123722
O O2 0.221675 0.183733 0.156782
O O3 0.221611 0.068677 0.150387
O O4 0.226800 0.126363 0.017308
O O5 0.500000 0.700353 0.451150
O O6 0.714748 0.722787 0.575521
O O7 0.781739 0.752186 0.416437
O O8 0.779783 0.643781 0.468970
O O9 0.750000 0.728659 0.750000
O O10 0.000000 0.755047 0.645337
O O11 0.500000 0.911237 0.052769
O O12 0.781753 0.960385 0.091398
O O13 0.719820 0.855424 0.141979
O O14 0.750000 0.985317 0.250000
O O15 0.000000 0.010189 0.357130
O O16 0.750000 0.225952 0.750000
O O17 0.500000 0.200866 0.643646
O O18 0.750000 0.515642 0.750000
O O19 0.500000 0.512624 0.643325
O O20 0.770493 0.559236 0.578635
O O21 0.768965 0.457488 0.594848
O O22 0.000000 0.417435 0.985185
#
# Coordination Sequence:
#
# PCOD9416358 Si02
#       8
#     8   8   8   8   8   8   8   8
#     4   9  18  34  55  77 101 136 177 221 275 333
#     4  10  21  39  59  81 111 148 192 235 273 320
#     4  11  22  37  58  82 111 146 186 230 281 334
#     4  10  19  35  57  77 102 135 178 226 275 333
#     4  10  20  33  51  75 102 133 172 219 273 334
#     4  11  23  37  56  80 109 145 185 229 279 332
#     4   9  17  33  58  85 114 149 185 223 270 322
#     4   8  17  35  57  80 112 152 186 221 272 326
#
# _framework density 22.158912999999998
#
# number of rings (size 3 to 8) (size 9 to 14) (size 15 to 20)
#    0.000    2.250    1.250    2.625    0.000    4.500 
#    0.000    5.000    0.000    1.500    0.000    0.000 
#    0.000    0.000    0.000    0.000    0.000    0.000 
#
# Total GULP energy -357036.790744 kJ/mol
# GULP energy per Si atom -5578.699855 kJ/mol
# Density = 2.210848 g / cm^3
# Si number density = 22.158913 Si / 1000 Ang^3
#
#
#
# Elastic Constant Matrix: (Units=GPa)
#
#
# Indices 1 2 3 4 5 6 
#
# 1 48.0772 -2.1698 -15.4247 0.0000 0.0000 0.0000
# 2 -2.1698 90.6705 9.0907 0.0000 0.0000 0.0000
# 3 -15.4247 9.0907 106.6533 0.0000 0.0000 0.0000
# 4 0.0000 0.0000 0.0000 3.4994 0.0000 0.0000
# 5 0.0000 0.0000 0.0000 0.0000 22.9437 0.0000
# 6 0.0000 0.0000 0.0000 0.0000 0.0000 0.5468
#
#
#
# Elastic Compliance Matrix: (Units=1/GPa)
#
#
# Indices 1 2 3 4 5 6 
#
# 1 0.021816 0.000208 0.003137 0.000000 0.000000 0.000000
# 2 0.000208 0.011126 -0.000918 0.000000 0.000000 0.000000
# 3 0.003137 -0.000918 0.009908 0.000000 0.000000 0.000000
# 4 0.000000 0.000000 0.000000 0.285764 0.000000 0.000000
# 5 0.000000 0.000000 0.000000 0.000000 0.043585 0.000000
# 6 0.000000 0.000000 0.000000 0.000000 0.000000 1.828659
#
#
# Mechanical properties :
#
#
# Convention : Reuss Voigt Hill
#
# Bulk Modulus (GPa) = 20.96293 25.37703 23.16998
# Shear Modulus (GPa) = 2.26049 22.32496 12.29273
#
# Velocity S-wave (km/s) = 1.01111 3.17755 2.35788
# Velocity P-wave (km/s) = 3.29301 4.99395 4.22986
#
# Compressibility (1/GPa) = 0.04770324
#
# Stress axis : x y z
#
# Youngs Moduli (GPa) = 45.83824 89.87966 100.92652
#
# Poissons Ratio (x) = -0.01865 -0.31665
# Poissons Ratio (y) = -0.00951 0.09268
# Poissons Ratio (z) = -0.14381 0.08254
#
# Static dielectric constant tensor:
#      x y z
#    x 1.847750 0.000000 0.000000 
#    y 0.000000 1.819060 0.000000 
#    z 0.000000 0.000000 1.838960 
# 
# From -- ./inp_files/20814.got.cif
#   From: 2010.05.17/outbox.cif.g08.bks.cpg/sg53_11_cif.got.tgz:20814.got - 2010.06.03 12:45:16.
