data_PCOD9416703
_publ_section_title
;
Structure prediction by ZEFSAII (Michael W. Deem and Ramdas Pophale) SiO2 
 PCOD9416703
Probable space group: P M N A
;
_chemical_formula_sum "Si O2"
_cell_formula_units_Z 40
_cell_length_a 10.729996
_cell_length_b 13.052530
_cell_length_c 16.034842
_cell_angle_alpha 90.000000
_cell_angle_beta 90.000000
_cell_angle_gamma 90.000000
_cell_volume 2245.737262
_symmetry_space_group_name_H-M "P M N A"
_symmetry_group_IT_number 53
_symmetry_cell_setting 'orthorhombic'
loop_
_space_group_symop_operation_xyz
x,y,z
1/2-x,-y,1/2+z
x,-y,-z
1/2-x,y,1/2-z
-x,-y,-z
1/2+x,y,1/2-z
-x,y,z
1/2+x,-y,1/2+z
loop_
_atom_site_type_symbol
_atom_site_label
_atom_site_fract_x
_atom_site_fract_y
_atom_site_fract_z
Si Si1 0.862521 0.250148 0.950382
Si Si2 0.740710 0.078124 0.430918
Si Si3 0.856694 0.751596 0.678989
Si Si4 0.359660 0.378766 0.014425
Si Si5 0.134657 0.914884 0.189717
O O1 0.748815 0.327072 0.960938
O O2 0.859797 0.189008 0.863808
O O3 0.000000 0.296160 0.961751
O O4 0.838754 0.162568 0.019620
O O5 0.833871 0.143138 0.373045
O O6 0.797446 0.000000 0.500000
O O7 0.652917 0.008622 0.373864
O O8 0.750000 0.745402 0.750000
O O9 0.842227 0.660812 0.609911
O O10 0.000000 0.749145 0.710533
O O11 0.500000 0.343697 0.990928
O O12 0.354520 0.500000 0.000000
O O13 0.250000 0.918672 0.250000
O O14 0.000000 0.922270 0.231662
#
# Coordination Sequence:
#
# PCOD9416703 Si02
#       5
#     8   8   8   8   8
#     4   9  18  33  52  74  99 128 166 209 251 297
#     4   9  18  32  51  74 102 137 174 210 248 295
#     4  10  21  35  53  79 108 137 170 213 263 310
#     4   9  19  37  58  77  99 130 168 210 259 311
#     4  10  20  32  47  70 101 136 170 203 244 293
#
# _framework density 17.811522
#
# number of rings (size 3 to 8) (size 9 to 14) (size 15 to 20)
#    0.000    2.600    0.000    1.200    0.000   10.400 
#    0.000    5.000    0.000    4.800    0.000    0.000 
#    0.000    0.000    0.000    0.000    0.000    0.000 
#
# Total GULP energy -222850.055025 kJ/mol
# GULP energy per Si atom -5571.251376 kJ/mol
# Density = 1.777098 g / cm^3
# Si number density = 17.811522 Si / 1000 Ang^3
#
#
#
# Elastic Constant Matrix: (Units=GPa)
#
#
# Indices 1 2 3 4 5 6 
#
# 1 140.0973 58.4142 48.0342 0.0000 0.0000 0.0000
# 2 58.4142 79.4574 24.9543 0.0000 0.0000 0.0000
# 3 48.0342 24.9543 48.2411 0.0000 0.0000 0.0000
# 4 0.0000 0.0000 0.0000 11.0415 0.0000 0.0000
# 5 0.0000 0.0000 0.0000 0.0000 10.2162 0.0000
# 6 0.0000 0.0000 0.0000 0.0000 0.0000 13.7371
#
#
#
# Elastic Compliance Matrix: (Units=1/GPa)
#
#
# Indices 1 2 3 4 5 6 
#
# 1 0.013273 -0.006695 -0.009753 0.000000 0.000000 0.000000
# 2 -0.006695 0.018403 -0.002853 0.000000 0.000000 0.000000
# 3 -0.009753 -0.002853 0.031917 0.000000 0.000000 0.000000
# 4 0.000000 0.000000 0.000000 0.090567 0.000000 0.000000
# 5 0.000000 0.000000 0.000000 0.000000 0.097884 0.000000
# 6 0.000000 0.000000 0.000000 0.000000 0.000000 0.072795
#
#
# Mechanical properties :
#
#
# Convention : Reuss Voigt Hill
#
# Bulk Modulus (GPa) = 40.01598 58.95569 49.48584
# Shear Modulus (GPa) = 13.44902 16.09184 14.77043
#
# Velocity S-wave (km/s) = 2.75084 3.00901 2.88282
# Velocity P-wave (km/s) = 5.71005 6.72635 6.23893
#
# Compressibility (1/GPa) = 0.02499002
#
# Stress axis : x y z
#
# Youngs Moduli (GPa) = 75.33817 54.33757 31.33158
#
# Poissons Ratio (x) = 0.36379 0.30559
# Poissons Ratio (y) = 0.50439 0.08940
# Poissons Ratio (z) = 0.73480 0.15505
#
# Static dielectric constant tensor:
#      x y z
#    x 1.619900 0.000000 0.000000 
#    y 0.000000 1.598140 0.000000 
#    z 0.000000 0.000000 1.627900 
# 
# From -- ./inp_files/19868.got.cif
#   From: 2010.05.17/outbox.cif.g08.bks.cpg/sg53_10_cif.got.tgz:19868.got - 2010.06.03 12:45:16.
