data_PCOD9416780
_publ_section_title
;
Structure prediction by ZEFSAII (Michael W. Deem and Ramdas Pophale) SiO2 
 PCOD9416780
Probable space group: P M N A
;
_chemical_formula_sum "Si O2"
_cell_formula_units_Z 40
_cell_length_a 9.140411
_cell_length_b 15.341747
_cell_length_c 13.215300
_cell_angle_alpha 90.000000
_cell_angle_beta 90.000000
_cell_angle_gamma 90.000000
_cell_volume 1853.179841
_symmetry_space_group_name_H-M "P M N A"
_symmetry_group_IT_number 53
_symmetry_cell_setting 'orthorhombic'
loop_
_space_group_symop_operation_xyz
x,y,z
1/2-x,-y,1/2+z
x,-y,-z
1/2-x,y,1/2-z
-x,-y,-z
1/2+x,y,1/2-z
-x,y,z
1/2+x,-y,1/2+z
loop_
_atom_site_type_symbol
_atom_site_label
_atom_site_fract_x
_atom_site_fract_y
_atom_site_fract_z
Si Si1 0.175272 0.629413 0.425682
Si Si2 0.674091 0.564714 0.852324
Si Si3 0.164709 0.020534 0.618970
Si Si4 0.328017 0.156461 0.346830
Si Si5 0.825940 0.195977 0.918693
O O1 0.215875 0.612997 0.543765
O O2 0.206079 0.537937 0.370841
O O3 0.262982 0.711542 0.384031
O O4 0.000000 0.645047 0.421130
O O5 0.750000 0.594091 0.750000
O O6 0.500000 0.573584 0.842294
O O7 0.239912 0.114434 0.628777
O O8 0.000000 0.017525 0.662879
O O9 0.149039 0.000000 0.500000
O O10 0.271488 0.943067 0.651128
O O11 0.250000 0.199042 0.250000
O O12 0.500000 0.160508 0.330969
O O13 0.296633 0.191584 0.459441
O O14 0.000000 0.187917 0.903195
#
# Coordination Sequence:
#
# PCOD9416780 Si02
#       5
#     8   8   8   8   8
#     4   9  19  36  55  77 107 141 175 213 264 322
#     4   9  19  36  57  79 105 138 174 215 264 318
#     4   9  17  31  51  71  94 129 167 202 247 299
#     4  10  20  33  49  72 103 135 170 213 258 305
#     4  10  20  33  51  76 103 132 170 215 257 302
#
# _framework density 21.584520999999999
#
# number of rings (size 3 to 8) (size 9 to 14) (size 15 to 20)
#    0.000    2.600    0.000    3.000    0.000    7.200 
#    0.000    7.000    0.000    2.400    0.000    0.000 
#    0.000    0.000    0.000    0.000    0.000    0.000 
#
# Total GULP energy -223396.572369 kJ/mol
# GULP energy per Si atom -5584.914309 kJ/mol
# Density = 2.153539 g / cm^3
# Si number density = 21.584521 Si / 1000 Ang^3
#
#
#
# Elastic Constant Matrix: (Units=GPa)
#
#
# Indices 1 2 3 4 5 6 
#
# 1 39.5664 34.8809 14.8731 0.0000 0.0000 0.0000
# 2 34.8809 118.9824 -11.4944 0.0000 0.0000 0.0000
# 3 14.8731 -11.4944 68.0305 0.0000 0.0000 0.0000
# 4 0.0000 0.0000 0.0000 -5.5780 0.0000 0.0000
# 5 0.0000 0.0000 0.0000 0.0000 -27.6668 0.0000
# 6 0.0000 0.0000 0.0000 0.0000 0.0000 -13.9787
#
#
#
# Elastic Compliance Matrix: (Units=1/GPa)
#
#
# Indices 1 2 3 4 5 6 
#
# 1 0.041038 -0.013112 -0.011187 0.000000 0.000000 0.000000
# 2 -0.013112 0.012733 0.005018 0.000000 0.000000 0.000000
# 3 -0.011187 0.005018 0.017993 0.000000 0.000000 0.000000
# 4 0.000000 0.000000 0.000000 -0.179277 0.000000 0.000000
# 5 0.000000 0.000000 0.000000 0.000000 -0.036144 0.000000
# 6 0.000000 0.000000 0.000000 0.000000 0.000000 -0.071537
#
#
# Mechanical properties :
#
#
# Convention : Reuss Voigt Hill
#
# Bulk Modulus (GPa) = 30.11827 33.67762 31.89795
# Shear Modulus (GPa) = -30.19966 3.10995 -13.54486
#
# Velocity S-wave (km/s) = -3.74456 1.20164 -2.50777
# Velocity P-wave (km/s) = 2.17064 4.19068 2.53477
#
# Compressibility (1/GPa) = 0.03320244
#
# Stress axis : x y z
#
# Youngs Moduli (GPa) = 24.36754 78.53520 55.57740
#
# Poissons Ratio (x) = 1.02972 0.62176
# Poissons Ratio (y) = 0.31950 -0.27888
# Poissons Ratio (z) = 0.27261 -0.39408
#
# Static dielectric constant tensor:
#      x y z
#    x 1.737160 0.000000 0.000000 
#    y 0.000000 1.759460 0.000000 
#    z 0.000000 0.000000 2.036610 
# 
# From -- ./inp_files/19851.got.cif
#   From: 2010.05.17/outbox.cif.g08.bks.cpg/sg53_10_cif.got.tgz:19851.got - 2010.06.03 12:45:16.
