data_PCOD9416970
_publ_section_title
;
Structure prediction by ZEFSAII (Michael W. Deem and Ramdas Pophale) SiO2 
 PCOD9416970
Probable space group: P M N A
;
_chemical_formula_sum "Si O2"
_cell_formula_units_Z 56
_cell_length_a 9.608721
_cell_length_b 18.121000
_cell_length_c 19.915838
_cell_angle_alpha 90.000000
_cell_angle_beta 90.000000
_cell_angle_gamma 90.000000
_cell_volume 3467.738408
_symmetry_space_group_name_H-M "P M N A"
_symmetry_group_IT_number 53
_symmetry_cell_setting 'orthorhombic'
loop_
_space_group_symop_operation_xyz
x,y,z
1/2-x,-y,1/2+z
x,-y,-z
1/2-x,y,1/2-z
-x,-y,-z
1/2+x,y,1/2-z
-x,y,z
1/2+x,-y,1/2+z
loop_
_atom_site_type_symbol
_atom_site_label
_atom_site_fract_x
_atom_site_fract_y
_atom_site_fract_z
Si Si1 0.163701 0.542772 0.567475
Si Si2 0.659837 0.989635 0.918502
Si Si3 0.160504 0.850895 0.933957
Si Si4 0.165201 0.313900 0.047159
Si Si5 0.840723 0.872446 0.096180
Si Si6 0.665066 0.294639 0.613010
Si Si7 0.164500 0.577998 0.316113
O O1 0.209773 0.500000 0.500000
O O2 0.250008 0.617418 0.575087
O O3 0.178812 0.486489 0.628840
O O4 0.000000 0.560583 0.559276
O O5 0.500000 0.985938 0.897555
O O6 0.742095 0.914149 0.904494
O O7 0.738412 0.060528 0.888597
O O8 0.661954 0.000000 0.000000
O O9 0.205145 0.766217 0.923307
O O10 0.000000 0.859957 0.912365
O O11 0.160598 0.861685 0.015064
O O12 0.000000 0.323107 0.057827
O O13 0.186739 0.309922 0.966451
O O14 0.804894 0.791965 0.125114
O O15 0.000000 0.890693 0.114512
O O16 0.500000 0.307003 0.626748
O O17 0.763467 0.348595 0.654271
O O18 0.250000 0.557644 0.250000
O O19 0.000000 0.589191 0.303271
#
# Coordination Sequence:
#
# PCOD9416970 Si02
#       7
#     8   8   8   8   8   8   8
#     4  10  20  34  50  71  97 124 157 199 249 297
#     4   9  15  21  31  52  81 115 153 188 225 269
#     4   8  14  24  36  54  83 117 151 186 228 273
#     4   9  17  28  46  70  92 120 159 200 237 284
#     4   8  14  24  38  55  80 116 152 186 224 270
#     4   9  17  30  47  68  92 120 158 197 237 284
#     4  11  23  37  52  70  96 128 160 199 246 294
#
# _framework density 16.148852999999999
#
# number of rings (size 3 to 8) (size 9 to 14) (size 15 to 20)
#    0.000    2.857    1.429    2.571    0.000    4.286 
#    0.000    2.857    0.000    0.000    0.000    0.000 
#    0.000    1.143    0.000    8.000    0.000    8.286 
#
# Total GULP energy -311945.828381 kJ/mol
# GULP energy per Si atom -5570.461221 kJ/mol
# Density = 1.611210 g / cm^3
# Si number density = 16.148853 Si / 1000 Ang^3
#
#
#
# Elastic Constant Matrix: (Units=GPa)
#
#
# Indices 1 2 3 4 5 6 
#
# 1 95.1941 88.0063 29.2954 0.0000 0.0000 0.0000
# 2 88.0063 140.1075 22.6230 0.0000 0.0000 0.0000
# 3 29.2954 22.6230 28.6380 0.0000 0.0000 0.0000
# 4 0.0000 0.0000 0.0000 7.8597 0.0000 0.0000
# 5 0.0000 0.0000 0.0000 0.0000 8.9516 0.0000
# 6 0.0000 0.0000 0.0000 0.0000 0.0000 -2.2443
#
#
#
# Elastic Compliance Matrix: (Units=1/GPa)
#
#
# Indices 1 2 3 4 5 6 
#
# 1 0.032461 -0.017225 -0.019599 0.000000 0.000000 0.000000
# 2 -0.017225 0.017321 0.003937 0.000000 0.000000 0.000000
# 3 -0.019599 0.003937 0.051857 0.000000 0.000000 0.000000
# 4 0.000000 0.000000 0.000000 0.127232 0.000000 0.000000
# 5 0.000000 0.000000 0.000000 0.000000 0.111712 0.000000
# 6 0.000000 0.000000 0.000000 0.000000 0.000000 -0.445575
#
#
# Mechanical properties :
#
#
# Convention : Reuss Voigt Hill
#
# Bulk Modulus (GPa) = 27.88159 60.42100 44.15130
# Shear Modulus (GPa) = -183.39462 11.18104 -86.10679
#
# Velocity S-wave (km/s) = -10.66825 2.63415 -7.31002
# Velocity P-wave (km/s) = 11.59509 6.83725 6.62186
#
# Compressibility (1/GPa) = 0.03586596
#
# Stress axis : x y z
#
# Youngs Moduli (GPa) = 30.80643 57.73239 19.28384
#
# Poissons Ratio (x) = 0.99445 0.37794
# Poissons Ratio (y) = 0.53064 -0.07593
# Poissons Ratio (z) = 0.60377 -0.22731
#
# Static dielectric constant tensor:
#      x y z
#    x 1.536260 0.000000 0.000000 
#    y 0.000000 2.198690 0.000000 
#    z 0.000000 0.000000 1.525070 
# 
# From -- ./inp_files/31036.got.cif
#   From: 2010.05.17/outbox.cif.g08.bks.cpg/sg53_16_cif.got.tgz:31036.got - 2010.06.03 12:45:16.
