data_PCOD9416177
_publ_section_title
;
Structure prediction by ZEFSAII (Michael W. Deem and Ramdas Pophale) SiO2 
 PCOD9416177
Probable space group: P M N A
;
_chemical_formula_sum "Si O2"
_cell_formula_units_Z 48
_cell_length_a 8.515342
_cell_length_b 32.379483
_cell_length_c 9.596671
_cell_angle_alpha 90.000000
_cell_angle_beta 90.000000
_cell_angle_gamma 90.000000
_cell_volume 2646.016887
_symmetry_space_group_name_H-M "P M N A"
_symmetry_group_IT_number 53
_symmetry_cell_setting 'orthorhombic'
loop_
_space_group_symop_operation_xyz
x,y,z
1/2-x,-y,1/2+z
x,-y,-z
1/2-x,y,1/2-z
-x,-y,-z
1/2+x,y,1/2-z
-x,y,z
1/2+x,-y,1/2+z
loop_
_atom_site_type_symbol
_atom_site_label
_atom_site_fract_x
_atom_site_fract_y
_atom_site_fract_z
Si Si1 0.689088 0.719144 0.909073
Si Si2 0.811303 0.130833 0.407499
Si Si3 0.309786 0.461500 0.091735
Si Si4 0.810527 0.962298 0.594239
Si Si5 0.313100 0.205438 0.592875
Si Si6 0.689132 0.371579 0.091598
O O1 0.750000 0.723711 0.750000
O O2 0.500000 0.721200 0.905898
O O3 0.738308 0.673365 0.963914
O O4 0.753379 0.755091 0.006162
O O5 0.750000 0.137840 0.250000
O O6 0.763860 0.084114 0.450212
O O7 0.745567 0.164898 0.511421
O O8 0.000000 0.133267 0.405459
O O9 0.250000 0.464985 0.250000
O O10 0.500000 0.462366 0.094591
O O11 0.260686 0.416226 0.032947
O O12 0.254342 0.500000 0.000000
O O13 0.750000 0.968025 0.750000
O O14 0.000000 0.963145 0.594789
O O15 0.753160 0.000000 0.500000
O O16 0.250000 0.206206 0.750000
O O17 0.500000 0.205656 0.595415
O O18 0.750000 0.371922 0.250000
O O19 0.500000 0.371462 0.092019
#
# Coordination Sequence:
#
# PCOD9416177 Si02
#       6
#     8   8   8   8   8   8
#     4  10  19  34  56  80 104 133 172 214 258 308
#     4  10  20  37  59  82 109 142 181 220 258 304
#     4   9  17  30  48  71 100 132 167 207 250 297
#     4   9  19  35  55  81 111 142 177 216 257 303
#     4  12  25  40  56  77 106 138 173 214 264 315
#     4   8  15  28  48  72  98 129 166 208 249 294
#
# _framework density 18.140474999999999
#
# number of rings (size 3 to 8) (size 9 to 14) (size 15 to 20)
#    0.000    2.333    0.000    3.000    0.000    2.667 
#    0.000    2.500    0.000    2.000    0.000    0.000 
#    0.000    0.000    0.000    0.000    0.000    0.000 
#
# Total GULP energy -267608.502449 kJ/mol
# GULP energy per Si atom -5575.177134 kJ/mol
# Density = 1.809919 g / cm^3
# Si number density = 18.140475 Si / 1000 Ang^3
#
#
#
# Elastic Constant Matrix: (Units=GPa)
#
#
# Indices 1 2 3 4 5 6 
#
# 1 54.3365 50.6325 30.6654 0.0000 0.0000 0.0000
# 2 50.6325 232.9878 109.0468 0.0000 0.0000 0.0000
# 3 30.6654 109.0468 89.5744 0.0000 0.0000 0.0000
# 4 0.0000 0.0000 0.0000 28.8225 0.0000 0.0000
# 5 0.0000 0.0000 0.0000 0.0000 27.9082 0.0000
# 6 0.0000 0.0000 0.0000 0.0000 0.0000 28.9684
#
#
#
# Elastic Compliance Matrix: (Units=1/GPa)
#
#
# Indices 1 2 3 4 5 6 
#
# 1 0.023768 -0.003154 -0.004297 0.000000 0.000000 0.000000
# 2 -0.003154 0.010395 -0.011575 0.000000 0.000000 0.000000
# 3 -0.004297 -0.011575 0.026726 0.000000 0.000000 0.000000
# 4 0.000000 0.000000 0.000000 0.034695 0.000000 0.000000
# 5 0.000000 0.000000 0.000000 0.000000 0.035832 0.000000
# 6 0.000000 0.000000 0.000000 0.000000 0.000000 0.034520
#
#
# Mechanical properties :
#
#
# Convention : Reuss Voigt Hill
#
# Bulk Modulus (GPa) = 43.78888 84.17644 63.98266
# Shear Modulus (GPa) = 23.62933 29.57676 26.60304
#
# Velocity S-wave (km/s) = 3.61304 4.04224 3.83365
# Velocity P-wave (km/s) = 6.44954 8.26375 7.41236
#
# Compressibility (1/GPa) = 0.02283685
#
# Stress axis : x y z
#
# Youngs Moduli (GPa) = 42.07336 96.19994 37.41621
#
# Poissons Ratio (x) = 0.30341 0.16079
# Poissons Ratio (y) = 0.13270 0.43309
# Poissons Ratio (z) = 0.18080 1.11352
#
# Static dielectric constant tensor:
#      x y z
#    x 1.608120 0.000000 0.000000 
#    y 0.000000 1.678620 0.000000 
#    z 0.000000 0.000000 1.570850 
# 
# From -- ./inp_files/6717.got.cif
#   From: 2010.05.17/outbox.cif.g08.bks.cpg/sg53_4_cif.got.tgz:6717.got - 2010.06.03 12:45:16.
