data_PCOD9416712
_publ_section_title
;
Structure prediction by ZEFSAII (Michael W. Deem and Ramdas Pophale) SiO2 
 PCOD9416712
Probable space group: P M N A
;
_chemical_formula_sum "Si O2"
_cell_formula_units_Z 56
_cell_length_a 9.070438
_cell_length_b 19.465834
_cell_length_c 18.217913
_cell_angle_alpha 90.000000
_cell_angle_beta 90.000000
_cell_angle_gamma 90.000000
_cell_volume 3216.621040
_symmetry_space_group_name_H-M "P M N A"
_symmetry_group_IT_number 53
_symmetry_cell_setting 'orthorhombic'
loop_
_space_group_symop_operation_xyz
x,y,z
1/2-x,-y,1/2+z
x,-y,-z
1/2-x,y,1/2-z
-x,-y,-z
1/2+x,y,1/2-z
-x,y,z
1/2+x,-y,1/2+z
loop_
_atom_site_type_symbol
_atom_site_label
_atom_site_fract_x
_atom_site_fract_y
_atom_site_fract_z
Si Si1 0.175012 0.025699 0.171283
Si Si2 0.326508 0.375818 0.676668
Si Si3 0.828742 0.226925 0.877535
Si Si4 0.824138 0.425953 0.527641
Si Si5 0.172451 0.859274 0.584801
Si Si6 0.673680 0.094869 0.914942
Si Si7 0.673731 0.719366 0.978557
O O1 0.250000 0.013137 0.250000
O O2 0.225874 0.099327 0.140010
O O3 0.000000 0.020919 0.177471
O O4 0.236465 0.970227 0.113110
O O5 0.250000 0.402349 0.750000
O O6 0.500000 0.389962 0.676532
O O7 0.307920 0.292932 0.673455
O O8 0.252689 0.405823 0.603656
O O9 0.726997 0.160636 0.867774
O O10 0.000000 0.206473 0.876741
O O11 0.781099 0.256735 0.956660
O O12 0.772659 0.500000 0.500000
O O13 0.801512 0.362087 0.471124
O O14 0.000000 0.430102 0.540228
O O15 0.198479 0.886289 0.500929
O O16 0.194936 0.776770 0.583681
O O17 0.000000 0.873152 0.601216
O O18 0.000000 0.082866 0.594273
O O19 0.500000 0.727850 0.001552
#
# Coordination Sequence:
#
# PCOD9416712 Si02
#       7
#     8   8   8   8   8   8   8
#     4  12  25  38  52  71  98 131 169 215 264 309
#     4  10  20  32  48  71 102 139 174 209 249 298
#     4   9  17  29  46  71 100 129 164 203 242 289
#     4   9  17  31  53  80 108 137 169 205 248 300
#     4   9  18  34  55  76 100 131 167 207 251 300
#     4  10  20  35  55  77 103 134 167 206 253 305
#     4   8  15  29  50  75 101 129 159 196 244 294
#
# _framework density 17.409572000000001
#
# number of rings (size 3 to 8) (size 9 to 14) (size 15 to 20)
#    0.000    2.429    0.000    3.857    0.000    7.143 
#    0.000    1.429    0.000    0.857    0.000    0.000 
#    0.000    0.000    0.000    0.000    0.000    0.000 
#
# Total GULP energy -312037.016758 kJ/mol
# GULP energy per Si atom -5572.089585 kJ/mol
# Density = 1.736995 g / cm^3
# Si number density = 17.409572 Si / 1000 Ang^3
#
#
#
# Elastic Constant Matrix: (Units=GPa)
#
#
# Indices 1 2 3 4 5 6 
#
# 1 56.9551 26.1031 17.5668 0.0000 0.0000 0.0000
# 2 26.1031 92.5753 9.4046 0.0000 0.0000 0.0000
# 3 17.5668 9.4046 18.1262 0.0000 0.0000 0.0000
# 4 0.0000 0.0000 0.0000 9.6100 0.0000 0.0000
# 5 0.0000 0.0000 0.0000 0.0000 19.1097 0.0000
# 6 0.0000 0.0000 0.0000 0.0000 0.0000 -12.2311
#
#
#
# Elastic Compliance Matrix: (Units=1/GPa)
#
#
# Indices 1 2 3 4 5 6 
#
# 1 0.027293 -0.005287 -0.023707 0.000000 0.000000 0.000000
# 2 -0.005287 0.012427 -0.001324 0.000000 0.000000 0.000000
# 3 -0.023707 -0.001324 0.078831 0.000000 0.000000 0.000000
# 4 0.000000 0.000000 0.000000 0.104058 0.000000 0.000000
# 5 0.000000 0.000000 0.000000 0.000000 0.052330 0.000000
# 6 0.000000 0.000000 0.000000 0.000000 0.000000 -0.081759
#
#
# Mechanical properties :
#
#
# Convention : Reuss Voigt Hill
#
# Bulk Modulus (GPa) = 17.26676 30.42285 23.84480
# Shear Modulus (GPa) = 18.30686 10.93653 14.62169
#
# Velocity S-wave (km/s) = 3.24626 2.50909 2.90119
# Velocity P-wave (km/s) = 4.89801 5.08987 4.99486
#
# Compressibility (1/GPa) = 0.05791475
#
# Stress axis : x y z
#
# Youngs Moduli (GPa) = 36.63945 80.46781 12.68537
#
# Poissons Ratio (x) = 0.42546 0.30074
# Poissons Ratio (y) = 0.19372 0.01679
# Poissons Ratio (z) = 0.86862 0.10651
#
# Static dielectric constant tensor:
#      x y z
#    x 1.578550 0.000000 0.000000 
#    y 0.000000 1.633910 0.000000 
#    z 0.000000 0.000000 1.587120 
# 
# From -- ./inp_files/20497.got.cif
#   From: 2010.05.17/outbox.cif.g08.bks.cpg/sg53_11_cif.got.tgz:20497.got - 2010.06.03 12:45:16.
