data_PCOD9416148
_publ_section_title
;
Structure prediction by ZEFSAII (Michael W. Deem and Ramdas Pophale) SiO2 
 PCOD9416148
Probable space group: P M N A
;
_chemical_formula_sum "Si O2"
_cell_formula_units_Z 28
_cell_length_a 8.578922
_cell_length_b 15.694596
_cell_length_c 8.766810
_cell_angle_alpha 90.000000
_cell_angle_beta 90.000000
_cell_angle_gamma 90.000000
_cell_volume 1180.387099
_symmetry_space_group_name_H-M "P M N A"
_symmetry_group_IT_number 53
_symmetry_cell_setting 'orthorhombic'
loop_
_space_group_symop_operation_xyz
x,y,z
1/2-x,-y,1/2+z
x,-y,-z
1/2-x,y,1/2-z
-x,-y,-z
1/2+x,y,1/2-z
-x,y,z
1/2+x,-y,1/2+z
loop_
_atom_site_type_symbol
_atom_site_label
_atom_site_fract_x
_atom_site_fract_y
_atom_site_fract_z
Si Si1 0.743430 0.000000 0.500000
Si Si2 0.822920 0.598678 0.039258
Si Si3 0.000000 0.879315 0.444142
Si Si4 0.000000 0.694759 0.800742
Si Si5 0.500000 0.891359 0.686694
Si Si6 0.000000 0.317169 0.565554
O O1 0.850441 0.935085 0.403435
O O2 0.642756 0.940411 0.609769
O O3 0.855217 0.649412 0.882891
O O4 0.663976 0.637418 0.107235
O O5 0.000000 0.604656 0.111314
O O6 0.796115 0.500000 0.000000
O O7 0.000000 0.885828 0.630036
O O8 0.000000 0.782708 0.388008
O O9 0.000000 0.792164 0.855203
O O10 0.000000 0.685277 0.620305
#
# Coordination Sequence:
#
# PCOD9416148 Si02
#       6
#     4   8   4   4   4   4
#     4  10  20  32  50  80 108 144 178 218 288 338
#     4   9  19  31  46  76 108 133 164 200 262 330
#     4  10  21  34  51  83 112 131 189 237 263 339
#     4   9  18  32  52  80 103 130 171 224 273 315
#     4  10  19  34  55  77 110 145 173 233 287 311
#     4  11  18  32  56  78 105 134 169 226 281 303
#
# _framework density 23.721031
#
# number of rings (size 3 to 8) (size 9 to 14) (size 15 to 20)
#    0.857    1.429    0.000    3.857    0.000    4.571 
#    0.000    0.000    0.000    0.000    0.000  140.000 
#    0.000    0.000    0.000    0.000    0.000    0.000 
#
# Total GULP energy -156292.780063 kJ/mol
# GULP energy per Si atom -5581.885002 kJ/mol
# Density = 2.366704 g / cm^3
# Si number density = 23.721031 Si / 1000 Ang^3
#
#
#
# Elastic Constant Matrix: (Units=GPa)
#
#
# Indices 1 2 3 4 5 6 
#
# 1 224.9642 109.4288 41.3209 0.0000 0.0000 0.0000
# 2 109.4288 231.5127 35.3151 0.0000 0.0000 0.0000
# 3 41.3209 35.3151 63.9110 0.0000 0.0000 0.0000
# 4 0.0000 0.0000 0.0000 -39.6623 0.0000 0.0000
# 5 0.0000 0.0000 0.0000 0.0000 42.9155 0.0000
# 6 0.0000 0.0000 0.0000 0.0000 0.0000 131.9361
#
#
#
# Elastic Compliance Matrix: (Units=1/GPa)
#
#
# Indices 1 2 3 4 5 6 
#
# 1 0.006140 -0.002508 -0.002584 0.000000 0.000000 0.000000
# 2 -0.002508 0.005741 -0.001551 0.000000 0.000000 0.000000
# 3 -0.002584 -0.001551 0.018174 0.000000 0.000000 0.000000
# 4 0.000000 0.000000 0.000000 -0.025213 0.000000 0.000000
# 5 0.000000 0.000000 0.000000 0.000000 0.023302 0.000000
# 6 0.000000 0.000000 0.000000 0.000000 0.000000 0.007579
#
#
# Mechanical properties :
#
#
# Convention : Reuss Voigt Hill
#
# Bulk Modulus (GPa) = 59.63039 99.16862 79.39950
# Shear Modulus (GPa) = 91.57694 49.32607 70.45151
#
# Velocity S-wave (km/s) = 6.22010 4.56502 5.45568
# Velocity P-wave (km/s) = 8.76236 8.34762 8.55750
#
# Compressibility (1/GPa) = 0.01676997
#
# Stress axis : x y z
#
# Youngs Moduli (GPa) = 162.87634 174.17302 55.02274
#
# Poissons Ratio (x) = 0.43681 0.14216
# Poissons Ratio (y) = 0.40847 0.08534
# Poissons Ratio (z) = 0.42083 0.27016
#
# Static dielectric constant tensor:
#      x y z
#    x 1.964970 0.000000 0.000000 
#    y 0.000000 1.832670 0.000000 
#    z 0.000000 0.000000 1.904300 
# 
# From -- ./inp_files/19712.got.cif
#   From: 2010.05.17/outbox.cif.g08.bks.cpg/sg53_10_cif.got.tgz:19712.got - 2010.06.03 12:45:16.
