data_PCOD9416124
_publ_section_title
;
Structure prediction by ZEFSAII (Michael W. Deem and Ramdas Pophale) SiO2 
 PCOD9416124
Probable space group: P M N A
;
_chemical_formula_sum "Si O2"
_cell_formula_units_Z 56
_cell_length_a 20.290189
_cell_length_b 8.727737
_cell_length_c 12.768430
_cell_angle_alpha 90.000000
_cell_angle_beta 90.000000
_cell_angle_gamma 90.000000
_cell_volume 2261.128496
_symmetry_space_group_name_H-M "P M N A"
_symmetry_group_IT_number 53
_symmetry_cell_setting 'orthorhombic'
loop_
_space_group_symop_operation_xyz
x,y,z
1/2-x,-y,1/2+z
x,-y,-z
1/2-x,y,1/2-z
-x,-y,-z
1/2+x,y,1/2-z
-x,y,z
1/2+x,-y,1/2+z
loop_
_atom_site_type_symbol
_atom_site_label
_atom_site_fract_x
_atom_site_fract_y
_atom_site_fract_z
Si Si1 0.290861 0.740129 0.361815
Si Si2 0.788008 0.911924 0.861827
Si Si3 0.262838 0.583963 0.874571
Si Si4 0.102244 0.420333 0.594492
Si Si5 0.077803 0.168913 0.459603
Si Si6 0.572010 0.413741 0.674079
Si Si7 0.422606 0.774215 0.709056
O O1 0.250000 0.740226 0.250000
O O2 0.268690 0.577549 0.410919
O O3 0.369230 0.700956 0.354951
O O4 0.282653 0.913539 0.403439
O O5 0.750000 0.920932 0.750000
O O6 0.758013 0.754080 0.910022
O O7 0.865452 0.874110 0.843704
O O8 0.250000 0.591560 0.750000
O O9 0.338443 0.535513 0.884368
O O10 0.064686 0.500000 0.500000
O O11 0.122365 0.263357 0.541027
O O12 0.066981 0.391412 0.701315
O O13 0.086321 0.200283 0.335463
O O14 0.000000 0.199168 0.480726
O O15 0.089909 0.000000 0.500000
O O16 0.500000 0.386464 0.624803
O O17 0.587695 0.597303 0.669532
O O18 0.500000 0.810406 0.688227
#
# Coordination Sequence:
#
# PCOD9416124 Si02
#       7
#     8   8   8   8   8   8   8
#     4  10  19  34  54  75  98 142 184 231 283 324
#     4  10  20  32  56  76  98 140 190 231 281 325
#     4  10  19  37  54  72 100 137 184 234 279 326
#     4  12  22  35  54  75 107 152 193 231 275 324
#     4  10  23  35  46  73 117 161 195 227 268 327
#     4  11  20  32  52  77 108 146 187 223 267 328
#     4  10  20  35  52  75 112 153 188 227 272 327
#
# _framework density 24.766393000000001
#
# number of rings (size 3 to 8) (size 9 to 14) (size 15 to 20)
#    0.000    1.571    5.714    1.286    2.000    1.143 
#    0.000    0.000    0.000    0.000    0.000    0.000 
#    0.000    2.286    0.000    2.571    0.000    0.000 
#
# Total GULP energy -312178.358598 kJ/mol
# GULP energy per Si atom -5574.613546 kJ/mol
# Density = 2.471002 g / cm^3
# Si number density = 24.766393 Si / 1000 Ang^3
#
#
#
# Elastic Constant Matrix: (Units=GPa)
#
#
# Indices 1 2 3 4 5 6 
#
# 1 151.5263 77.5874 13.3845 0.0000 0.0000 0.0000
# 2 77.5874 261.1437 59.8171 0.0000 0.0000 0.0000
# 3 13.3845 59.8171 31.0051 0.0000 0.0000 0.0000
# 4 0.0000 0.0000 0.0000 45.8620 0.0000 0.0000
# 5 0.0000 0.0000 0.0000 0.0000 -13.9104 0.0000
# 6 0.0000 0.0000 0.0000 0.0000 0.0000 37.3108
#
#
#
# Elastic Compliance Matrix: (Units=1/GPa)
#
#
# Indices 1 2 3 4 5 6 
#
# 1 0.007852 -0.002789 0.001991 0.000000 0.000000 0.000000
# 2 -0.002789 0.007852 -0.013945 0.000000 0.000000 0.000000
# 3 0.001991 -0.013945 0.058297 0.000000 0.000000 0.000000
# 4 0.000000 0.000000 0.000000 0.021805 0.000000 0.000000
# 5 0.000000 0.000000 0.000000 0.000000 -0.071889 0.000000
# 6 0.000000 0.000000 0.000000 0.000000 0.000000 0.026802
#
#
# Mechanical properties :
#
#
# Convention : Reuss Voigt Hill
#
# Bulk Modulus (GPa) = 22.46441 82.80589 52.63515
# Shear Modulus (GPa) = 52.60845 33.37821 42.99333
#
# Velocity S-wave (km/s) = 4.61389 3.67512 4.17100
# Velocity P-wave (km/s) = 6.12162 7.17746 6.67046
#
# Compressibility (1/GPa) = 0.04451486
#
# Stress axis : x y z
#
# Youngs Moduli (GPa) = 127.36205 127.35509 17.15365
#
# Poissons Ratio (x) = 0.35517 -0.03415
# Poissons Ratio (y) = 0.35519 0.23920
# Poissons Ratio (z) = -0.25357 1.77595
#
# Static dielectric constant tensor:
#      x y z
#    x 2.145650 0.000000 0.000000 
#    y 0.000000 2.249660 0.000000 
#    z 0.000000 0.000000 2.016500 
# 
# From -- ./inp_files/29353.got.cif
#   From: 2010.05.17/outbox.cif.g08.bks.cpg/sg53_15_cif.got.tgz:29353.got - 2010.06.03 12:45:16.
