data_PCOD9416658
_publ_section_title
;
Structure prediction by ZEFSAII (Michael W. Deem and Ramdas Pophale) SiO2 
 PCOD9416658
Probable space group: P M N A
;
_chemical_formula_sum "Si O2"
_cell_formula_units_Z 58
_cell_length_a 28.405958
_cell_length_b 7.864563
_cell_length_c 11.672396
_cell_angle_alpha 90.000000
_cell_angle_beta 90.000000
_cell_angle_gamma 90.000000
_cell_volume 2607.618475
_symmetry_space_group_name_H-M "P M N A"
_symmetry_group_IT_number 53
_symmetry_cell_setting 'orthorhombic'
loop_
_space_group_symop_operation_xyz
x,y,z
1/2-x,-y,1/2+z
x,-y,-z
1/2-x,y,1/2-z
-x,-y,-z
1/2+x,y,1/2-z
-x,y,z
1/2+x,-y,1/2+z
loop_
_atom_site_type_symbol
_atom_site_label
_atom_site_fract_x
_atom_site_fract_y
_atom_site_fract_z
Si Si1 0.367670 0.572828 0.871035
Si Si2 0.446118 0.140497 0.094975
Si Si3 0.209552 0.147395 0.662540
Si Si4 0.000000 0.000000 0.000000
Si Si5 0.080632 0.959545 0.840779
Si Si6 0.827084 0.808991 0.951372
Si Si7 0.869570 0.295198 0.817332
Si Si8 0.224468 0.758165 0.596249
O O1 0.406608 0.717126 0.891286
O O2 0.381700 0.459084 0.759718
O O3 0.314061 0.634460 0.850493
O O4 0.366194 0.500000 0.000000
O O5 0.500000 0.200117 0.073248
O O6 0.441966 0.054144 0.217305
O O7 0.434035 0.000000 0.000000
O O8 0.250000 0.201718 0.750000
O O9 0.161644 0.190862 0.725578
O O10 0.215180 0.236463 0.540590
O O11 0.213350 0.946811 0.641737
O O12 0.958698 0.097581 0.071814
O O13 0.128631 0.855494 0.869711
O O14 0.090301 0.161704 0.851896
O O15 0.780521 0.734318 0.892165
O O16 0.841495 0.694728 0.061675
O O17 0.813522 0.000000 0.000000
#
# Coordination Sequence:
#
# PCOD9416658 Si02
#       8
#     8   8   8   2   8   8   8   8
#     4  12  26  42  63  98 137 184 231 284 358 431
#     4  11  26  48  72  98 132 178 230 295 351 417
#     4  11  19  35  64  90 125 180 235 284 333 403
#     4  12  20  40  82 118 124 172 238 296 350 426
#     4  11  22  44  75 108 136 170 237 289 351 424
#     4  10  19  39  67  97 132 177 229 286 341 413
#     4  11  21  39  64  96 140 175 218 290 361 418
#     4  11  22  37  60  96 130 179 242 280 337 412
#
# _framework density 22.242518
#
# number of rings (size 3 to 8) (size 9 to 14) (size 15 to 20)
#    0.000    0.966    6.897    2.483    1.931    0.276 
#    1.241    6.897    0.000    1.655    0.000    0.000 
#    0.000    0.000    0.000    0.000    0.000    0.000 
#
# Total GULP energy -323295.297071 kJ/mol
# GULP energy per Si atom -5574.056846 kJ/mol
# Density = 2.219189 g / cm^3
# Si number density = 22.242518 Si / 1000 Ang^3
#
#
#
# Elastic Constant Matrix: (Units=GPa)
#
#
# Indices 1 2 3 4 5 6 
#
# 1 137.3434 53.4082 35.6548 0.0000 0.0000 0.0000
# 2 53.4082 62.2711 37.6957 0.0000 0.0000 0.0000
# 3 35.6548 37.6957 120.4717 0.0000 0.0000 0.0000
# 4 0.0000 0.0000 0.0000 30.8819 0.0000 0.0000
# 5 0.0000 0.0000 0.0000 0.0000 82.6755 0.0000
# 6 0.0000 0.0000 0.0000 0.0000 0.0000 3.8422
#
#
#
# Elastic Compliance Matrix: (Units=1/GPa)
#
#
# Indices 1 2 3 4 5 6 
#
# 1 0.010938 -0.009156 -0.000372 0.000000 0.000000 0.000000
# 2 -0.009156 0.027475 -0.005887 0.000000 0.000000 0.000000
# 3 -0.000372 -0.005887 0.010253 0.000000 0.000000 0.000000
# 4 0.000000 0.000000 0.000000 0.032381 0.000000 0.000000
# 5 0.000000 0.000000 0.000000 0.000000 0.012095 0.000000
# 6 0.000000 0.000000 0.000000 0.000000 0.000000 0.260267
#
#
# Mechanical properties :
#
#
# Convention : Reuss Voigt Hill
#
# Bulk Modulus (GPa) = 56.06805 63.73372 59.90089
# Shear Modulus (GPa) = 12.81438 36.36843 24.59141
#
# Velocity S-wave (km/s) = 2.40286 4.04801 3.32867
# Velocity P-wave (km/s) = 5.74113 7.11089 6.46240
#
# Compressibility (1/GPa) = 0.01783547
#
# Stress axis : x y z
#
# Youngs Moduli (GPa) = 91.42355 36.39615 97.53197
#
# Poissons Ratio (x) = 0.33324 0.03632
# Poissons Ratio (y) = 0.83706 0.57420
# Poissons Ratio (z) = 0.03404 0.21428
#
# Static dielectric constant tensor:
#      x y z
#    x 1.540810 0.000000 0.000000 
#    y 0.000000 1.841240 0.000000 
#    z 0.000000 0.000000 1.895950 
# 
# From -- ./inp_files/18790.got.cif
#   From: 2010.05.17/outbox.cif.g08.bks.cpg/sg53_10_cif.got.tgz:18790.got - 2010.06.03 12:45:16.
