data_PCOD9416654
_publ_section_title
;
Structure prediction by ZEFSAII (Michael W. Deem and Ramdas Pophale) SiO2 
 PCOD9416654
Probable space group: P M N A
;
_chemical_formula_sum "Si O2"
_cell_formula_units_Z 64
_cell_length_a 27.231516
_cell_length_b 18.191964
_cell_length_c 6.750379
_cell_angle_alpha 90.000000
_cell_angle_beta 90.000000
_cell_angle_gamma 90.000000
_cell_volume 3344.102376
_symmetry_space_group_name_H-M "P M N A"
_symmetry_group_IT_number 53
_symmetry_cell_setting 'orthorhombic'
loop_
_space_group_symop_operation_xyz
x,y,z
1/2-x,-y,1/2+z
x,-y,-z
1/2-x,y,1/2-z
-x,-y,-z
1/2+x,y,1/2-z
-x,y,z
1/2+x,-y,1/2+z
loop_
_atom_site_type_symbol
_atom_site_label
_atom_site_fract_x
_atom_site_fract_y
_atom_site_fract_z
Si Si1 0.194130 0.359780 0.231268
Si Si2 0.806172 0.806628 0.734009
Si Si3 0.302948 0.570494 0.354027
Si Si4 0.882865 0.831165 0.079122
Si Si5 0.441588 0.729026 0.115062
Si Si6 0.885450 0.579766 0.479178
Si Si7 0.360425 0.079476 0.955575
Si Si8 0.056550 0.859717 0.694765
O O1 0.250000 0.390587 0.250000
O O2 0.193678 0.279107 0.324229
O O3 0.149731 0.402570 0.333294
O O4 0.187871 0.360109 0.996170
O O5 0.750000 0.829609 0.750000
O O6 0.830932 0.856746 0.568784
O O7 0.836336 0.811806 0.939725
O O8 0.304901 0.500000 0.500000
O O9 0.250000 0.573900 0.250000
O O10 0.345645 0.570170 0.194778
O O11 0.908085 0.767742 0.214971
O O12 0.867795 0.896004 0.229973
O O13 0.922710 0.854612 0.915455
O O14 0.500000 0.727467 0.167188
O O15 0.420854 0.648239 0.064988
O O16 0.436840 0.781741 0.921454
O O17 0.910563 0.500000 0.500000
O O18 0.412608 0.082688 0.067298
O O19 0.338127 0.000000 0.000000
O O20 0.000000 0.877861 0.695283
#
# Coordination Sequence:
#
# PCOD9416654 Si02
#       8
#     8   8   8   8   8   8   8   8
#     4  11  21  37  57  83 117 151 197 254 306 360
#     4  10  23  40  59  90 122 157 208 251 298 361
#     4  12  22  36  55  85 119 160 199 245 309 376
#     4  10  19  39  65  87 119 155 202 252 309 360
#     4  10  22  40  63  88 117 161 213 257 307 368
#     4  12  23  36  56  82 120 160 200 250 309 363
#     4  10  22  40  59  89 127 161 197 244 294 363
#     4   9  19  37  63  91 118 151 197 252 306 361
#
# _framework density 19.138169000000001
#
# number of rings (size 3 to 8) (size 9 to 14) (size 15 to 20)
#    0.000    1.500    2.500    4.125    0.000    3.500 
#    2.250    0.625    0.000    0.375    0.000    0.000 
#    0.000    0.000    0.000    0.000    0.000    0.000 
#
# Total GULP energy -357023.301496 kJ/mol
# GULP energy per Si atom -5578.489086 kJ/mol
# Density = 1.909461 g / cm^3
# Si number density = 19.138169 Si / 1000 Ang^3
#
#
#
# Elastic Constant Matrix: (Units=GPa)
#
#
# Indices 1 2 3 4 5 6 
#
# 1 81.0040 -1.8474 11.4565 0.0000 0.0000 0.0000
# 2 -1.8474 47.3214 -7.8224 0.0000 0.0000 0.0000
# 3 11.4565 -7.8224 79.2498 0.0000 0.0000 0.0000
# 4 0.0000 0.0000 0.0000 -16.9384 0.0000 0.0000
# 5 0.0000 0.0000 0.0000 0.0000 13.7052 0.0000
# 6 0.0000 0.0000 0.0000 0.0000 0.0000 12.2142
#
#
#
# Elastic Compliance Matrix: (Units=1/GPa)
#
#
# Indices 1 2 3 4 5 6 
#
# 1 0.012604 0.000194 -0.001803 0.000000 0.000000 0.000000
# 2 0.000194 0.021486 0.002093 0.000000 0.000000 0.000000
# 3 -0.001803 0.002093 0.013086 0.000000 0.000000 0.000000
# 4 0.000000 0.000000 0.000000 -0.059038 0.000000 0.000000
# 5 0.000000 0.000000 0.000000 0.000000 0.072965 0.000000
# 6 0.000000 0.000000 0.000000 0.000000 0.000000 0.081872
#
#
# Mechanical properties :
#
#
# Convention : Reuss Voigt Hill
#
# Bulk Modulus (GPa) = 20.77141 23.46096 22.11619
# Shear Modulus (GPa) = 31.63449 15.51543 23.57496
#
# Velocity S-wave (km/s) = 4.07006 2.85038 3.51355
# Velocity P-wave (km/s) = 5.74144 4.80814 5.29539
#
# Compressibility (1/GPa) = 0.04814311
#
# Stress axis : x y z
#
# Youngs Moduli (GPa) = 79.33679 46.54279 76.42029
#
# Poissons Ratio (x) = -0.00903 0.13778
# Poissons Ratio (y) = -0.01539 -0.15992
# Poissons Ratio (z) = 0.14304 -0.09740
#
# Static dielectric constant tensor:
#      x y z
#    x 1.668940 0.000000 0.000000 
#    y 0.000000 1.720510 0.000000 
#    z 0.000000 0.000000 1.685220 
# 
# From -- ./inp_files/5467.got.cif
#   From: 2010.05.17/outbox.cif.g08.bks.cpg/sg53_3_cif.got.tgz:5467.got - 2010.06.03 12:45:16.
