data_PCOD9416938
_publ_section_title
;
Structure prediction by ZEFSAII (Michael W. Deem and Ramdas Pophale) SiO2 
 PCOD9416938
Probable space group: P M N A
;
_chemical_formula_sum "Si O2"
_cell_formula_units_Z 56
_cell_length_a 19.664821
_cell_length_b 14.876184
_cell_length_c 10.312990
_cell_angle_alpha 90.000000
_cell_angle_beta 90.000000
_cell_angle_gamma 90.000000
_cell_volume 3016.936266
_symmetry_space_group_name_H-M "P M N A"
_symmetry_group_IT_number 53
_symmetry_cell_setting 'orthorhombic'
loop_
_space_group_symop_operation_xyz
x,y,z
1/2-x,-y,1/2+z
x,-y,-z
1/2-x,y,1/2-z
-x,-y,-z
1/2+x,y,1/2-z
-x,y,z
1/2+x,-y,1/2+z
loop_
_atom_site_type_symbol
_atom_site_label
_atom_site_fract_x
_atom_site_fract_y
_atom_site_fract_z
Si Si1 0.295462 0.547569 0.374402
Si Si2 0.582208 0.596680 0.951071
Si Si3 0.627249 0.282797 0.573028
Si Si4 0.174784 0.080488 0.907888
Si Si5 0.420323 0.413382 0.345148
Si Si6 0.836400 0.926950 0.392366
Si Si7 0.079347 0.251827 0.640882
O O1 0.264290 0.500000 0.500000
O O2 0.250000 0.531814 0.250000
O O3 0.308041 0.653042 0.397853
O O4 0.369301 0.497886 0.361802
O O5 0.500000 0.596048 0.962318
O O6 0.608078 0.669498 0.051355
O O7 0.605619 0.500000 0.000000
O O8 0.595857 0.618083 0.801285
O O9 0.644645 0.177814 0.553831
O O10 0.593124 0.335483 0.451974
O O11 0.586701 0.280390 0.708916
O O12 0.158219 0.050001 0.760645
O O13 0.256448 0.090316 0.916465
O O14 0.152181 0.000000 0.000000
O O15 0.500000 0.440106 0.351634
O O16 0.879612 0.836532 0.396900
O O17 0.858112 0.000000 0.500000
O O18 0.000000 0.237261 0.614271
#
# Coordination Sequence:
#
# PCOD9416938 Si02
#       7
#     8   8   8   8   8   8   8
#     4  10  23  38  56  84 118 154 191 236 284 334
#     4   9  18  33  51  76 110 147 184 222 267 325
#     4  10  21  35  59  84 110 148 189 240 289 337
#     4   9  19  37  58  79 108 140 190 236 287 346
#     4  10  21  39  59  85 119 155 196 237 283 342
#     4   9  19  35  56  79 104 144 181 232 287 341
#     4  10  20  33  54  85 111 144 187 229 283 344
#
# _framework density 18.561878
#
# number of rings (size 3 to 8) (size 9 to 14) (size 15 to 20)
#    0.000    2.429    0.000    1.286    4.000    7.429 
#    2.571    0.000    3.143   10.714    0.000    0.000 
#    0.000    0.000    0.000    0.000    0.000    0.000 
#
# Total GULP energy -312135.243209 kJ/mol
# GULP energy per Si atom -5573.843629 kJ/mol
# Density = 1.851963 g / cm^3
# Si number density = 18.561878 Si / 1000 Ang^3
#
#
#
# Elastic Constant Matrix: (Units=GPa)
#
#
# Indices 1 2 3 4 5 6 
#
# 1 45.8785 37.4707 44.9927 0.0000 0.0000 0.0000
# 2 37.4707 140.0374 94.6139 0.0000 0.0000 0.0000
# 3 44.9927 94.6139 142.0237 0.0000 0.0000 0.0000
# 4 0.0000 0.0000 0.0000 38.8896 0.0000 0.0000
# 5 0.0000 0.0000 0.0000 0.0000 22.8475 0.0000
# 6 0.0000 0.0000 0.0000 0.0000 0.0000 267.9482
#
#
#
# Elastic Compliance Matrix: (Units=1/GPa)
#
#
# Indices 1 2 3 4 5 6 
#
# 1 0.032368 -0.003151 -0.008155 0.000000 0.000000 0.000000
# 2 -0.003151 0.013293 -0.007857 0.000000 0.000000 0.000000
# 3 -0.008155 -0.007857 0.014859 0.000000 0.000000 0.000000
# 4 0.000000 0.000000 0.000000 0.025714 0.000000 0.000000
# 5 0.000000 0.000000 0.000000 0.000000 0.043769 0.000000
# 6 0.000000 0.000000 0.000000 0.000000 0.000000 0.003732
#
#
# Mechanical properties :
#
#
# Convention : Reuss Voigt Hill
#
# Bulk Modulus (GPa) = 45.05907 75.78822 60.42364
# Shear Modulus (GPa) = 27.86184 75.99455 51.92820
#
# Velocity S-wave (km/s) = 3.87851 6.40547 5.29495
# Velocity P-wave (km/s) = 6.66220 9.77883 8.36691
#
# Compressibility (1/GPa) = 0.02219309
#
# Stress axis : x y z
#
# Youngs Moduli (GPa) = 30.89500 75.22977 67.30081
#
# Poissons Ratio (x) = 0.23707 0.54882
# Poissons Ratio (y) = 0.09736 0.52878
# Poissons Ratio (z) = 0.25194 0.59108
#
# Static dielectric constant tensor:
#      x y z
#    x 1.662330 0.000000 0.000000 
#    y 0.000000 1.625150 0.000000 
#    z 0.000000 0.000000 1.670190 
# 
# From -- ./inp_files/11082.got.cif
#   From: 2010.05.17/outbox.cif.g08.bks.cpg/sg53_6_cif.got.tgz:11082.got - 2010.06.03 12:45:16.
