data_PCOD9416442
_publ_section_title
;
Structure prediction by ZEFSAII (Michael W. Deem and Ramdas Pophale) SiO2 
 PCOD9416442
Probable space group: P M N A
;
_chemical_formula_sum "Si O2"
_cell_formula_units_Z 64
_cell_length_a 8.094411
_cell_length_b 14.765657
_cell_length_c 26.493340
_cell_angle_alpha 90.000000
_cell_angle_beta 90.000000
_cell_angle_gamma 90.000000
_cell_volume 3166.465357
_symmetry_space_group_name_H-M "P M N A"
_symmetry_group_IT_number 53
_symmetry_cell_setting 'orthorhombic'
loop_
_space_group_symop_operation_xyz
x,y,z
1/2-x,-y,1/2+z
x,-y,-z
1/2-x,y,1/2-z
-x,-y,-z
1/2+x,y,1/2-z
-x,y,z
1/2+x,-y,1/2+z
loop_
_atom_site_type_symbol
_atom_site_label
_atom_site_fract_x
_atom_site_fract_y
_atom_site_fract_z
Si Si1 0.699276 0.095032 0.022876
Si Si2 0.797348 0.382060 0.098598
Si Si3 0.804444 0.908283 0.637264
Si Si4 0.305830 0.733056 0.693148
Si Si5 0.202250 0.409063 0.900787
Si Si6 0.300927 0.709091 0.306779
Si Si7 0.199165 0.287680 0.995010
Si Si8 0.198017 0.915286 0.192665
O O1 0.500000 0.091221 0.024571
O O2 0.760570 0.106010 0.080470
O O3 0.749014 0.183354 0.991631
O O4 0.758687 0.000000 0.000000
O O5 0.736540 0.332254 0.149234
O O6 0.746092 0.486655 0.096381
O O7 0.000000 0.380538 0.098563
O O8 0.743177 0.328553 0.048533
O O9 0.729888 0.835447 0.675565
O O10 0.000000 0.893306 0.636938
O O11 0.769025 0.009659 0.655559
O O12 0.250000 0.716233 0.750000
O O13 0.500000 0.719245 0.692751
O O14 0.257106 0.359995 0.849453
O O15 0.256463 0.349968 0.948791
O O16 0.000000 0.409017 0.901031
O O17 0.250000 0.684832 0.250000
O O18 0.500000 0.710557 0.308338
O O19 0.244312 0.812319 0.317365
O O20 0.000000 0.290615 0.994998
O O21 0.250000 0.937392 0.250000
O O22 0.000000 0.917566 0.189348
#
# Coordination Sequence:
#
# PCOD9416442 Si02
#       8
#     8   8   8   8   8   8   8   8
#     4  10  23  40  56  80 116 153 181 218 280 342
#     4   9  18  34  56  84 114 144 182 230 280 328
#     4  11  22  37  57  79 108 147 186 227 275 331
#     4  11  22  37  57  84 115 150 191 234 282 335
#     4   9  18  33  57  86 113 142 183 232 279 329
#     4   9  19  35  54  79 111 146 180 223 275 324
#     4  10  19  35  61  88 111 142 186 233 277 325
#     4  10  20  34  53  78 108 141 180 224 270 324
#
# _framework density 20.211811000000001
#
# number of rings (size 3 to 8) (size 9 to 14) (size 15 to 20)
#    0.000    2.125    1.250    1.875    1.750    3.250 
#    0.000    0.625    0.000    4.500    0.000    0.000 
#    0.000    0.000    0.000    0.000    0.000    0.000 
#
# Total GULP energy -357454.062997 kJ/mol
# GULP energy per Si atom -5585.219734 kJ/mol
# Density = 2.016581 g / cm^3
# Si number density = 20.211811 Si / 1000 Ang^3
#
#
#
# Elastic Constant Matrix: (Units=GPa)
#
#
# Indices 1 2 3 4 5 6 
#
# 1 7.5431 0.1584 10.1036 0.0000 0.0000 0.0000
# 2 0.1584 146.2878 82.5997 0.0000 0.0000 0.0000
# 3 10.1036 82.5997 127.2063 0.0000 0.0000 0.0000
# 4 0.0000 0.0000 0.0000 22.4927 0.0000 0.0000
# 5 0.0000 0.0000 0.0000 0.0000 6.4578 0.0000
# 6 0.0000 0.0000 0.0000 0.0000 0.0000 1.7980
#
#
#
# Elastic Compliance Matrix: (Units=1/GPa)
#
#
# Indices 1 2 3 4 5 6 
#
# 1 0.158776 0.010971 -0.019735 0.000000 0.000000 0.000000
# 2 0.010971 0.011551 -0.008372 0.000000 0.000000 0.000000
# 3 -0.019735 -0.008372 0.014865 0.000000 0.000000 0.000000
# 4 0.000000 0.000000 0.000000 0.044459 0.000000 0.000000
# 5 0.000000 0.000000 0.000000 0.000000 0.154851 0.000000
# 6 0.000000 0.000000 0.000000 0.000000 0.000000 0.556187
#
#
# Mechanical properties :
#
#
# Convention : Reuss Voigt Hill
#
# Bulk Modulus (GPa) = 6.62599 51.86231 29.24415
# Shear Modulus (GPa) = 4.87678 18.69471 11.78574
#
# Velocity S-wave (km/s) = 1.55502 3.04458 2.41739
# Velocity P-wave (km/s) = 2.55137 6.17045 4.72144
#
# Compressibility (1/GPa) = 0.15092075
#
# Stress axis : x y z
#
# Youngs Moduli (GPa) = 6.29816 86.57182 67.27214
#
# Poissons Ratio (x) = -0.94981 1.32763
# Poissons Ratio (y) = -0.06910 0.56320
# Poissons Ratio (z) = 0.12430 0.72478
#
# Static dielectric constant tensor:
#      x y z
#    x 1.719870 0.000000 0.000000 
#    y 0.000000 1.690170 0.000000 
#    z 0.000000 0.000000 1.703000 
# 
# From -- ./inp_files/34241.got.cif
#   From: 2010.05.17/outbox.cif.g08.bks.cpg/sg53_18_cif.got.tgz:34241.got - 2010.06.03 12:45:16.
