data_PCOD9416272
_publ_section_title
;
Structure prediction by ZEFSAII (Michael W. Deem and Ramdas Pophale) SiO2 
 PCOD9416272
Probable space group: P M N A
;
_chemical_formula_sum "Si O2"
_cell_formula_units_Z 52
_cell_length_a 22.967156
_cell_length_b 18.405424
_cell_length_c 7.244521
_cell_angle_alpha 90.000000
_cell_angle_beta 90.000000
_cell_angle_gamma 90.000000
_cell_volume 3062.405687
_symmetry_space_group_name_H-M "P M N A"
_symmetry_group_IT_number 53
_symmetry_cell_setting 'orthorhombic'
loop_
_space_group_symop_operation_xyz
x,y,z
1/2-x,-y,1/2+z
x,-y,-z
1/2-x,y,1/2-z
-x,-y,-z
1/2+x,y,1/2-z
-x,y,z
1/2+x,-y,1/2+z
loop_
_atom_site_type_symbol
_atom_site_label
_atom_site_fract_x
_atom_site_fract_y
_atom_site_fract_z
Si Si1 0.000000 0.130335 0.214146
Si Si2 0.871491 0.299147 0.479604
Si Si3 0.772322 0.415921 0.543819
Si Si4 0.316411 0.196087 0.718496
Si Si5 0.500000 0.745241 0.995056
Si Si6 0.095441 0.922267 0.076104
Si Si7 0.000000 0.903891 0.372998
Si Si8 0.696804 0.297273 0.370768
O O1 0.000000 0.211791 0.297886
O O2 0.055107 0.112765 0.085017
O O3 0.000000 0.083708 0.406291
O O4 0.831536 0.369009 0.526562
O O5 0.844919 0.232594 0.599789
O O6 0.858334 0.291268 0.261976
O O7 0.940321 0.299112 0.515571
O O8 0.780802 0.500000 0.500000
O O9 0.750000 0.409092 0.750000
O O10 0.722040 0.376950 0.421143
O O11 0.250000 0.173732 0.750000
O O12 0.353827 0.130861 0.637702
O O13 0.313698 0.257721 0.561632
O O14 0.500000 0.814677 0.134736
O O15 0.055022 0.931284 0.257529
O O16 0.114932 0.000000 0.000000
O O17 0.750000 0.263507 0.250000
#
# Coordination Sequence:
#
# PCOD9416272 Si02
#       8
#     4   8   8   8   4   8   4   8
#     4   9  19  39  59  85 108 147 196 246 300 343
#     4  11  20  37  56  88 117 151 195 242 291 352
#     4  11  20  36  60  94 121 155 196 245 293 340
#     4  12  20  37  59  78 117 153 197 240 305 349
#     4  10  20  36  60  86 111 153 193 241 297 353
#     4  11  23  36  57  85 114 150 195 248 303 357
#     4   9  19  37  59  81 105 143 190 250 290 346
#     4  10  19  34  58  86 110 147 195 243 289 343
#
# _framework density 16.980114
#
# number of rings (size 3 to 8) (size 9 to 14) (size 15 to 20)
#    0.462    0.923    6.154    3.231    0.000    1.231 
#    0.000    1.154    0.000    0.000    0.000    2.154 
#    0.000    0.000    0.000    0.000    0.000    0.000 
#
# Total GULP energy -289708.064401 kJ/mol
# GULP energy per Si atom -5571.308931 kJ/mol
# Density = 1.694147 g / cm^3
# Si number density = 16.980114 Si / 1000 Ang^3
#
#
#
# Elastic Constant Matrix: (Units=GPa)
#
#
# Indices 1 2 3 4 5 6 
#
# 1 113.7732 53.1341 27.7675 0.0000 0.0000 0.0000
# 2 53.1341 109.8195 27.4062 0.0000 0.0000 0.0000
# 3 27.7675 27.4062 98.1200 0.0000 0.0000 0.0000
# 4 0.0000 0.0000 0.0000 29.1111 0.0000 0.0000
# 5 0.0000 0.0000 0.0000 0.0000 10.3825 0.0000
# 6 0.0000 0.0000 0.0000 0.0000 0.0000 20.9514
#
#
#
# Elastic Compliance Matrix: (Units=1/GPa)
#
#
# Indices 1 2 3 4 5 6 
#
# 1 0.011661 -0.005179 -0.001853 0.000000 0.000000 0.000000
# 2 -0.005179 0.012089 -0.001911 0.000000 0.000000 0.000000
# 3 -0.001853 -0.001911 0.011250 0.000000 0.000000 0.000000
# 4 0.000000 0.000000 0.000000 0.034351 0.000000 0.000000
# 5 0.000000 0.000000 0.000000 0.000000 0.096316 0.000000
# 6 0.000000 0.000000 0.000000 0.000000 0.000000 0.047730
#
#
# Mechanical properties :
#
#
# Convention : Reuss Voigt Hill
#
# Bulk Modulus (GPa) = 58.43746 59.81427 59.12587
# Shear Modulus (GPa) = 21.09824 26.31597 23.70711
#
# Velocity S-wave (km/s) = 3.52877 3.94104 3.74059
# Velocity P-wave (km/s) = 7.14793 7.48409 7.31794
#
# Compressibility (1/GPa) = 0.01711231
#
# Stress axis : x y z
#
# Youngs Moduli (GPa) = 85.75957 82.72271 88.89071
#
# Poissons Ratio (x) = 0.42844 0.16474
# Poissons Ratio (y) = 0.44417 0.16985
# Poissons Ratio (z) = 0.15893 0.15807
#
# Static dielectric constant tensor:
#      x y z
#    x 1.570060 0.000000 0.000000 
#    y 0.000000 1.591190 0.000000 
#    z 0.000000 0.000000 1.605030 
# 
# From -- ./inp_files/11873.got.cif
#   From: 2010.05.17/outbox.cif.g08.bks.cpg/sg53_6_cif.got.tgz:11873.got - 2010.06.03 12:45:16.
