data_PCOD9416833
_publ_section_title
;
Structure prediction by ZEFSAII (Michael W. Deem and Ramdas Pophale) SiO2 
 PCOD9416833
Probable space group: P M N A
;
_chemical_formula_sum "Si O2"
_cell_formula_units_Z 56
_cell_length_a 14.397257
_cell_length_b 14.475060
_cell_length_c 14.617724
_cell_angle_alpha 90.000000
_cell_angle_beta 90.000000
_cell_angle_gamma 90.000000
_cell_volume 3046.350622
_symmetry_space_group_name_H-M "P M N A"
_symmetry_group_IT_number 53
_symmetry_cell_setting 'orthorhombic'
loop_
_space_group_symop_operation_xyz
x,y,z
1/2-x,-y,1/2+z
x,-y,-z
1/2-x,y,1/2-z
-x,-y,-z
1/2+x,y,1/2-z
-x,y,z
1/2+x,-y,1/2+z
loop_
_atom_site_type_symbol
_atom_site_label
_atom_site_fract_x
_atom_site_fract_y
_atom_site_fract_z
Si Si1 0.107928 0.778164 0.609898
Si Si2 0.732148 0.910919 0.550873
Si Si3 0.394923 0.109348 0.798346
Si Si4 0.610185 0.394636 0.993688
Si Si5 0.895443 0.815379 0.090544
Si Si6 0.226586 0.280253 0.647426
Si Si7 0.108492 0.912844 0.769667
O O1 0.186511 0.835695 0.557239
O O2 0.123896 0.671321 0.582761
O O3 0.117301 0.817316 0.713292
O O4 0.000000 0.799160 0.583940
O O5 0.647746 0.881000 0.485064
O O6 0.682307 0.921189 0.649217
O O7 0.772140 0.000000 0.500000
O O8 0.500000 0.126435 0.832711
O O9 0.394039 0.136334 0.690369
O O10 0.321397 0.178454 0.843258
O O11 0.376129 0.999945 0.799048
O O12 0.500000 0.396965 0.977131
O O13 0.659098 0.344413 0.909184
O O14 0.643247 0.500000 0.000000
O O15 0.824519 0.730977 0.097381
O O16 0.000000 0.789270 0.069381
O O17 0.250000 0.311652 0.750000
O O18 0.000000 0.921404 0.800254
#
# Coordination Sequence:
#
# PCOD9416833 Si02
#       7
#     8   8   8   8   8   8   8
#     4  10  23  39  55  83 114 147 190 243 298 344
#     4  12  22  33  56  81 116 165 203 227 270 332
#     4   9  18  32  52  80 116 151 191 236 279 325
#     4  10  21  41  67  89 111 141 185 242 304 366
#     4  10  20  33  50  78 115 154 195 235 267 321
#     4  10  20  35  58  87 114 148 188 239 289 340
#     4  10  21  35  53  81 119 159 197 237 274 331
#
# _framework density 18.382650999999999
#
# number of rings (size 3 to 8) (size 9 to 14) (size 15 to 20)
#    0.000    1.857    2.857    1.286    2.000    2.571 
#    0.000    1.429    0.000    0.429    0.000    0.000 
#    0.000    0.000    0.000    0.000    0.000    0.000 
#
# Total GULP energy -312420.497621 kJ/mol
# GULP energy per Si atom -5578.937458 kJ/mol
# Density = 1.834081 g / cm^3
# Si number density = 18.382651 Si / 1000 Ang^3
#
#
#
# Elastic Constant Matrix: (Units=GPa)
#
#
# Indices 1 2 3 4 5 6 
#
# 1 94.6547 35.5371 14.9014 0.0000 0.0000 0.0000
# 2 35.5371 106.9624 26.7144 0.0000 0.0000 0.0000
# 3 14.9014 26.7144 51.3110 0.0000 0.0000 0.0000
# 4 0.0000 0.0000 0.0000 16.5994 0.0000 0.0000
# 5 0.0000 0.0000 0.0000 0.0000 22.1332 0.0000
# 6 0.0000 0.0000 0.0000 0.0000 0.0000 20.2835
#
#
#
# Elastic Compliance Matrix: (Units=1/GPa)
#
#
# Indices 1 2 3 4 5 6 
#
# 1 0.012190 -0.003639 -0.001646 0.000000 0.000000 0.000000
# 2 -0.003639 0.011833 -0.005104 0.000000 0.000000 0.000000
# 3 -0.001646 -0.005104 0.022624 0.000000 0.000000 0.000000
# 4 0.000000 0.000000 0.000000 0.060243 0.000000 0.000000
# 5 0.000000 0.000000 0.000000 0.000000 0.045181 0.000000
# 6 0.000000 0.000000 0.000000 0.000000 0.000000 0.049301
#
#
# Mechanical properties :
#
#
# Convention : Reuss Voigt Hill
#
# Bulk Modulus (GPa) = 38.65443 45.24821 41.95132
# Shear Modulus (GPa) = 21.66637 23.52155 22.59396
#
# Velocity S-wave (km/s) = 3.43684 3.58096 3.50964
# Velocity P-wave (km/s) = 6.06816 6.46265 6.26850
#
# Compressibility (1/GPa) = 0.02587026
#
# Stress axis : x y z
#
# Youngs Moduli (GPa) = 82.03438 84.51081 44.20066
#
# Poissons Ratio (x) = 0.30754 0.07273
# Poissons Ratio (y) = 0.29853 0.22559
# Poissons Ratio (z) = 0.13499 0.43132
#
# Static dielectric constant tensor:
#      x y z
#    x 1.658810 0.000000 0.000000 
#    y 0.000000 1.645340 0.000000 
#    z 0.000000 0.000000 1.676500 
# 
# From -- ./inp_files/22949.got.cif
#   From: 2010.05.17/outbox.cif.g08.bks.cpg/sg53_12_cif.got.tgz:22949.got - 2010.06.03 12:45:16.
