data_PCOD9416943
_publ_section_title
;
Structure prediction by ZEFSAII (Michael W. Deem and Ramdas Pophale) SiO2 
 PCOD9416943
Probable space group: P M N A
;
_chemical_formula_sum "Si O2"
_cell_formula_units_Z 64
_cell_length_a 21.386972
_cell_length_b 9.134478
_cell_length_c 17.743085
_cell_angle_alpha 90.000000
_cell_angle_beta 90.000000
_cell_angle_gamma 90.000000
_cell_volume 3466.268241
_symmetry_space_group_name_H-M "P M N A"
_symmetry_group_IT_number 53
_symmetry_cell_setting 'orthorhombic'
loop_
_space_group_symop_operation_xyz
x,y,z
1/2-x,-y,1/2+z
x,-y,-z
1/2-x,y,1/2-z
-x,-y,-z
1/2+x,y,1/2-z
-x,y,z
1/2+x,-y,1/2+z
loop_
_atom_site_type_symbol
_atom_site_label
_atom_site_fract_x
_atom_site_fract_y
_atom_site_fract_z
Si Si1 0.303804 0.065927 0.310056
Si Si2 0.319417 0.613611 0.432160
Si Si3 0.144213 0.754253 0.210174
Si Si4 0.138826 0.368626 0.441218
Si Si5 0.755830 0.159359 0.029915
Si Si6 0.709049 0.523711 0.182068
Si Si7 0.926702 0.984138 0.738060
Si Si8 0.572651 0.083852 0.071810
O O1 0.250000 0.100258 0.250000
O O2 0.284578 0.138399 0.387710
O O3 0.309062 0.887626 0.313400
O O4 0.375035 0.105189 0.286046
O O5 0.334030 0.500000 0.500000
O O6 0.365554 0.651103 0.362665
O O7 0.304954 0.763599 0.475217
O O8 0.257275 0.563349 0.385506
O O9 0.176069 0.661479 0.276971
O O10 0.084666 0.846965 0.237847
O O11 0.130321 0.500000 0.500000
O O12 0.197026 0.267459 0.466303
O O13 0.156767 0.427991 0.358728
O O14 0.082006 0.256151 0.437792
O O15 0.739262 0.000000 0.000000
O O16 0.750000 0.454520 0.250000
O O17 0.000000 0.944329 0.744808
O O18 0.902109 0.966187 0.652454
O O19 0.500000 0.045754 0.075689
O O20 0.599381 0.000000 0.000000
#
# Coordination Sequence:
#
# PCOD9416943 Si02
#       8
#     8   8   8   8   8   8   8   8
#     4  10  20  33  55  88 116 145 195 246 299 352
#     4  11  19  38  52  83 124 157 186 243 308 368
#     4   9  21  35  58  84 114 159 194 247 302 361
#     4  12  24  35  54  86 122 160 192 237 304 365
#     4  12  21  33  56  83 118 147 193 237 295 357
#     4  10  20  35  53  77 123 156 187 233 297 362
#     4   9  20  40  62  85 117 156 206 251 293 357
#     4  10  23  42  61  83 115 158 207 254 291 342
#
# _framework density 18.463660999999998
#
# number of rings (size 3 to 8) (size 9 to 14) (size 15 to 20)
#    0.750    0.875    3.750    2.250    1.750    1.750 
#    0.000    0.625    0.000    3.750    0.000    0.000 
#    0.000    0.500    0.000    0.000    0.000    0.000 
#
# Total GULP energy -356399.457287 kJ/mol
# GULP energy per Si atom -5568.741520 kJ/mol
# Density = 1.842164 g / cm^3
# Si number density = 18.463661 Si / 1000 Ang^3
#
#
#
# Elastic Constant Matrix: (Units=GPa)
#
#
# Indices 1 2 3 4 5 6 
#
# 1 39.3704 -6.9200 15.9961 0.0000 0.0000 0.0000
# 2 -6.9200 67.7086 28.8238 0.0000 0.0000 0.0000
# 3 15.9961 28.8238 118.7726 0.0000 0.0000 0.0000
# 4 0.0000 0.0000 0.0000 41.5642 0.0000 0.0000
# 5 0.0000 0.0000 0.0000 0.0000 -12.9543 0.0000
# 6 0.0000 0.0000 0.0000 0.0000 0.0000 13.3362
#
#
#
# Elastic Compliance Matrix: (Units=1/GPa)
#
#
# Indices 1 2 3 4 5 6 
#
# 1 0.028333 0.005041 -0.005039 0.000000 0.000000 0.000000
# 2 0.005041 0.017368 -0.004894 0.000000 0.000000 0.000000
# 3 -0.005039 -0.004894 0.010286 0.000000 0.000000 0.000000
# 4 0.000000 0.000000 0.000000 0.024059 0.000000 0.000000
# 5 0.000000 0.000000 0.000000 0.000000 -0.077194 0.000000
# 6 0.000000 0.000000 0.000000 0.000000 0.000000 0.074984
#
#
# Mechanical properties :
#
#
# Convention : Reuss Voigt Hill
#
# Bulk Modulus (GPa) = 21.64378 33.51683 27.58030
# Shear Modulus (GPa) = 48.53430 20.91934 34.72682
#
# Velocity S-wave (km/s) = 5.13259 3.36966 4.34155
# Velocity P-wave (km/s) = 6.84634 5.77336 6.33262
#
# Compressibility (1/GPa) = 0.04620264
#
# Stress axis : x y z
#
# Youngs Moduli (GPa) = 35.29428 57.57837 97.22218
#
# Poissons Ratio (x) = -0.29025 0.48992
# Poissons Ratio (y) = -0.17792 0.47577
# Poissons Ratio (z) = 0.17785 0.28177
#
# Static dielectric constant tensor:
#      x y z
#    x 1.649370 0.000000 0.000000 
#    y 0.000000 1.662880 0.000000 
#    z 0.000000 0.000000 1.677080 
# 
# From -- ./inp_files/29619.got.cif
#   From: 2010.05.17/outbox.cif.g08.bks.cpg/sg53_15_cif.got.tgz:29619.got - 2010.06.03 12:45:16.
