data_PCOD9416572
_publ_section_title
;
Structure prediction by ZEFSAII (Michael W. Deem and Ramdas Pophale) SiO2 
 PCOD9416572
Probable space group: P M N A
;
_chemical_formula_sum "Si O2"
_cell_formula_units_Z 64
_cell_length_a 8.812018
_cell_length_b 12.282498
_cell_length_c 31.838191
_cell_angle_alpha 90.000000
_cell_angle_beta 90.000000
_cell_angle_gamma 90.000000
_cell_volume 3445.961821
_symmetry_space_group_name_H-M "P M N A"
_symmetry_group_IT_number 53
_symmetry_cell_setting 'orthorhombic'
loop_
_space_group_symop_operation_xyz
x,y,z
1/2-x,-y,1/2+z
x,-y,-z
1/2-x,y,1/2-z
-x,-y,-z
1/2+x,y,1/2-z
-x,y,z
1/2+x,-y,1/2+z
loop_
_atom_site_type_symbol
_atom_site_label
_atom_site_fract_x
_atom_site_fract_y
_atom_site_fract_z
Si Si1 0.676588 0.875760 0.012850
Si Si2 0.817933 0.508584 0.795277
Si Si3 0.681037 0.626537 0.377118
Si Si4 0.182263 0.899964 0.629287
Si Si5 0.682030 0.236720 0.295227
Si Si6 0.678075 0.855387 0.112927
Si Si7 0.178837 0.251982 0.058189
Si Si8 0.817943 0.514474 0.548975
O O1 0.500000 0.854844 0.000941
O O2 0.690024 0.863389 0.062477
O O3 0.781440 0.792395 0.988013
O O4 0.711460 0.000000 0.000000
O O5 0.750000 0.476842 0.750000
O O6 0.767477 0.439036 0.835497
O O7 0.781089 0.635802 0.802896
O O8 0.000000 0.499773 0.792273
O O9 0.500000 0.614968 0.380654
O O10 0.727469 0.751970 0.372546
O O11 0.755058 0.576102 0.419145
O O12 0.242180 0.837175 0.669704
O O13 0.252401 0.837441 0.589564
O O14 0.000000 0.895689 0.626050
O O15 0.226722 0.026872 0.629951
O O16 0.750000 0.208475 0.250000
O O17 0.500000 0.225283 0.295730
O O18 0.500000 0.838789 0.123105
O O19 0.256604 0.368693 0.064089
O O20 0.000000 0.262026 0.064835
O O21 0.771377 0.500000 0.500000
O O22 0.000000 0.512278 0.550246
#
# Coordination Sequence:
#
# PCOD9416572 Si02
#       8
#     8   8   8   8   8   8   8   8
#     4  10  19  37  58  78 110 154 198 243 288 341
#     4   9  20  38  61  89 118 148 186 234 291 353
#     4  11  23  39  60  88 122 155 193 247 306 355
#     4  11  22  39  60  84 114 153 197 239 285 344
#     4  10  20  37  61  90 120 149 184 234 294 355
#     4  10  22  39  59  82 113 156 202 241 286 348
#     4  12  24  36  56  87 118 148 190 245 298 347
#     4  11  24  41  60  83 115 159 204 242 290 355
#
# _framework density 18.572465000000001
#
# number of rings (size 3 to 8) (size 9 to 14) (size 15 to 20)
#    0.000    1.500    1.250    4.125    0.000    8.250 
#    0.000    0.625    0.000    1.500    0.000    0.000 
#    0.000    0.000    0.000    0.000    0.000    0.000 
#
# Total GULP energy -357728.025172 kJ/mol
# GULP energy per Si atom -5589.500393 kJ/mol
# Density = 1.853019 g / cm^3
# Si number density = 18.572465 Si / 1000 Ang^3
#
#
#
# Elastic Constant Matrix: (Units=GPa)
#
#
# Indices 1 2 3 4 5 6 
#
# 1 54.4001 40.2309 34.7601 0.0000 0.0000 0.0000
# 2 40.2309 102.6559 53.1050 0.0000 0.0000 0.0000
# 3 34.7601 53.1050 99.7410 0.0000 0.0000 0.0000
# 4 0.0000 0.0000 0.0000 28.4988 0.0000 0.0000
# 5 0.0000 0.0000 0.0000 0.0000 15.3772 0.0000
# 6 0.0000 0.0000 0.0000 0.0000 0.0000 25.9820
#
#
#
# Elastic Compliance Matrix: (Units=1/GPa)
#
#
# Indices 1 2 3 4 5 6 
#
# 1 0.027823 -0.008126 -0.005370 0.000000 0.000000 0.000000
# 2 -0.008126 0.015817 -0.005590 0.000000 0.000000 0.000000
# 3 -0.005370 -0.005590 0.014874 0.000000 0.000000 0.000000
# 4 0.000000 0.000000 0.000000 0.035089 0.000000 0.000000
# 5 0.000000 0.000000 0.000000 0.000000 0.065031 0.000000
# 6 0.000000 0.000000 0.000000 0.000000 0.000000 0.038488
#
#
# Mechanical properties :
#
#
# Convention : Reuss Voigt Hill
#
# Bulk Modulus (GPa) = 49.15750 56.99879 53.07814
# Shear Modulus (GPa) = 20.65476 22.55166 21.60321
#
# Velocity S-wave (km/s) = 3.33846 3.48839 3.41425
# Velocity P-wave (km/s) = 6.43318 6.85432 6.64709
#
# Compressibility (1/GPa) = 0.02034277
#
# Stress axis : x y z
#
# Youngs Moduli (GPa) = 35.94153 63.22123 67.23335
#
# Poissons Ratio (x) = 0.51373 0.36104
# Poissons Ratio (y) = 0.29206 0.37582
# Poissons Ratio (z) = 0.19300 0.35339
#
# Static dielectric constant tensor:
#      x y z
#    x 1.626210 0.000000 0.000000 
#    y 0.000000 1.634090 0.000000 
#    z 0.000000 0.000000 1.709920 
# 
# From -- ./inp_files/38286.got.cif
#   From: 2010.05.17/outbox.cif.g08.bks.cpg/sg53_20_cif.got.tgz:38286.got - 2010.06.03 12:45:16.
