data_PCOD9416287
_publ_section_title
;
Structure prediction by ZEFSAII (Michael W. Deem and Ramdas Pophale) SiO2 
 PCOD9416287
Probable space group: P M N A
;
_chemical_formula_sum "Si O2"
_cell_formula_units_Z 48
_cell_length_a 27.325389
_cell_length_b 16.366697
_cell_length_c 4.839790
_cell_angle_alpha 90.000000
_cell_angle_beta 90.000000
_cell_angle_gamma 90.000000
_cell_volume 2164.481675
_symmetry_space_group_name_H-M "P M N A"
_symmetry_group_IT_number 53
_symmetry_cell_setting 'orthorhombic'
loop_
_space_group_symop_operation_xyz
x,y,z
1/2-x,-y,1/2+z
x,-y,-z
1/2-x,y,1/2-z
-x,-y,-z
1/2+x,y,1/2-z
-x,y,z
1/2+x,-y,1/2+z
loop_
_atom_site_type_symbol
_atom_site_label
_atom_site_fract_x
_atom_site_fract_y
_atom_site_fract_z
Si Si1 0.393806 0.735681 0.487894
Si Si2 0.810552 0.053658 0.253880
Si Si3 0.250000 0.201693 0.250000
Si Si4 0.212731 0.500000 0.500000
Si Si5 0.000000 0.729353 0.148278
Si Si6 0.500000 0.844440 0.847615
Si Si7 0.397677 0.151359 0.005124
Si Si8 0.804192 0.329546 0.637280
O O1 0.446380 0.691739 0.423777
O O2 0.392663 0.766012 0.803710
O O3 0.344367 0.694657 0.367051
O O4 0.396611 0.818318 0.306589
O O5 0.784601 0.133431 0.111451
O O6 0.854535 0.092189 0.422913
O O7 0.783655 0.000000 0.500000
O O8 0.826924 0.000000 0.000000
O O9 0.213568 0.256897 0.432185
O O10 0.250000 0.516095 0.750000
O O11 0.180754 0.582684 0.484066
O O12 0.000000 0.761406 0.461859
O O13 0.000000 0.811515 0.961656
O O14 0.449721 0.886901 0.919885
O O15 0.750000 0.349731 0.750000
#
# Coordination Sequence:
#
# PCOD9416287 Si02
#       8
#     8   8   4   4   4   4   8   8
#     4  10  19  34  59  86 112 152 195 235 284 345
#     4  12  26  40  54  78 113 151 192 241 284 332
#     4  12  24  40  60  78 110 154 196 228 284 352
#     4  10  22  40  56  89 124 149 184 238 292 340
#     4   8  16  30  52  84 114 140 190 243 275 328
#     4   8  16  30  56  79 106 139 186 241 285 336
#     4  10  19  37  56  82 110 147 193 238 289 336
#     4  11  23  37  63  88 120 152 193 236 288 356
#
# _framework density 22.176207999999999
#
# number of rings (size 3 to 8) (size 9 to 14) (size 15 to 20)
#    0.000    1.667    2.500    2.500    2.333    0.000 
#    0.000    0.833    0.000    0.500    0.000    0.000 
#    0.000   12.000    0.000    0.000    0.000    1.750 
#
# Total GULP energy -267374.754569 kJ/mol
# GULP energy per Si atom -5570.307387 kJ/mol
# Density = 2.212573 g / cm^3
# Si number density = 22.176208 Si / 1000 Ang^3
#
#
#
# Elastic Constant Matrix: (Units=GPa)
#
#
# Indices 1 2 3 4 5 6 
#
# 1 116.2370 6.8029 -16.2611 0.0000 0.0000 0.0000
# 2 6.8029 92.3945 3.0940 0.0000 0.0000 0.0000
# 3 -16.2611 3.0940 64.0786 0.0000 0.0000 0.0000
# 4 0.0000 0.0000 0.0000 20.3185 0.0000 0.0000
# 5 0.0000 0.0000 0.0000 0.0000 12.9007 0.0000
# 6 0.0000 0.0000 0.0000 0.0000 0.0000 9.9722
#
#
#
# Elastic Compliance Matrix: (Units=1/GPa)
#
#
# Indices 1 2 3 4 5 6 
#
# 1 0.008970 -0.000738 0.002312 0.000000 0.000000 0.000000
# 2 -0.000738 0.010901 -0.000714 0.000000 0.000000 0.000000
# 3 0.002312 -0.000714 0.016227 0.000000 0.000000 0.000000
# 4 0.000000 0.000000 0.000000 0.049216 0.000000 0.000000
# 5 0.000000 0.000000 0.000000 0.000000 0.077515 0.000000
# 6 0.000000 0.000000 0.000000 0.000000 0.000000 0.100279
#
#
# Mechanical properties :
#
#
# Convention : Reuss Voigt Hill
#
# Bulk Modulus (GPa) = 26.44181 28.88683 27.66432
# Shear Modulus (GPa) = 18.24857 27.24322 22.74589
#
# Velocity S-wave (km/s) = 2.87172 3.50878 3.20611
# Velocity P-wave (km/s) = 4.79010 5.42860 5.11932
#
# Compressibility (1/GPa) = 0.03781889
#
# Stress axis : x y z
#
# Youngs Moduli (GPa) = 111.48621 91.73155 61.62577
#
# Poissons Ratio (x) = 0.06768 -0.14247
# Poissons Ratio (y) = 0.08226 0.04398
# Poissons Ratio (z) = -0.25774 0.06546
#
# Static dielectric constant tensor:
#      x y z
#    x 1.981280 0.000000 0.000000 
#    y 0.000000 1.848150 0.000000 
#    z 0.000000 0.000000 1.840500 
# 
# From -- ./inp_files/5323.got.cif
#   From: 2010.05.17/outbox.cif.g08.bks.cpg/sg53_3_cif.got.tgz:5323.got - 2010.06.03 12:45:16.
