data_PCOD9416854
_publ_section_title
;
Structure prediction by ZEFSAII (Michael W. Deem and Ramdas Pophale) SiO2 
 PCOD9416854
Probable space group: P M N A
;
_chemical_formula_sum "Si O2"
_cell_formula_units_Z 48
_cell_length_a 7.833464
_cell_length_b 10.426195
_cell_length_c 24.515337
_cell_angle_alpha 90.000000
_cell_angle_beta 90.000000
_cell_angle_gamma 90.000000
_cell_volume 2002.246590
_symmetry_space_group_name_H-M "P M N A"
_symmetry_group_IT_number 53
_symmetry_cell_setting 'orthorhombic'
loop_
_space_group_symop_operation_xyz
x,y,z
1/2-x,-y,1/2+z
x,-y,-z
1/2-x,y,1/2-z
-x,-y,-z
1/2+x,y,1/2-z
-x,y,z
1/2+x,-y,1/2+z
loop_
_atom_site_type_symbol
_atom_site_label
_atom_site_fract_x
_atom_site_fract_y
_atom_site_fract_z
Si Si1 0.197159 0.331272 0.536687
Si Si2 0.204168 0.586934 0.347750
Si Si3 0.205128 0.314701 0.309981
Si Si4 0.796227 0.944387 0.076238
Si Si5 0.201799 0.134476 0.808528
Si Si6 0.793531 0.771791 0.571402
O O1 0.273839 0.399571 0.590168
O O2 0.204370 0.180667 0.553019
O O3 0.268794 0.328344 0.475132
O O4 0.000000 0.372534 0.533050
O O5 0.267284 0.462411 0.315988
O O6 0.235355 0.720078 0.317019
O O7 0.000000 0.573012 0.352923
O O8 0.250000 0.263489 0.250000
O O9 0.267665 0.251967 0.366769
O O10 0.000000 0.311692 0.312393
O O11 0.739041 0.946258 0.139727
O O12 0.000000 0.921992 0.071833
O O13 0.757155 0.084564 0.054225
O O14 0.250000 0.082434 0.750000
O O15 0.000000 0.139986 0.811323
O O16 0.000000 0.763210 0.571282
#
# Coordination Sequence:
#
# PCOD9416854 Si02
#       6
#     8   8   8   8   8   8
#     4   9  18  34  57  82 106 134 170 214 263 312
#     4   9  18  34  56  80 105 134 170 214 264 313
#     4  10  22  38  55  77 106 141 178 215 256 305
#     4  10  21  35  52  77 108 140 174 215 263 312
#     4  10  20  33  51  76 104 135 174 220 266 310
#     4  10  21  36  54  77 106 140 176 213 255 307
#
# _framework density 23.973071999999998
#
# number of rings (size 3 to 8) (size 9 to 14) (size 15 to 20)
#    0.000    2.333    0.000    2.000    0.000    8.667 
#    0.000    6.667    0.000    0.000    0.000    7.000 
#    0.000    0.000    0.000    0.000    0.000    0.000 
#
# Total GULP energy -268013.410058 kJ/mol
# GULP energy per Si atom -5583.612710 kJ/mol
# Density = 2.391851 g / cm^3
# Si number density = 23.973072 Si / 1000 Ang^3
#
#
#
# Elastic Constant Matrix: (Units=GPa)
#
#
# Indices 1 2 3 4 5 6 
#
# 1 35.2164 -8.1420 6.7056 0.0000 0.0000 0.0000
# 2 -8.1420 25.7968 12.3358 0.0000 0.0000 0.0000
# 3 6.7056 12.3358 159.9609 0.0000 0.0000 0.0000
# 4 0.0000 0.0000 0.0000 27.3619 0.0000 0.0000
# 5 0.0000 0.0000 0.0000 0.0000 18.5346 0.0000
# 6 0.0000 0.0000 0.0000 0.0000 0.0000 24.7363
#
#
#
# Elastic Compliance Matrix: (Units=1/GPa)
#
#
# Indices 1 2 3 4 5 6 
#
# 1 0.031331 0.010919 -0.002155 0.000000 0.000000 0.000000
# 2 0.010919 0.044054 -0.003855 0.000000 0.000000 0.000000
# 3 -0.002155 -0.003855 0.006639 0.000000 0.000000 0.000000
# 4 0.000000 0.000000 0.000000 0.036547 0.000000 0.000000
# 5 0.000000 0.000000 0.000000 0.000000 0.053953 0.000000
# 6 0.000000 0.000000 0.000000 0.000000 0.000000 0.040426
#
#
# Mechanical properties :
#
#
# Convention : Reuss Voigt Hill
#
# Bulk Modulus (GPa) = 10.88827 26.97478 18.93152
# Shear Modulus (GPa) = 21.39063 28.13156 24.76109
#
# Velocity S-wave (km/s) = 2.99034 3.42930 3.21732
# Velocity P-wave (km/s) = 4.05889 5.19199 4.66001
#
# Compressibility (1/GPa) = 0.09184192
#
# Stress axis : x y z
#
# Youngs Moduli (GPa) = 31.91746 22.69925 150.62101
#
# Poissons Ratio (x) = -0.24786 0.32466
# Poissons Ratio (y) = -0.34852 0.58066
# Poissons Ratio (z) = 0.06880 0.08751
#
# Static dielectric constant tensor:
#      x y z
#    x 1.879150 0.000000 0.000000 
#    y 0.000000 1.890250 0.000000 
#    z 0.000000 0.000000 2.003750 
# 
# From -- ./inp_files/33893.got.cif
#   From: 2010.05.17/outbox.cif.g08.bks.cpg/sg53_17_cif.got.tgz:33893.got - 2010.06.03 12:45:16.
