data_PCOD9416412
_publ_section_title
;
Structure prediction by ZEFSAII (Michael W. Deem and Ramdas Pophale) SiO2 
 PCOD9416412
Probable space group: P M N A
;
_chemical_formula_sum "Si O2"
_cell_formula_units_Z 64
_cell_length_a 8.902659
_cell_length_b 20.278695
_cell_length_c 20.318387
_cell_angle_alpha 90.000000
_cell_angle_beta 90.000000
_cell_angle_gamma 90.000000
_cell_volume 3668.165907
_symmetry_space_group_name_H-M "P M N A"
_symmetry_group_IT_number 53
_symmetry_cell_setting 'orthorhombic'
loop_
_space_group_symop_operation_xyz
x,y,z
1/2-x,-y,1/2+z
x,-y,-z
1/2-x,y,1/2-z
-x,-y,-z
1/2+x,y,1/2-z
-x,y,z
1/2+x,-y,1/2+z
loop_
_atom_site_type_symbol
_atom_site_label
_atom_site_fract_x
_atom_site_fract_y
_atom_site_fract_z
Si Si1 0.678946 0.557716 0.320688
Si Si2 0.177705 0.199366 0.893645
Si Si3 0.820165 0.403002 0.178987
Si Si4 0.178256 0.829468 0.952399
Si Si5 0.819668 0.310354 0.431921
Si Si6 0.321179 0.663185 0.083748
Si Si7 0.319490 0.066545 0.678957
Si Si8 0.320473 0.030822 0.071892
O O1 0.750000 0.575219 0.250000
O O2 0.500000 0.565179 0.317004
O O3 0.712983 0.480509 0.333225
O O4 0.744203 0.604073 0.377221
O O5 0.267671 0.266981 0.886455
O O6 0.221470 0.140345 0.845334
O O7 0.000000 0.213007 0.885962
O O8 0.200726 0.173967 0.968440
O O9 0.750000 0.386162 0.250000
O O10 0.749180 0.358546 0.122210
O O11 0.000000 0.394841 0.180878
O O12 0.252330 0.762946 0.924739
O O13 0.254552 0.895623 0.926305
O O14 0.000000 0.830051 0.939879
O O15 0.780669 0.334280 0.506158
O O16 0.000000 0.308243 0.426842
O O17 0.500000 0.657414 0.088860
O O18 0.250000 0.053913 0.750000
O O19 0.500000 0.062302 0.680319
O O20 0.254993 0.015062 0.626454
O O21 0.500000 0.031968 0.080442
O O22 0.287583 0.000000 0.000000
#
# Coordination Sequence:
#
# PCOD9416412 Si02
#       8
#     8   8   8   8   8   8   8   8
#     4  10  21  37  57  80 110 147 191 236 282 339
#     4   9  19  35  55  78 109 148 187 228 276 331
#     4  10  21  38  60  84 110 147 190 235 286 342
#     4  10  19  35  59  85 112 145 188 233 277 331
#     4  10  21  37  57  85 118 150 186 233 283 336
#     4  10  21  35  55  83 116 151 188 232 281 331
#     4  11  23  39  57  82 115 151 191 235 285 337
#     4  11  22  36  59  87 114 148 189 233 280 336
#
# _framework density 17.447412
#
# number of rings (size 3 to 8) (size 9 to 14) (size 15 to 20)
#    0.000    1.875    1.250    2.625    0.000    6.000 
#    0.000    4.375    0.000    0.000    0.000    0.000 
#    0.000    0.000    0.000    0.000    0.000    0.000 
#
# Total GULP energy -357475.290260 kJ/mol
# GULP energy per Si atom -5585.551410 kJ/mol
# Density = 1.740770 g / cm^3
# Si number density = 17.447412 Si / 1000 Ang^3
#
#
#
# Elastic Constant Matrix: (Units=GPa)
#
#
# Indices 1 2 3 4 5 6 
#
# 1 76.4757 72.3885 70.1870 0.0000 0.0000 0.0000
# 2 72.3885 135.3391 97.4126 0.0000 0.0000 0.0000
# 3 70.1870 97.4126 123.4848 0.0000 0.0000 0.0000
# 4 0.0000 0.0000 0.0000 27.4471 0.0000 0.0000
# 5 0.0000 0.0000 0.0000 0.0000 30.1311 0.0000
# 6 0.0000 0.0000 0.0000 0.0000 0.0000 31.5435
#
#
#
# Elastic Compliance Matrix: (Units=1/GPa)
#
#
# Indices 1 2 3 4 5 6 
#
# 1 0.031616 -0.009200 -0.010713 0.000000 0.000000 0.000000
# 2 -0.009200 0.019773 -0.010369 0.000000 0.000000 0.000000
# 3 -0.010713 -0.010369 0.022367 0.000000 0.000000 0.000000
# 4 0.000000 0.000000 0.000000 0.036434 0.000000 0.000000
# 5 0.000000 0.000000 0.000000 0.000000 0.033188 0.000000
# 6 0.000000 0.000000 0.000000 0.000000 0.000000 0.031702
#
#
# Mechanical properties :
#
#
# Convention : Reuss Voigt Hill
#
# Bulk Modulus (GPa) = 75.79989 90.58618 83.19304
# Shear Modulus (GPa) = 20.82987 24.17843 22.50415
#
# Velocity S-wave (km/s) = 3.45898 3.72666 3.59531
# Velocity P-wave (km/s) = 7.71310 8.39938 8.06354
#
# Compressibility (1/GPa) = 0.01319263
#
# Stress axis : x y z
#
# Youngs Moduli (GPa) = 31.62976 50.57483 44.70896
#
# Poissons Ratio (x) = 0.46527 0.47896
# Poissons Ratio (y) = 0.29098 0.46359
# Poissons Ratio (z) = 0.33884 0.52441
#
# Static dielectric constant tensor:
#      x y z
#    x 1.577500 0.000000 0.000000 
#    y 0.000000 1.569060 0.000000 
#    z 0.000000 0.000000 1.570150 
# 
# From -- ./inp_files/31186.got.cif
#   From: 2010.05.17/outbox.cif.g08.bks.cpg/sg53_16_cif.got.tgz:31186.got - 2010.06.03 12:45:16.
