data_PCOD9416453
_publ_section_title
;
Structure prediction by ZEFSAII (Michael W. Deem and Ramdas Pophale) SiO2 
 PCOD9416453
Probable space group: P M N A
;
_chemical_formula_sum "Si O2"
_cell_formula_units_Z 64
_cell_length_a 29.772002
_cell_length_b 5.828475
_cell_length_c 18.800831
_cell_angle_alpha 90.000000
_cell_angle_beta 90.000000
_cell_angle_gamma 90.000000
_cell_volume 3262.421143
_symmetry_space_group_name_H-M "P M N A"
_symmetry_group_IT_number 53
_symmetry_cell_setting 'orthorhombic'
loop_
_space_group_symop_operation_xyz
x,y,z
1/2-x,-y,1/2+z
x,-y,-z
1/2-x,y,1/2-z
-x,-y,-z
1/2+x,y,1/2-z
-x,y,z
1/2+x,-y,1/2+z
loop_
_atom_site_type_symbol
_atom_site_label
_atom_site_fract_x
_atom_site_fract_y
_atom_site_fract_z
Si Si1 0.414320 0.988622 0.921492
Si Si2 0.135394 0.118884 0.923274
Si Si3 0.906173 0.833723 0.812092
Si Si4 0.051224 0.548330 0.085403
Si Si5 0.118664 0.402355 0.324784
Si Si6 0.729482 0.750060 0.460563
Si Si7 0.450543 0.791486 0.216055
Si Si8 0.829222 0.337582 0.570511
O O1 0.446319 0.086333 0.860495
O O2 0.368531 0.143953 0.927639
O O3 0.402307 0.737720 0.891248
O O4 0.434269 0.000000 0.000000
O O5 0.092130 0.274894 0.908257
O O6 0.182510 0.249762 0.918148
O O7 0.131316 0.922626 0.865649
O O8 0.130338 0.000000 0.000000
O O9 0.935570 0.656550 0.859771
O O10 0.878146 0.759099 0.742558
O O11 0.938234 0.028274 0.777544
O O12 0.000000 0.624560 0.101318
O O13 0.051321 0.500000 0.000000
O O14 0.085734 0.593296 0.292486
O O15 0.162135 0.514597 0.358789
O O16 0.729137 0.500000 0.500000
O O17 0.779097 0.759499 0.427304
O O18 0.726558 0.000000 0.500000
O O19 0.500000 0.696310 0.226798
O O20 0.833570 0.500000 0.500000
#
# Coordination Sequence:
#
# PCOD9416453 Si02
#       8
#     8   8   8   8   8   8   8   8
#     4  10  19  35  62  92 126 162 217 272 325 374
#     4  11  23  41  64  95 130 165 213 272 331 401
#     4  11  23  41  64  88 127 171 214 271 335 395
#     4  11  23  39  65  96 125 165 219 278 331 390
#     4  10  22  38  62  92 127 169 215 269 327 393
#     4  10  23  39  68 107 135 173 218 273 332 396
#     4  10  23  40  58  86 124 173 221 263 328 401
#     4  10  19  36  67  99 126 163 219 270 315 389
#
# _framework density 19.617332999999999
#
# number of rings (size 3 to 8) (size 9 to 14) (size 15 to 20)
#    0.000    1.625    2.500    1.875    3.500    5.000 
#    0.000    0.625    0.000   18.000    0.000    0.000 
#    0.000    0.000    0.000    0.000    0.000    0.000 
#
# Total GULP energy -356342.982786 kJ/mol
# GULP energy per Si atom -5567.859106 kJ/mol
# Density = 1.957268 g / cm^3
# Si number density = 19.617333 Si / 1000 Ang^3
#
#
#
# Elastic Constant Matrix: (Units=GPa)
#
#
# Indices 1 2 3 4 5 6 
#
# 1 121.8468 22.6927 25.1739 0.0000 0.0000 0.0000
# 2 22.6927 51.7763 16.8997 0.0000 0.0000 0.0000
# 3 25.1739 16.8997 125.0716 0.0000 0.0000 0.0000
# 4 0.0000 0.0000 0.0000 39.2929 0.0000 0.0000
# 5 0.0000 0.0000 0.0000 0.0000 -1.8557 0.0000
# 6 0.0000 0.0000 0.0000 0.0000 0.0000 75.7748
#
#
#
# Elastic Compliance Matrix: (Units=1/GPa)
#
#
# Indices 1 2 3 4 5 6 
#
# 1 0.009152 -0.003567 -0.001360 0.000000 0.000000 0.000000
# 2 -0.003567 0.021595 -0.002200 0.000000 0.000000 0.000000
# 3 -0.001360 -0.002200 0.008566 0.000000 0.000000 0.000000
# 4 0.000000 0.000000 0.000000 0.025450 0.000000 0.000000
# 5 0.000000 0.000000 0.000000 0.000000 -0.538878 0.000000
# 6 0.000000 0.000000 0.000000 0.000000 0.000000 0.013197
#
#
# Mechanical properties :
#
#
# Convention : Reuss Voigt Hill
#
# Bulk Modulus (GPa) = 39.90532 47.58083 43.74307
# Shear Modulus (GPa) = -11.40748 38.23763 13.41507
#
# Velocity S-wave (km/s) = -2.41405 4.41974 2.61787
# Velocity P-wave (km/s) = 3.55188 7.09595 5.61108
#
# Compressibility (1/GPa) = 0.02505932
#
# Stress axis : x y z
#
# Youngs Moduli (GPa) = 109.26066 46.30610 116.73463
#
# Poissons Ratio (x) = 0.16519 0.15877
# Poissons Ratio (y) = 0.38978 0.25681
# Poissons Ratio (z) = 0.14861 0.10187
#
# Static dielectric constant tensor:
#      x y z
#    x 1.659220 0.000000 0.000000 
#    y 0.000000 1.822510 0.000000 
#    z 0.000000 0.000000 1.755400 
# 
# From -- ./inp_files/29823.got.cif
#   From: 2010.05.17/outbox.cif.g08.bks.cpg/sg53_15_cif.got.tgz:29823.got - 2010.06.03 12:45:16.
