data_PCOD9416610
_publ_section_title
;
Structure prediction by ZEFSAII (Michael W. Deem and Ramdas Pophale) SiO2 
 PCOD9416610
Probable space group: P M N A
;
_chemical_formula_sum "Si O2"
_cell_formula_units_Z 40
_cell_length_a 23.159448
_cell_length_b 8.557478
_cell_length_c 9.875162
_cell_angle_alpha 90.000000
_cell_angle_beta 90.000000
_cell_angle_gamma 90.000000
_cell_volume 1957.123465
_symmetry_space_group_name_H-M "P M N A"
_symmetry_group_IT_number 53
_symmetry_cell_setting 'orthorhombic'
loop_
_space_group_symop_operation_xyz
x,y,z
1/2-x,-y,1/2+z
x,-y,-z
1/2-x,y,1/2-z
-x,-y,-z
1/2+x,y,1/2-z
-x,y,z
1/2+x,-y,1/2+z
loop_
_atom_site_type_symbol
_atom_site_label
_atom_site_fract_x
_atom_site_fract_y
_atom_site_fract_z
Si Si1 0.649963 0.309540 0.515830
Si Si2 0.268591 0.653837 0.908019
Si Si3 0.067614 0.667184 0.261634
Si Si4 0.437516 0.297060 0.289832
Si Si5 0.612204 0.178610 0.034998
O O1 0.650808 0.500000 0.500000
O O2 0.715567 0.261201 0.486302
O O3 0.615200 0.274506 0.652734
O O4 0.610987 0.249042 0.394293
O O5 0.250000 0.622128 0.750000
O O6 0.278538 0.500000 0.000000
O O7 0.327918 0.747348 0.913011
O O8 0.070498 0.478171 0.253706
O O9 0.087473 0.728191 0.406808
O O10 0.000000 0.708853 0.234583
O O11 0.500000 0.286677 0.356732
O O12 0.432705 0.195157 0.156736
O O13 0.621471 0.000000 0.000000
#
# Coordination Sequence:
#
# PCOD9416610 Si02
#       5
#     8   8   8   8   8
#     4   9  19  36  63  95 122 150 195 262 317 358
#     4  11  23  42  69  96 120 156 206 257 307 363
#     4  10  21  39  65  95 121 156 210 260 308 363
#     4  10  19  37  65  92 120 157 204 258 307 359
#     4  12  26  41  58  87 130 169 204 249 303 369
#
# _framework density 20.438157
#
# number of rings (size 3 to 8) (size 9 to 14) (size 15 to 20)
#    0.000    1.600    2.000    3.000    5.600    5.600 
#    3.600    1.000    0.000    2.400    0.000    0.000 
#    0.000    0.000    0.000    0.000    0.000    0.000 
#
# Total GULP energy -223267.029341 kJ/mol
# GULP energy per Si atom -5581.675734 kJ/mol
# Density = 2.039164 g / cm^3
# Si number density = 20.438157 Si / 1000 Ang^3
#
#
#
# Elastic Constant Matrix: (Units=GPa)
#
#
# Indices 1 2 3 4 5 6 
#
# 1 104.0752 13.6235 0.9935 0.0000 0.0000 0.0000
# 2 13.6235 21.3975 -2.5891 0.0000 0.0000 0.0000
# 3 0.9935 -2.5891 71.2126 0.0000 0.0000 0.0000
# 4 0.0000 0.0000 0.0000 -0.3053 0.0000 0.0000
# 5 0.0000 0.0000 0.0000 0.0000 28.1812 0.0000
# 6 0.0000 0.0000 0.0000 0.0000 0.0000 -1.5977
#
#
#
# Elastic Compliance Matrix: (Units=1/GPa)
#
#
# Indices 1 2 3 4 5 6 
#
# 1 0.010493 -0.006728 -0.000391 0.000000 0.000000 0.000000
# 2 -0.006728 0.051255 0.001957 0.000000 0.000000 0.000000
# 3 -0.000391 0.001957 0.014119 0.000000 0.000000 0.000000
# 4 0.000000 0.000000 0.000000 -3.275307 0.000000 0.000000
# 5 0.000000 0.000000 0.000000 0.000000 0.035485 0.000000
# 6 0.000000 0.000000 0.000000 0.000000 0.000000 -0.625887
#
#
# Mechanical properties :
#
#
# Convention : Reuss Voigt Hill
#
# Bulk Modulus (GPa) = 15.25703 24.52680 19.89191
# Shear Modulus (GPa) = -1.33061 17.56612 8.11775
#
# Velocity S-wave (km/s) = -0.80775 2.93486 1.99512
# Velocity P-wave (km/s) = 2.57123 4.84883 3.88087
#
# Compressibility (1/GPa) = 0.06554356
#
# Stress axis : x y z
#
# Youngs Moduli (GPa) = 95.30277 19.51032 70.82614
#
# Poissons Ratio (x) = 0.13127 0.02769
# Poissons Ratio (y) = 0.64120 -0.13863
# Poissons Ratio (z) = 0.03726 -0.03819
#
# Static dielectric constant tensor:
#      x y z
#    x 1.733980 0.000000 0.000000 
#    y 0.000000 1.707260 0.000000 
#    z 0.000000 0.000000 1.723270 
# 
# From -- ./inp_files/11518.got.cif
#   From: 2010.05.17/outbox.cif.g08.bks.cpg/sg53_6_cif.got.tgz:11518.got - 2010.06.03 12:45:16.
