data_PCOD9416626
_publ_section_title
;
Structure prediction by ZEFSAII (Michael W. Deem and Ramdas Pophale) SiO2 
 PCOD9416626
Probable space group: P M N A
;
_chemical_formula_sum "Si O2"
_cell_formula_units_Z 48
_cell_length_a 14.913454
_cell_length_b 9.427870
_cell_length_c 17.453031
_cell_angle_alpha 90.000000
_cell_angle_beta 90.000000
_cell_angle_gamma 90.000000
_cell_volume 2453.932907
_symmetry_space_group_name_H-M "P M N A"
_symmetry_group_IT_number 53
_symmetry_cell_setting 'orthorhombic'
loop_
_space_group_symop_operation_xyz
x,y,z
1/2-x,-y,1/2+z
x,-y,-z
1/2-x,y,1/2-z
-x,-y,-z
1/2+x,y,1/2-z
-x,y,z
1/2+x,-y,1/2+z
loop_
_atom_site_type_symbol
_atom_site_label
_atom_site_fract_x
_atom_site_fract_y
_atom_site_fract_z
Si Si1 0.304123 0.649130 0.457306
Si Si2 0.000000 0.848208 0.542277
Si Si3 0.000000 0.597858 0.077790
Si Si4 0.828456 0.676556 0.314216
Si Si5 0.308745 0.145969 0.045861
Si Si6 0.160596 0.997679 0.295865
Si Si7 0.000000 0.499155 0.745941
Si Si8 0.500000 0.163225 0.224903
O O1 0.305626 0.500000 0.500000
O O2 0.404281 0.678194 0.425766
O O3 0.227752 0.648269 0.391795
O O4 0.274003 0.761994 0.520344
O O5 0.095828 0.778739 0.525448
O O6 0.000000 0.873264 0.633637
O O7 0.000000 0.000000 0.500000
O O8 0.000000 0.524235 0.161683
O O9 0.000000 0.500000 0.000000
O O10 0.750000 0.665944 0.250000
O O11 0.867340 0.838000 0.319343
O O12 0.910843 0.573011 0.291468
O O13 0.314000 0.098476 0.133248
O O14 0.305432 0.000000 0.000000
O O15 0.250000 0.974849 0.250000
O O16 0.087541 0.081883 0.246461
O O17 0.000000 0.668679 0.733082
#
# Coordination Sequence:
#
# PCOD9416626 Si02
#       8
#     8   4   4   8   8   8   4   4
#     4  11  24  41  67  93 127 171 219 268 326 396
#     4   8  18  34  58  84 126 165 190 245 315 387
#     4  10  24  47  64  91 129 179 221 271 334 381
#     4  11  23  42  65  95 128 174 220 268 323 393
#     4  10  19  38  61  88 125 165 206 259 326 379
#     4  10  22  40  64  89 128 171 216 264 326 387
#     4  12  25  40  69  98 138 171 224 276 323 396
#     4  10  23  39  60  97 126 167 209 258 328 384
#
# _framework density 19.560437
#
# number of rings (size 3 to 8) (size 9 to 14) (size 15 to 20)
#    0.000    1.667    3.333    0.500    4.667    4.000 
#    0.000    1.250    0.000    0.000    0.000    0.000 
#    0.000    0.000    0.000    0.000    0.000    0.000 
#
# Total GULP energy -267380.923044 kJ/mol
# GULP energy per Si atom -5570.435897 kJ/mol
# Density = 1.951592 g / cm^3
# Si number density = 19.560437 Si / 1000 Ang^3
#
#
#
# Elastic Constant Matrix: (Units=GPa)
#
#
# Indices 1 2 3 4 5 6 
#
# 1 122.2098 58.3937 4.5694 0.0000 0.0000 0.0000
# 2 58.3937 93.1714 3.7040 0.0000 0.0000 0.0000
# 3 4.5694 3.7040 34.6571 0.0000 0.0000 0.0000
# 4 0.0000 0.0000 0.0000 24.2401 0.0000 0.0000
# 5 0.0000 0.0000 0.0000 0.0000 29.4646 0.0000
# 6 0.0000 0.0000 0.0000 0.0000 0.0000 5.9621
#
#
#
# Elastic Compliance Matrix: (Units=1/GPa)
#
#
# Indices 1 2 3 4 5 6 
#
# 1 0.011701 -0.007303 -0.000762 0.000000 0.000000 0.000000
# 2 -0.007303 0.015337 -0.000676 0.000000 0.000000 0.000000
# 3 -0.000762 -0.000676 0.029027 0.000000 0.000000 0.000000
# 4 0.000000 0.000000 0.000000 0.041254 0.000000 0.000000
# 5 0.000000 0.000000 0.000000 0.000000 0.033939 0.000000
# 6 0.000000 0.000000 0.000000 0.000000 0.000000 0.167726
#
#
# Mechanical properties :
#
#
# Convention : Reuss Voigt Hill
#
# Bulk Modulus (GPa) = 25.91909 42.59693 34.25801
# Shear Modulus (GPa) = 15.18250 24.15811 19.67031
#
# Velocity S-wave (km/s) = 2.78903 3.51814 3.17459
# Velocity P-wave (km/s) = 4.86324 6.19092 5.56680
#
# Compressibility (1/GPa) = 0.03858160
#
# Stress axis : x y z
#
# Youngs Moduli (GPa) = 85.46609 65.20294 34.45082
#
# Poissons Ratio (x) = 0.47617 0.02626
# Poissons Ratio (y) = 0.62414 0.02330
# Poissons Ratio (z) = 0.06514 0.04410
#
# Static dielectric constant tensor:
#      x y z
#    x 1.782460 0.000000 0.000000 
#    y 0.000000 1.666640 0.000000 
#    z 0.000000 0.000000 1.494830 
# 
# From -- ./inp_files/28328.got.cif
#   From: 2010.05.17/outbox.cif.g08.bks.cpg/sg53_15_cif.got.tgz:28328.got - 2010.06.03 12:45:16.
