data_PCOD9416582
_publ_section_title
;
Structure prediction by ZEFSAII (Michael W. Deem and Ramdas Pophale) SiO2 
 PCOD9416582
Probable space group: P M N A
;
_chemical_formula_sum "Si O2"
_cell_formula_units_Z 64
_cell_length_a 7.889371
_cell_length_b 15.964491
_cell_length_c 24.583296
_cell_angle_alpha 90.000000
_cell_angle_beta 90.000000
_cell_angle_gamma 90.000000
_cell_volume 3096.261026
_symmetry_space_group_name_H-M "P M N A"
_symmetry_group_IT_number 53
_symmetry_cell_setting 'orthorhombic'
loop_
_space_group_symop_operation_xyz
x,y,z
1/2-x,-y,1/2+z
x,-y,-z
1/2-x,y,1/2-z
-x,-y,-z
1/2+x,y,1/2-z
-x,y,z
1/2+x,-y,1/2+z
loop_
_atom_site_type_symbol
_atom_site_label
_atom_site_fract_x
_atom_site_fract_y
_atom_site_fract_z
Si Si1 0.796315 0.843972 0.611832
Si Si2 0.197040 0.991166 0.687638
Si Si3 0.292094 0.340359 0.617723
Si Si4 0.795858 0.499626 0.186979
Si Si5 0.198232 0.155085 0.875576
Si Si6 0.204761 0.901260 0.494649
Si Si7 0.704650 0.341336 0.382888
Si Si8 0.206666 0.597503 0.000067
O O1 0.725180 0.917290 0.650460
O O2 0.734512 0.856448 0.549790
O O3 0.756416 0.751805 0.633236
O O4 0.000000 0.852562 0.608221
O O5 0.250000 0.992881 0.750000
O O6 0.000000 0.972749 0.688456
O O7 0.222297 0.079894 0.658362
O O8 0.500000 0.339518 0.617756
O O9 0.236190 0.416766 0.655869
O O10 0.234149 0.248361 0.635552
O O11 0.238165 0.358911 0.555746
O O12 0.750000 0.499938 0.250000
O O13 0.734505 0.415931 0.156217
O O14 0.000000 0.499643 0.182528
O O15 0.220571 0.136078 0.939566
O O16 0.000000 0.154478 0.862281
O O17 0.000000 0.894626 0.490388
O O18 0.244783 0.000000 0.500000
O O19 0.500000 0.344635 0.383457
O O20 0.764819 0.359564 0.444470
O O21 0.000000 0.598897 0.999925
O O22 0.256625 0.500000 0.000000
#
# Coordination Sequence:
#
# PCOD9416582 Si02
#       8
#     8   8   8   8   8   8   8   8
#     4  10  22  39  60  83 115 154 187 229 290 348
#     4  11  24  44  63  82 111 153 197 240 291 344
#     4   9  18  33  54  83 116 145 182 229 281 335
#     4  10  21  38  57  79 110 150 189 229 276 332
#     4  11  22  36  59  92 121 149 190 241 286 338
#     4  10  19  37  60  83 117 159 191 225 286 352
#     4  10  20  34  58  87 112 142 185 233 281 334
#     4   9  14  27  54  84 112 143 177 224 280 328
#
# _framework density 20.670092
#
# number of rings (size 3 to 8) (size 9 to 14) (size 15 to 20)
#    0.000    2.000    2.500    1.500    0.000    4.250 
#    0.000    5.000    0.000    1.125    0.000    0.000 
#    0.000    0.000    0.000    0.000    0.000    0.000 
#
# Total GULP energy -357506.181635 kJ/mol
# GULP energy per Si atom -5586.034088 kJ/mol
# Density = 2.062305 g / cm^3
# Si number density = 20.670092 Si / 1000 Ang^3
#
#
#
# Elastic Constant Matrix: (Units=GPa)
#
#
# Indices 1 2 3 4 5 6 
#
# 1 13.3823 -11.3132 -0.3340 0.0000 0.0000 0.0000
# 2 -11.3132 129.1851 55.1895 0.0000 0.0000 0.0000
# 3 -0.3340 55.1895 139.5192 0.0000 0.0000 0.0000
# 4 0.0000 0.0000 0.0000 -0.4478 0.0000 0.0000
# 5 0.0000 0.0000 0.0000 0.0000 27.0729 0.0000
# 6 0.0000 0.0000 0.0000 0.0000 0.0000 53.7590
#
#
#
# Elastic Compliance Matrix: (Units=1/GPa)
#
#
# Indices 1 2 3 4 5 6 
#
# 1 0.081854 0.008525 -0.003176 0.000000 0.000000 0.000000
# 2 0.008525 0.010203 -0.004016 0.000000 0.000000 0.000000
# 3 -0.003176 -0.004016 0.008748 0.000000 0.000000 0.000000
# 4 0.000000 0.000000 0.000000 -2.233078 0.000000 0.000000
# 5 0.000000 0.000000 0.000000 0.000000 0.036937 0.000000
# 6 0.000000 0.000000 0.000000 0.000000 0.000000 0.018602
#
#
# Mechanical properties :
#
#
# Convention : Reuss Voigt Hill
#
# Bulk Modulus (GPa) = 9.66450 41.01902 25.34176
# Shear Modulus (GPa) = -2.44509 31.97977 14.76734
#
# Velocity S-wave (km/s) = -1.08880 3.93765 2.67578
# Velocity P-wave (km/s) = 1.76213 6.36877 4.67259
#
# Compressibility (1/GPa) = 0.10347144
#
# Stress axis : x y z
#
# Youngs Moduli (GPa) = 12.21692 98.01131 114.30800
#
# Poissons Ratio (x) = -0.83557 0.36308
# Poissons Ratio (y) = -0.10415 0.45901
# Poissons Ratio (z) = 0.03881 0.39357
#
# Static dielectric constant tensor:
#      x y z
#    x 1.754460 0.000000 0.000000 
#    y 0.000000 1.735060 0.000000 
#    z 0.000000 0.000000 1.742420 
# 
# From -- ./inp_files/34134.got.cif
#   From: 2010.05.17/outbox.cif.g08.bks.cpg/sg53_18_cif.got.tgz:34134.got - 2010.06.03 12:45:16.
