data_PCOD9416952
_publ_section_title
;
Structure prediction by ZEFSAII (Michael W. Deem and Ramdas Pophale) SiO2 
 PCOD9416952
Probable space group: P M N A
;
_chemical_formula_sum "Si O2"
_cell_formula_units_Z 60
_cell_length_a 30.063812
_cell_length_b 8.612819
_cell_length_c 10.872928
_cell_angle_alpha 90.000000
_cell_angle_beta 90.000000
_cell_angle_gamma 90.000000
_cell_volume 2815.372600
_symmetry_space_group_name_H-M "P M N A"
_symmetry_group_IT_number 53
_symmetry_cell_setting 'orthorhombic'
loop_
_space_group_symop_operation_xyz
x,y,z
1/2-x,-y,1/2+z
x,-y,-z
1/2-x,y,1/2-z
-x,-y,-z
1/2+x,y,1/2-z
-x,y,z
1/2+x,-y,1/2+z
loop_
_atom_site_type_symbol
_atom_site_label
_atom_site_fract_x
_atom_site_fract_y
_atom_site_fract_z
Si Si1 0.078744 0.648393 0.713166
Si Si2 0.051731 0.171308 0.519168
Si Si3 0.892419 0.896341 0.881131
Si Si4 0.250000 0.627081 0.750000
Si Si5 0.687902 0.684864 0.528889
Si Si6 0.856842 0.796031 0.196746
Si Si7 0.548792 0.321072 0.711918
Si Si8 0.164490 0.529749 0.357233
O O1 0.071090 0.703493 0.574209
O O2 0.073038 0.796853 0.802001
O O3 0.049684 0.503057 0.755919
O O4 0.128227 0.576693 0.711088
O O5 0.052787 0.227602 0.659463
O O6 0.000000 0.161205 0.482997
O O7 0.071637 0.000000 0.500000
O O8 0.855700 0.770516 0.919134
O O9 0.867923 0.023770 0.796341
O O10 0.906736 0.000000 0.000000
O O11 0.226584 0.709964 0.868913
O O12 0.288214 0.521487 0.807486
O O13 0.684629 0.500000 0.500000
O O14 0.685035 0.763112 0.393235
O O15 0.904018 0.718901 0.147987
O O16 0.846552 0.705820 0.321390
O O17 0.500000 0.282639 0.656323
O O18 0.161844 0.500000 0.500000
#
# Coordination Sequence:
#
# PCOD9416952 Si02
#       8
#     8   8   8   4   8   8   8   8
#     4  11  19  36  58  88 123 174 212 271 328 393
#     4  10  20  33  56  91 132 171 210 267 329 382
#     4  10  22  39  66  89 123 175 226 270 327 402
#     4  12  22  40  66  98 118 162 214 282 316 390
#     4  11  20  41  68  92 121 168 216 268 326 397
#     4  10  21  40  65  94 128 180 213 263 342 384
#     4  10  20  36  61  97 132 168 227 273 313 392
#     4  11  23  37  62  94 128 161 217 263 325 399
#
# _framework density 21.311565000000002
#
# number of rings (size 3 to 8) (size 9 to 14) (size 15 to 20)
#    0.000    1.467    2.667    4.400    0.000    1.067 
#    0.000    1.333    2.933   18.400    0.000    0.000 
#    0.000    0.000    0.000    0.000    0.000    0.000 
#
# Total GULP energy -334288.161276 kJ/mol
# GULP energy per Si atom -5571.469355 kJ/mol
# Density = 2.126306 g / cm^3
# Si number density = 21.311565 Si / 1000 Ang^3
#
#
#
# Elastic Constant Matrix: (Units=GPa)
#
#
# Indices 1 2 3 4 5 6 
#
# 1 91.2542 10.7204 23.6814 0.0000 0.0000 0.0000
# 2 10.7204 99.7522 38.0765 0.0000 0.0000 0.0000
# 3 23.6814 38.0765 83.8523 0.0000 0.0000 0.0000
# 4 0.0000 0.0000 0.0000 42.6372 0.0000 0.0000
# 5 0.0000 0.0000 0.0000 0.0000 24.2397 0.0000
# 6 0.0000 0.0000 0.0000 0.0000 0.0000 2.0537
#
#
#
# Elastic Compliance Matrix: (Units=1/GPa)
#
#
# Indices 1 2 3 4 5 6 
#
# 1 0.011825 0.000005 -0.003342 0.000000 0.000000 0.000000
# 2 0.000005 0.012127 -0.005508 0.000000 0.000000 0.000000
# 3 -0.003342 -0.005508 0.015371 0.000000 0.000000 0.000000
# 4 0.000000 0.000000 0.000000 0.023454 0.000000 0.000000
# 5 0.000000 0.000000 0.000000 0.000000 0.041255 0.000000
# 6 0.000000 0.000000 0.000000 0.000000 0.000000 0.486936
#
#
# Mechanical properties :
#
#
# Convention : Reuss Voigt Hill
#
# Bulk Modulus (GPa) = 46.22685 46.64616 46.43650
# Shear Modulus (GPa) = 8.11862 27.27815 17.69839
#
# Velocity S-wave (km/s) = 1.95391 3.58155 2.88490
# Velocity P-wave (km/s) = 5.17961 6.24808 5.73877
#
# Compressibility (1/GPa) = 0.02163245
#
# Stress axis : x y z
#
# Youngs Moduli (GPa) = 84.56619 82.46199 65.05912
#
# Poissons Ratio (x) = -0.00039 0.21741
# Poissons Ratio (y) = -0.00040 0.35835
# Poissons Ratio (z) = 0.28260 0.45420
#
# Static dielectric constant tensor:
#      x y z
#    x 1.828920 0.000000 0.000000 
#    y 0.000000 1.780170 0.000000 
#    z 0.000000 0.000000 1.887110 
# 
# From -- ./inp_files/18995.got.cif
#   From: 2010.05.17/outbox.cif.g08.bks.cpg/sg53_10_cif.got.tgz:18995.got - 2010.06.03 12:45:16.
