data_PCOD9416195
_publ_section_title
;
Structure prediction by ZEFSAII (Michael W. Deem and Ramdas Pophale) SiO2 
 PCOD9416195
Probable space group: P M N A
;
_chemical_formula_sum "Si O2"
_cell_formula_units_Z 48
_cell_length_a 8.556104
_cell_length_b 32.338333
_cell_length_c 9.187144
_cell_angle_alpha 90.000000
_cell_angle_beta 90.000000
_cell_angle_gamma 90.000000
_cell_volume 2541.992163
_symmetry_space_group_name_H-M "P M N A"
_symmetry_group_IT_number 53
_symmetry_cell_setting 'orthorhombic'
loop_
_space_group_symop_operation_xyz
x,y,z
1/2-x,-y,1/2+z
x,-y,-z
1/2-x,y,1/2-z
-x,-y,-z
1/2+x,y,1/2-z
-x,y,z
1/2+x,-y,1/2+z
loop_
_atom_site_type_symbol
_atom_site_label
_atom_site_fract_x
_atom_site_fract_y
_atom_site_fract_z
Si Si1 0.812361 0.541806 0.585986
Si Si2 0.186494 0.700344 0.586358
Si Si3 0.188249 0.870082 0.084638
Si Si4 0.686530 0.378865 0.586128
Si Si5 0.811495 0.220671 0.916081
Si Si6 0.810772 0.040352 0.914579
O O1 0.769266 0.500000 0.500000
O O2 0.750000 0.540115 0.750000
O O3 0.743570 0.581290 0.503153
O O4 0.000000 0.545060 0.588096
O O5 0.250000 0.697353 0.750000
O O6 0.250452 0.662135 0.492414
O O7 0.243194 0.742740 0.512346
O O8 0.000000 0.698898 0.588024
O O9 0.250000 0.870387 0.250000
O O10 0.235831 0.825122 0.025331
O O11 0.237718 0.914633 0.021071
O O12 0.000000 0.870003 0.087290
O O13 0.750000 0.380967 0.750000
O O14 0.500000 0.377775 0.588788
O O15 0.750000 0.224366 0.750000
O O16 0.000000 0.223367 0.914061
O O17 0.750000 0.038369 0.750000
O O18 0.000000 0.039436 0.912598
O O19 0.754673 0.000000 0.000000
#
# Coordination Sequence:
#
# PCOD9416195 Si02
#       6
#     8   8   8   8   8   8
#     4  11  24  42  65  94 128 165 204 246 293 343
#     4  12  25  42  61  84 115 150 188 230 282 338
#     4   8  15  28  48  72 100 134 173 218 265 317
#     4  12  25  43  66  92 122 156 197 242 288 338
#     4  10  19  34  56  82 109 140 181 227 276 329
#     4   9  17  30  48  71 100 134 173 217 265 318
#
# _framework density 18.882829000000001
#
# number of rings (size 3 to 8) (size 9 to 14) (size 15 to 20)
#    0.000    1.667    0.000    5.500    0.000    3.667 
#    0.000    0.833    0.000    2.000    0.000    0.000 
#    0.000    0.000    0.000    0.000    0.000    0.000 
#
# Total GULP energy -268014.674420 kJ/mol
# GULP energy per Si atom -5583.639050 kJ/mol
# Density = 1.883985 g / cm^3
# Si number density = 18.882829 Si / 1000 Ang^3
#
#
#
# Elastic Constant Matrix: (Units=GPa)
#
#
# Indices 1 2 3 4 5 6 
#
# 1 90.9940 70.6209 46.5040 0.0000 0.0000 0.0000
# 2 70.6209 231.6744 99.6111 0.0000 0.0000 0.0000
# 3 46.5040 99.6111 128.6510 0.0000 0.0000 0.0000
# 4 0.0000 0.0000 0.0000 36.9718 0.0000 0.0000
# 5 0.0000 0.0000 0.0000 0.0000 30.9475 0.0000
# 6 0.0000 0.0000 0.0000 0.0000 0.0000 26.5315
#
#
#
# Elastic Compliance Matrix: (Units=1/GPa)
#
#
# Indices 1 2 3 4 5 6 
#
# 1 0.015053 -0.003371 -0.002831 0.000000 0.000000 0.000000
# 2 -0.003371 0.007226 -0.004376 0.000000 0.000000 0.000000
# 3 -0.002831 -0.004376 0.012184 0.000000 0.000000 0.000000
# 4 0.000000 0.000000 0.000000 0.027048 0.000000 0.000000
# 5 0.000000 0.000000 0.000000 0.000000 0.032313 0.000000
# 6 0.000000 0.000000 0.000000 0.000000 0.000000 0.037691
#
#
# Mechanical properties :
#
#
# Convention : Reuss Voigt Hill
#
# Bulk Modulus (GPa) = 75.15047 98.31016 86.73032
# Shear Modulus (GPa) = 31.82554 34.52905 33.17730
#
# Velocity S-wave (km/s) = 4.10984 4.28085 4.19622
# Velocity P-wave (km/s) = 7.89973 8.75274 8.33715
#
# Compressibility (1/GPa) = 0.01330664
#
# Stress axis : x y z
#
# Youngs Moduli (GPa) = 66.43152 138.39731 82.07218
#
# Poissons Ratio (x) = 0.46660 0.23234
# Poissons Ratio (y) = 0.22397 0.35914
# Poissons Ratio (z) = 0.18806 0.60561
#
# Static dielectric constant tensor:
#      x y z
#    x 1.633690 0.000000 0.000000 
#    y 0.000000 1.689080 0.000000 
#    z 0.000000 0.000000 1.598100 
# 
# From -- ./inp_files/6637.got.cif
#   From: 2010.05.17/outbox.cif.g08.bks.cpg/sg53_4_cif.got.tgz:6637.got - 2010.06.03 12:45:16.
