data_PCOD9416720
_publ_section_title
;
Structure prediction by ZEFSAII (Michael W. Deem and Ramdas Pophale) SiO2 
 PCOD9416720
Probable space group: P M N A
;
_chemical_formula_sum "Si O2"
_cell_formula_units_Z 48
_cell_length_a 14.038232
_cell_length_b 12.241609
_cell_length_c 15.691147
_cell_angle_alpha 90.000000
_cell_angle_beta 90.000000
_cell_angle_gamma 90.000000
_cell_volume 2696.532198
_symmetry_space_group_name_H-M "P M N A"
_symmetry_group_IT_number 53
_symmetry_cell_setting 'orthorhombic'
loop_
_space_group_symop_operation_xyz
x,y,z
1/2-x,-y,1/2+z
x,-y,-z
1/2-x,y,1/2-z
-x,-y,-z
1/2+x,y,1/2-z
-x,y,z
1/2+x,-y,1/2+z
loop_
_atom_site_type_symbol
_atom_site_label
_atom_site_fract_x
_atom_site_fract_y
_atom_site_fract_z
Si Si1 0.113649 0.359668 0.760890
Si Si2 0.109387 0.678869 0.900287
Si Si3 0.743766 0.258671 0.876919
Si Si4 0.387680 0.388388 0.213994
Si Si5 0.391093 0.876781 0.467693
Si Si6 0.297522 0.612560 0.963781
O O1 0.164088 0.272731 0.696571
O O2 0.171931 0.341828 0.847797
O O3 0.134004 0.482879 0.729280
O O4 0.000000 0.345973 0.767983
O O5 0.135217 0.678325 0.799881
O O6 0.185472 0.600972 0.944275
O O7 0.000000 0.641202 0.905873
O O8 0.116981 0.792620 0.952210
O O9 0.807243 0.153290 0.901038
O O10 0.693656 0.298503 0.962765
O O11 0.500000 0.380572 0.202666
O O12 0.340990 0.353783 0.126021
O O13 0.500000 0.862126 0.433553
O O14 0.382236 0.000000 0.500000
O O15 0.338521 0.500000 0.000000
#
# Coordination Sequence:
#
# PCOD9416720 Si02
#       6
#     8   8   8   8   8   8
#     4  10  20  34  52  75 108 143 175 215 262 320
#     4   9  19  32  49  75 104 136 170 212 266 317
#     4  10  20  32  52  79 100 136 180 220 267 318
#     4  10  20  32  48  72 108 148 178 205 254 324
#     4   9  18  35  59  82 105 133 173 228 278 317
#     4  11  19  29  48  71 103 140 177 213 253 309
#
# _framework density 17.800639
#
# number of rings (size 3 to 8) (size 9 to 14) (size 15 to 20)
#    0.000    2.167    1.667    2.000    2.333    2.000 
#    0.000    0.000   14.667    0.500    0.000    0.000 
#    0.000    0.000    0.000    0.000    0.000    0.000 
#
# Total GULP energy -267212.136022 kJ/mol
# GULP energy per Si atom -5566.919500 kJ/mol
# Density = 1.776012 g / cm^3
# Si number density = 17.800639 Si / 1000 Ang^3
#
#
#
# Elastic Constant Matrix: (Units=GPa)
#
#
# Indices 1 2 3 4 5 6 
#
# 1 60.7571 16.8086 21.2350 0.0000 0.0000 0.0000
# 2 16.8086 40.0441 10.4970 0.0000 0.0000 0.0000
# 3 21.2350 10.4970 74.2042 0.0000 0.0000 0.0000
# 4 0.0000 0.0000 0.0000 16.5486 0.0000 0.0000
# 5 0.0000 0.0000 0.0000 0.0000 28.2963 0.0000
# 6 0.0000 0.0000 0.0000 0.0000 0.0000 14.9404
#
#
#
# Elastic Compliance Matrix: (Units=1/GPa)
#
#
# Indices 1 2 3 4 5 6 
#
# 1 0.020105 -0.007198 -0.004735 0.000000 0.000000 0.000000
# 2 -0.007198 0.028511 -0.001973 0.000000 0.000000 0.000000
# 3 -0.004735 -0.001973 0.015111 0.000000 0.000000 0.000000
# 4 0.000000 0.000000 0.000000 0.060428 0.000000 0.000000
# 5 0.000000 0.000000 0.000000 0.000000 0.035340 0.000000
# 6 0.000000 0.000000 0.000000 0.000000 0.000000 0.066933
#
#
# Mechanical properties :
#
#
# Convention : Reuss Voigt Hill
#
# Bulk Modulus (GPa) = 27.84448 30.23183 29.03816
# Shear Modulus (GPa) = 18.78197 20.38803 19.58500
#
# Velocity S-wave (km/s) = 3.25180 3.38798 3.32059
# Velocity P-wave (km/s) = 5.45667 5.68551 5.57226
#
# Compressibility (1/GPa) = 0.03591376
#
# Stress axis : x y z
#
# Youngs Moduli (GPa) = 49.73799 35.07399 66.17881
#
# Poissons Ratio (x) = 0.25246 0.31338
# Poissons Ratio (y) = 0.35801 0.13060
# Poissons Ratio (z) = 0.23552 0.06921
#
# Static dielectric constant tensor:
#      x y z
#    x 1.645130 0.000000 0.000000 
#    y 0.000000 1.589270 0.000000 
#    z 0.000000 0.000000 1.661260 
# 
# From -- ./inp_files/22676.got.cif
#   From: 2010.05.17/outbox.cif.g08.bks.cpg/sg53_12_cif.got.tgz:22676.got - 2010.06.03 12:45:16.
