data_PCOD9416286
_publ_section_title
;
Structure prediction by ZEFSAII (Michael W. Deem and Ramdas Pophale) SiO2 
 PCOD9416286
Probable space group: P M N A
;
_chemical_formula_sum "Si O2"
_cell_formula_units_Z 64
_cell_length_a 17.477497
_cell_length_b 12.854039
_cell_length_c 14.401726
_cell_angle_alpha 90.000000
_cell_angle_beta 90.000000
_cell_angle_gamma 90.000000
_cell_volume 3235.440321
_symmetry_space_group_name_H-M "P M N A"
_symmetry_group_IT_number 53
_symmetry_cell_setting 'orthorhombic'
loop_
_space_group_symop_operation_xyz
x,y,z
1/2-x,-y,1/2+z
x,-y,-z
1/2-x,y,1/2-z
-x,-y,-z
1/2+x,y,1/2-z
-x,y,z
1/2+x,-y,1/2+z
loop_
_atom_site_type_symbol
_atom_site_label
_atom_site_fract_x
_atom_site_fract_y
_atom_site_fract_z
Si Si1 0.804727 0.614385 0.481691
Si Si2 0.585622 0.908627 0.576735
Si Si3 0.909196 0.338886 0.340409
Si Si4 0.411901 0.105907 0.210813
Si Si5 0.698736 0.808212 0.457042
Si Si6 0.589347 0.433068 0.806377
Si Si7 0.690831 0.931863 0.164573
Si Si8 0.090279 0.219599 0.784323
O O1 0.771331 0.500000 0.500000
O O2 0.857053 0.650301 0.568325
O O3 0.740956 0.698925 0.461535
O O4 0.859713 0.598513 0.393750
O O5 0.500000 0.861552 0.568633
O O6 0.593271 0.939240 0.684272
O O7 0.655907 0.835318 0.551480
O O8 0.589271 0.000000 0.500000
O O9 0.893913 0.228783 0.291013
O O10 0.895221 0.445843 0.283036
O O11 0.000000 0.338747 0.364598
O O12 0.500000 0.093734 0.180648
O O13 0.354894 0.037935 0.149848
O O14 0.761522 0.890984 0.422559
O O15 0.632933 0.809044 0.378731
O O16 0.500000 0.426822 0.832983
O O17 0.601535 0.343221 0.731176
O O18 0.750000 0.946054 0.250000
O O19 0.631497 0.843669 0.201266
O O20 0.000000 0.196246 0.786934
#
# Coordination Sequence:
#
# PCOD9416286 Si02
#       8
#     8   8   8   8   8   8   8   8
#     4  10  20  36  56  82 118 155 189 229 288 352
#     4  10  21  39  62  83 109 154 203 236 274 340
#     4   9  19  36  58  83 112 150 194 237 280 338
#     4  10  21  39  60  84 117 151 194 240 283 340
#     4  11  22  36  55  85 120 145 186 239 289 338
#     4   9  17  33  59  84 108 148 196 235 278 341
#     4  10  20  34  57  82 115 146 181 236 287 335
#     4  10  19  34  59  85 110 146 193 239 283 330
#
# _framework density 19.780923999999999
#
# number of rings (size 3 to 8) (size 9 to 14) (size 15 to 20)
#    0.000    2.125    1.250    2.625    0.000    4.500 
#    2.250    0.000    0.000    2.250    0.000    0.000 
#    0.000    0.000    0.000    0.000    0.000    0.000 
#
# Total GULP energy -357197.101327 kJ/mol
# GULP energy per Si atom -5581.204708 kJ/mol
# Density = 1.973590 g / cm^3
# Si number density = 19.780924 Si / 1000 Ang^3
#
#
#
# Elastic Constant Matrix: (Units=GPa)
#
#
# Indices 1 2 3 4 5 6 
#
# 1 81.0710 57.0889 23.4142 0.0000 0.0000 0.0000
# 2 57.0889 120.6941 13.0777 0.0000 0.0000 0.0000
# 3 23.4142 13.0777 28.9234 0.0000 0.0000 0.0000
# 4 0.0000 0.0000 0.0000 22.7978 0.0000 0.0000
# 5 0.0000 0.0000 0.0000 0.0000 -3.9507 0.0000
# 6 0.0000 0.0000 0.0000 0.0000 0.0000 26.6110
#
#
#
# Elastic Compliance Matrix: (Units=1/GPa)
#
#
# Indices 1 2 3 4 5 6 
#
# 1 0.023107 -0.009362 -0.014473 0.000000 0.000000 0.000000
# 2 -0.009362 0.012505 0.001924 0.000000 0.000000 0.000000
# 3 -0.014473 0.001924 0.045420 0.000000 0.000000 0.000000
# 4 0.000000 0.000000 0.000000 0.043864 0.000000 0.000000
# 5 0.000000 0.000000 0.000000 0.000000 -0.253122 0.000000
# 6 0.000000 0.000000 0.000000 0.000000 0.000000 0.037578
#
#
# Mechanical properties :
#
#
# Convention : Reuss Voigt Hill
#
# Bulk Modulus (GPa) = 26.87312 46.42779 36.65045
# Shear Modulus (GPa) = -145.25238 18.23214 -63.51012
#
# Velocity S-wave (km/s) = -8.57846 3.03925 -5.67243
# Velocity P-wave (km/s) = 9.19266 5.98648 4.93290
#
# Compressibility (1/GPa) = 0.03721191
#
# Stress axis : x y z
#
# Youngs Moduli (GPa) = 43.27683 79.96828 22.01663
#
# Poissons Ratio (x) = 0.74863 0.31865
# Poissons Ratio (y) = 0.40514 -0.04237
# Poissons Ratio (z) = 0.62634 -0.15388
#
# Static dielectric constant tensor:
#      x y z
#    x 1.686130 0.000000 0.000000 
#    y 0.000000 1.733770 0.000000 
#    z 0.000000 0.000000 1.683740 
# 
# From -- ./inp_files/28583.got.cif
#   From: 2010.05.17/outbox.cif.g08.bks.cpg/sg53_15_cif.got.tgz:28583.got - 2010.06.03 12:45:16.
