data_PCOD9416733
_publ_section_title
;
Structure prediction by ZEFSAII (Michael W. Deem and Ramdas Pophale) SiO2 
 PCOD9416733
Probable space group: P M N A
;
_chemical_formula_sum "Si O2"
_cell_formula_units_Z 64
_cell_length_a 8.729273
_cell_length_b 23.572806
_cell_length_c 16.099598
_cell_angle_alpha 90.000000
_cell_angle_beta 90.000000
_cell_angle_gamma 90.000000
_cell_volume 3312.869968
_symmetry_space_group_name_H-M "P M N A"
_symmetry_group_IT_number 53
_symmetry_cell_setting 'orthorhombic'
loop_
_space_group_symop_operation_xyz
x,y,z
1/2-x,-y,1/2+z
x,-y,-z
1/2-x,y,1/2-z
-x,-y,-z
1/2+x,y,1/2-z
-x,y,z
1/2+x,-y,1/2+z
loop_
_atom_site_type_symbol
_atom_site_label
_atom_site_fract_x
_atom_site_fract_y
_atom_site_fract_z
Si Si1 0.816966 0.249181 0.012592
Si Si2 0.183546 0.048396 0.161886
Si Si3 0.318939 0.300766 0.663735
Si Si4 0.322929 0.641950 0.915259
Si Si5 0.815210 0.470929 0.337870
Si Si6 0.315879 0.078851 0.837360
Si Si7 0.316871 0.126929 0.017458
Si Si8 0.823960 0.411454 0.598459
O O1 0.769977 0.300458 0.073348
O O2 0.736335 0.190727 0.034936
O O3 0.000000 0.242437 0.012265
O O4 0.765627 0.268120 0.919423
O O5 0.250000 0.070571 0.250000
O O6 0.238872 0.085107 0.083673
O O7 0.000000 0.046782 0.165805
O O8 0.249239 0.984664 0.153379
O O9 0.250000 0.279712 0.750000
O O10 0.500000 0.295735 0.667446
O O11 0.273754 0.366580 0.650316
O O12 0.500000 0.655064 0.893632
O O13 0.257022 0.592201 0.857740
O O14 0.323769 0.611217 0.004957
O O15 0.750000 0.489003 0.250000
O O16 0.773945 0.523240 0.397665
O O17 0.000000 0.466467 0.338901
O O18 0.250000 0.102088 0.750000
O O19 0.500000 0.076209 0.831090
O O20 0.274804 0.111914 0.921810
O O21 0.500000 0.121242 0.024731
O O22 0.000000 0.408768 0.629206
#
# Coordination Sequence:
#
# PCOD9416733 Si02
#       8
#     8   8   8   8   8   8   8   8
#     4  10  22  38  55  77 104 137 182 230 272 319
#     4  11  22  38  62  90 121 155 192 236 284 334
#     4  10  20  33  50  74 105 139 175 217 267 324
#     4   9  18  35  55  72  96 133 173 212 259 315
#     4  10  20  32  49  75 103 130 163 207 259 316
#     4  10  21  37  59  89 125 160 193 231 277 333
#     4  11  23  39  60  86 117 154 195 238 284 333
#     4   9  17  31  52  75  99 129 167 210 258 315
#
# _framework density 19.318597
#
# number of rings (size 3 to 8) (size 9 to 14) (size 15 to 20)
#    0.000    2.000    0.000    4.500    0.000    9.000 
#    0.000    3.125    0.000    5.250    0.000    0.000 
#    0.000    0.000    0.000    0.000    0.000    0.000 
#
# Total GULP energy -357178.402075 kJ/mol
# GULP energy per Si atom -5580.912532 kJ/mol
# Density = 1.927463 g / cm^3
# Si number density = 19.318597 Si / 1000 Ang^3
#
#
#
# Elastic Constant Matrix: (Units=GPa)
#
#
# Indices 1 2 3 4 5 6 
#
# 1 47.0326 12.6672 14.8653 0.0000 0.0000 0.0000
# 2 12.6672 69.7505 14.2798 0.0000 0.0000 0.0000
# 3 14.8653 14.2798 42.1272 0.0000 0.0000 0.0000
# 4 0.0000 0.0000 0.0000 6.8315 0.0000 0.0000
# 5 0.0000 0.0000 0.0000 0.0000 282.7921 0.0000
# 6 0.0000 0.0000 0.0000 0.0000 0.0000 11.4783
#
#
#
# Elastic Compliance Matrix: (Units=1/GPa)
#
#
# Indices 1 2 3 4 5 6 
#
# 1 0.024455 -0.002874 -0.007655 0.000000 0.000000 0.000000
# 2 -0.002874 0.015744 -0.004322 0.000000 0.000000 0.000000
# 3 -0.007655 -0.004322 0.027904 0.000000 0.000000 0.000000
# 4 0.000000 0.000000 0.000000 0.146381 0.000000 0.000000
# 5 0.000000 0.000000 0.000000 0.000000 0.003536 0.000000
# 6 0.000000 0.000000 0.000000 0.000000 0.000000 0.087121
#
#
# Mechanical properties :
#
#
# Convention : Reuss Voigt Hill
#
# Bulk Modulus (GPa) = 26.04189 26.94831 26.49510
# Shear Modulus (GPa) = 14.38251 68.02692 41.20471
#
# Velocity S-wave (km/s) = 2.73150 5.94051 4.62335
# Velocity P-wave (km/s) = 4.84330 7.81233 6.49962
#
# Compressibility (1/GPa) = 0.03839967
#
# Stress axis : x y z
#
# Youngs Moduli (GPa) = 40.89061 63.51756 35.83701
#
# Poissons Ratio (x) = 0.18255 0.27434
# Poissons Ratio (y) = 0.11752 0.15490
# Poissons Ratio (z) = 0.31303 0.27455
#
# Static dielectric constant tensor:
#      x y z
#    x 1.653920 0.000000 0.000000 
#    y 0.000000 1.671200 0.000000 
#    z 0.000000 0.000000 1.698610 
# 
# From -- ./inp_files/20822.got.cif
#   From: 2010.05.17/outbox.cif.g08.bks.cpg/sg53_11_cif.got.tgz:20822.got - 2010.06.03 12:45:16.
