data_PCOD9416016
_publ_section_title
;
Structure prediction by ZEFSAII (Michael W. Deem and Ramdas Pophale) SiO2 
 PCOD9416016
Probable space group: P M N A
;
_chemical_formula_sum "Si O2"
_cell_formula_units_Z 58
_cell_length_a 7.700705
_cell_length_b 19.486785
_cell_length_c 18.951998
_cell_angle_alpha 90.000000
_cell_angle_beta 90.000000
_cell_angle_gamma 90.000000
_cell_volume 2843.974396
_symmetry_space_group_name_H-M "P M N A"
_symmetry_group_IT_number 53
_symmetry_cell_setting 'orthorhombic'
loop_
_space_group_symop_operation_xyz
x,y,z
1/2-x,-y,1/2+z
x,-y,-z
1/2-x,y,1/2-z
-x,-y,-z
1/2+x,y,1/2-z
-x,y,z
1/2+x,-y,1/2+z
loop_
_atom_site_type_symbol
_atom_site_label
_atom_site_fract_x
_atom_site_fract_y
_atom_site_fract_z
Si Si1 0.701609 0.646804 0.171770
Si Si2 0.213220 0.783592 0.401136
Si Si3 0.788682 0.937780 0.585778
Si Si4 0.210177 0.709482 0.542886
Si Si5 0.206970 0.798429 0.668040
Si Si6 0.203894 0.430273 0.967454
Si Si7 0.500000 0.000000 0.500000
Si Si8 0.792674 0.076165 0.667567
O O1 0.750000 0.624482 0.250000
O O2 0.500000 0.660683 0.174611
O O3 0.779026 0.720154 0.147187
O O4 0.730302 0.592827 0.109254
O O5 0.260646 0.762762 0.480786
O O6 0.275878 0.855953 0.371249
O O7 0.000000 0.785695 0.399984
O O8 0.748031 0.871104 0.632416
O O9 0.000000 0.938172 0.569708
O O10 0.657296 0.944380 0.520875
O O11 0.737586 0.005219 0.631472
O O12 0.275044 0.737881 0.617516
O O13 0.268674 0.634331 0.519152
O O14 0.000000 0.707316 0.542996
O O15 0.250000 0.794543 0.750000
O O16 0.000000 0.794739 0.663602
O O17 0.000000 0.440763 0.958166
O O18 0.280017 0.500000 0.000000
O O19 0.750000 0.077578 0.750000
O O20 0.000000 0.076989 0.660879
#
# Coordination Sequence:
#
# PCOD9416016 Si02
#       8
#     8   8   8   8   8   8   2   8
#     4  10  19  33  55  82 115 150 189 230 276 342
#     4   8  16  31  52  79 110 147 186 229 282 338
#     4  10  24  42  60  86 121 156 198 260 316 361
#     4   9  19  37  60  85 113 151 194 239 294 353
#     4  10  22  40  63  87 119 160 204 258 313 368
#     4  10  21  38  59  86 119 152 189 239 295 351
#     4  12  26  40  64  90 112 152 210 260 302 398
#     4  10  20  34  54  77 112 153 188 232 289 343
#
# _framework density 20.393995
#
# number of rings (size 3 to 8) (size 9 to 14) (size 15 to 20)
#    0.000    2.345    0.000    2.690    3.862    1.655 
#    0.000    3.448    0.000    1.655    0.000    0.000 
#    0.000    0.000    0.000    0.000    0.000    0.000 
#
# Total GULP energy -323122.832554 kJ/mol
# GULP energy per Si atom -5571.083320 kJ/mol
# Density = 2.034758 g / cm^3
# Si number density = 20.393995 Si / 1000 Ang^3
#
#
#
# Elastic Constant Matrix: (Units=GPa)
#
#
# Indices 1 2 3 4 5 6 
#
# 1 33.2955 -10.1257 -1.6456 0.0000 0.0000 0.0000
# 2 -10.1257 98.7899 57.4170 0.0000 0.0000 0.0000
# 3 -1.6456 57.4170 123.3461 0.0000 0.0000 0.0000
# 4 0.0000 0.0000 0.0000 28.0784 0.0000 0.0000
# 5 0.0000 0.0000 0.0000 0.0000 22.4363 0.0000
# 6 0.0000 0.0000 0.0000 0.0000 0.0000 38.8923
#
#
#
# Elastic Compliance Matrix: (Units=1/GPa)
#
#
# Indices 1 2 3 4 5 6 
#
# 1 0.031194 0.004052 -0.001470 0.000000 0.000000 0.000000
# 2 0.004052 0.014403 -0.006651 0.000000 0.000000 0.000000
# 3 -0.001470 -0.006651 0.011183 0.000000 0.000000 0.000000
# 4 0.000000 0.000000 0.000000 0.035615 0.000000 0.000000
# 5 0.000000 0.000000 0.000000 0.000000 0.044571 0.000000
# 6 0.000000 0.000000 0.000000 0.000000 0.000000 0.025712
#
#
# Mechanical properties :
#
#
# Convention : Reuss Voigt Hill
#
# Bulk Modulus (GPa) = 20.55817 38.52478 29.54147
# Shear Modulus (GPa) = 26.73381 31.86712 29.30046
#
# Velocity S-wave (km/s) = 3.62452 3.95723 3.79452
# Velocity P-wave (km/s) = 5.25534 6.30958 5.80643
#
# Compressibility (1/GPa) = 0.04864247
#
# Stress axis : x y z
#
# Youngs Moduli (GPa) = 32.05790 69.42966 89.41786
#
# Poissons Ratio (x) = -0.28130 0.13143
# Poissons Ratio (y) = -0.12988 0.59467
# Poissons Ratio (z) = 0.04712 0.46174
#
# Static dielectric constant tensor:
#      x y z
#    x 1.767080 0.000000 0.000000 
#    y 0.000000 1.754260 0.000000 
#    z 0.000000 0.000000 -46.159470 
# 
# From -- ./inp_files/26557.got.cif
#   From: 2010.05.17/outbox.cif.g08.bks.cpg/sg53_14_cif.got.tgz:26557.got - 2010.06.03 12:45:16.
