data_PCOD9416079
_publ_section_title
;
Structure prediction by ZEFSAII (Michael W. Deem and Ramdas Pophale) SiO2 
 PCOD9416079
Probable space group: P M N A
;
_chemical_formula_sum "Si O2"
_cell_formula_units_Z 36
_cell_length_a 14.013559
_cell_length_b 8.962261
_cell_length_c 13.136810
_cell_angle_alpha 90.000000
_cell_angle_beta 90.000000
_cell_angle_gamma 90.000000
_cell_volume 1649.893655
_symmetry_space_group_name_H-M "P M N A"
_symmetry_group_IT_number 53
_symmetry_cell_setting 'orthorhombic'
loop_
_space_group_symop_operation_xyz
x,y,z
1/2-x,-y,1/2+z
x,-y,-z
1/2-x,y,1/2-z
-x,-y,-z
1/2+x,y,1/2-z
-x,y,z
1/2+x,-y,1/2+z
loop_
_atom_site_type_symbol
_atom_site_label
_atom_site_fract_x
_atom_site_fract_y
_atom_site_fract_z
Si Si1 0.250000 0.411258 0.750000
Si Si2 0.111755 0.154489 0.547279
Si Si3 0.390379 0.829836 0.291006
Si Si4 0.613222 0.831916 0.687552
Si Si5 0.797035 0.682001 0.619396
O O1 0.179627 0.305226 0.813630
O O2 0.304450 0.522125 0.826861
O O3 0.118193 0.154841 0.668391
O O4 0.162279 0.290744 0.491129
O O5 0.000000 0.162401 0.521061
O O6 0.150315 0.000000 0.500000
O O7 0.500000 0.796596 0.316705
O O8 0.366621 0.993469 0.333294
O O9 0.500000 0.806415 0.674636
O O10 0.686162 0.731650 0.623383
O O11 0.644420 0.791572 0.803414
#
# Coordination Sequence:
#
# PCOD9416079 Si02
#       5
#     4   8   8   8   8
#     4  10  22  34  48  78 114 148 180 206 268 334
#     4  10  19  33  57  87 111 135 175 231 281 318
#     4  10  20  34  55  80 110 142 177 225 271 320
#     4   9  17  32  54  78 102 139 187 224 262 314
#     4  10  20  32  53  81 110 146 177 226 270 323
#
# _framework density 21.819590000000002
#
# number of rings (size 3 to 8) (size 9 to 14) (size 15 to 20)
#    0.000    2.444    2.222    2.000    0.000    5.333 
#    0.000    2.222    0.000    2.000    0.000    7.778 
#    0.000    0.000    0.000    0.000    0.000    0.000 
#
# Total GULP energy -201050.330164 kJ/mol
# GULP energy per Si atom -5584.731393 kJ/mol
# Density = 2.176993 g / cm^3
# Si number density = 21.819590 Si / 1000 Ang^3
#
#
#
# Elastic Constant Matrix: (Units=GPa)
#
#
# Indices 1 2 3 4 5 6 
#
# 1 90.0558 26.6302 -1.4206 0.0000 0.0000 0.0000
# 2 26.6302 81.5339 -7.0095 0.0000 0.0000 0.0000
# 3 -1.4206 -7.0095 19.9497 0.0000 0.0000 0.0000
# 4 0.0000 0.0000 0.0000 22.7022 0.0000 0.0000
# 5 0.0000 0.0000 0.0000 0.0000 18.7528 0.0000
# 6 0.0000 0.0000 0.0000 0.0000 0.0000 -37.2998
#
#
#
# Elastic Compliance Matrix: (Units=1/GPa)
#
#
# Indices 1 2 3 4 5 6 
#
# 1 0.012297 -0.004064 -0.000552 0.000000 0.000000 0.000000
# 2 -0.004064 0.013990 0.004626 0.000000 0.000000 0.000000
# 3 -0.000552 0.004626 0.051712 0.000000 0.000000 0.000000
# 4 0.000000 0.000000 0.000000 0.044049 0.000000 0.000000
# 5 0.000000 0.000000 0.000000 0.000000 0.053325 0.000000
# 6 0.000000 0.000000 0.000000 0.000000 0.000000 -0.026810
#
#
# Mechanical properties :
#
#
# Convention : Reuss Voigt Hill
#
# Bulk Modulus (GPa) = 12.81735 25.32661 19.07198
# Shear Modulus (GPa) = 28.64506 12.38700 20.51603
#
# Velocity S-wave (km/s) = 3.62721 2.38523 3.06969
# Velocity P-wave (km/s) = 4.84037 4.38386 4.61776
#
# Compressibility (1/GPa) = 0.07801928
#
# Stress axis : x y z
#
# Youngs Moduli (GPa) = 81.31903 71.48021 19.33777
#
# Poissons Ratio (x) = 0.29049 0.01068
# Poissons Ratio (y) = 0.33048 -0.08946
# Poissons Ratio (z) = 0.04491 -0.33068
#
# Static dielectric constant tensor:
#      x y z
#    x 1.800010 0.000000 0.000000 
#    y 0.000000 1.830870 0.000000 
#    z 0.000000 0.000000 1.829680 
# 
# From -- ./inp_files/28013.got.cif
#   From: 2010.05.17/outbox.cif.g08.bks.cpg/sg53_15_cif.got.tgz:28013.got - 2010.06.03 12:45:16.
