data_PCOD9416660
_publ_section_title
;
Structure prediction by ZEFSAII (Michael W. Deem and Ramdas Pophale) SiO2 
 PCOD9416660
Probable space group: P M N A
;
_chemical_formula_sum "Si O2"
_cell_formula_units_Z 48
_cell_length_a 15.918200
_cell_length_b 13.635443
_cell_length_c 9.284460
_cell_angle_alpha 90.000000
_cell_angle_beta 90.000000
_cell_angle_gamma 90.000000
_cell_volume 2015.207908
_symmetry_space_group_name_H-M "P M N A"
_symmetry_group_IT_number 53
_symmetry_cell_setting 'orthorhombic'
loop_
_space_group_symop_operation_xyz
x,y,z
1/2-x,-y,1/2+z
x,-y,-z
1/2-x,y,1/2-z
-x,-y,-z
1/2+x,y,1/2-z
-x,y,z
1/2+x,-y,1/2+z
loop_
_atom_site_type_symbol
_atom_site_label
_atom_site_fract_x
_atom_site_fract_y
_atom_site_fract_z
Si Si1 0.898820 0.293131 0.942827
Si Si2 0.904028 0.093134 0.077255
Si Si3 0.825982 0.070202 0.362233
Si Si4 0.102441 0.618246 0.351336
Si Si5 0.823667 0.701481 0.633700
Si Si6 0.595133 0.430583 0.325490
O O1 0.883676 0.301061 0.773722
O O2 0.000000 0.296990 0.960336
O O3 0.865981 0.195286 0.020305
O O4 0.867700 0.391285 0.024407
O O5 0.901426 0.073453 0.246772
O O6 0.000000 0.098084 0.027671
O O7 0.863212 0.000000 0.000000
O O8 0.750000 0.046628 0.250000
O O9 0.817875 0.184393 0.403984
O O10 0.833764 0.000000 0.500000
O O11 0.159869 0.643363 0.486817
O O12 0.129473 0.516114 0.276253
O O13 0.000000 0.614576 0.384840
O O14 0.750000 0.677119 0.750000
O O15 0.903361 0.668549 0.729792
O O16 0.500000 0.463500 0.350892
#
# Coordination Sequence:
#
# PCOD9416660 Si02
#       6
#     8   8   8   8   8   8
#     4   9  18  35  61  96 133 165 206 264 321 382
#     4  10  21  38  64  98 131 161 204 274 343 387
#     4  11  25  45  67  88 122 174 224 269 324 398
#     4  10  21  38  67 101 131 174 226 264 314 397
#     4  11  24  41  60  91 134 169 215 275 329 380
#     4  10  19  39  69  96 131 174 215 262 323 392
#
# _framework density 23.818883
#
# number of rings (size 3 to 8) (size 9 to 14) (size 15 to 20)
#    0.000    1.833    1.667    2.000    2.333    4.333 
#    0.000    4.167    0.000    1.000    0.000    0.000 
#    0.000    0.000    0.000    0.000    0.000    4.000 
#
# Total GULP energy -267627.330652 kJ/mol
# GULP energy per Si atom -5575.569389 kJ/mol
# Density = 2.376467 g / cm^3
# Si number density = 23.818883 Si / 1000 Ang^3
#
#
#
# Elastic Constant Matrix: (Units=GPa)
#
#
# Indices 1 2 3 4 5 6 
#
# 1 58.0886 35.3249 38.2371 0.0000 0.0000 0.0000
# 2 35.3249 149.1803 100.0228 0.0000 0.0000 0.0000
# 3 38.2371 100.0228 196.6207 0.0000 0.0000 0.0000
# 4 0.0000 0.0000 0.0000 53.3036 0.0000 0.0000
# 5 0.0000 0.0000 0.0000 0.0000 40.9350 0.0000
# 6 0.0000 0.0000 0.0000 0.0000 0.0000 8.1520
#
#
#
# Elastic Compliance Matrix: (Units=1/GPa)
#
#
# Indices 1 2 3 4 5 6 
#
# 1 0.020795 -0.003358 -0.002336 0.000000 0.000000 0.000000
# 2 -0.003358 0.010715 -0.004798 0.000000 0.000000 0.000000
# 3 -0.002336 -0.004798 0.007981 0.000000 0.000000 0.000000
# 4 0.000000 0.000000 0.000000 0.018760 0.000000 0.000000
# 5 0.000000 0.000000 0.000000 0.000000 0.024429 0.000000
# 6 0.000000 0.000000 0.000000 0.000000 0.000000 0.122670
#
#
# Mechanical properties :
#
#
# Convention : Reuss Voigt Hill
#
# Bulk Modulus (GPa) = 54.03183 83.45103 68.74143
# Shear Modulus (GPa) = 21.50509 35.83176 28.66842
#
# Velocity S-wave (km/s) = 3.00802 3.88279 3.47306
# Velocity P-wave (km/s) = 5.89898 7.43056 6.70862
#
# Compressibility (1/GPa) = 0.01850761
#
# Stress axis : x y z
#
# Youngs Moduli (GPa) = 48.08929 93.32349 125.29829
#
# Poissons Ratio (x) = 0.31338 0.29266
# Poissons Ratio (y) = 0.16148 0.60118
# Poissons Ratio (z) = 0.11232 0.44777
#
# Static dielectric constant tensor:
#      x y z
#    x 2.010370 0.000000 0.000000 
#    y 0.000000 1.959010 0.000000 
#    z 0.000000 0.000000 1.929730 
# 
# From -- ./inp_files/9936.got.cif
#   From: 2010.05.17/outbox.cif.g08.bks.cpg/sg53_5_cif.got.tgz:9936.got - 2010.06.03 12:45:16.
