data_PCOD9416778
_publ_section_title
;
Structure prediction by ZEFSAII (Michael W. Deem and Ramdas Pophale) SiO2 
 PCOD9416778
Probable space group: P M N A
;
_chemical_formula_sum "Si O2"
_cell_formula_units_Z 64
_cell_length_a 8.906293
_cell_length_b 15.698028
_cell_length_c 26.215837
_cell_angle_alpha 90.000000
_cell_angle_beta 90.000000
_cell_angle_gamma 90.000000
_cell_volume 3665.268597
_symmetry_space_group_name_H-M "P M N A"
_symmetry_group_IT_number 53
_symmetry_cell_setting 'orthorhombic'
loop_
_space_group_symop_operation_xyz
x,y,z
1/2-x,-y,1/2+z
x,-y,-z
1/2-x,y,1/2-z
-x,-y,-z
1/2+x,y,1/2-z
-x,y,z
1/2+x,-y,1/2+z
loop_
_atom_site_type_symbol
_atom_site_label
_atom_site_fract_x
_atom_site_fract_y
_atom_site_fract_z
Si Si1 0.827815 0.187479 0.412086
Si Si2 0.319596 0.478000 0.805958
Si Si3 0.823096 0.842715 0.113330
Si Si4 0.319491 0.013029 0.440600
Si Si5 0.819670 0.286081 0.693425
Si Si6 0.830904 0.257629 0.528016
Si Si7 0.667771 0.597723 0.512632
Si Si8 0.181691 0.632507 0.619903
O O1 0.730873 0.102769 0.417160
O O2 0.827114 0.225761 0.469670
O O3 0.781787 0.266182 0.375255
O O4 0.000000 0.164422 0.399974
O O5 0.250000 0.484552 0.750000
O O6 0.500000 0.479058 0.802362
O O7 0.279014 0.382483 0.825973
O O8 0.276274 0.561418 0.838474
O O9 0.741613 0.788830 0.157325
O O10 0.788040 0.791909 0.061515
O O11 0.000000 0.845401 0.124435
O O12 0.769249 0.937338 0.097463
O O13 0.500000 0.009302 0.442980
O O14 0.265501 0.000000 0.500000
O O15 0.750000 0.278333 0.750000
O O16 0.000000 0.281206 0.696178
O O17 0.780311 0.354893 0.525368
O O18 0.000000 0.246501 0.547948
O O19 0.658393 0.500000 0.500000
O O20 0.500000 0.636242 0.509981
O O21 0.734330 0.606012 0.568736
O O22 0.000000 0.629358 0.613131
#
# Coordination Sequence:
#
# PCOD9416778 Si02
#       8
#     8   8   8   8   8   8   8   8
#     4   9  18  32  51  74 104 139 178 221 261 307
#     4   9  19  36  58  82 108 137 175 219 266 320
#     4  11  22  35  54  79 108 142 180 227 273 322
#     4  10  20  34  52  76 108 145 180 220 270 315
#     4  10  21  38  58  82 108 141 179 222 273 323
#     4  10  20  33  49  72 102 140 179 217 262 315
#     4  10  21  33  45  69 102 139 179 217 258 309
#     4   9  19  35  52  75 105 140 174 213 265 317
#
# _framework density 17.461202
#
# number of rings (size 3 to 8) (size 9 to 14) (size 15 to 20)
#    0.000    2.250    1.250    2.250    1.750    5.250 
#    0.000    0.000    0.000    0.750    0.000    3.500 
#    0.000    0.000    0.000    0.000    0.000    0.000 
#
# Total GULP energy -356420.554592 kJ/mol
# GULP energy per Si atom -5569.071166 kJ/mol
# Density = 1.742146 g / cm^3
# Si number density = 17.461202 Si / 1000 Ang^3
#
#
#
# Elastic Constant Matrix: (Units=GPa)
#
#
# Indices 1 2 3 4 5 6 
#
# 1 19.8222 33.2473 17.9804 0.0000 0.0000 0.0000
# 2 33.2473 144.2648 50.9453 0.0000 0.0000 0.0000
# 3 17.9804 50.9453 47.9580 0.0000 0.0000 0.0000
# 4 0.0000 0.0000 0.0000 25.7911 0.0000 0.0000
# 5 0.0000 0.0000 0.0000 0.0000 20.2996 0.0000
# 6 0.0000 0.0000 0.0000 0.0000 0.0000 31.2505
#
#
#
# Elastic Compliance Matrix: (Units=1/GPa)
#
#
# Indices 1 2 3 4 5 6 
#
# 1 0.092073 -0.014449 -0.019171 0.000000 0.000000 0.000000
# 2 -0.014449 0.013361 -0.008776 0.000000 0.000000 0.000000
# 3 -0.019171 -0.008776 0.037361 0.000000 0.000000 0.000000
# 4 0.000000 0.000000 0.000000 0.038773 0.000000 0.000000
# 5 0.000000 0.000000 0.000000 0.000000 0.049262 0.000000
# 6 0.000000 0.000000 0.000000 0.000000 0.000000 0.031999
#
#
# Mechanical properties :
#
#
# Convention : Reuss Voigt Hill
#
# Bulk Modulus (GPa) = 17.24018 46.26569 31.75293
# Shear Modulus (GPa) = 13.62562 22.79304 18.20933
#
# Velocity S-wave (km/s) = 2.79648 3.61689 3.23281
# Velocity P-wave (km/s) = 4.50799 6.63297 5.67090
#
# Compressibility (1/GPa) = 0.05800405
#
# Stress axis : x y z
#
# Youngs Moduli (GPa) = 10.86090 74.84642 26.76573
#
# Poissons Ratio (x) = 1.08149 0.51312
# Poissons Ratio (y) = 0.15693 0.23488
# Poissons Ratio (z) = 0.20821 0.65682
#
# Static dielectric constant tensor:
#      x y z
#    x 1.604640 0.000000 0.000000 
#    y 0.000000 1.644910 0.000000 
#    z 0.000000 0.000000 1.577140 
# 
# From -- ./inp_files/34184.got.cif
#   From: 2010.05.17/outbox.cif.g08.bks.cpg/sg53_18_cif.got.tgz:34184.got - 2010.06.03 12:45:16.
