data_PCOD9416369
_publ_section_title
;
Structure prediction by ZEFSAII (Michael W. Deem and Ramdas Pophale) SiO2 
 PCOD9416369
Probable space group: P M N A
;
_chemical_formula_sum "Si O2"
_cell_formula_units_Z 64
_cell_length_a 18.143019
_cell_length_b 8.859317
_cell_length_c 22.130608
_cell_angle_alpha 90.000000
_cell_angle_beta 90.000000
_cell_angle_gamma 90.000000
_cell_volume 3557.157892
_symmetry_space_group_name_H-M "P M N A"
_symmetry_group_IT_number 53
_symmetry_cell_setting 'orthorhombic'
loop_
_space_group_symop_operation_xyz
x,y,z
1/2-x,-y,1/2+z
x,-y,-z
1/2-x,y,1/2-z
-x,-y,-z
1/2+x,y,1/2-z
-x,y,z
1/2+x,-y,1/2+z
loop_
_atom_site_type_symbol
_atom_site_label
_atom_site_fract_x
_atom_site_fract_y
_atom_site_fract_z
Si Si1 0.417317 0.660624 0.245380
Si Si2 0.201942 0.664983 0.087987
Si Si3 0.824232 0.464426 0.346449
Si Si4 0.915538 0.646178 0.543426
Si Si5 0.813236 0.886857 0.202112
Si Si6 0.272485 0.170182 0.022004
Si Si7 0.583594 0.542258 0.633758
Si Si8 0.790094 0.779879 0.844039
O O1 0.500000 0.669863 0.220186
O O2 0.361006 0.578563 0.200363
O O3 0.387253 0.822718 0.267043
O O4 0.418785 0.555703 0.304746
O O5 0.266717 0.554861 0.111419
O O6 0.195843 0.796080 0.138982
O O7 0.127872 0.565762 0.087827
O O8 0.223853 0.731185 0.023817
O O9 0.887792 0.399663 0.389794
O O10 0.774530 0.330022 0.318230
O O11 0.911202 0.500000 0.500000
O O12 0.855502 0.765896 0.520919
O O13 0.000000 0.698755 0.543811
O O14 0.750000 0.843753 0.250000
O O15 0.806416 0.064609 0.190086
O O16 0.240926 0.181806 0.089309
O O17 0.271075 0.000000 0.000000
O O18 0.500000 0.578663 0.615917
O O19 0.635130 0.685007 0.647631
#
# Coordination Sequence:
#
# PCOD9416369 Si02
#       8
#     8   8   8   8   8   8   8   8
#     4  10  21  37  58  82 114 152 184 231 288 346
#     4  10  19  36  60  82 109 146 192 231 271 342
#     4  10  19  35  57  83 113 148 192 233 273 335
#     4  10  20  33  54  82 112 147 187 234 275 323
#     4  11  21  35  57  85 110 146 191 229 279 331
#     4  11  21  38  57  81 115 150 192 228 285 334
#     4   9  21  38  57  82 112 143 182 236 294 336
#     4  10  23  34  60  86 112 148 188 241 278 334
#
# _framework density 17.991892
#
# number of rings (size 3 to 8) (size 9 to 14) (size 15 to 20)
#    0.000    1.875    3.750    0.375    1.750    0.750 
#    0.000    1.250    0.000    1.500    0.000    0.000 
#    0.000    0.000    0.000    0.000    0.000    0.000 
#
# Total GULP energy -357095.442869 kJ/mol
# GULP energy per Si atom -5579.616295 kJ/mol
# Density = 1.795094 g / cm^3
# Si number density = 17.991892 Si / 1000 Ang^3
#
#
#
# Elastic Constant Matrix: (Units=GPa)
#
#
# Indices 1 2 3 4 5 6 
#
# 1 133.5006 33.8013 27.0018 0.0000 0.0000 0.0000
# 2 33.8013 68.7412 15.5260 0.0000 0.0000 0.0000
# 3 27.0018 15.5260 53.7796 0.0000 0.0000 0.0000
# 4 0.0000 0.0000 0.0000 25.7116 0.0000 0.0000
# 5 0.0000 0.0000 0.0000 0.0000 21.2386 0.0000
# 6 0.0000 0.0000 0.0000 0.0000 0.0000 16.2087
#
#
#
# Elastic Compliance Matrix: (Units=1/GPa)
#
#
# Indices 1 2 3 4 5 6 
#
# 1 0.009139 -0.003699 -0.003521 0.000000 0.000000 0.000000
# 2 -0.003699 0.017059 -0.003068 0.000000 0.000000 0.000000
# 3 -0.003521 -0.003068 0.021248 0.000000 0.000000 0.000000
# 4 0.000000 0.000000 0.000000 0.038893 0.000000 0.000000
# 5 0.000000 0.000000 0.000000 0.000000 0.047084 0.000000
# 6 0.000000 0.000000 0.000000 0.000000 0.000000 0.061695
#
#
# Mechanical properties :
#
#
# Convention : Reuss Voigt Hill
#
# Bulk Modulus (GPa) = 37.21444 45.40885 41.31164
# Shear Modulus (GPa) = 22.25685 24.61128 23.43406
#
# Velocity S-wave (km/s) = 3.52099 3.70254 3.61290
# Velocity P-wave (km/s) = 6.10399 6.60088 6.35729
#
# Compressibility (1/GPa) = 0.02687129
#
# Stress axis : x y z
#
# Youngs Moduli (GPa) = 109.41878 58.62033 47.06360
#
# Poissons Ratio (x) = 0.21682 0.16570
# Poissons Ratio (y) = 0.40471 0.14438
# Poissons Ratio (z) = 0.38524 0.17984
#
# Static dielectric constant tensor:
#      x y z
#    x 1.612380 0.000000 0.000000 
#    y 0.000000 1.615330 0.000000 
#    z 0.000000 0.000000 1.623100 
# 
# From -- ./inp_files/32850.got.cif
#   From: 2010.05.17/outbox.cif.g08.bks.cpg/sg53_17_cif.got.tgz:32850.got - 2010.06.03 12:45:16.
