data_PCOD9416960
_publ_section_title
;
Structure prediction by ZEFSAII (Michael W. Deem and Ramdas Pophale) SiO2 
 PCOD9416960
Probable space group: P M N A
;
_chemical_formula_sum "Si O2"
_cell_formula_units_Z 64
_cell_length_a 18.777001
_cell_length_b 9.627136
_cell_length_c 24.489339
_cell_angle_alpha 90.000000
_cell_angle_beta 90.000000
_cell_angle_gamma 90.000000
_cell_volume 4426.907011
_symmetry_space_group_name_H-M "P M N A"
_symmetry_group_IT_number 53
_symmetry_cell_setting 'orthorhombic'
loop_
_space_group_symop_operation_xyz
x,y,z
1/2-x,-y,1/2+z
x,-y,-z
1/2-x,y,1/2-z
-x,-y,-z
1/2+x,y,1/2-z
-x,y,z
1/2+x,-y,1/2+z
loop_
_atom_site_type_symbol
_atom_site_label
_atom_site_fract_x
_atom_site_fract_y
_atom_site_fract_z
Si Si1 0.083262 0.321894 0.253882
Si Si2 0.661844 0.492789 0.152273
Si Si3 0.161152 0.176660 0.645451
Si Si4 0.916560 0.146813 0.529854
Si Si5 0.214882 0.309545 0.189284
Si Si6 0.416373 0.007431 0.758681
Si Si7 0.785848 0.993999 0.189557
Si Si8 0.580321 0.612805 0.952581
O O1 0.113654 0.422081 0.300646
O O2 0.132675 0.343486 0.200833
O O3 0.093621 0.158557 0.269991
O O4 0.000000 0.344370 0.244981
O O5 0.663221 0.658771 0.157146
O O6 0.739540 0.422603 0.157380
O O7 0.627083 0.446629 0.095653
O O8 0.127839 0.153363 0.585549
O O9 0.239732 0.110250 0.653195
O O10 0.112593 0.096634 0.690343
O O11 0.890339 0.253692 0.483834
O O12 0.000000 0.182306 0.542321
O O13 0.915319 0.000000 0.500000
O O14 0.250000 0.307148 0.250000
O O15 0.220848 0.151846 0.168023
O O16 0.500000 0.031848 0.750304
O O17 0.367570 0.038256 0.705453
O O18 0.750000 0.991437 0.250000
O O19 0.500000 0.644026 0.931970
O O20 0.574986 0.500000 0.000000
#
# Coordination Sequence:
#
# PCOD9416960 Si02
#       8
#     8   8   8   8   8   8   8   8
#     4   9  18  31  47  66  88 117 150 181 215 261
#     4  11  20  29  45  65  89 121 149 178 220 260
#     4  11  20  30  44  65  91 118 149 182 220 259
#     4  10  22  34  45  63  86 115 152 189 217 249
#     4   8  16  30  45  63  86 114 148 179 213 262
#     4   9  18  31  47  65  88 117 149 182 218 261
#     4   8  16  30  45  62  86 115 145 181 218 257
#     4  10  20  34  45  59  88 119 148 182 217 252
#
# _framework density 14.457046999999999
#
# number of rings (size 3 to 8) (size 9 to 14) (size 15 to 20)
#    0.000    2.500    1.250    3.000    3.500    6.000 
#    0.000    0.000    0.000    0.000    0.000    0.000 
#    0.000    2.000    0.000    0.125    0.000    0.000 
#
# Total GULP energy -356353.139098 kJ/mol
# GULP energy per Si atom -5568.017798 kJ/mol
# Density = 1.442414 g / cm^3
# Si number density = 14.457047 Si / 1000 Ang^3
#
#
#
# Elastic Constant Matrix: (Units=GPa)
#
#
# Indices 1 2 3 4 5 6 
#
# 1 110.4878 51.4728 41.0433 0.0000 0.0000 0.0000
# 2 51.4728 88.8075 39.7705 0.0000 0.0000 0.0000
# 3 41.0433 39.7705 48.1148 0.0000 0.0000 0.0000
# 4 0.0000 0.0000 0.0000 20.9348 0.0000 0.0000
# 5 0.0000 0.0000 0.0000 0.0000 30.1447 0.0000
# 6 0.0000 0.0000 0.0000 0.0000 0.0000 19.3045
#
#
#
# Elastic Compliance Matrix: (Units=1/GPa)
#
#
# Indices 1 2 3 4 5 6 
#
# 1 0.014291 -0.004483 -0.008485 0.000000 0.000000 0.000000
# 2 -0.004483 0.019285 -0.012116 0.000000 0.000000 0.000000
# 3 -0.008485 -0.012116 0.038036 0.000000 0.000000 0.000000
# 4 0.000000 0.000000 0.000000 0.047767 0.000000 0.000000
# 5 0.000000 0.000000 0.000000 0.000000 0.033173 0.000000
# 6 0.000000 0.000000 0.000000 0.000000 0.000000 0.051801
#
#
# Mechanical properties :
#
#
# Convention : Reuss Voigt Hill
#
# Bulk Modulus (GPa) = 46.63358 56.88704 51.76031
# Shear Modulus (GPa) = 19.10797 21.75170 20.42984
#
# Velocity S-wave (km/s) = 3.63947 3.88309 3.76325
# Velocity P-wave (km/s) = 7.07020 7.71615 7.40022
#
# Compressibility (1/GPa) = 0.02144378
#
# Stress axis : x y z
#
# Youngs Moduli (GPa) = 69.97182 51.85459 26.29074
#
# Poissons Ratio (x) = 0.23249 0.22308
# Poissons Ratio (y) = 0.31372 0.31853
# Poissons Ratio (z) = 0.59372 0.62826
#
# Static dielectric constant tensor:
#      x y z
#    x 1.514380 0.000000 0.000000 
#    y 0.000000 1.414230 0.000000 
#    z 0.000000 0.000000 1.458130 
# 
# From -- ./inp_files/37173.got.cif
#   From: 2010.05.17/outbox.cif.g08.bks.cpg/sg53_19_cif.got.tgz:37173.got - 2010.06.03 12:45:16.
