data_PCOD9416292
_publ_section_title
;
Structure prediction by ZEFSAII (Michael W. Deem and Ramdas Pophale) SiO2 
 PCOD9416292
Probable space group: P M N A
;
_chemical_formula_sum "Si O2"
_cell_formula_units_Z 40
_cell_length_a 19.111010
_cell_length_b 6.858273
_cell_length_c 14.150021
_cell_angle_alpha 90.000000
_cell_angle_beta 90.000000
_cell_angle_gamma 90.000000
_cell_volume 1854.622365
_symmetry_space_group_name_H-M "P M N A"
_symmetry_group_IT_number 53
_symmetry_cell_setting 'orthorhombic'
loop_
_space_group_symop_operation_xyz
x,y,z
1/2-x,-y,1/2+z
x,-y,-z
1/2-x,y,1/2-z
-x,-y,-z
1/2+x,y,1/2-z
-x,y,z
1/2+x,-y,1/2+z
loop_
_atom_site_type_symbol
_atom_site_label
_atom_site_fract_x
_atom_site_fract_y
_atom_site_fract_z
Si Si1 0.581135 0.461680 0.787852
Si Si2 0.916051 0.626436 0.074573
Si Si3 0.584384 0.124863 0.426346
Si Si4 0.077680 0.922343 0.393722
Si Si5 0.331886 0.168794 0.233972
O O1 0.500000 0.527972 0.776767
O O2 0.605580 0.373851 0.686306
O O3 0.581047 0.306686 0.872452
O O4 0.633451 0.636163 0.807114
O O5 0.901765 0.378875 0.050271
O O6 0.000000 0.628924 0.079925
O O7 0.903345 0.872208 0.047149
O O8 0.500000 0.123893 0.407338
O O9 0.630339 0.126129 0.332608
O O10 0.000000 0.983196 0.355088
O O11 0.080029 0.000000 0.500000
O O12 0.143485 0.005829 0.338443
O O13 0.250000 0.184043 0.250000
#
# Coordination Sequence:
#
# PCOD9416292 Si02
#       5
#     8   8   8   8   8
#     4  10  20  39  66  91 120 160 211 270 320 377
#     4   9  15  27  53  87 116 140 177 240 308 362
#     4  10  19  34  59  88 116 150 198 253 307 369
#     4  10  23  44  68  91 119 166 230 285 319 362
#     4  12  25  39  59  91 131 170 204 251 324 403
#
# _framework density 21.567734000000002
#
# number of rings (size 3 to 8) (size 9 to 14) (size 15 to 20)
#    0.000    1.800    2.000    3.000    0.000    5.600 
#    0.000    7.000    0.000    0.000    0.000    0.000 
#    0.000    0.000    0.000    0.000    0.000    0.000 
#
# Total GULP energy -222810.673608 kJ/mol
# GULP energy per Si atom -5570.266840 kJ/mol
# Density = 2.151864 g / cm^3
# Si number density = 21.567734 Si / 1000 Ang^3
#
#
#
# Elastic Constant Matrix: (Units=GPa)
#
#
# Indices 1 2 3 4 5 6 
#
# 1 123.1248 38.6114 31.6267 0.0000 0.0000 0.0000
# 2 38.6114 128.4033 31.6732 0.0000 0.0000 0.0000
# 3 31.6267 31.6732 72.9026 0.0000 0.0000 0.0000
# 4 0.0000 0.0000 0.0000 41.2449 0.0000 0.0000
# 5 0.0000 0.0000 0.0000 0.0000 5.4086 0.0000
# 6 0.0000 0.0000 0.0000 0.0000 0.0000 -3.1660
#
#
#
# Elastic Compliance Matrix: (Units=1/GPa)
#
#
# Indices 1 2 3 4 5 6 
#
# 1 0.009615 -0.002086 -0.003265 0.000000 0.000000 0.000000
# 2 -0.002086 0.009175 -0.003081 0.000000 0.000000 0.000000
# 3 -0.003265 -0.003081 0.016472 0.000000 0.000000 0.000000
# 4 0.000000 0.000000 0.000000 0.024245 0.000000 0.000000
# 5 0.000000 0.000000 0.000000 0.000000 0.184890 0.000000
# 6 0.000000 0.000000 0.000000 0.000000 0.000000 -0.315856
#
#
# Mechanical properties :
#
#
# Convention : Reuss Voigt Hill
#
# Bulk Modulus (GPa) = 54.35429 58.69479 56.52454
# Shear Modulus (GPa) = -103.17421 23.53214 -39.82104
#
# Velocity S-wave (km/s) = -6.92395 3.30673 -4.30155
# Velocity P-wave (km/s) = 6.21813 6.46936 1.26242
#
# Compressibility (1/GPa) = 0.01839781
#
# Stress axis : x y z
#
# Youngs Moduli (GPa) = 104.00890 108.98876 60.70898
#
# Poissons Ratio (x) = 0.22733 0.19820
# Poissons Ratio (y) = 0.21694 0.18707
# Poissons Ratio (z) = 0.33957 0.33584
#
# Static dielectric constant tensor:
#      x y z
#    x 1.673340 0.000000 0.000000 
#    y 0.000000 2.135350 0.000000 
#    z 0.000000 0.000000 1.822620 
# 
# From -- ./inp_files/28762.got.cif
#   From: 2010.05.17/outbox.cif.g08.bks.cpg/sg53_15_cif.got.tgz:28762.got - 2010.06.03 12:45:16.
