data_PCOD9416576
_publ_section_title
;
Structure prediction by ZEFSAII (Michael W. Deem and Ramdas Pophale) SiO2 
 PCOD9416576
Probable space group: P M N A
;
_chemical_formula_sum "Si O2"
_cell_formula_units_Z 64
_cell_length_a 8.608534
_cell_length_b 24.946710
_cell_length_c 15.017436
_cell_angle_alpha 90.000000
_cell_angle_beta 90.000000
_cell_angle_gamma 90.000000
_cell_volume 3225.063480
_symmetry_space_group_name_H-M "P M N A"
_symmetry_group_IT_number 53
_symmetry_cell_setting 'orthorhombic'
loop_
_space_group_symop_operation_xyz
x,y,z
1/2-x,-y,1/2+z
x,-y,-z
1/2-x,y,1/2-z
-x,-y,-z
1/2+x,y,1/2-z
-x,y,z
1/2+x,-y,1/2+z
loop_
_atom_site_type_symbol
_atom_site_label
_atom_site_fract_x
_atom_site_fract_y
_atom_site_fract_z
Si Si1 0.813339 0.907711 0.839890
Si Si2 0.683271 0.979514 0.398358
Si Si3 0.316067 0.135985 0.848061
Si Si4 0.186627 0.725438 0.650033
Si Si5 0.687282 0.399166 0.845222
Si Si6 0.813790 0.181759 0.022564
Si Si7 0.810797 0.622235 0.538515
Si Si8 0.687363 0.476254 0.154450
O O1 0.750000 0.881852 0.750000
O O2 0.769651 0.872905 0.925137
O O3 0.000000 0.909621 0.837191
O O4 0.754697 0.968511 0.846616
O O5 0.500000 0.970796 0.378765
O O6 0.768126 0.924635 0.376032
O O7 0.692252 0.000000 0.500000
O O8 0.250000 0.146411 0.750000
O O9 0.500000 0.140147 0.846643
O O10 0.248867 0.175704 0.923045
O O11 0.250000 0.731810 0.750000
O O12 0.245996 0.770850 0.582444
O O13 0.236741 0.668973 0.605874
O O14 0.000000 0.727102 0.653628
O O15 0.750000 0.379953 0.750000
O O16 0.500000 0.397458 0.841374
O O17 0.734976 0.461813 0.856362
O O18 0.739436 0.370331 0.936116
O O19 0.000000 0.185372 0.021042
O O20 0.761723 0.564729 0.578004
O O21 0.000000 0.622078 0.537028
O O22 0.750000 0.457513 0.250000
O O23 0.500000 0.475759 0.155943
#
# Coordination Sequence:
#
# PCOD9416576 Si02
#       8
#     8   8   8   8   8   8   8   8
#     4  10  21  35  56  82 112 148 185 228 278 334
#     4  10  19  37  59  84 120 159 193 232 283 337
#     4  12  25  41  63  91 121 156 196 239 289 346
#     4  11  23  40  61  87 115 147 187 235 292 349
#     4   9  17  31  51  77 109 147 189 232 278 334
#     4  11  23  43  64  84 112 150 193 241 292 342
#     4   9  18  33  54  78 109 149 191 233 280 341
#     4   9  16  28  49  77 109 147 188 230 280 337
#
# _framework density 19.844570999999998
#
# number of rings (size 3 to 8) (size 9 to 14) (size 15 to 20)
#    0.000    1.875    1.250    3.375    0.000    5.250 
#    0.000    3.125    0.000    4.500    0.000    0.000 
#    0.000    0.000    0.000    0.000    0.000    0.000 
#
# Total GULP energy -357311.948542 kJ/mol
# GULP energy per Si atom -5582.999196 kJ/mol
# Density = 1.979940 g / cm^3
# Si number density = 19.844571 Si / 1000 Ang^3
#
#
#
# Elastic Constant Matrix: (Units=GPa)
#
#
# Indices 1 2 3 4 5 6 
#
# 1 41.9357 21.2569 35.0137 0.0000 0.0000 0.0000
# 2 21.2569 50.5927 41.3875 0.0000 0.0000 0.0000
# 3 35.0137 41.3875 162.5740 0.0000 0.0000 0.0000
# 4 0.0000 0.0000 0.0000 30.6325 0.0000 0.0000
# 5 0.0000 0.0000 0.0000 0.0000 32.4521 0.0000
# 6 0.0000 0.0000 0.0000 0.0000 0.0000 12.4996
#
#
#
# Elastic Compliance Matrix: (Units=1/GPa)
#
#
# Indices 1 2 3 4 5 6 
#
# 1 0.032689 -0.010073 -0.004476 0.000000 0.000000 0.000000
# 2 -0.010073 0.028069 -0.004976 0.000000 0.000000 0.000000
# 3 -0.004476 -0.004976 0.008382 0.000000 0.000000 0.000000
# 4 0.000000 0.000000 0.000000 0.032645 0.000000 0.000000
# 5 0.000000 0.000000 0.000000 0.000000 0.030815 0.000000
# 6 0.000000 0.000000 0.000000 0.000000 0.000000 0.080003
#
#
# Mechanical properties :
#
#
# Convention : Reuss Voigt Hill
#
# Bulk Modulus (GPa) = 33.23434 50.04653 41.64043
# Shear Modulus (GPa) = 19.10714 25.61312 22.36013
#
# Velocity S-wave (km/s) = 3.10633 3.59651 3.36037
# Velocity P-wave (km/s) = 5.44513 6.52078 6.00708
#
# Compressibility (1/GPa) = 0.03008936
#
# Stress axis : x y z
#
# Youngs Moduli (GPa) = 30.59126 35.62673 119.30539
#
# Poissons Ratio (x) = 0.35887 0.53400
# Poissons Ratio (y) = 0.30815 0.59369
# Poissons Ratio (z) = 0.13692 0.17729
#
# Static dielectric constant tensor:
#      x y z
#    x 1.673030 0.000000 0.000000 
#    y 0.000000 1.707190 0.000000 
#    z 0.000000 0.000000 1.723870 
# 
# From -- ./inp_files/20978.got.cif
#   From: 2010.05.17/outbox.cif.g08.bks.cpg/sg53_11_cif.got.tgz:20978.got - 2010.06.03 12:45:16.
