data_PCOD9416129
_publ_section_title
;
Structure prediction by ZEFSAII (Michael W. Deem and Ramdas Pophale) SiO2 
 PCOD9416129
Probable space group: P M N A
;
_chemical_formula_sum "Si O2"
_cell_formula_units_Z 64
_cell_length_a 7.636034
_cell_length_b 20.415014
_cell_length_c 19.586638
_cell_angle_alpha 90.000000
_cell_angle_beta 90.000000
_cell_angle_gamma 90.000000
_cell_volume 3053.355925
_symmetry_space_group_name_H-M "P M N A"
_symmetry_group_IT_number 53
_symmetry_cell_setting 'orthorhombic'
loop_
_space_group_symop_operation_xyz
x,y,z
1/2-x,-y,1/2+z
x,-y,-z
1/2-x,y,1/2-z
-x,-y,-z
1/2+x,y,1/2-z
-x,y,z
1/2+x,-y,1/2+z
loop_
_atom_site_type_symbol
_atom_site_label
_atom_site_fract_x
_atom_site_fract_y
_atom_site_fract_z
Si Si1 0.784851 0.285955 0.946204
Si Si2 0.709970 0.382644 0.671950
Si Si3 0.714527 0.864996 0.440602
Si Si4 0.788937 0.530783 0.828509
Si Si5 0.791067 0.094005 0.088496
Si Si6 0.797316 0.650917 0.913892
Si Si7 0.793823 0.225347 0.329086
Si Si8 0.710462 0.967652 0.329946
O O1 0.727122 0.329661 0.882331
O O2 0.729030 0.210545 0.941379
O O3 0.000000 0.284687 0.947513
O O4 0.722696 0.319913 0.016147
O O5 0.750000 0.364968 0.750000
O O6 0.500000 0.385333 0.665126
O O7 0.776675 0.456754 0.659634
O O8 0.500000 0.864777 0.441292
O O9 0.773531 0.899671 0.510836
O O10 0.771611 0.905728 0.374520
O O11 0.750000 0.548619 0.750000
O O12 0.719553 0.585713 0.880115
O O13 0.000000 0.529526 0.834579
O O14 0.760205 0.162246 0.127161
O O15 0.000000 0.084790 0.083310
O O16 0.721738 0.033706 0.133301
O O17 0.792494 0.709348 0.858962
O O18 0.000000 0.635454 0.929344
O O19 0.750000 0.215093 0.250000
O O20 0.000000 0.234281 0.336137
O O21 0.750000 0.965123 0.250000
O O22 0.500000 0.968741 0.335081
#
# Coordination Sequence:
#
# PCOD9416129 Si02
#       8
#     8   8   8   8   8   8   8   8
#     4   9  17  31  55  80 105 136 177 222 266 313
#     4   9  18  33  52  77 105 139 178 221 266 315
#     4   9  17  33  57  81 105 139 181 221 264 318
#     4   9  18  31  50  75 105 138 178 219 263 312
#     4  10  19  36  59  80 105 139 179 221 264 315
#     4  10  19  34  54  77 105 140 177 220 267 314
#     4  12  24  36  53  79 110 143 178 216 260 314
#     4  10  21  35  55  82 109 140 179 222 266 314
#
# _framework density 20.960543999999999
#
# number of rings (size 3 to 8) (size 9 to 14) (size 15 to 20)
#    0.000    2.250    1.250    2.250    0.000    5.500 
#    0.000    3.750    0.000    1.500    0.000    4.375 
#    0.000    0.000    0.000    0.000    0.000    0.000 
#
# Total GULP energy -357423.162061 kJ/mol
# GULP energy per Si atom -5584.736907 kJ/mol
# Density = 2.091284 g / cm^3
# Si number density = 20.960544 Si / 1000 Ang^3
#
#
#
# Elastic Constant Matrix: (Units=GPa)
#
#
# Indices 1 2 3 4 5 6 
#
# 1 44.9455 -4.5453 -0.8477 0.0000 0.0000 0.0000
# 2 -4.5453 182.9520 134.5681 0.0000 0.0000 0.0000
# 3 -0.8477 134.5681 178.9587 0.0000 0.0000 0.0000
# 4 0.0000 0.0000 0.0000 33.0049 0.0000 0.0000
# 5 0.0000 0.0000 0.0000 0.0000 21.0229 0.0000
# 6 0.0000 0.0000 0.0000 0.0000 0.0000 -0.5315
#
#
#
# Elastic Compliance Matrix: (Units=1/GPa)
#
#
# Indices 1 2 3 4 5 6 
#
# 1 0.022344 0.001068 -0.000697 0.000000 0.000000 0.000000
# 2 0.001068 0.012281 -0.009230 0.000000 0.000000 0.000000
# 3 -0.000697 -0.009230 0.012525 0.000000 0.000000 0.000000
# 4 0.000000 0.000000 0.000000 0.030299 0.000000 0.000000
# 5 0.000000 0.000000 0.000000 0.000000 0.047567 0.000000
# 6 0.000000 0.000000 0.000000 0.000000 0.000000 -1.881616
#
#
# Mechanical properties :
#
#
# Convention : Reuss Voigt Hill
#
# Bulk Modulus (GPa) = 33.97655 73.91183 53.94419
# Shear Modulus (GPa) = -2.89173 29.21135 13.15981
#
# Velocity S-wave (km/s) = -1.17584 3.73719 2.50839
# Velocity P-wave (km/s) = 3.79493 7.34582 5.84648
#
# Compressibility (1/GPa) = 0.02943206
#
# Stress axis : x y z
#
# Youngs Moduli (GPa) = 44.75468 81.42367 79.83990
#
# Poissons Ratio (x) = -0.08695 0.05566
# Poissons Ratio (y) = -0.04779 0.73692
# Poissons Ratio (z) = 0.03120 0.75154
#
# Static dielectric constant tensor:
#      x y z
#    x 1.781850 0.000000 0.000000 
#    y 0.000000 9.980300 0.000000 
#    z 0.000000 0.000000 1.725290 
# 
# From -- ./inp_files/26990.got.cif
#   From: 2010.05.17/outbox.cif.g08.bks.cpg/sg53_14_cif.got.tgz:26990.got - 2010.06.03 12:45:16.
