data_PCOD9416518
_publ_section_title
;
Structure prediction by ZEFSAII (Michael W. Deem and Ramdas Pophale) SiO2 
 PCOD9416518
Probable space group: P M N A
;
_chemical_formula_sum "Si O2"
_cell_formula_units_Z 52
_cell_length_a 26.068054
_cell_length_b 12.847451
_cell_length_c 7.631206
_cell_angle_alpha 90.000000
_cell_angle_beta 90.000000
_cell_angle_gamma 90.000000
_cell_volume 2555.752293
_symmetry_space_group_name_H-M "P M N A"
_symmetry_group_IT_number 53
_symmetry_cell_setting 'orthorhombic'
loop_
_space_group_symop_operation_xyz
x,y,z
1/2-x,-y,1/2+z
x,-y,-z
1/2-x,y,1/2-z
-x,-y,-z
1/2+x,y,1/2-z
-x,y,z
1/2+x,-y,1/2+z
loop_
_atom_site_type_symbol
_atom_site_label
_atom_site_fract_x
_atom_site_fract_y
_atom_site_fract_z
Si Si1 0.250558 0.878429 0.460431
Si Si2 0.558429 0.120149 0.046036
Si Si3 0.443885 0.752329 0.619914
Si Si4 0.847882 0.500000 0.000000
Si Si5 0.845048 0.744301 0.466560
Si Si6 0.664373 0.278143 0.559266
Si Si7 0.597618 0.569466 0.838099
O O1 0.250000 0.871435 0.250000
O O2 0.200388 0.819224 0.532532
O O3 0.300773 0.814105 0.514774
O O4 0.251446 0.000000 0.500000
O O5 0.500000 0.146717 0.992076
O O6 0.602303 0.190045 0.961081
O O7 0.561579 0.147614 0.253172
O O8 0.567105 0.000000 0.000000
O O9 0.500000 0.754395 0.534368
O O10 0.394491 0.739872 0.498067
O O11 0.440669 0.653075 0.751757
O O12 0.818377 0.391450 0.007905
O O13 0.882371 0.500279 0.823791
O O14 0.831556 0.716278 0.268195
O O15 0.857056 0.642995 0.582776
O O16 0.578520 0.500000 0.000000
#
# Coordination Sequence:
#
# PCOD9416518 Si02
#       7
#     8   8   8   4   8   8   8
#     4  10  23  40  60  88 121 156 205 254 308 371
#     4   9  18  34  56  82 113 154 199 244 299 362
#     4   9  20  36  56  85 119 156 201 252 304 366
#     4  10  20  38  59  88 122 158 201 248 298 364
#     4  10  20  37  59  87 118 157 202 248 307 366
#     4  10  21  38  58  85 122 156 201 254 306 364
#     4  10  19  36  61  84 123 156 199 247 300 359
#
# _framework density 20.346260000000001
#
# number of rings (size 3 to 8) (size 9 to 14) (size 15 to 20)
#    0.000    2.308    1.538    0.462    0.000    7.077 
#    1.385    6.154    0.000    3.231    0.000    0.000 
#    0.000    0.000    0.000    0.000    0.000    0.000 
#
# Total GULP energy -289908.810183 kJ/mol
# GULP energy per Si atom -5575.169427 kJ/mol
# Density = 2.029995 g / cm^3
# Si number density = 20.346260 Si / 1000 Ang^3
#
#
#
# Elastic Constant Matrix: (Units=GPa)
#
#
# Indices 1 2 3 4 5 6 
#
# 1 87.6681 45.8228 12.1661 0.0000 0.0000 0.0000
# 2 45.8228 99.7311 18.6494 0.0000 0.0000 0.0000
# 3 12.1661 18.6494 66.0279 0.0000 0.0000 0.0000
# 4 0.0000 0.0000 0.0000 29.1387 0.0000 0.0000
# 5 0.0000 0.0000 0.0000 0.0000 18.7283 0.0000
# 6 0.0000 0.0000 0.0000 0.0000 0.0000 12.5517
#
#
#
# Elastic Compliance Matrix: (Units=1/GPa)
#
#
# Indices 1 2 3 4 5 6 
#
# 1 0.015059 -0.006757 -0.000866 0.000000 0.000000 0.000000
# 2 -0.006757 0.013618 -0.002601 0.000000 0.000000 0.000000
# 3 -0.000866 -0.002601 0.016039 0.000000 0.000000 0.000000
# 4 0.000000 0.000000 0.000000 0.034319 0.000000 0.000000
# 5 0.000000 0.000000 0.000000 0.000000 0.053395 0.000000
# 6 0.000000 0.000000 0.000000 0.000000 0.000000 0.079670
#
#
# Mechanical properties :
#
#
# Convention : Reuss Voigt Hill
#
# Bulk Modulus (GPa) = 41.20799 45.18930 43.19865
# Shear Modulus (GPa) = 20.77811 23.86968 22.32389
#
# Velocity S-wave (km/s) = 3.19913 3.42888 3.31599
# Velocity P-wave (km/s) = 5.82608 6.15911 5.99491
#
# Compressibility (1/GPa) = 0.02426714
#
# Stress axis : x y z
#
# Youngs Moduli (GPa) = 66.40730 73.43251 62.34625
#
# Poissons Ratio (x) = 0.49618 0.05400
# Poissons Ratio (y) = 0.44871 0.16218
# Poissons Ratio (z) = 0.05752 0.19102
#
# Static dielectric constant tensor:
#      x y z
#    x 1.716120 0.000000 0.000000 
#    y 0.000000 1.738140 0.000000 
#    z 0.000000 0.000000 1.741940 
# 
# From -- ./inp_files/12476.got.cif
#   From: 2010.05.17/outbox.cif.g08.bks.cpg/sg53_7_cif.got.tgz:12476.got - 2010.06.03 12:45:16.
