data_PCOD9416063
_publ_section_title
;
Structure prediction by ZEFSAII (Michael W. Deem and Ramdas Pophale) SiO2 
 PCOD9416063
Probable space group: P M N A
;
_chemical_formula_sum "Si O2"
_cell_formula_units_Z 40
_cell_length_a 9.385671
_cell_length_b 7.943020
_cell_length_c 25.982265
_cell_angle_alpha 90.000000
_cell_angle_beta 90.000000
_cell_angle_gamma 90.000000
_cell_volume 1936.992730
_symmetry_space_group_name_H-M "P M N A"
_symmetry_group_IT_number 53
_symmetry_cell_setting 'orthorhombic'
loop_
_space_group_symop_operation_xyz
x,y,z
1/2-x,-y,1/2+z
x,-y,-z
1/2-x,y,1/2-z
-x,-y,-z
1/2+x,y,1/2-z
-x,y,z
1/2+x,-y,1/2+z
loop_
_atom_site_type_symbol
_atom_site_label
_atom_site_fract_x
_atom_site_fract_y
_atom_site_fract_z
Si Si1 0.826329 0.142111 0.636251
Si Si2 0.849997 0.618812 0.950556
Si Si3 0.334214 0.533399 0.339114
Si Si4 0.651423 0.812463 0.018887
Si Si5 0.672671 0.847383 0.696581
O O1 0.767076 0.304760 0.667963
O O2 0.785465 0.176591 0.576302
O O3 0.000000 0.127217 0.639556
O O4 0.747073 0.972906 0.655555
O O5 0.825895 0.515436 0.899413
O O6 0.000000 0.713202 0.943394
O O7 0.862593 0.500000 0.000000
O O8 0.726719 0.734689 0.969692
O O9 0.500000 0.576425 0.327238
O O10 0.300284 0.352705 0.313199
O O11 0.500000 0.723198 0.026019
O O12 0.634937 0.000000 0.000000
O O13 0.750000 0.890952 0.750000
O O14 0.500000 0.870216 0.697278
#
# Coordination Sequence:
#
# PCOD9416063 Si02
#       5
#     8   8   8   8   8
#     4  11  23  39  63  93 126 165 207 254 308 369
#     4  10  19  33  56  85 119 157 200 246 292 354
#     4  10  22  41  64  92 126 166 210 259 315 372
#     4  10  21  35  53  83 123 164 204 246 296 356
#     4  11  25  45  68  91 120 157 203 261 319 374
#
# _framework density 20.650566999999999
#
# number of rings (size 3 to 8) (size 9 to 14) (size 15 to 20)
#    0.000    1.600    2.000    2.400    0.000    4.800 
#    0.000    2.000    0.000    0.000    0.000    0.000 
#    0.000    0.000    0.000    0.000    0.000    0.000 
#
# Total GULP energy -222679.939459 kJ/mol
# GULP energy per Si atom -5566.998486 kJ/mol
# Density = 2.060357 g / cm^3
# Si number density = 20.650567 Si / 1000 Ang^3
#
#
#
# Elastic Constant Matrix: (Units=GPa)
#
#
# Indices 1 2 3 4 5 6 
#
# 1 70.3453 44.7034 14.7834 0.0000 0.0000 0.0000
# 2 44.7034 65.3507 -10.9448 0.0000 0.0000 0.0000
# 3 14.7834 -10.9448 50.3145 0.0000 0.0000 0.0000
# 4 0.0000 0.0000 0.0000 20.7613 0.0000 0.0000
# 5 0.0000 0.0000 0.0000 0.0000 23.0309 0.0000
# 6 0.0000 0.0000 0.0000 0.0000 0.0000 -122.3638
#
#
#
# Elastic Compliance Matrix: (Units=1/GPa)
#
#
# Indices 1 2 3 4 5 6 
#
# 1 0.033857 -0.025765 -0.015553 0.000000 0.000000 0.000000
# 2 -0.025765 0.035487 0.015290 0.000000 0.000000 0.000000
# 3 -0.015553 0.015290 0.027771 0.000000 0.000000 0.000000
# 4 0.000000 0.000000 0.000000 0.048166 0.000000 0.000000
# 5 0.000000 0.000000 0.000000 0.000000 0.043420 0.000000
# 6 0.000000 0.000000 0.000000 0.000000 0.000000 -0.008172
#
#
# Mechanical properties :
#
#
# Convention : Reuss Voigt Hill
#
# Bulk Modulus (GPa) = 22.19272 31.45495 26.82384
# Shear Modulus (GPa) = 20.19349 -6.54975 6.82187
#
# Velocity S-wave (km/s) = 3.13048 -1.78286 1.81952
# Velocity P-wave (km/s) = 4.88228 3.32068 4.17514
#
# Compressibility (1/GPa) = 0.04505981
#
# Stress axis : x y z
#
# Youngs Moduli (GPa) = 29.53579 28.17906 36.00932
#
# Poissons Ratio (x) = 0.72603 0.56004
# Poissons Ratio (y) = 0.76099 -0.55057
# Poissons Ratio (z) = 0.45936 -0.43085
#
# Static dielectric constant tensor:
#      x y z
#    x 6.470320 0.000000 0.000000 
#    y 0.000000 1.733340 0.000000 
#    z 0.000000 0.000000 1.746510 
# 
# From -- ./inp_files/33655.got.cif
#   From: 2010.05.17/outbox.cif.g08.bks.cpg/sg53_17_cif.got.tgz:33655.got - 2010.06.03 12:45:16.
