data_PCOD9416430
_publ_section_title
;
Structure prediction by ZEFSAII (Michael W. Deem and Ramdas Pophale) SiO2 
 PCOD9416430
Probable space group: P M N A
;
_chemical_formula_sum "Si O2"
_cell_formula_units_Z 56
_cell_length_a 13.697533
_cell_length_b 9.666490
_cell_length_c 20.607082
_cell_angle_alpha 90.000000
_cell_angle_beta 90.000000
_cell_angle_gamma 90.000000
_cell_volume 2728.523262
_symmetry_space_group_name_H-M "P M N A"
_symmetry_group_IT_number 53
_symmetry_cell_setting 'orthorhombic'
loop_
_space_group_symop_operation_xyz
x,y,z
1/2-x,-y,1/2+z
x,-y,-z
1/2-x,y,1/2-z
-x,-y,-z
1/2+x,y,1/2-z
-x,y,z
1/2+x,-y,1/2+z
loop_
_atom_site_type_symbol
_atom_site_label
_atom_site_fract_x
_atom_site_fract_y
_atom_site_fract_z
Si Si1 0.615745 0.775493 0.748773
Si Si2 0.614082 0.996884 0.361485
Si Si3 0.383295 0.438743 0.355618
Si Si4 0.794149 0.276753 0.894173
Si Si5 0.112689 0.755640 0.609330
Si Si6 0.694006 0.218932 0.457282
Si Si7 0.611685 0.446547 0.928380
O O1 0.500000 0.755748 0.759384
O O2 0.649169 0.638931 0.710213
O O3 0.652924 0.803755 0.820879
O O4 0.627298 0.902353 0.699844
O O5 0.500000 0.955150 0.364334
O O6 0.683836 0.865042 0.357879
O O7 0.639693 0.089538 0.424579
O O8 0.500000 0.424933 0.359971
O O9 0.351948 0.596256 0.362362
O O10 0.337107 0.352125 0.414866
O O11 0.683758 0.332173 0.900860
O O12 0.828162 0.247197 0.968152
O O13 0.189948 0.800915 0.555083
O O14 0.112979 0.588104 0.612566
O O15 0.000000 0.797591 0.596987
O O16 0.500000 0.397895 0.934239
O O17 0.643311 0.500000 0.000000
#
# Coordination Sequence:
#
# PCOD9416430 Si02
#       7
#     8   8   8   8   8   8   8
#     4   8  18  38  61  85 112 154 207 247 291 355
#     4  10  23  39  56  82 122 164 201 248 299 350
#     4  10  20  33  53  83 118 152 200 255 291 343
#     4  12  21  35  55  89 121 156 197 243 302 365
#     4  10  19  36  66  90 113 152 200 254 299 346
#     4  11  21  35  56  85 119 156 206 243 289 360
#     4  10  19  35  59  92 128 157 193 251 311 353
#
# _framework density 20.523923
#
# number of rings (size 3 to 8) (size 9 to 14) (size 15 to 20)
#    0.000    1.857    2.857    2.571    0.000    5.714 
#    0.000    0.714    6.286    1.714    0.000    1.000 
#    0.000    0.000    0.000    0.000    0.000    0.000 
#
# Total GULP energy -312759.866068 kJ/mol
# GULP energy per Si atom -5584.997608 kJ/mol
# Density = 2.047721 g / cm^3
# Si number density = 20.523923 Si / 1000 Ang^3
#
#
#
# Elastic Constant Matrix: (Units=GPa)
#
#
# Indices 1 2 3 4 5 6 
#
# 1 105.4817 11.2804 2.4502 0.0000 0.0000 0.0000
# 2 11.2804 70.3384 0.6263 0.0000 0.0000 0.0000
# 3 2.4502 0.6263 39.8267 0.0000 0.0000 0.0000
# 4 0.0000 0.0000 0.0000 6.2869 0.0000 0.0000
# 5 0.0000 0.0000 0.0000 0.0000 14.2394 0.0000
# 6 0.0000 0.0000 0.0000 0.0000 0.0000 31.6472
#
#
#
# Elastic Compliance Matrix: (Units=1/GPa)
#
#
# Indices 1 2 3 4 5 6 
#
# 1 0.009659 -0.001544 -0.000570 0.000000 0.000000 0.000000
# 2 -0.001544 0.014466 -0.000132 0.000000 0.000000 0.000000
# 3 -0.000570 -0.000132 0.025146 0.000000 0.000000 0.000000
# 4 0.000000 0.000000 0.000000 0.159062 0.000000 0.000000
# 5 0.000000 0.000000 0.000000 0.000000 0.070228 0.000000
# 6 0.000000 0.000000 0.000000 0.000000 0.000000 0.031598
#
#
# Mechanical properties :
#
#
# Convention : Reuss Voigt Hill
#
# Bulk Modulus (GPa) = 22.33256 27.15116 24.74186
# Shear Modulus (GPa) = 15.17099 23.85403 19.51251
#
# Velocity S-wave (km/s) = 2.72175 3.41288 3.08672
# Velocity P-wave (km/s) = 4.55873 5.36546 4.97846
#
# Compressibility (1/GPa) = 0.04477768
#
# Stress axis : x y z
#
# Youngs Moduli (GPa) = 103.53393 69.12871 39.76788
#
# Poissons Ratio (x) = 0.10673 0.02266
# Poissons Ratio (y) = 0.15985 0.00527
# Poissons Ratio (z) = 0.05901 0.00916
#
# Static dielectric constant tensor:
#      x y z
#    x 1.786720 0.000000 0.000000 
#    y 0.000000 1.710690 0.000000 
#    z 0.000000 0.000000 1.744260 
# 
# From -- ./inp_files/32469.got.cif
#   From: 2010.05.17/outbox.cif.g08.bks.cpg/sg53_17_cif.got.tgz:32469.got - 2010.06.03 12:45:16.
