data_PCOD9416126
_publ_section_title
;
Structure prediction by ZEFSAII (Michael W. Deem and Ramdas Pophale) SiO2 
 PCOD9416126
Probable space group: P M N A
;
_chemical_formula_sum "Si O2"
_cell_formula_units_Z 64
_cell_length_a 8.415421
_cell_length_b 22.467478
_cell_length_c 18.572785
_cell_angle_alpha 90.000000
_cell_angle_beta 90.000000
_cell_angle_gamma 90.000000
_cell_volume 3511.617493
_symmetry_space_group_name_H-M "P M N A"
_symmetry_group_IT_number 53
_symmetry_cell_setting 'orthorhombic'
loop_
_space_group_symop_operation_xyz
x,y,z
1/2-x,-y,1/2+z
x,-y,-z
1/2-x,y,1/2-z
-x,-y,-z
1/2+x,y,1/2-z
-x,y,z
1/2+x,-y,1/2+z
loop_
_atom_site_type_symbol
_atom_site_label
_atom_site_fract_x
_atom_site_fract_y
_atom_site_fract_z
Si Si1 0.685259 0.005313 0.587395
Si Si2 0.687389 0.618578 0.328306
Si Si3 0.689391 0.566015 0.024298
Si Si4 0.194433 0.876259 0.909744
Si Si5 0.688521 0.685494 0.533835
Si Si6 0.814045 0.739140 0.387648
Si Si7 0.191028 0.758936 0.829244
Si Si8 0.807382 0.135325 0.922051
O O1 0.751020 0.070568 0.605502
O O2 0.000000 0.265123 0.627523
O O3 0.686997 0.000000 0.500000
O O4 0.754015 0.942041 0.612111
O O5 0.750000 0.601309 0.250000
O O6 0.500000 0.609957 0.333177
O O7 0.768186 0.582127 0.393265
O O8 0.725847 0.688467 0.341772
O O9 0.500000 0.572176 0.015279
O O10 0.736104 0.500000 0.000000
O O11 0.775215 0.616349 0.977091
O O12 0.247056 0.823296 0.858168
O O13 0.000000 0.878267 0.909163
O O14 0.237343 0.862187 0.992864
O O15 0.500000 0.696774 0.523927
O O16 0.778437 0.719773 0.470026
O O17 0.738124 0.710846 0.610766
O O18 0.500000 0.864129 0.419643
O O19 0.755799 0.806856 0.381380
O O20 0.250000 0.745965 0.750000
O O21 0.000000 0.760504 0.828202
O O22 0.000000 0.006437 0.890764
#
# Coordination Sequence:
#
# PCOD9416126 Si02
#       8
#     8   8   8   8   8   8   8   8
#     4   7  11  19  39  66  88 117 159 211 262 314
#     4  11  22  38  60  85 115 146 180 220 263 312
#     4  10  21  38  61  89 118 147 178 213 255 306
#     4   8  13  25  43  65  93 123 166 220 268 317
#     4  10  19  34  54  76 102 136 177 221 261 304
#     4  11  20  30  49  77 107 139 173 213 265 318
#     4  10  20  32  48  70  99 134 175 222 269 319
#     4   9  14  25  45  70  96 124 168 217 266 318
#
# _framework density 18.22522
#
# number of rings (size 3 to 8) (size 9 to 14) (size 15 to 20)
#    0.000    2.500    1.250    6.000    0.000    2.000 
#    0.000    0.625    0.000    6.375    0.000    1.750 
#    0.000    0.000    0.000    0.000    0.000    0.000 
#
# Total GULP energy -356763.787486 kJ/mol
# GULP energy per Si atom -5574.434179 kJ/mol
# Density = 1.818374 g / cm^3
# Si number density = 18.225220 Si / 1000 Ang^3
#
#
#
# Elastic Constant Matrix: (Units=GPa)
#
#
# Indices 1 2 3 4 5 6 
#
# 1 17.3830 -5.3271 -5.0197 0.0000 0.0000 0.0000
# 2 -5.3271 111.2111 28.4623 0.0000 0.0000 0.0000
# 3 -5.0197 28.4623 71.2722 0.0000 0.0000 0.0000
# 4 0.0000 0.0000 0.0000 14.6619 0.0000 0.0000
# 5 0.0000 0.0000 0.0000 0.0000 16.1531 0.0000
# 6 0.0000 0.0000 0.0000 0.0000 0.0000 13.3015
#
#
#
# Elastic Compliance Matrix: (Units=1/GPa)
#
#
# Indices 1 2 3 4 5 6 
#
# 1 0.059105 0.001967 0.003377 0.000000 0.000000 0.000000
# 2 0.001967 0.010081 -0.003887 0.000000 0.000000 0.000000
# 3 0.003377 -0.003887 0.015821 0.000000 0.000000 0.000000
# 4 0.000000 0.000000 0.000000 0.068204 0.000000 0.000000
# 5 0.000000 0.000000 0.000000 0.000000 0.061907 0.000000
# 6 0.000000 0.000000 0.000000 0.000000 0.000000 0.075180
#
#
# Mechanical properties :
#
#
# Convention : Reuss Voigt Hill
#
# Bulk Modulus (GPa) = 11.37383 26.23304 18.80343
# Shear Modulus (GPa) = 15.78823 20.94003 18.36413
#
# Velocity S-wave (km/s) = 2.94646 3.39331 3.17775
# Velocity P-wave (km/s) = 4.22253 5.45690 4.87891
#
# Compressibility (1/GPa) = 0.08792115
#
# Stress axis : x y z
#
# Youngs Moduli (GPa) = 16.91892 99.19650 63.20731
#
# Poissons Ratio (x) = -0.19511 -0.21347
# Poissons Ratio (y) = -0.03328 0.24571
# Poissons Ratio (z) = -0.05714 0.38561
#
# Static dielectric constant tensor:
#      x y z
#    x 1.627420 0.000000 0.000000 
#    y 0.000000 1.665780 0.000000 
#    z 0.000000 0.000000 1.604750 
# 
# From -- ./inp_files/27012.got.cif
#   From: 2010.05.17/outbox.cif.g08.bks.cpg/sg53_14_cif.got.tgz:27012.got - 2010.06.03 12:45:16.
