data_PCOD9416246
_publ_section_title
;
Structure prediction by ZEFSAII (Michael W. Deem and Ramdas Pophale) SiO2 
 PCOD9416246
Probable space group: P M N A
;
_chemical_formula_sum "Si O2"
_cell_formula_units_Z 40
_cell_length_a 8.783941
_cell_length_b 7.915284
_cell_length_c 29.483658
_cell_angle_alpha 90.000000
_cell_angle_beta 90.000000
_cell_angle_gamma 90.000000
_cell_volume 2049.921719
_symmetry_space_group_name_H-M "P M N A"
_symmetry_group_IT_number 53
_symmetry_cell_setting 'orthorhombic'
loop_
_space_group_symop_operation_xyz
x,y,z
1/2-x,-y,1/2+z
x,-y,-z
1/2-x,y,1/2-z
-x,-y,-z
1/2+x,y,1/2-z
-x,y,z
1/2+x,-y,1/2+z
loop_
_atom_site_type_symbol
_atom_site_label
_atom_site_fract_x
_atom_site_fract_y
_atom_site_fract_z
Si Si1 0.818257 0.309459 0.796327
Si Si2 0.318991 0.502342 0.946783
Si Si3 0.818464 0.184517 0.896057
Si Si4 0.181695 0.687068 0.702788
Si Si5 0.182001 0.191848 0.110121
O O1 0.750000 0.234758 0.750000
O O2 0.787615 0.208523 0.842368
O O3 0.743821 0.494842 0.801787
O O4 0.000000 0.328751 0.791383
O O5 0.500000 0.523593 0.941509
O O6 0.267990 0.327969 0.923603
O O7 0.236621 0.656636 0.921661
O O8 0.281673 0.500000 0.000000
O O9 0.000000 0.209730 0.902335
O O10 0.779308 0.993106 0.909116
O O11 0.250000 0.753872 0.750000
O O12 0.240651 0.784817 0.658976
O O13 0.000000 0.685341 0.704772
O O14 0.000000 0.200090 0.116019
#
# Coordination Sequence:
#
# PCOD9416246 Si02
#       5
#     8   8   8   8   8
#     4  10  19  34  57  87 122 162 205 249 297 355
#     4  11  25  44  66  92 122 158 202 256 316 372
#     4  10  23  41  64  92 124 163 206 253 304 366
#     4  11  21  35  58  89 124 167 209 250 302 356
#     4  11  23  41  64  93 126 162 207 253 305 367
#
# _framework density 19.512938999999999
#
# number of rings (size 3 to 8) (size 9 to 14) (size 15 to 20)
#    0.000    1.400    2.000    4.800    0.000    5.600 
#    0.000    6.000    0.000    0.000    0.000    0.000 
#    0.000    0.000    0.000    0.000    0.000    0.000 
#
# Total GULP energy -223648.579383 kJ/mol
# GULP energy per Si atom -5591.214485 kJ/mol
# Density = 1.946853 g / cm^3
# Si number density = 19.512939 Si / 1000 Ang^3
#
#
#
# Elastic Constant Matrix: (Units=GPa)
#
#
# Indices 1 2 3 4 5 6 
#
# 1 102.0006 56.9990 66.5772 0.0000 0.0000 0.0000
# 2 56.9990 114.1509 53.5666 0.0000 0.0000 0.0000
# 3 66.5772 53.5666 99.7172 0.0000 0.0000 0.0000
# 4 0.0000 0.0000 0.0000 -7.4276 0.0000 0.0000
# 5 0.0000 0.0000 0.0000 0.0000 27.0860 0.0000
# 6 0.0000 0.0000 0.0000 0.0000 0.0000 14.9928
#
#
#
# Elastic Compliance Matrix: (Units=1/GPa)
#
#
# Indices 1 2 3 4 5 6 
#
# 1 0.019132 -0.004759 -0.010218 0.000000 0.000000 0.000000
# 2 -0.004759 0.012896 -0.003751 0.000000 0.000000 0.000000
# 3 -0.010218 -0.003751 0.018865 0.000000 0.000000 0.000000
# 4 0.000000 0.000000 0.000000 -0.134632 0.000000 0.000000
# 5 0.000000 0.000000 0.000000 0.000000 0.036919 0.000000
# 6 0.000000 0.000000 0.000000 0.000000 0.000000 0.066699
#
#
# Mechanical properties :
#
#
# Convention : Reuss Voigt Hill
#
# Bulk Modulus (GPa) = 74.40447 74.46157 74.43302
# Shear Modulus (GPa) = 80.88914 16.17862 48.53388
#
# Velocity S-wave (km/s) = 6.44547 2.88257 4.99266
# Velocity P-wave (km/s) = 9.67501 7.02296 8.45363
#
# Compressibility (1/GPa) = 0.01344005
#
# Stress axis : x y z
#
# Youngs Moduli (GPa) = 52.26815 77.54048 53.00819
#
# Poissons Ratio (x) = 0.36898 0.54161
# Poissons Ratio (y) = 0.24872 0.19882
# Poissons Ratio (z) = 0.53405 0.29083
#
# Static dielectric constant tensor:
#      x y z
#    x 1.650960 0.000000 0.000000 
#    y 0.000000 1.681740 0.000000 
#    z 0.000000 0.000000 1.672860 
# 
# From -- ./inp_files/37523.got.cif
#   From: 2010.05.17/outbox.cif.g08.bks.cpg/sg53_19_cif.got.tgz:37523.got - 2010.06.03 12:45:16.
