data_PCOD9416100
_publ_section_title
;
Structure prediction by ZEFSAII (Michael W. Deem and Ramdas Pophale) SiO2 
 PCOD9416100
Probable space group: P M N A
;
_chemical_formula_sum "Si O2"
_cell_formula_units_Z 48
_cell_length_a 16.184796
_cell_length_b 14.711565
_cell_length_c 11.669838
_cell_angle_alpha 90.000000
_cell_angle_beta 90.000000
_cell_angle_gamma 90.000000
_cell_volume 2778.631354
_symmetry_space_group_name_H-M "P M N A"
_symmetry_group_IT_number 53
_symmetry_cell_setting 'orthorhombic'
loop_
_space_group_symop_operation_xyz
x,y,z
1/2-x,-y,1/2+z
x,-y,-z
1/2-x,y,1/2-z
-x,-y,-z
1/2+x,y,1/2-z
-x,y,z
1/2+x,-y,1/2+z
loop_
_atom_site_type_symbol
_atom_site_label
_atom_site_fract_x
_atom_site_fract_y
_atom_site_fract_z
Si Si1 0.338917 0.754988 0.612468
Si Si2 0.677910 0.650368 0.973168
Si Si3 0.095855 0.198669 0.357666
Si Si4 0.333389 0.475493 0.820054
Si Si5 0.000000 0.522414 0.178417
Si Si6 0.500000 0.659026 0.534670
Si Si7 0.738775 0.939804 0.883825
O O1 0.264552 0.689691 0.573800
O O2 0.364011 0.752378 0.746211
O O3 0.419640 0.722295 0.545134
O O4 0.305051 0.857700 0.599057
O O5 0.612167 0.730742 0.959580
O O6 0.652564 0.564381 0.897197
O O7 0.683712 0.611296 0.100091
O O8 0.149354 0.109096 0.380532
O O9 0.000000 0.181406 0.337474
O O10 0.250000 0.492297 0.750000
O O11 0.415536 0.462734 0.746829
O O12 0.000000 0.417578 0.134913
O O13 0.000000 0.595126 0.076016
O O14 0.750000 0.975628 0.750000
O O15 0.744203 0.000000 0.000000
#
# Coordination Sequence:
#
# PCOD9416100 Si02
#       7
#     8   8   8   8   4   4   8
#     4  10  19  36  60  85 104 149 193 241 275 333
#     4  10  21  33  54  74 110 148 194 233 282 332
#     4  10  19  33  59  87 109 141 189 240 278 336
#     4  11  22  35  49  75 112 153 194 240 286 332
#     4  11  24  33  52  80 114 156 191 242 290 330
#     4  11  20  36  57  78 111 145 202 237 277 325
#     4   9  20  39  62  88 117 145 187 233 296 359
#
# _framework density 17.274691000000001
#
# number of rings (size 3 to 8) (size 9 to 14) (size 15 to 20)
#    0.000    1.833    0.833    5.500    2.333    3.667 
#    0.000    7.083    0.000    0.000    0.000    0.000 
#    0.000    0.000    0.000    0.000    0.000    0.000 
#
# Total GULP energy -267493.568242 kJ/mol
# GULP energy per Si atom -5572.782672 kJ/mol
# Density = 1.723537 g / cm^3
# Si number density = 17.274691 Si / 1000 Ang^3
#
#
#
# Elastic Constant Matrix: (Units=GPa)
#
#
# Indices 1 2 3 4 5 6 
#
# 1 127.2715 30.7383 37.2576 0.0000 0.0000 0.0000
# 2 30.7383 58.8771 40.1306 0.0000 0.0000 0.0000
# 3 37.2576 40.1306 79.8081 0.0000 0.0000 0.0000
# 4 0.0000 0.0000 0.0000 34.1821 0.0000 0.0000
# 5 0.0000 0.0000 0.0000 0.0000 11.1679 0.0000
# 6 0.0000 0.0000 0.0000 0.0000 0.0000 10.8214
#
#
#
# Elastic Compliance Matrix: (Units=1/GPa)
#
#
# Indices 1 2 3 4 5 6 
#
# 1 0.009420 -0.002922 -0.002928 0.000000 0.000000 0.000000
# 2 -0.002922 0.026748 -0.012086 0.000000 0.000000 0.000000
# 3 -0.002928 -0.012086 0.019974 0.000000 0.000000 0.000000
# 4 0.000000 0.000000 0.000000 0.029255 0.000000 0.000000
# 5 0.000000 0.000000 0.000000 0.000000 0.089542 0.000000
# 6 0.000000 0.000000 0.000000 0.000000 0.000000 0.092410
#
#
# Mechanical properties :
#
#
# Convention : Reuss Voigt Hill
#
# Bulk Modulus (GPa) = 49.33413 53.57886 51.45650
# Shear Modulus (GPa) = 16.13020 21.75631 18.94326
#
# Velocity S-wave (km/s) = 3.05904 3.55270 3.31507
# Velocity P-wave (km/s) = 6.41074 6.92185 6.67119
#
# Compressibility (1/GPa) = 0.02026994
#
# Stress axis : x y z
#
# Youngs Moduli (GPa) = 106.15472 37.38653 50.06445
#
# Poissons Ratio (x) = 0.10925 0.14661
# Poissons Ratio (y) = 0.31019 0.60506
# Poissons Ratio (z) = 0.31086 0.45184
#
# Static dielectric constant tensor:
#      x y z
#    x 1.569860 0.000000 0.000000 
#    y 0.000000 1.574590 0.000000 
#    z 0.000000 0.000000 1.621260 
# 
# From -- ./inp_files/15995.got.cif
#   From: 2010.05.17/outbox.cif.g08.bks.cpg/sg53_8_cif.got.tgz:15995.got - 2010.06.03 12:45:16.
