data_PCOD9416089
_publ_section_title
;
Structure prediction by ZEFSAII (Michael W. Deem and Ramdas Pophale) SiO2 
 PCOD9416089
Probable space group: P M N A
;
_chemical_formula_sum "Si O2"
_cell_formula_units_Z 64
_cell_length_a 15.835827
_cell_length_b 11.949132
_cell_length_c 18.349525
_cell_angle_alpha 90.000000
_cell_angle_beta 90.000000
_cell_angle_gamma 90.000000
_cell_volume 3472.177623
_symmetry_space_group_name_H-M "P M N A"
_symmetry_group_IT_number 53
_symmetry_cell_setting 'orthorhombic'
loop_
_space_group_symop_operation_xyz
x,y,z
1/2-x,-y,1/2+z
x,-y,-z
1/2-x,y,1/2-z
-x,-y,-z
1/2+x,y,1/2-z
-x,y,z
1/2+x,-y,1/2+z
loop_
_atom_site_type_symbol
_atom_site_label
_atom_site_fract_x
_atom_site_fract_y
_atom_site_fract_z
Si Si1 0.905394 0.274654 0.677180
Si Si2 0.596285 0.850888 0.330548
Si Si3 0.244974 0.735072 0.078766
Si Si4 0.754069 0.253935 0.087032
Si Si5 0.903959 0.269418 0.313182
Si Si6 0.852390 0.503616 0.242673
Si Si7 0.336961 0.501038 0.580274
Si Si8 0.665700 0.089990 0.295653
O O1 0.897900 0.198447 0.749028
O O2 0.831196 0.244638 0.621823
O O3 0.891039 0.400483 0.706778
O O4 0.000000 0.263414 0.647055
O O5 0.500000 0.833716 0.356541
O O6 0.665811 0.788170 0.378969
O O7 0.618893 0.981271 0.324808
O O8 0.229546 0.600971 0.074853
O O9 0.247108 0.780181 0.996923
O O10 0.660982 0.259590 0.120640
O O11 0.794519 0.377866 0.090636
O O12 0.805701 0.169901 0.138295
O O13 0.879131 0.381668 0.269520
O O14 0.889249 0.164990 0.259312
O O15 0.000000 0.275638 0.336995
O O16 0.750000 0.512888 0.250000
O O17 0.880808 0.520106 0.158425
O O18 0.380983 0.500000 0.500000
O O19 0.750000 0.057303 0.250000
#
# Coordination Sequence:
#
# PCOD9416089 Si02
#       8
#     8   8   8   8   8   8   8   8
#     4  11  22  35  58  90 117 151 197 240 285 342
#     4  11  23  39  60  86 113 145 194 246 293 347
#     4  11  21  38  61  82 119 159 187 233 294 345
#     4  10  21  37  59  83 112 156 195 225 289 356
#     4  11  21  34  56  88 118 147 192 245 287 339
#     4  12  17  34  58  82 116 153 195 234 281 336
#     4  10  19  33  58  83 114 154 189 226 284 348
#     4  10  20  38  60  81 110 150 194 236 290 347
#
# _framework density 18.432237000000001
#
# number of rings (size 3 to 8) (size 9 to 14) (size 15 to 20)
#    0.000    1.250    5.000    2.250    0.000    1.000 
#    0.000    1.875    0.000    6.375    0.000    7.000 
#    0.000    0.000    0.000    0.000    0.000    0.000 
#
# Total GULP energy -357304.921637 kJ/mol
# GULP energy per Si atom -5582.889401 kJ/mol
# Density = 1.839028 g / cm^3
# Si number density = 18.432237 Si / 1000 Ang^3
#
#
#
# Elastic Constant Matrix: (Units=GPa)
#
#
# Indices 1 2 3 4 5 6 
#
# 1 88.0315 31.3109 31.3714 0.0000 0.0000 0.0000
# 2 31.3109 72.1849 12.2982 0.0000 0.0000 0.0000
# 3 31.3714 12.2982 89.8825 0.0000 0.0000 0.0000
# 4 0.0000 0.0000 0.0000 6.2928 0.0000 0.0000
# 5 0.0000 0.0000 0.0000 0.0000 -1.8543 0.0000
# 6 0.0000 0.0000 0.0000 0.0000 0.0000 19.1571
#
#
#
# Elastic Compliance Matrix: (Units=1/GPa)
#
#
# Indices 1 2 3 4 5 6 
#
# 1 0.014986 -0.005743 -0.004445 0.000000 0.000000 0.000000
# 2 -0.005743 0.016385 -0.000237 0.000000 0.000000 0.000000
# 3 -0.004445 -0.000237 0.012709 0.000000 0.000000 0.000000
# 4 0.000000 0.000000 0.000000 0.158913 0.000000 0.000000
# 5 0.000000 0.000000 0.000000 0.000000 -0.539286 0.000000
# 6 0.000000 0.000000 0.000000 0.000000 0.000000 0.052200
#
#
# Mechanical properties :
#
#
# Convention : Reuss Voigt Hill
#
# Bulk Modulus (GPa) = 43.04778 44.45110 43.74944
# Shear Modulus (GPa) = -19.56955 16.39368 -1.58793
#
# Velocity S-wave (km/s) = -3.26191 2.98552 -0.92918
# Velocity P-wave (km/s) = 3.03621 6.00439 4.75769
#
# Compressibility (1/GPa) = 0.02323000
#
# Stress axis : x y z
#
# Youngs Moduli (GPa) = 66.72777 61.03178 78.68153
#
# Poissons Ratio (x) = 0.35052 0.34972
# Poissons Ratio (y) = 0.38323 0.01867
# Poissons Ratio (z) = 0.29659 0.01449
#
# Static dielectric constant tensor:
#      x y z
#    x 1.640160 0.000000 0.000000 
#    y 0.000000 1.627610 0.000000 
#    z 0.000000 0.000000 1.635750 
# 
# From -- ./inp_files/28554.got.cif
#   From: 2010.05.17/outbox.cif.g08.bks.cpg/sg53_15_cif.got.tgz:28554.got - 2010.06.03 12:45:16.
