data_PCOD9416115
_publ_section_title
;
Structure prediction by ZEFSAII (Michael W. Deem and Ramdas Pophale) SiO2 
 PCOD9416115
Probable space group: P M N A
;
_chemical_formula_sum "Si O2"
_cell_formula_units_Z 64
_cell_length_a 13.469090
_cell_length_b 10.399210
_cell_length_c 30.060744
_cell_angle_alpha 90.000000
_cell_angle_beta 90.000000
_cell_angle_gamma 90.000000
_cell_volume 4210.545147
_symmetry_space_group_name_H-M "P M N A"
_symmetry_group_IT_number 53
_symmetry_cell_setting 'orthorhombic'
loop_
_space_group_symop_operation_xyz
x,y,z
1/2-x,-y,1/2+z
x,-y,-z
1/2-x,y,1/2-z
-x,-y,-z
1/2+x,y,1/2-z
-x,y,z
1/2+x,-y,1/2+z
loop_
_atom_site_type_symbol
_atom_site_label
_atom_site_fract_x
_atom_site_fract_y
_atom_site_fract_z
Si Si1 0.386202 0.035343 0.226133
Si Si2 0.806164 0.889015 0.822225
Si Si3 0.885594 0.726903 0.279073
Si Si4 0.118265 0.873382 0.121368
Si Si5 0.684736 0.640119 0.317359
Si Si6 0.879791 0.378780 0.136886
Si Si7 0.379261 0.612915 0.533368
Si Si8 0.620738 0.863983 0.480903
O O1 0.500000 0.059466 0.214243
O O2 0.307823 0.102835 0.193693
O O3 0.366030 0.081797 0.276525
O O4 0.368337 0.881041 0.224445
O O5 0.837840 0.754442 0.843628
O O6 0.829836 0.004486 0.856093
O O7 0.801918 0.666712 0.310670
O O8 0.865456 0.667598 0.230404
O O9 0.000000 0.706056 0.292072
O O10 0.141801 0.746276 0.149201
O O11 0.149521 0.852182 0.070468
O O12 0.000000 0.897494 0.122245
O O13 0.659692 0.499348 0.335049
O O14 0.850687 0.397403 0.084988
O O15 0.000000 0.375384 0.139141
O O16 0.346637 0.500000 0.500000
O O17 0.500000 0.610825 0.533215
O O18 0.346257 0.747042 0.511769
O O19 0.500000 0.862580 0.481808
O O20 0.654024 0.000000 0.500000
#
# Coordination Sequence:
#
# PCOD9416115 Si02
#       8
#     8   8   8   8   8   8   8   8
#     4  10  19  34  53  71  97 130 163 205 251 286
#     4  11  20  33  48  74  99 131 169 200 239 292
#     4  10  19  34  53  71  97 126 162 212 250 276
#     4  11  18  28  49  70  94 127 167 202 230 281
#     4  11  20  33  48  74  95 127 170 199 232 285
#     4  11  22  32  47  72 106 135 160 199 239 284
#     4   9  17  31  45  62  94 134 162 185 234 292
#     4   9  17  27  41  64  92 122 155 194 237 280
#
# _framework density 15.199932
#
# number of rings (size 3 to 8) (size 9 to 14) (size 15 to 20)
#    0.000    1.750    2.500    4.500    0.000    6.000 
#    0.000    1.875    0.000    0.000    0.000    0.000 
#    0.000   20.000    0.000    0.000    0.000    0.000 
#
# Total GULP energy -357046.816390 kJ/mol
# GULP energy per Si atom -5578.856506 kJ/mol
# Density = 1.516534 g / cm^3
# Si number density = 15.199932 Si / 1000 Ang^3
#
#
#
# Elastic Constant Matrix: (Units=GPa)
#
#
# Indices 1 2 3 4 5 6 
#
# 1 77.5749 23.4791 26.6649 0.0000 0.0000 0.0000
# 2 23.4791 105.4742 34.1322 0.0000 0.0000 0.0000
# 3 26.6649 34.1322 78.3078 0.0000 0.0000 0.0000
# 4 0.0000 0.0000 0.0000 12.2593 0.0000 0.0000
# 5 0.0000 0.0000 0.0000 0.0000 14.2710 0.0000
# 6 0.0000 0.0000 0.0000 0.0000 0.0000 18.3802
#
#
#
# Elastic Compliance Matrix: (Units=1/GPa)
#
#
# Indices 1 2 3 4 5 6 
#
# 1 0.014938 -0.001955 -0.004234 0.000000 0.000000 0.000000
# 2 -0.001955 0.011294 -0.004257 0.000000 0.000000 0.000000
# 3 -0.004234 -0.004257 0.016068 0.000000 0.000000 0.000000
# 4 0.000000 0.000000 0.000000 0.081571 0.000000 0.000000
# 5 0.000000 0.000000 0.000000 0.000000 0.070072 0.000000
# 6 0.000000 0.000000 0.000000 0.000000 0.000000 0.054407
#
#
# Mechanical properties :
#
#
# Convention : Reuss Voigt Hill
#
# Bulk Modulus (GPa) = 46.71484 47.76770 47.24127
# Shear Modulus (GPa) = 18.09123 20.78746 19.43934
#
# Velocity S-wave (km/s) = 3.45370 3.70212 3.58006
# Velocity P-wave (km/s) = 6.83406 7.05470 6.94525
#
# Compressibility (1/GPa) = 0.02140647
#
# Stress axis : x y z
#
# Youngs Moduli (GPa) = 66.94344 88.54445 62.23740
#
# Poissons Ratio (x) = 0.17310 0.26354
# Poissons Ratio (y) = 0.13087 0.26494
# Poissons Ratio (z) = 0.28347 0.37693
#
# Static dielectric constant tensor:
#      x y z
#    x 1.496810 0.000000 0.000000 
#    y 0.000000 1.498650 0.000000 
#    z 0.000000 0.000000 1.483210 
# 
# From -- ./inp_files/38957.got.cif
#   From: 2010.05.17/outbox.cif.g08.bks.cpg/sg53_20_cif.got.tgz:38957.got - 2010.06.03 12:45:16.
