data_PCOD9416038
_publ_section_title
;
Structure prediction by ZEFSAII (Michael W. Deem and Ramdas Pophale) SiO2 
 PCOD9416038
Probable space group: P M N A
;
_chemical_formula_sum "Si O2"
_cell_formula_units_Z 64
_cell_length_a 7.761204
_cell_length_b 15.348615
_cell_length_c 24.515627
_cell_angle_alpha 90.000000
_cell_angle_beta 90.000000
_cell_angle_gamma 90.000000
_cell_volume 2920.392984
_symmetry_space_group_name_H-M "P M N A"
_symmetry_group_IT_number 53
_symmetry_cell_setting 'orthorhombic'
loop_
_space_group_symop_operation_xyz
x,y,z
1/2-x,-y,1/2+z
x,-y,-z
1/2-x,y,1/2-z
-x,-y,-z
1/2+x,y,1/2-z
-x,y,z
1/2+x,-y,1/2+z
loop_
_atom_site_type_symbol
_atom_site_label
_atom_site_fract_x
_atom_site_fract_y
_atom_site_fract_z
Si Si1 0.299847 0.867049 0.105058
Si Si2 0.789141 0.218712 0.495418
Si Si3 0.801830 0.452454 0.846394
Si Si4 0.706382 0.726830 0.308970
Si Si5 0.711473 0.189795 0.127046
Si Si6 0.207557 0.014635 0.313420
Si Si7 0.698984 0.359121 0.187186
Si Si8 0.291131 0.588089 0.031854
O O1 0.500000 0.890040 0.095450
O O2 0.289003 0.781462 0.142663
O O3 0.224260 0.942648 0.143606
O O4 0.226795 0.840130 0.046152
O O5 0.734584 0.185419 0.436116
O O6 0.739826 0.320237 0.504511
O O7 0.000000 0.217878 0.496981
O O8 0.727460 0.372564 0.811652
O O9 0.720562 0.546509 0.839382
O O10 0.786237 0.420104 0.908172
O O11 0.000000 0.464010 0.830275
O O12 0.750000 0.765138 0.250000
O O13 0.500000 0.726739 0.316590
O O14 0.500000 0.188621 0.125689
O O15 0.764935 0.108877 0.164561
O O16 0.778680 0.279889 0.153132
O O17 0.250000 0.999936 0.250000
O O18 0.000000 0.011528 0.316187
O O19 0.750000 0.362976 0.250000
O O20 0.500000 0.338274 0.187164
O O21 0.500000 0.588420 0.036359
O O22 0.242277 0.500000 0.000000
#
# Coordination Sequence:
#
# PCOD9416038 Si02
#       8
#     8   8   8   8   8   8   8   8
#     4  10  20  35  58  86 115 149 187 232 284 338
#     4   9  17  32  55  84 116 148 188 233 281 338
#     4  11  23  37  54  81 114 150 191 238 290 340
#     4  11  23  37  55  79 111 149 188 231 282 335
#     4   9  19  36  58  85 115 147 188 239 288 341
#     4  10  21  37  59  87 116 148 189 236 289 343
#     4  11  22  37  58  82 113 151 193 241 293 348
#     4  10  19  33  56  82 112 154 197 237 284 340
#
# _framework density 21.914860000000001
#
# number of rings (size 3 to 8) (size 9 to 14) (size 15 to 20)
#    0.000    1.875    1.250    3.000    0.000    6.750 
#    0.000    3.125    0.000    2.250    0.000    1.750 
#    0.000    0.000    0.000    0.000    0.000    0.000 
#
# Total GULP energy -357449.775886 kJ/mol
# GULP energy per Si atom -5585.152748 kJ/mol
# Density = 2.186498 g / cm^3
# Si number density = 21.914860 Si / 1000 Ang^3
#
#
#
# Elastic Constant Matrix: (Units=GPa)
#
#
# Indices 1 2 3 4 5 6 
#
# 1 29.1992 -1.7521 -4.6998 0.0000 0.0000 0.0000
# 2 -1.7521 106.7046 35.1962 0.0000 0.0000 0.0000
# 3 -4.6998 35.1962 73.0251 0.0000 0.0000 0.0000
# 4 0.0000 0.0000 0.0000 47.1540 0.0000 0.0000
# 5 0.0000 0.0000 0.0000 0.0000 13.2269 0.0000
# 6 0.0000 0.0000 0.0000 0.0000 0.0000 11.8095
#
#
#
# Elastic Compliance Matrix: (Units=1/GPa)
#
#
# Indices 1 2 3 4 5 6 
#
# 1 0.034609 -0.000198 0.002323 0.000000 0.000000 0.000000
# 2 -0.000198 0.011144 -0.005384 0.000000 0.000000 0.000000
# 3 0.002323 -0.005384 0.016438 0.000000 0.000000 0.000000
# 4 0.000000 0.000000 0.000000 0.021207 0.000000 0.000000
# 5 0.000000 0.000000 0.000000 0.000000 0.075604 0.000000
# 6 0.000000 0.000000 0.000000 0.000000 0.000000 0.084677
#
#
# Mechanical properties :
#
#
# Convention : Reuss Voigt Hill
#
# Bulk Modulus (GPa) = 17.96172 29.60196 23.78184
# Shear Modulus (GPa) = 18.60419 26.45038 22.52728
#
# Velocity S-wave (km/s) = 2.91680 3.47790 3.20964
# Velocity P-wave (km/s) = 4.42239 5.44654 4.96097
#
# Compressibility (1/GPa) = 0.05567395
#
# Stress axis : x y z
#
# Youngs Moduli (GPa) = 28.89382 89.73180 60.83330
#
# Poissons Ratio (x) = 0.01775 -0.14130
# Poissons Ratio (y) = 0.00572 0.32753
# Poissons Ratio (z) = -0.06711 0.48312
#
# Static dielectric constant tensor:
#      x y z
#    x 1.769880 0.000000 0.000000 
#    y 0.000000 1.811450 0.000000 
#    z 0.000000 0.000000 1.788250 
# 
# From -- ./inp_files/34213.got.cif
#   From: 2010.05.17/outbox.cif.g08.bks.cpg/sg53_18_cif.got.tgz:34213.got - 2010.06.03 12:45:16.
