data_PCOD9416407
_publ_section_title
;
Structure prediction by ZEFSAII (Michael W. Deem and Ramdas Pophale) SiO2 
 PCOD9416407
Probable space group: P M N A
;
_chemical_formula_sum "Si O2"
_cell_formula_units_Z 56
_cell_length_a 7.675554
_cell_length_b 17.130639
_cell_length_c 18.907471
_cell_angle_alpha 90.000000
_cell_angle_beta 90.000000
_cell_angle_gamma 90.000000
_cell_volume 2486.089375
_symmetry_space_group_name_H-M "P M N A"
_symmetry_group_IT_number 53
_symmetry_cell_setting 'orthorhombic'
loop_
_space_group_symop_operation_xyz
x,y,z
1/2-x,-y,1/2+z
x,-y,-z
1/2-x,y,1/2-z
-x,-y,-z
1/2+x,y,1/2-z
-x,y,z
1/2+x,-y,1/2+z
loop_
_atom_site_type_symbol
_atom_site_label
_atom_site_fract_x
_atom_site_fract_y
_atom_site_fract_z
Si Si1 0.798653 0.329368 0.595922
Si Si2 0.798482 0.078516 0.033438
Si Si3 0.292936 0.349351 0.167349
Si Si4 0.713623 0.498287 0.917591
Si Si5 0.708087 0.998088 0.167609
Si Si6 0.705610 0.250611 0.460434
Si Si7 0.290910 0.825360 0.167311
O O1 0.725136 0.414417 0.612086
O O2 0.791868 0.313935 0.511887
O O3 0.718406 0.251310 0.629377
O O4 0.000000 0.331074 0.618899
O O5 0.722123 0.164389 0.021425
O O6 0.000000 0.081393 0.010585
O O7 0.790809 0.061875 0.117071
O O8 0.716805 0.000000 0.000000
O O9 0.250000 0.346117 0.250000
O O10 0.500000 0.350586 0.161151
O O11 0.226152 0.428313 0.128685
O O12 0.230418 0.276577 0.120224
O O13 0.500000 0.497914 0.917026
O O14 0.766397 0.500000 0.000000
O O15 0.750000 0.007571 0.250000
O O16 0.500000 0.001222 0.159293
O O17 0.772552 0.911263 0.144759
O O18 0.500000 0.250932 0.474866
O O19 0.250000 0.818919 0.250000
O O20 0.500000 0.827234 0.157617
#
# Coordination Sequence:
#
# PCOD9416407 Si02
#       7
#     8   8   8   8   8   8   8
#     4  10  19  35  59  84 113 150 191 230 278 337
#     4  10  22  39  58  82 114 148 186 236 291 342
#     4  11  23  41  63  87 119 155 195 240 287 340
#     4   9  17  34  60  85 110 149 190 226 277 336
#     4  10  20  35  55  79 108 145 187 229 279 337
#     4  11  23  38  58  86 115 148 190 235 287 343
#     4   9  19  33  52  80 113 147 184 230 281 335
#
# _framework density 22.525337
#
# number of rings (size 3 to 8) (size 9 to 14) (size 15 to 20)
#    0.000    2.000    1.429    2.143    0.000    3.714 
#    0.000    2.143    0.000    0.000    0.000    0.000 
#    0.000    0.000    0.000    0.000    0.000    0.000 
#
# Total GULP energy -312791.446948 kJ/mol
# GULP energy per Si atom -5585.561553 kJ/mol
# Density = 2.247407 g / cm^3
# Si number density = 22.525337 Si / 1000 Ang^3
#
#
#
# Elastic Constant Matrix: (Units=GPa)
#
#
# Indices 1 2 3 4 5 6 
#
# 1 59.4177 3.6579 -7.4424 0.0000 0.0000 0.0000
# 2 3.6579 119.5223 20.0037 0.0000 0.0000 0.0000
# 3 -7.4424 20.0037 61.5350 0.0000 0.0000 0.0000
# 4 0.0000 0.0000 0.0000 39.8376 0.0000 0.0000
# 5 0.0000 0.0000 0.0000 0.0000 23.2918 0.0000
# 6 0.0000 0.0000 0.0000 0.0000 0.0000 9.5622
#
#
#
# Elastic Compliance Matrix: (Units=1/GPa)
#
#
# Indices 1 2 3 4 5 6 
#
# 1 0.017185 -0.000924 0.002379 0.000000 0.000000 0.000000
# 2 -0.000924 0.008898 -0.003004 0.000000 0.000000 0.000000
# 3 0.002379 -0.003004 0.017515 0.000000 0.000000 0.000000
# 4 0.000000 0.000000 0.000000 0.025102 0.000000 0.000000
# 5 0.000000 0.000000 0.000000 0.000000 0.042934 0.000000
# 6 0.000000 0.000000 0.000000 0.000000 0.000000 0.104578
#
#
# Mechanical properties :
#
#
# Convention : Reuss Voigt Hill
#
# Bulk Modulus (GPa) = 24.69203 30.32370 27.50787
# Shear Modulus (GPa) = 21.47674 29.48870 25.48272
#
# Velocity S-wave (km/s) = 3.09115 3.62212 3.36712
# Velocity P-wave (km/s) = 4.87093 5.56635 5.23021
#
# Compressibility (1/GPa) = 0.04049889
#
# Stress axis : x y z
#
# Youngs Moduli (GPa) = 58.19081 112.38839 57.09318
#
# Poissons Ratio (x) = 0.10385 -0.13581
# Poissons Ratio (y) = 0.05377 0.17152
# Poissons Ratio (z) = -0.13843 0.33764
#
# Static dielectric constant tensor:
#      x y z
#    x 1.827930 0.000000 0.000000 
#    y 0.000000 1.866130 0.000000 
#    z 0.000000 0.000000 1.846000 
# 
# From -- ./inp_files/30769.got.cif
#   From: 2010.05.17/outbox.cif.g08.bks.cpg/sg53_16_cif.got.tgz:30769.got - 2010.06.03 12:45:16.
