data_PCOD9416829
_publ_section_title
;
Structure prediction by ZEFSAII (Michael W. Deem and Ramdas Pophale) SiO2 
 PCOD9416829
Probable space group: P M N A
;
_chemical_formula_sum "Si O2"
_cell_formula_units_Z 64
_cell_length_a 14.911655
_cell_length_b 9.529318
_cell_length_c 26.479973
_cell_angle_alpha 90.000000
_cell_angle_beta 90.000000
_cell_angle_gamma 90.000000
_cell_volume 3762.748619
_symmetry_space_group_name_H-M "P M N A"
_symmetry_group_IT_number 53
_symmetry_cell_setting 'orthorhombic'
loop_
_space_group_symop_operation_xyz
x,y,z
1/2-x,-y,1/2+z
x,-y,-z
1/2-x,y,1/2-z
-x,-y,-z
1/2+x,y,1/2-z
-x,y,z
1/2+x,-y,1/2+z
loop_
_atom_site_type_symbol
_atom_site_label
_atom_site_fract_x
_atom_site_fract_y
_atom_site_fract_z
Si Si1 0.602611 0.610917 0.960374
Si Si2 0.099217 0.777800 0.176839
Si Si3 0.100176 0.450214 0.174870
Si Si4 0.350137 0.034054 0.770484
Si Si5 0.600566 0.712212 0.779011
Si Si6 0.205344 0.216803 0.634754
Si Si7 0.603560 0.873139 0.033909
Si Si8 0.289970 0.551626 0.862203
O O1 0.500000 0.568799 0.946874
O O2 0.661589 0.614657 0.910807
O O3 0.640891 0.500000 0.000000
O O4 0.598923 0.749635 0.993220
O O5 0.106659 0.613337 0.192477
O O6 0.104154 0.876479 0.225962
O O7 0.187175 0.806425 0.142631
O O8 0.000000 0.795501 0.153225
O O9 0.110169 0.347018 0.222369
O O10 0.182893 0.429286 0.137489
O O11 0.000000 0.430825 0.153652
O O12 0.250000 0.008852 0.750000
O O13 0.342354 0.129282 0.820504
O O14 0.389902 0.880319 0.780175
O O15 0.500000 0.674719 0.796501
O O16 0.671292 0.632928 0.813966
O O17 0.164283 0.166684 0.581666
O O18 0.190250 0.384508 0.640410
O O19 0.500000 0.902882 0.050606
O O20 0.638648 0.000000 0.000000
#
# Coordination Sequence:
#
# PCOD9416829 Si02
#       8
#     8   8   8   8   8   8   8   8
#     4  10  20  36  55  77 103 133 169 208 258 312
#     4   9  18  35  56  77 104 139 175 212 254 305
#     4   9  19  35  54  76 105 139 175 213 256 304
#     4  10  20  33  50  76 108 141 175 210 253 305
#     4  11  22  33  49  78 111 141 172 211 257 307
#     4  10  21  35  55  79 103 137 177 214 256 307
#     4  10  22  38  55  76 104 135 168 212 262 310
#     4  11  20  34  56  78 104 137 175 215 257 307
#
# _framework density 17.008842999999999
#
# number of rings (size 3 to 8) (size 9 to 14) (size 15 to 20)
#    0.000    2.000    1.250    2.625    1.750    3.500 
#    0.000    0.000    0.000    1.500    0.000    0.000 
#    0.000    0.000    0.000    0.000    0.000    0.000 
#
# Total GULP energy -356729.335760 kJ/mol
# GULP energy per Si atom -5573.895871 kJ/mol
# Density = 1.697013 g / cm^3
# Si number density = 17.008843 Si / 1000 Ang^3
#
#
#
# Elastic Constant Matrix: (Units=GPa)
#
#
# Indices 1 2 3 4 5 6 
#
# 1 103.7793 21.9838 52.3607 0.0000 0.0000 0.0000
# 2 21.9838 57.8589 30.8950 0.0000 0.0000 0.0000
# 3 52.3607 30.8950 75.7252 0.0000 0.0000 0.0000
# 4 0.0000 0.0000 0.0000 16.9190 0.0000 0.0000
# 5 0.0000 0.0000 0.0000 0.0000 28.8901 0.0000
# 6 0.0000 0.0000 0.0000 0.0000 0.0000 21.2282
#
#
#
# Elastic Compliance Matrix: (Units=1/GPa)
#
#
# Indices 1 2 3 4 5 6 
#
# 1 0.014800 -0.000203 -0.010151 0.000000 0.000000 0.000000
# 2 -0.000203 0.022100 -0.008876 0.000000 0.000000 0.000000
# 3 -0.010151 -0.008876 0.023846 0.000000 0.000000 0.000000
# 4 0.000000 0.000000 0.000000 0.059105 0.000000 0.000000
# 5 0.000000 0.000000 0.000000 0.000000 0.034614 0.000000
# 6 0.000000 0.000000 0.000000 0.000000 0.000000 0.047107
#
#
# Mechanical properties :
#
#
# Convention : Reuss Voigt Hill
#
# Bulk Modulus (GPa) = 44.87112 49.76025 47.31568
# Shear Modulus (GPa) = 20.20513 22.21573 21.21043
#
# Velocity S-wave (km/s) = 3.45036 3.61796 3.53515
# Velocity P-wave (km/s) = 6.50474 6.83900 6.67396
#
# Compressibility (1/GPa) = 0.02228605
#
# Stress axis : x y z
#
# Youngs Moduli (GPa) = 67.56561 45.24840 41.93583
#
# Poissons Ratio (x) = 0.00919 0.42569
# Poissons Ratio (y) = 0.01373 0.37223
# Poissons Ratio (z) = 0.68586 0.40163
#
# Static dielectric constant tensor:
#      x y z
#    x 1.604080 0.000000 0.000000 
#    y 0.000000 1.565490 0.000000 
#    z 0.000000 0.000000 1.543250 
# 
# From -- ./inp_files/35373.got.cif
#   From: 2010.05.17/outbox.cif.g08.bks.cpg/sg53_18_cif.got.tgz:35373.got - 2010.06.03 12:45:16.
