data_PCOD9416817
_publ_section_title
;
Structure prediction by ZEFSAII (Michael W. Deem and Ramdas Pophale) SiO2 
 PCOD9416817
Probable space group: P M N A
;
_chemical_formula_sum "Si O2"
_cell_formula_units_Z 32
_cell_length_a 22.927210
_cell_length_b 7.137717
_cell_length_c 8.073029
_cell_angle_alpha 90.000000
_cell_angle_beta 90.000000
_cell_angle_gamma 90.000000
_cell_volume 1321.134538
_symmetry_space_group_name_H-M "P M N A"
_symmetry_group_IT_number 53
_symmetry_cell_setting 'orthorhombic'
loop_
_space_group_symop_operation_xyz
x,y,z
1/2-x,-y,1/2+z
x,-y,-z
1/2-x,y,1/2-z
-x,-y,-z
1/2+x,y,1/2-z
-x,y,z
1/2+x,-y,1/2+z
loop_
_atom_site_type_symbol
_atom_site_label
_atom_site_fract_x
_atom_site_fract_y
_atom_site_fract_z
Si Si1 0.562451 0.040313 0.698587
Si Si2 0.062461 0.478266 0.697608
Si Si3 0.687477 0.524503 0.306059
Si Si4 0.812752 0.033216 0.803530
O O1 0.500000 0.971197 0.766745
O O2 0.563138 0.262906 0.737610
O O3 0.624524 0.966170 0.765338
O O4 0.562084 0.000000 0.500000
O O5 0.060382 0.500000 0.500000
O O6 0.125718 0.556055 0.746696
O O7 0.000000 0.555377 0.763774
O O8 0.686345 0.500000 0.500000
O O9 0.750000 0.447681 0.250000
O O10 0.687953 0.745216 0.263019
O O11 0.750000 0.957445 0.750000
O O12 0.815100 0.000000 0.000000
#
# Coordination Sequence:
#
# PCOD9416817 Si02
#       4
#     8   8   8   8
#     4   8  14  27  48  70  94 130 172 210 255 316
#     4   9  17  30  49  74 104 136 172 220 275 327
#     4  10  20  33  50  74 104 136 173 216 267 324
#     4   9  18  32  49  70  94 125 165 207 252 304
#
# _framework density 24.221606000000001
#
# number of rings (size 3 to 8) (size 9 to 14) (size 15 to 20)
#    0.000    3.000    0.000    0.750    0.000    1.500 
#    0.000    0.000    0.000    0.750    0.000    0.000 
#    0.000    0.000    0.000    0.000    0.000    0.000 
#
# Total GULP energy -178252.147495 kJ/mol
# GULP energy per Si atom -5570.379609 kJ/mol
# Density = 2.416648 g / cm^3
# Si number density = 24.221606 Si / 1000 Ang^3
#
#
#
# Elastic Constant Matrix: (Units=GPa)
#
#
# Indices 1 2 3 4 5 6 
#
# 1 394.3909 12.8031 42.3273 0.0000 0.0000 0.0000
# 2 12.8031 148.5860 -7.9253 0.0000 0.0000 0.0000
# 3 42.3273 -7.9253 59.4044 0.0000 0.0000 0.0000
# 4 0.0000 0.0000 0.0000 52.3151 0.0000 0.0000
# 5 0.0000 0.0000 0.0000 0.0000 21.9746 0.0000
# 6 0.0000 0.0000 0.0000 0.0000 0.0000 -41.2260
#
#
#
# Elastic Compliance Matrix: (Units=1/GPa)
#
#
# Indices 1 2 3 4 5 6 
#
# 1 0.002763 -0.000346 -0.002015 0.000000 0.000000 0.000000
# 2 -0.000346 0.006822 0.001156 0.000000 0.000000 0.000000
# 3 -0.002015 0.001156 0.018424 0.000000 0.000000 0.000000
# 4 0.000000 0.000000 0.000000 0.019115 0.000000 0.000000
# 5 0.000000 0.000000 0.000000 0.000000 0.045507 0.000000
# 6 0.000000 0.000000 0.000000 0.000000 0.000000 -0.024257
#
#
# Mechanical properties :
#
#
# Convention : Reuss Voigt Hill
#
# Bulk Modulus (GPa) = 39.06236 77.42127 58.24182
# Shear Modulus (GPa) = 63.03964 43.62449 53.33207
#
# Velocity S-wave (km/s) = 5.10712 4.24849 4.69747
# Velocity P-wave (km/s) = 7.13716 7.48995 7.31568
#
# Compressibility (1/GPa) = 0.02560009
#
# Stress axis : x y z
#
# Youngs Moduli (GPa) = 361.92420 146.59406 54.27802
#
# Poissons Ratio (x) = 0.05066 0.10936
# Poissons Ratio (y) = 0.12506 -0.06276
# Poissons Ratio (z) = 0.72921 -0.16951
#
# Static dielectric constant tensor:
#      x y z
#    x 1.938160 0.000000 0.000000 
#    y 0.000000 2.017700 0.000000 
#    z 0.000000 0.000000 1.960590 
# 
# From -- ./inp_files/10461.got.cif
#   From: 2010.05.17/outbox.cif.g08.bks.cpg/sg53_6_cif.got.tgz:10461.got - 2010.06.03 12:45:16.
