data_PCOD9416277
_publ_section_title
;
Structure prediction by ZEFSAII (Michael W. Deem and Ramdas Pophale) SiO2 
 PCOD9416277
Probable space group: P M N A
;
_chemical_formula_sum "Si O2"
_cell_formula_units_Z 64
_cell_length_a 15.024548
_cell_length_b 12.486772
_cell_length_c 18.116338
_cell_angle_alpha 90.000000
_cell_angle_beta 90.000000
_cell_angle_gamma 90.000000
_cell_volume 3398.771847
_symmetry_space_group_name_H-M "P M N A"
_symmetry_group_IT_number 53
_symmetry_cell_setting 'orthorhombic'
loop_
_space_group_symop_operation_xyz
x,y,z
1/2-x,-y,1/2+z
x,-y,-z
1/2-x,y,1/2-z
-x,-y,-z
1/2+x,y,1/2-z
-x,y,z
1/2+x,-y,1/2+z
loop_
_atom_site_type_symbol
_atom_site_label
_atom_site_fract_x
_atom_site_fract_y
_atom_site_fract_z
Si Si1 0.826346 0.616510 0.031411
Si Si2 0.234335 0.141919 0.335483
Si Si3 0.607179 0.506008 0.322574
Si Si4 0.102690 0.024703 0.587139
Si Si5 0.898391 0.312333 0.391489
Si Si6 0.150258 0.263167 0.556456
Si Si7 0.105621 0.459614 0.659466
Si Si8 0.102927 0.720619 0.888059
O O1 0.861853 0.583218 0.111625
O O2 0.751890 0.707158 0.039520
O O3 0.795249 0.500000 0.000000
O O4 0.891256 0.667809 0.970100
O O5 0.250000 0.116408 0.250000
O O6 0.166482 0.240789 0.343537
O O7 0.326026 0.184396 0.373561
O O8 0.178932 0.046799 0.374822
O O9 0.500000 0.509184 0.323860
O O10 0.641605 0.540379 0.242427
O O11 0.630268 0.381607 0.337583
O O12 0.127794 0.149481 0.591426
O O13 0.000000 0.005084 0.613292
O O14 0.103353 0.000000 0.500000
O O15 0.895523 0.274811 0.476405
O O16 0.865943 0.434310 0.384443
O O17 0.000000 0.303360 0.365246
O O18 0.122860 0.355581 0.612353
O O19 0.000000 0.469182 0.666506
O O20 0.000000 0.750651 0.873143
#
# Coordination Sequence:
#
# PCOD9416277 Si02
#       8
#     8   8   8   8   8   8   8   8
#     4  10  19  34  58  90 124 166 213 250 294 368
#     4  12  25  41  64  96 126 152 208 266 317 366
#     4   9  19  35  54  85 128 171 208 246 303 376
#     4  11  23  44  70  90 120 167 217 260 305 370
#     4  11  21  38  64  95 129 162 198 251 316 378
#     4  12  22  37  62  91 124 163 209 250 305 375
#     4  10  21  34  53  90 132 163 197 249 319 380
#     4  10  20  38  63  89 120 164 209 257 309 366
#
# _framework density 18.830331000000001
#
# number of rings (size 3 to 8) (size 9 to 14) (size 15 to 20)
#    0.000    1.375    2.500    3.750    1.750    5.000 
#    2.250    0.000    0.000    4.125    0.000    0.000 
#    0.000    0.000    0.000    0.000    0.000    0.000 
#
# Total GULP energy -357126.979884 kJ/mol
# GULP energy per Si atom -5580.109061 kJ/mol
# Density = 1.878747 g / cm^3
# Si number density = 18.830331 Si / 1000 Ang^3
#
#
#
# Elastic Constant Matrix: (Units=GPa)
#
#
# Indices 1 2 3 4 5 6 
#
# 1 99.1445 33.0396 27.0349 0.0000 0.0000 0.0000
# 2 33.0396 93.6772 21.3454 0.0000 0.0000 0.0000
# 3 27.0349 21.3454 83.2382 0.0000 0.0000 0.0000
# 4 0.0000 0.0000 0.0000 24.0289 0.0000 0.0000
# 5 0.0000 0.0000 0.0000 0.0000 18.1284 0.0000
# 6 0.0000 0.0000 0.0000 0.0000 0.0000 40.5578
#
#
#
# Elastic Compliance Matrix: (Units=1/GPa)
#
#
# Indices 1 2 3 4 5 6 
#
# 1 0.012101 -0.003582 -0.003012 0.000000 0.000000 0.000000
# 2 -0.003582 0.012398 -0.002016 0.000000 0.000000 0.000000
# 3 -0.003012 -0.002016 0.013509 0.000000 0.000000 0.000000
# 4 0.000000 0.000000 0.000000 0.041617 0.000000 0.000000
# 5 0.000000 0.000000 0.000000 0.000000 0.055162 0.000000
# 6 0.000000 0.000000 0.000000 0.000000 0.000000 0.024656
#
#
# Mechanical properties :
#
#
# Convention : Reuss Voigt Hill
#
# Bulk Modulus (GPa) = 48.10315 48.76663 48.43489
# Shear Modulus (GPa) = 27.23447 29.51902 28.37675
#
# Velocity S-wave (km/s) = 3.80716 3.96363 3.88618
# Velocity P-wave (km/s) = 6.70276 6.84845 6.77600
#
# Compressibility (1/GPa) = 0.02078866
#
# Stress axis : x y z
#
# Youngs Moduli (GPa) = 82.63666 80.66098 74.02536
#
# Poissons Ratio (x) = 0.28891 0.22295
# Poissons Ratio (y) = 0.29598 0.14923
# Poissons Ratio (z) = 0.24889 0.16260
#
# Static dielectric constant tensor:
#      x y z
#    x 1.705770 0.000000 0.000000 
#    y 0.000000 1.642870 0.000000 
#    z 0.000000 0.000000 1.676590 
# 
# From -- ./inp_files/28589.got.cif
#   From: 2010.05.17/outbox.cif.g08.bks.cpg/sg53_15_cif.got.tgz:28589.got - 2010.06.03 12:45:16.
