data_PCOD9416693
_publ_section_title
;
Structure prediction by ZEFSAII (Michael W. Deem and Ramdas Pophale) SiO2 
 PCOD9416693
Probable space group: P M N A
;
_chemical_formula_sum "Si O2"
_cell_formula_units_Z 64
_cell_length_a 8.190654
_cell_length_b 24.077618
_cell_length_c 18.021759
_cell_angle_alpha 90.000000
_cell_angle_beta 90.000000
_cell_angle_gamma 90.000000
_cell_volume 3554.097011
_symmetry_space_group_name_H-M "P M N A"
_symmetry_group_IT_number 53
_symmetry_cell_setting 'orthorhombic'
loop_
_space_group_symop_operation_xyz
x,y,z
1/2-x,-y,1/2+z
x,-y,-z
1/2-x,y,1/2-z
-x,-y,-z
1/2+x,y,1/2-z
-x,y,z
1/2+x,-y,1/2+z
loop_
_atom_site_type_symbol
_atom_site_label
_atom_site_fract_x
_atom_site_fract_y
_atom_site_fract_z
Si Si1 0.805015 0.180815 0.329316
Si Si2 0.812365 0.463410 0.924367
Si Si3 0.697484 0.132818 0.550080
Si Si4 0.805435 0.241935 0.477683
Si Si5 0.804296 0.071273 0.098902
Si Si6 0.697879 0.565606 0.666057
Si Si7 0.197315 0.044306 0.834615
Si Si8 0.303488 0.366982 0.478701
O O1 0.750000 0.202804 0.250000
O O2 0.744894 0.217600 0.398436
O O3 0.738467 0.118666 0.341747
O O4 0.000000 0.178602 0.332098
O O5 0.741568 0.504767 0.862380
O O6 0.000000 0.452207 0.901570
O O7 0.817987 0.500000 0.000000
O O8 0.737604 0.406100 0.954505
O O9 0.500000 0.134180 0.548332
O O10 0.757915 0.195137 0.537390
O O11 0.754717 0.095727 0.479600
O O12 0.751225 0.099864 0.622924
O O13 0.737932 0.303096 0.489564
O O14 0.000000 0.245411 0.474351
O O15 0.000000 0.067148 0.093235
O O16 0.742518 0.011009 0.122786
O O17 0.750000 0.577913 0.750000
O O18 0.500000 0.564598 0.664197
O O19 0.751657 0.609148 0.601850
O O20 0.250000 0.042613 0.750000
O O21 0.000000 0.043135 0.837517
O O22 0.500000 0.373464 0.479303
#
# Coordination Sequence:
#
# PCOD9416693 Si02
#       8
#     8   8   8   8   8   8   8   8
#     4  10  20  32  45  64  93 127 159 192 233 281
#     4   7  12  26  47  68  90 120 157 189 216 256
#     4   9  18  34  53  70  92 126 164 196 232 285
#     4  10  21  34  48  69  95 122 158 204 244 274
#     4   9  17  31  51  72  94 121 155 194 235 284
#     4   9  17  29  47  73 103 129 153 187 231 276
#     4  10  20  32  49  74  99 122 151 192 242 292
#     4   9  17  31  51  70  90 124 166 197 224 270
#
# _framework density 18.007387999999999
#
# number of rings (size 3 to 8) (size 9 to 14) (size 15 to 20)
#    0.000    2.875    0.000    3.000    0.000    6.000 
#    0.000    3.125    0.000    6.750    0.000    1.750 
#    0.000    0.000    0.000    0.000    0.000    0.000 
#
# Total GULP energy -356546.077659 kJ/mol
# GULP energy per Si atom -5571.032463 kJ/mol
# Density = 1.796640 g / cm^3
# Si number density = 18.007388 Si / 1000 Ang^3
#
#
#
# Elastic Constant Matrix: (Units=GPa)
#
#
# Indices 1 2 3 4 5 6 
#
# 1 5.4435 10.3852 4.8564 0.0000 0.0000 0.0000
# 2 10.3852 147.7417 41.9496 0.0000 0.0000 0.0000
# 3 4.8564 41.9496 43.6260 0.0000 0.0000 0.0000
# 4 0.0000 0.0000 0.0000 14.7971 0.0000 0.0000
# 5 0.0000 0.0000 0.0000 0.0000 19.9879 0.0000
# 6 0.0000 0.0000 0.0000 0.0000 0.0000 11.0894
#
#
#
# Elastic Compliance Matrix: (Units=1/GPa)
#
#
# Indices 1 2 3 4 5 6 
#
# 1 0.217448 -0.011571 -0.013079 0.000000 0.000000 0.000000
# 2 -0.011571 0.009926 -0.008257 0.000000 0.000000 0.000000
# 3 -0.013079 -0.008257 0.032318 0.000000 0.000000 0.000000
# 4 0.000000 0.000000 0.000000 0.067581 0.000000 0.000000
# 5 0.000000 0.000000 0.000000 0.000000 0.050030 0.000000
# 6 0.000000 0.000000 0.000000 0.000000 0.000000 0.090176
#
#
# Mechanical properties :
#
#
# Convention : Reuss Voigt Hill
#
# Bulk Modulus (GPa) = 5.15791 34.57706 19.86748
# Shear Modulus (GPa) = 8.36233 18.48289 13.42261
#
# Velocity S-wave (km/s) = 2.15729 3.20723 2.73315
# Velocity P-wave (km/s) = 3.01260 5.74094 4.58444
#
# Compressibility (1/GPa) = 0.19387715
#
# Stress axis : x y z
#
# Youngs Moduli (GPa) = 4.59880 100.74150 30.94281
#
# Poissons Ratio (x) = 1.16571 0.40471
# Poissons Ratio (y) = 0.05321 0.25549
# Poissons Ratio (z) = 0.06015 0.83181
#
# Static dielectric constant tensor:
#      x y z
#    x 1.640710 0.000000 0.000000 
#    y 0.000000 1.630670 0.000000 
#    z 0.000000 0.000000 1.616580 
# 
# From -- ./inp_files/26857.got.cif
#   From: 2010.05.17/outbox.cif.g08.bks.cpg/sg53_14_cif.got.tgz:26857.got - 2010.06.03 12:45:16.
