data_PCOD9416203
_publ_section_title
;
Structure prediction by ZEFSAII (Michael W. Deem and Ramdas Pophale) SiO2 
 PCOD9416203
Probable space group: P M N A
;
_chemical_formula_sum "Si O2"
_cell_formula_units_Z 64
_cell_length_a 8.835876
_cell_length_b 20.980161
_cell_length_c 20.033295
_cell_angle_alpha 90.000000
_cell_angle_beta 90.000000
_cell_angle_gamma 90.000000
_cell_volume 3713.734185
_symmetry_space_group_name_H-M "P M N A"
_symmetry_group_IT_number 53
_symmetry_cell_setting 'orthorhombic'
loop_
_space_group_symop_operation_xyz
x,y,z
1/2-x,-y,1/2+z
x,-y,-z
1/2-x,y,1/2-z
-x,-y,-z
1/2+x,y,1/2-z
-x,y,z
1/2+x,-y,1/2+z
loop_
_atom_site_type_symbol
_atom_site_label
_atom_site_fract_x
_atom_site_fract_y
_atom_site_fract_z
Si Si1 0.180960 0.364517 0.321225
Si Si2 0.181594 0.684568 0.957615
Si Si3 0.818469 0.983315 0.320707
Si Si4 0.817858 0.181967 0.463677
Si Si5 0.317802 0.561043 0.455829
Si Si6 0.319169 0.133815 0.180529
Si Si7 0.680003 0.484261 0.820712
Si Si8 0.181350 0.936653 0.043067
O O1 0.250000 0.344670 0.250000
O O2 0.252588 0.328943 0.384034
O O3 0.215390 0.440184 0.329594
O O4 0.000000 0.356081 0.320582
O O5 0.250331 0.750295 0.983999
O O6 0.000000 0.688004 0.954341
O O7 0.223837 0.625150 0.004939
O O8 0.750000 0.962074 0.250000
O O9 0.747310 0.947234 0.383257
O O10 0.000000 0.977521 0.320700
O O11 0.780082 0.058798 0.327507
O O12 0.770817 0.169248 0.386575
O O13 0.754293 0.124275 0.507578
O O14 0.000000 0.182329 0.466491
O O15 0.270508 0.500000 0.500000
O O16 0.500000 0.559105 0.449803
O O17 0.246683 0.553549 0.383123
O O18 0.250000 0.157161 0.250000
O O19 0.500000 0.138270 0.185474
O O20 0.750000 0.464479 0.750000
O O21 0.500000 0.477979 0.818448
O O22 0.000000 0.930369 0.045151
O O23 0.218494 0.000000 0.000000
#
# Coordination Sequence:
#
# PCOD9416203 Si02
#       8
#     8   8   8   8   8   8   8   8
#     4  10  20  34  53  79 111 149 189 229 273 329
#     4  11  23  38  56  80 112 150 188 232 282 337
#     4  10  19  34  56  84 115 145 183 229 279 330
#     4  11  23  39  56  79 113 152 191 233 281 334
#     4  10  20  36  58  82 111 146 186 231 282 332
#     4   9  19  33  52  77 108 146 185 224 269 323
#     4  10  20  33  55  84 114 144 183 231 279 331
#     4  11  22  36  58  86 113 146 189 234 280 331
#
# _framework density 17.233329999999999
#
# number of rings (size 3 to 8) (size 9 to 14) (size 15 to 20)
#    0.000    1.750    2.500    2.250    0.000    4.750 
#    0.000    1.250    0.000    0.750    0.000    1.750 
#    0.000    0.000    0.000    0.000    0.000    0.000 
#
# Total GULP energy -357521.410283 kJ/mol
# GULP energy per Si atom -5586.272036 kJ/mol
# Density = 1.719411 g / cm^3
# Si number density = 17.233330 Si / 1000 Ang^3
#
#
#
# Elastic Constant Matrix: (Units=GPa)
#
#
# Indices 1 2 3 4 5 6 
#
# 1 48.4949 49.9847 45.4845 0.0000 0.0000 0.0000
# 2 49.9847 115.5108 68.4038 0.0000 0.0000 0.0000
# 3 45.4845 68.4038 133.2995 0.0000 0.0000 0.0000
# 4 0.0000 0.0000 0.0000 20.8566 0.0000 0.0000
# 5 0.0000 0.0000 0.0000 0.0000 34.7511 0.0000
# 6 0.0000 0.0000 0.0000 0.0000 0.0000 26.1743
#
#
#
# Elastic Compliance Matrix: (Units=1/GPa)
#
#
# Indices 1 2 3 4 5 6 
#
# 1 0.041415 -0.013723 -0.007089 0.000000 0.000000 0.000000
# 2 -0.013723 0.016984 -0.004033 0.000000 0.000000 0.000000
# 3 -0.007089 -0.004033 0.011990 0.000000 0.000000 0.000000
# 4 0.000000 0.000000 0.000000 0.047946 0.000000 0.000000
# 5 0.000000 0.000000 0.000000 0.000000 0.028776 0.000000
# 6 0.000000 0.000000 0.000000 0.000000 0.000000 0.038205
#
#
# Mechanical properties :
#
#
# Convention : Reuss Voigt Hill
#
# Bulk Modulus (GPa) = 48.31300 69.45013 58.88156
# Shear Modulus (GPa) = 20.66913 25.25187 22.96050
#
# Velocity S-wave (km/s) = 3.46695 3.83207 3.65407
# Velocity P-wave (km/s) = 6.64242 7.74384 7.21418
#
# Compressibility (1/GPa) = 0.02069836
#
# Stress axis : x y z
#
# Youngs Moduli (GPa) = 24.14598 58.88008 83.40007
#
# Poissons Ratio (x) = 0.80801 0.59126
# Poissons Ratio (y) = 0.33136 0.33633
# Poissons Ratio (z) = 0.17118 0.23745
#
# Static dielectric constant tensor:
#      x y z
#    x 1.571230 0.000000 0.000000 
#    y 0.000000 1.583460 0.000000 
#    z 0.000000 0.000000 1.564160 
# 
# From -- ./inp_files/31153.got.cif
#   From: 2010.05.17/outbox.cif.g08.bks.cpg/sg53_16_cif.got.tgz:31153.got - 2010.06.03 12:45:16.
