data_PCOD9416965
_publ_section_title
;
Structure prediction by ZEFSAII (Michael W. Deem and Ramdas Pophale) SiO2 
 PCOD9416965
Probable space group: P M N A
;
_chemical_formula_sum "Si O2"
_cell_formula_units_Z 48
_cell_length_a 7.179718
_cell_length_b 10.727634
_cell_length_c 25.439317
_cell_angle_alpha 90.000000
_cell_angle_beta 90.000000
_cell_angle_gamma 90.000000
_cell_volume 1959.371478
_symmetry_space_group_name_H-M "P M N A"
_symmetry_group_IT_number 53
_symmetry_cell_setting 'orthorhombic'
loop_
_space_group_symop_operation_xyz
x,y,z
1/2-x,-y,1/2+z
x,-y,-z
1/2-x,y,1/2-z
-x,-y,-z
1/2+x,y,1/2-z
-x,y,z
1/2+x,-y,1/2+z
loop_
_atom_site_type_symbol
_atom_site_label
_atom_site_fract_x
_atom_site_fract_y
_atom_site_fract_z
Si Si1 0.274540 0.342818 0.500975
Si Si2 0.773868 0.569533 0.109739
Si Si3 0.725938 0.701466 0.619300
Si Si4 0.724632 0.037432 0.341891
Si Si5 0.279162 0.223537 0.692118
Si Si6 0.775146 0.917773 0.047402
O O1 0.500000 0.354480 0.496254
O O2 0.220040 0.443288 0.547106
O O3 0.215292 0.299267 0.442441
O O4 0.224158 0.222979 0.536831
O O5 0.723765 0.438216 0.136692
O O6 0.709809 0.684854 0.145853
O O7 0.000000 0.577279 0.108028
O O8 0.500000 0.709630 0.618447
O O9 0.789298 0.818914 0.654297
O O10 0.500000 0.044848 0.335013
O O11 0.791621 0.919993 0.307378
O O12 0.773653 0.981884 0.398795
O O13 0.250000 0.278027 0.750000
O O14 0.500000 0.214347 0.682379
O O15 0.000000 0.918264 0.046511
O O16 0.707059 0.000000 0.000000
#
# Coordination Sequence:
#
# PCOD9416965 Si02
#       6
#     8   8   8   8   8   8
#     4   9  13  18  31  54  87 122 145 163 202 265
#     4   9  16  25  37  58  89 121 146 174 216 264
#     4   9  15  21  34  59  91 121 143 167 211 270
#     4   9  15  24  38  57  83 114 145 177 214 257
#     4  10  20  34  50  65  84 113 151 191 226 259
#     4   9  12  16  29  51  81 115 142 163 199 256
#
# _framework density 24.497648999999999
#
# number of rings (size 3 to 8) (size 9 to 14) (size 15 to 20)
#    0.000    2.833    3.333    0.500    0.000    2.000 
#    0.000    0.833    0.000    0.000    0.000    0.000 
#    0.000    8.667    0.000    0.000    0.000    0.000 
#
# Total GULP energy -267335.002523 kJ/mol
# GULP energy per Si atom -5569.479219 kJ/mol
# Density = 2.444189 g / cm^3
# Si number density = 24.497649 Si / 1000 Ang^3
#
#
#
# Elastic Constant Matrix: (Units=GPa)
#
#
# Indices 1 2 3 4 5 6 
#
# 1 122.1062 2.8418 -3.9803 0.0000 0.0000 0.0000
# 2 2.8418 90.7586 17.3659 0.0000 0.0000 0.0000
# 3 -3.9803 17.3659 100.6134 0.0000 0.0000 0.0000
# 4 0.0000 0.0000 0.0000 26.9459 0.0000 0.0000
# 5 0.0000 0.0000 0.0000 0.0000 147.4642 0.0000
# 6 0.0000 0.0000 0.0000 0.0000 0.0000 -50.8769
#
#
#
# Elastic Compliance Matrix: (Units=1/GPa)
#
#
# Indices 1 2 3 4 5 6 
#
# 1 0.008210 -0.000330 0.000382 0.000000 0.000000 0.000000
# 2 -0.000330 0.011408 -0.001982 0.000000 0.000000 0.000000
# 3 0.000382 -0.001982 0.010296 0.000000 0.000000 0.000000
# 4 0.000000 0.000000 0.000000 0.037111 0.000000 0.000000
# 5 0.000000 0.000000 0.000000 0.000000 0.006781 0.000000
# 6 0.000000 0.000000 0.000000 0.000000 0.000000 -0.019655
#
#
# Mechanical properties :
#
#
# Convention : Reuss Voigt Hill
#
# Bulk Modulus (GPa) = 38.38334 38.43701 38.41018
# Shear Modulus (GPa) = 74.96662 44.52335 59.74498
#
# Velocity S-wave (km/s) = 5.53787 4.26779 4.94378
# Velocity P-wave (km/s) = 7.52282 6.32530 6.94990
#
# Compressibility (1/GPa) = 0.02605297
#
# Stress axis : x y z
#
# Youngs Moduli (GPa) = 121.80685 87.65912 97.12282
#
# Poissons Ratio (x) = 0.02894 -0.03708
# Poissons Ratio (y) = 0.04021 0.19250
# Poissons Ratio (z) = -0.04650 0.17375
#
# Static dielectric constant tensor:
#      x y z
#    x 2.029170 0.000000 0.000000 
#    y 0.000000 2.081020 0.000000 
#    z 0.000000 0.000000 1.945290 
# 
# From -- ./inp_files/28379.got.cif
#   From: 2010.05.17/outbox.cif.g08.bks.cpg/sg53_15_cif.got.tgz:28379.got - 2010.06.03 12:45:16.
