data_PCOD9416994
_publ_section_title
;
Structure prediction by ZEFSAII (Michael W. Deem and Ramdas Pophale) SiO2 
 PCOD9416994
Probable space group: P M N A
;
_chemical_formula_sum "Si O2"
_cell_formula_units_Z 48
_cell_length_a 8.377378
_cell_length_b 32.123575
_cell_length_c 9.481676
_cell_angle_alpha 90.000000
_cell_angle_beta 90.000000
_cell_angle_gamma 90.000000
_cell_volume 2551.626444
_symmetry_space_group_name_H-M "P M N A"
_symmetry_group_IT_number 53
_symmetry_cell_setting 'orthorhombic'
loop_
_space_group_symop_operation_xyz
x,y,z
1/2-x,-y,1/2+z
x,-y,-z
1/2-x,y,1/2-z
-x,-y,-z
1/2+x,y,1/2-z
-x,y,z
1/2+x,-y,1/2+z
loop_
_atom_site_type_symbol
_atom_site_label
_atom_site_fract_x
_atom_site_fract_y
_atom_site_fract_z
Si Si1 0.192936 0.459639 0.911127
Si Si2 0.693056 0.620837 0.589677
Si Si3 0.807056 0.699712 0.089853
Si Si4 0.192816 0.207032 0.909311
Si Si5 0.308708 0.871334 0.589690
Si Si6 0.691246 0.039604 0.089344
O O1 0.250000 0.460537 0.750000
O O2 0.000000 0.459746 0.909204
O O3 0.246138 0.500000 0.000000
O O4 0.245843 0.418197 0.994089
O O5 0.750000 0.617261 0.750000
O O6 0.500000 0.620823 0.590512
O O7 0.748052 0.663526 0.515005
O O8 0.750000 0.692174 0.250000
O O9 0.754902 0.746383 0.046770
O O10 0.000000 0.699140 0.091350
O O11 0.250000 0.201013 0.750000
O O12 0.000000 0.206717 0.911872
O O13 0.249941 0.168845 0.004330
O O14 0.250000 0.868418 0.750000
O O15 0.500000 0.871625 0.588735
O O16 0.250078 0.915840 0.532246
O O17 0.750000 0.035998 0.250000
O O18 0.500000 0.040003 0.089566
O O19 0.747774 0.000000 0.000000
#
# Coordination Sequence:
#
# PCOD9416994 Si02
#       6
#     8   8   8   8   8   8
#     4  10  21  36  54  78 106 136 173 215 258 306
#     4  10  21  35  52  76 105 136 172 213 255 304
#     4   9  18  34  53  74 101 132 169 210 252 300
#     4   9  19  34  52  75 102 132 167 208 251 297
#     4  10  20  34  52  74 101 132 165 203 248 296
#     4  10  21  36  54  76 101 131 167 205 247 296
#
# _framework density 18.811533000000001
#
# number of rings (size 3 to 8) (size 9 to 14) (size 15 to 20)
#    0.000    2.333    0.000    3.000    0.000    5.667 
#    0.000    3.333    0.000    0.000    0.000    0.000 
#    0.000    0.000    0.000    0.000    0.000    0.000 
#
# Total GULP energy -267876.067584 kJ/mol
# GULP energy per Si atom -5580.751408 kJ/mol
# Density = 1.876872 g / cm^3
# Si number density = 18.811533 Si / 1000 Ang^3
#
#
#
# Elastic Constant Matrix: (Units=GPa)
#
#
# Indices 1 2 3 4 5 6 
#
# 1 15.0950 26.9331 12.4580 0.0000 0.0000 0.0000
# 2 26.9331 216.9172 118.7183 0.0000 0.0000 0.0000
# 3 12.4580 118.7183 122.5173 0.0000 0.0000 0.0000
# 4 0.0000 0.0000 0.0000 43.6349 0.0000 0.0000
# 5 0.0000 0.0000 0.0000 0.0000 29.3827 0.0000
# 6 0.0000 0.0000 0.0000 0.0000 0.0000 -7.6717
#
#
#
# Elastic Compliance Matrix: (Units=1/GPa)
#
#
# Indices 1 2 3 4 5 6 
#
# 1 0.085761 -0.012510 0.003402 0.000000 0.000000 0.000000
# 2 -0.012510 0.011640 -0.010007 0.000000 0.000000 0.000000
# 3 0.003402 -0.010007 0.017513 0.000000 0.000000 0.000000
# 4 0.000000 0.000000 0.000000 0.022917 0.000000 0.000000
# 5 0.000000 0.000000 0.000000 0.000000 0.034034 0.000000
# 6 0.000000 0.000000 0.000000 0.000000 0.000000 -0.130349
#
#
# Mechanical properties :
#
#
# Convention : Reuss Voigt Hill
#
# Bulk Modulus (GPa) = 13.04071 74.52758 43.78415
# Shear Modulus (GPa) = 47.47944 26.16385 36.82164
#
# Velocity S-wave (km/s) = 5.02935 3.73344 4.42905
# Velocity P-wave (km/s) = 6.37755 7.63471 7.03427
#
# Compressibility (1/GPa) = 0.07668294
#
# Stress axis : x y z
#
# Youngs Moduli (GPa) = 11.66034 85.90836 57.09979
#
# Poissons Ratio (x) = 1.07472 -0.19423
# Poissons Ratio (y) = 0.14587 0.57141
# Poissons Ratio (z) = -0.03966 0.85971
#
# Static dielectric constant tensor:
#      x y z
#    x 1.648900 0.000000 0.000000 
#    y 0.000000 1.681480 0.000000 
#    z 0.000000 0.000000 1.601130 
# 
# From -- ./inp_files/6737.got.cif
#   From: 2010.05.17/outbox.cif.g08.bks.cpg/sg53_4_cif.got.tgz:6737.got - 2010.06.03 12:45:16.
