data_PCOD9416299
_publ_section_title
;
Structure prediction by ZEFSAII (Michael W. Deem and Ramdas Pophale) SiO2 
 PCOD9416299
Probable space group: P M N A
;
_chemical_formula_sum "Si O2"
_cell_formula_units_Z 56
_cell_length_a 8.754119
_cell_length_b 16.885205
_cell_length_c 19.325573
_cell_angle_alpha 90.000000
_cell_angle_beta 90.000000
_cell_angle_gamma 90.000000
_cell_volume 2856.611388
_symmetry_space_group_name_H-M "P M N A"
_symmetry_group_IT_number 53
_symmetry_cell_setting 'orthorhombic'
loop_
_space_group_symop_operation_xyz
x,y,z
1/2-x,-y,1/2+z
x,-y,-z
1/2-x,y,1/2-z
-x,-y,-z
1/2+x,y,1/2-z
-x,y,z
1/2+x,-y,1/2+z
loop_
_atom_site_type_symbol
_atom_site_label
_atom_site_fract_x
_atom_site_fract_y
_atom_site_fract_z
Si Si1 0.819223 0.179139 0.673665
Si Si2 0.814697 0.647262 0.827402
Si Si3 0.819956 0.320884 0.909914
Si Si4 0.182368 0.928088 0.550041
Si Si5 0.679909 0.238916 0.447868
Si Si6 0.185904 0.502620 0.079999
Si Si7 0.681562 0.985751 0.326418
O O1 0.750000 0.190269 0.750000
O O2 0.775645 0.254692 0.628947
O O3 0.000000 0.167610 0.677611
O O4 0.743582 0.098536 0.645637
O O5 0.750000 0.649496 0.750000
O O6 0.769696 0.722133 0.875515
O O7 0.764895 0.568732 0.870217
O O8 0.000000 0.646583 0.824423
O O9 0.773509 0.410194 0.892504
O O10 0.000000 0.310481 0.892916
O O11 0.805403 0.304603 0.991961
O O12 0.232907 0.840128 0.529790
O O13 0.257864 0.946420 0.623740
O O14 0.000000 0.931639 0.554739
O O15 0.232796 0.000000 0.500000
O O16 0.500000 0.219460 0.442797
O O17 0.000000 0.498939 0.077506
O O18 0.238630 0.500000 0.000000
O O19 0.750000 0.994536 0.250000
O O20 0.500000 0.984230 0.323486
#
# Coordination Sequence:
#
# PCOD9416299 Si02
#       7
#     8   8   8   8   8   8   8
#     4  11  22  37  56  82 118 154 191 237 292 350
#     4  10  21  38  60  88 120 156 199 246 298 351
#     4  10  19  34  60  88 114 150 197 243 292 350
#     4  11  24  40  59  86 121 157 196 245 299 352
#     4  10  21  37  59  85 114 154 201 245 293 353
#     4   9  16  33  61  87 113 151 198 244 288 347
#     4  11  22  39  62  85 113 150 194 241 294 355
#
# _framework density 19.603645
#
# number of rings (size 3 to 8) (size 9 to 14) (size 15 to 20)
#    0.000    1.714    1.429    4.714    0.000    5.714 
#    0.000    3.571    0.000    0.857    0.000    0.000 
#    0.000    0.000    0.000    0.000    0.000    0.000 
#
# Total GULP energy -312792.805685 kJ/mol
# GULP energy per Si atom -5585.585816 kJ/mol
# Density = 1.955903 g / cm^3
# Si number density = 19.603645 Si / 1000 Ang^3
#
#
#
# Elastic Constant Matrix: (Units=GPa)
#
#
# Indices 1 2 3 4 5 6 
#
# 1 63.2932 30.3967 19.4545 0.0000 0.0000 0.0000
# 2 30.3967 88.4972 23.6616 0.0000 0.0000 0.0000
# 3 19.4545 23.6616 68.9968 0.0000 0.0000 0.0000
# 4 0.0000 0.0000 0.0000 34.3180 0.0000 0.0000
# 5 0.0000 0.0000 0.0000 0.0000 19.8673 0.0000
# 6 0.0000 0.0000 0.0000 0.0000 0.0000 9.5148
#
#
#
# Elastic Compliance Matrix: (Units=1/GPa)
#
#
# Indices 1 2 3 4 5 6 
#
# 1 0.019683 -0.005809 -0.003558 0.000000 0.000000 0.000000
# 2 -0.005809 0.014155 -0.003216 0.000000 0.000000 0.000000
# 3 -0.003558 -0.003216 0.016600 0.000000 0.000000 0.000000
# 4 0.000000 0.000000 0.000000 0.029139 0.000000 0.000000
# 5 0.000000 0.000000 0.000000 0.000000 0.050334 0.000000
# 6 0.000000 0.000000 0.000000 0.000000 0.000000 0.105100
#
#
# Mechanical properties :
#
#
# Convention : Reuss Voigt Hill
#
# Bulk Modulus (GPa) = 39.57104 40.86810 40.21957
# Shear Modulus (GPa) = 18.61500 22.55833 20.58666
#
# Velocity S-wave (km/s) = 3.08485 3.39591 3.24411
# Velocity P-wave (km/s) = 5.73740 6.02235 5.88160
#
# Compressibility (1/GPa) = 0.02527101
#
# Stress axis : x y z
#
# Youngs Moduli (GPa) = 50.80526 70.64570 60.24275
#
# Poissons Ratio (x) = 0.41041 0.21432
# Poissons Ratio (y) = 0.29515 0.19376
# Poissons Ratio (z) = 0.18074 0.22722
#
# Static dielectric constant tensor:
#      x y z
#    x 1.657720 0.000000 0.000000 
#    y 0.000000 1.699100 0.000000 
#    z 0.000000 0.000000 1.696380 
# 
# From -- ./inp_files/30854.got.cif
#   From: 2010.05.17/outbox.cif.g08.bks.cpg/sg53_16_cif.got.tgz:30854.got - 2010.06.03 12:45:16.
