data_PCOD9416375
_publ_section_title
;
Structure prediction by ZEFSAII (Michael W. Deem and Ramdas Pophale) SiO2 
 PCOD9416375
Probable space group: P M N A
;
_chemical_formula_sum "Si O2"
_cell_formula_units_Z 58
_cell_length_a 15.303306
_cell_length_b 11.551619
_cell_length_c 18.127908
_cell_angle_alpha 90.000000
_cell_angle_beta 90.000000
_cell_angle_gamma 90.000000
_cell_volume 3204.614602
_symmetry_space_group_name_H-M "P M N A"
_symmetry_group_IT_number 53
_symmetry_cell_setting 'orthorhombic'
loop_
_space_group_symop_operation_xyz
x,y,z
1/2-x,-y,1/2+z
x,-y,-z
1/2-x,y,1/2-z
-x,-y,-z
1/2+x,y,1/2-z
-x,y,z
1/2+x,-y,1/2+z
loop_
_atom_site_type_symbol
_atom_site_label
_atom_site_fract_x
_atom_site_fract_y
_atom_site_fract_z
Si Si1 0.100127 0.298361 0.697491
Si Si2 0.784656 0.531695 0.385718
Si Si3 0.096026 0.618849 0.140589
Si Si4 0.804585 0.696604 0.529712
Si Si5 0.281450 0.922632 0.165607
Si Si6 0.500000 0.000000 0.500000
Si Si7 0.848780 0.821918 0.041312
Si Si8 0.099675 0.081734 0.428435
O O1 0.151747 0.413900 0.674644
O O2 0.099965 0.302824 0.785908
O O3 0.152531 0.187233 0.668978
O O4 0.000000 0.298199 0.671074
O O5 0.683185 0.542584 0.363333
O O6 0.804006 0.618331 0.455221
O O7 0.802140 0.400318 0.407514
O O8 0.107155 0.706767 0.073551
O O9 0.000000 0.561842 0.139489
O O10 0.720491 0.779146 0.519553
O O11 0.880959 0.787815 0.544966
O O12 0.250000 0.940991 0.250000
O O13 0.205786 0.884302 0.107853
O O14 0.333295 0.031855 0.132117
O O15 0.576783 0.097020 0.511683
O O16 0.000000 0.071111 0.402001
O O17 0.110290 0.000000 0.500000
#
# Coordination Sequence:
#
# PCOD9416375 Si02
#       8
#     8   8   8   8   8   2   8   8
#     4  11  20  33  59  91 117 147 197 250 303 358
#     4  10  20  37  59  84 116 153 193 248 302 351
#     4  10  19  35  57  88 114 147 194 250 300 353
#     4  10  21  38  58  83 116 154 196 241 299 361
#     4  12  21  38  62  87 123 157 197 250 311 366
#     4  12  24  36  60  90 122 164 198 254 314 370
#     4  11  20  36  57  86 118 153 196 246 303 367
#     4  11  22  38  61  87 118 157 198 247 300 364
#
# _framework density 18.098901000000001
#
# number of rings (size 3 to 8) (size 9 to 14) (size 15 to 20)
#    0.000    1.241    6.207    1.655    0.000    2.207 
#    2.483    4.138    0.000    0.000    0.000    0.000 
#    0.000    0.000    0.000    0.000    0.000    0.000 
#
# Total GULP energy -322893.561670 kJ/mol
# GULP energy per Si atom -5567.130374 kJ/mol
# Density = 1.805771 g / cm^3
# Si number density = 18.098901 Si / 1000 Ang^3
#
#
#
# Elastic Constant Matrix: (Units=GPa)
#
#
# Indices 1 2 3 4 5 6 
#
# 1 88.8507 35.1034 13.6588 0.0000 0.0000 0.0000
# 2 35.1034 81.2806 16.0012 0.0000 0.0000 0.0000
# 3 13.6588 16.0012 22.6209 0.0000 0.0000 0.0000
# 4 0.0000 0.0000 0.0000 16.6190 0.0000 0.0000
# 5 0.0000 0.0000 0.0000 0.0000 16.0823 0.0000
# 6 0.0000 0.0000 0.0000 0.0000 0.0000 -2.1593
#
#
#
# Elastic Compliance Matrix: (Units=1/GPa)
#
#
# Indices 1 2 3 4 5 6 
#
# 1 0.014015 -0.005097 -0.004857 0.000000 0.000000 0.000000
# 2 -0.005097 0.016147 -0.008344 0.000000 0.000000 0.000000
# 3 -0.004857 -0.008344 0.053042 0.000000 0.000000 0.000000
# 4 0.000000 0.000000 0.000000 0.060172 0.000000 0.000000
# 5 0.000000 0.000000 0.000000 0.000000 0.062180 0.000000
# 6 0.000000 0.000000 0.000000 0.000000 0.000000 -0.463112
#
#
# Mechanical properties :
#
#
# Convention : Reuss Voigt Hill
#
# Bulk Modulus (GPa) = 21.45566 35.80878 28.63222
# Shear Modulus (GPa) = -24.34004 14.64097 -4.84953
#
# Velocity S-wave (km/s) = -3.67118 2.84728 -1.63868
# Velocity P-wave (km/s) = 2.46772 5.53510 3.50340
#
# Compressibility (1/GPa) = 0.04660776
#
# Stress axis : x y z
#
# Youngs Moduli (GPa) = 71.35145 61.93147 18.85286
#
# Poissons Ratio (x) = 0.31564 0.09158
# Poissons Ratio (y) = 0.36365 0.15731
# Poissons Ratio (z) = 0.34658 0.51678
#
# Static dielectric constant tensor:
#      x y z
#    x 1.648570 0.000000 0.000000 
#    y 0.000000 1.598480 0.000000 
#    z 0.000000 0.000000 1.649060 
# 
# From -- ./inp_files/28505.got.cif
#   From: 2010.05.17/outbox.cif.g08.bks.cpg/sg53_15_cif.got.tgz:28505.got - 2010.06.03 12:45:16.
