data_PCOD9416710
_publ_section_title
;
Structure prediction by ZEFSAII (Michael W. Deem and Ramdas Pophale) SiO2 
 PCOD9416710
Probable space group: P M N A
;
_chemical_formula_sum "Si O2"
_cell_formula_units_Z 64
_cell_length_a 9.688094
_cell_length_b 17.395000
_cell_length_c 21.483496
_cell_angle_alpha 90.000000
_cell_angle_beta 90.000000
_cell_angle_gamma 90.000000
_cell_volume 3620.493169
_symmetry_space_group_name_H-M "P M N A"
_symmetry_group_IT_number 53
_symmetry_cell_setting 'orthorhombic'
loop_
_space_group_symop_operation_xyz
x,y,z
1/2-x,-y,1/2+z
x,-y,-z
1/2-x,y,1/2-z
-x,-y,-z
1/2+x,y,1/2-z
-x,y,z
1/2+x,-y,1/2+z
loop_
_atom_site_type_symbol
_atom_site_label
_atom_site_fract_x
_atom_site_fract_y
_atom_site_fract_z
Si Si1 0.851698 0.280392 0.390252
Si Si2 0.833661 0.551160 0.437109
Si Si3 0.651242 0.651128 0.695868
Si Si4 0.344678 0.730747 0.037410
Si Si5 0.342036 0.874427 0.809896
Si Si6 0.338460 0.874628 0.465977
Si Si7 0.837350 0.960198 0.904883
Si Si8 0.340544 0.530688 0.309299
O O1 0.724642 0.331206 0.368779
O O2 0.848011 0.264888 0.462683
O O3 0.844090 0.201581 0.352505
O O4 0.000000 0.318850 0.375115
O O5 0.801452 0.500000 0.500000
O O6 0.808082 0.642117 0.448972
O O7 0.744305 0.534771 0.374642
O O8 0.000000 0.540437 0.426215
O O9 0.750000 0.681027 0.750000
O O10 0.500000 0.686266 0.700008
O O11 0.642716 0.560134 0.703230
O O12 0.500000 0.743597 0.061468
O O13 0.246727 0.800924 0.056168
O O14 0.250000 0.860157 0.750000
O O15 0.500000 0.893966 0.794522
O O16 0.264505 0.938760 0.849956
O O17 0.500000 0.854824 0.465650
O O18 0.305719 0.904693 0.536015
O O19 0.319252 0.951622 0.425507
O O20 0.000000 0.948631 0.889780
O O21 0.250000 0.561286 0.250000
O O22 0.500000 0.561498 0.313072
#
# Coordination Sequence:
#
# PCOD9416710 Si02
#       8
#     8   8   8   8   8   8   8   8
#     4  10  20  33  48  71 104 141 180 218 259 315
#     4  10  21  37  58  83 116 156 191 233 290 342
#     4  10  20  32  48  70  96 133 177 222 268 318
#     4  10  20  34  53  80 110 140 180 225 271 326
#     4  11  22  34  50  74 106 145 183 220 263 315
#     4   9  18  33  55  80 105 136 172 218 270 317
#     4   9  18  34  54  77 105 137 176 215 260 318
#     4  10  21  37  57  80 107 141 188 238 287 346
#
# _framework density 17.677150000000001
#
# number of rings (size 3 to 8) (size 9 to 14) (size 15 to 20)
#    0.000    2.125    1.250    3.000    0.000    6.250 
#    0.000    1.250    0.000    0.750    0.000    5.250 
#    0.000    0.000    0.000    0.000    0.000    0.000 
#
# Total GULP energy -356576.479534 kJ/mol
# GULP energy per Si atom -5571.507493 kJ/mol
# Density = 1.763692 g / cm^3
# Si number density = 17.677150 Si / 1000 Ang^3
#
#
#
# Elastic Constant Matrix: (Units=GPa)
#
#
# Indices 1 2 3 4 5 6 
#
# 1 117.7818 46.2241 53.7552 0.0000 0.0000 0.0000
# 2 46.2241 75.2431 14.2694 0.0000 0.0000 0.0000
# 3 53.7552 14.2694 80.9767 0.0000 0.0000 0.0000
# 4 0.0000 0.0000 0.0000 23.4422 0.0000 0.0000
# 5 0.0000 0.0000 0.0000 0.0000 24.3681 0.0000
# 6 0.0000 0.0000 0.0000 0.0000 0.0000 26.0554
#
#
#
# Elastic Compliance Matrix: (Units=1/GPa)
#
#
# Indices 1 2 3 4 5 6 
#
# 1 0.015742 -0.007955 -0.009048 0.000000 0.000000 0.000000
# 2 -0.007955 0.017769 0.002149 0.000000 0.000000 0.000000
# 3 -0.009048 0.002149 0.017977 0.000000 0.000000 0.000000
# 4 0.000000 0.000000 0.000000 0.042658 0.000000 0.000000
# 5 0.000000 0.000000 0.000000 0.000000 0.041037 0.000000
# 6 0.000000 0.000000 0.000000 0.000000 0.000000 0.038380
#
#
# Mechanical properties :
#
#
# Convention : Reuss Voigt Hill
#
# Bulk Modulus (GPa) = 45.91133 55.83323 50.87228
# Shear Modulus (GPa) = 23.74953 25.42333 24.58643
#
# Velocity S-wave (km/s) = 3.66938 3.79648 3.73347
# Velocity P-wave (km/s) = 6.63181 7.13241 6.88666
#
# Compressibility (1/GPa) = 0.02178112
#
# Stress axis : x y z
#
# Youngs Moduli (GPa) = 63.52574 56.27641 55.62674
#
# Poissons Ratio (x) = 0.44766 0.50332
# Poissons Ratio (y) = 0.50532 -0.11956
# Poissons Ratio (z) = 0.57479 -0.12096
#
# Static dielectric constant tensor:
#      x y z
#    x 1.645740 0.000000 0.000000 
#    y 0.000000 1.606090 0.000000 
#    z 0.000000 0.000000 1.627810 
# 
# From -- ./inp_files/31126.got.cif
#   From: 2010.05.17/outbox.cif.g08.bks.cpg/sg53_16_cif.got.tgz:31126.got - 2010.06.03 12:45:16.
