data_PCOD9416149
_publ_section_title
;
Structure prediction by ZEFSAII (Michael W. Deem and Ramdas Pophale) SiO2 
 PCOD9416149
Probable space group: P M N A
;
_chemical_formula_sum "Si O2"
_cell_formula_units_Z 48
_cell_length_a 8.339559
_cell_length_b 15.563925
_cell_length_c 19.696081
_cell_angle_alpha 90.000000
_cell_angle_beta 90.000000
_cell_angle_gamma 90.000000
_cell_volume 2556.477863
_symmetry_space_group_name_H-M "P M N A"
_symmetry_group_IT_number 53
_symmetry_cell_setting 'orthorhombic'
loop_
_space_group_symop_operation_xyz
x,y,z
1/2-x,-y,1/2+z
x,-y,-z
1/2-x,y,1/2-z
-x,-y,-z
1/2+x,y,1/2-z
-x,y,z
1/2+x,-y,1/2+z
loop_
_atom_site_type_symbol
_atom_site_label
_atom_site_fract_x
_atom_site_fract_y
_atom_site_fract_z
Si Si1 0.809535 0.099151 0.174078
Si Si2 0.806342 0.401641 0.674473
Si Si3 0.192402 0.906034 0.325582
Si Si4 0.806219 0.402257 0.325559
Si Si5 0.693615 0.249694 0.077744
Si Si6 0.696171 0.248335 0.922371
O O1 0.750000 0.121380 0.250000
O O2 0.742754 0.165838 0.119652
O O3 0.000000 0.102323 0.174075
O O4 0.754264 0.001776 0.159755
O O5 0.750000 0.377440 0.750000
O O6 0.752374 0.499677 0.661080
O O7 0.751908 0.332793 0.619012
O O8 0.000000 0.401624 0.674341
O O9 0.250000 0.881956 0.250000
O O10 0.246184 0.835876 0.380378
O O11 0.000000 0.908432 0.325031
O O12 0.750000 0.378086 0.250000
O O13 0.749718 0.333485 0.380744
O O14 0.000000 0.402129 0.325910
O O15 0.500000 0.253049 0.076070
O O16 0.750816 0.247983 0.000125
O O17 0.500000 0.248579 0.922871
#
# Coordination Sequence:
#
# PCOD9416149 Si02
#       6
#     8   8   8   8   8   8
#     4  11  22  37  56  78 101 131 169 213 256 302
#     4   9  17  32  52  77 103 133 171 212 253 299
#     4  10  19  34  55  78 101 132 170 212 255 302
#     4   9  18  31  52  76 101 132 170 212 253 295
#     4  10  20  35  52  75 105 139 172 208 252 302
#     4   9  19  33  52  76 105 137 171 207 252 304
#
# _framework density 18.775832999999999
#
# number of rings (size 3 to 8) (size 9 to 14) (size 15 to 20)
#    0.000    2.333    0.000    4.000    0.000    3.333 
#    0.000   10.000    0.000    0.000    0.000    5.833 
#    0.000    0.000    0.000    0.000    0.000    0.000 
#
# Total GULP energy -267963.943007 kJ/mol
# GULP energy per Si atom -5582.582146 kJ/mol
# Density = 1.873310 g / cm^3
# Si number density = 18.775833 Si / 1000 Ang^3
#
#
#
# Elastic Constant Matrix: (Units=GPa)
#
#
# Indices 1 2 3 4 5 6 
#
# 1 16.4853 11.7752 16.2835 0.0000 0.0000 0.0000
# 2 11.7752 134.1796 139.8782 0.0000 0.0000 0.0000
# 3 16.2835 139.8782 200.3470 0.0000 0.0000 0.0000
# 4 0.0000 0.0000 0.0000 2.3678 0.0000 0.0000
# 5 0.0000 0.0000 0.0000 0.0000 25.3733 0.0000
# 6 0.0000 0.0000 0.0000 0.0000 0.0000 9.9112
#
#
#
# Elastic Compliance Matrix: (Units=1/GPa)
#
#
# Indices 1 2 3 4 5 6 
#
# 1 0.065975 -0.000734 -0.004850 0.000000 0.000000 0.000000
# 2 -0.000734 0.027391 -0.019064 0.000000 0.000000 0.000000
# 3 -0.004850 -0.019064 0.018696 0.000000 0.000000 0.000000
# 4 0.000000 0.000000 0.000000 0.422329 0.000000 0.000000
# 5 0.000000 0.000000 0.000000 0.000000 0.039412 0.000000
# 6 0.000000 0.000000 0.000000 0.000000 0.000000 0.100896
#
#
# Mechanical properties :
#
#
# Convention : Reuss Voigt Hill
#
# Bulk Modulus (GPa) = 15.93232 76.32063 46.12648
# Shear Modulus (GPa) = 6.71217 19.73546 13.22381
#
# Velocity S-wave (km/s) = 1.89279 3.24560 2.65674
# Velocity P-wave (km/s) = 3.64429 7.40147 5.83364
#
# Compressibility (1/GPa) = 0.06276548
#
# Stress axis : x y z
#
# Youngs Moduli (GPa) = 15.15734 36.50868 53.48852
#
# Poissons Ratio (x) = 0.02680 0.25940
# Poissons Ratio (y) = 0.01113 1.01970
# Poissons Ratio (z) = 0.07351 0.69600
#
# Static dielectric constant tensor:
#      x y z
#    x 1.647710 0.000000 0.000000 
#    y 0.000000 1.649410 0.000000 
#    z 0.000000 0.000000 1.624800 
# 
# From -- ./inp_files/26250.got.cif
#   From: 2010.05.17/outbox.cif.g08.bks.cpg/sg53_14_cif.got.tgz:26250.got - 2010.06.03 12:45:16.
