data_PCOD9416590
_publ_section_title
;
Structure prediction by ZEFSAII (Michael W. Deem and Ramdas Pophale) SiO2 
 PCOD9416590
Probable space group: P M N A
;
_chemical_formula_sum "Si O2"
_cell_formula_units_Z 60
_cell_length_a 14.802796
_cell_length_b 11.534085
_cell_length_c 18.918902
_cell_angle_alpha 90.000000
_cell_angle_beta 90.000000
_cell_angle_gamma 90.000000
_cell_volume 3230.151033
_symmetry_space_group_name_H-M "P M N A"
_symmetry_group_IT_number 53
_symmetry_cell_setting 'orthorhombic'
loop_
_space_group_symop_operation_xyz
x,y,z
1/2-x,-y,1/2+z
x,-y,-z
1/2-x,y,1/2-z
-x,-y,-z
1/2+x,y,1/2-z
-x,y,z
1/2+x,-y,1/2+z
loop_
_atom_site_type_symbol
_atom_site_label
_atom_site_fract_x
_atom_site_fract_y
_atom_site_fract_z
Si Si1 0.721516 0.451148 0.421388
Si Si2 0.398705 0.606665 0.705578
Si Si3 0.235292 0.023519 0.372486
Si Si4 0.250000 0.207343 0.250000
Si Si5 0.264016 0.214249 0.012466
Si Si6 0.669230 0.407773 0.804482
Si Si7 0.396593 0.901942 0.439047
Si Si8 0.894771 0.811226 0.384244
O O1 0.705598 0.500000 0.500000
O O2 0.634833 0.437077 0.371013
O O3 0.760297 0.322755 0.435348
O O4 0.788428 0.529664 0.373918
O O5 0.500000 0.649189 0.702040
O O6 0.331811 0.707612 0.730501
O O7 0.388570 0.502105 0.761547
O O8 0.231369 0.121053 0.313871
O O9 0.222041 0.095433 0.444797
O O10 0.333116 0.959933 0.378944
O O11 0.159942 0.925950 0.361925
O O12 0.167482 0.199016 0.971658
O O13 0.343076 0.227249 0.955690
O O14 0.750000 0.377851 0.750000
O O15 0.618725 0.292755 0.828761
O O16 0.500000 0.869864 0.419706
O O17 0.403829 0.000000 0.500000
O O18 0.000000 0.833804 0.395617
#
# Coordination Sequence:
#
# PCOD9416590 Si02
#       8
#     8   8   8   4   8   8   8   8
#     4  11  20  39  66  91 125 161 206 260 321 369
#     4  11  23  41  67  94 124 165 207 259 317 376
#     4  10  22  37  60  85 123 161 208 252 306 361
#     4  12  22  42  62  88 126 170 210 254 308 366
#     4  10  19  37  61  90 122 158 196 256 311 369
#     4  10  21  41  66  88 122 167 205 254 316 379
#     4   8  16  32  55  82 111 149 190 237 299 360
#     4  11  23  39  63  92 123 163 207 256 305 368
#
# _framework density 18.574983
#
# number of rings (size 3 to 8) (size 9 to 14) (size 15 to 20)
#    0.000    1.733    4.667    1.600    0.933    2.933 
#    0.000    3.333    0.000    0.000    0.000    0.000 
#    0.000    0.000    0.000    0.000    0.000    0.000 
#
# Total GULP energy -334624.982454 kJ/mol
# GULP energy per Si atom -5577.083041 kJ/mol
# Density = 1.853271 g / cm^3
# Si number density = 18.574983 Si / 1000 Ang^3
#
#
#
# Elastic Constant Matrix: (Units=GPa)
#
#
# Indices 1 2 3 4 5 6 
#
# 1 147.1462 54.6026 39.6731 0.0000 0.0000 0.0000
# 2 54.6026 110.8646 47.9667 0.0000 0.0000 0.0000
# 3 39.6731 47.9667 106.4417 0.0000 0.0000 0.0000
# 4 0.0000 0.0000 0.0000 30.6010 0.0000 0.0000
# 5 0.0000 0.0000 0.0000 0.0000 0.2348 0.0000
# 6 0.0000 0.0000 0.0000 0.0000 0.0000 -12.4720
#
#
#
# Elastic Compliance Matrix: (Units=1/GPa)
#
#
# Indices 1 2 3 4 5 6 
#
# 1 0.008529 -0.003510 -0.001597 0.000000 0.000000 0.000000
# 2 -0.003510 0.012649 -0.004392 0.000000 0.000000 0.000000
# 3 -0.001597 -0.004392 0.011969 0.000000 0.000000 0.000000
# 4 0.000000 0.000000 0.000000 0.032679 0.000000 0.000000
# 5 0.000000 0.000000 0.000000 0.000000 4.259723 0.000000
# 6 0.000000 0.000000 0.000000 0.000000 0.000000 -0.080180
#
#
# Mechanical properties :
#
#
# Convention : Reuss Voigt Hill
#
# Bulk Modulus (GPa) = 70.67460 72.10415 71.38937
# Shear Modulus (GPa) = 1.17121 18.48676 9.82899
#
# Velocity S-wave (km/s) = 0.79492 3.15818 2.30283
# Velocity P-wave (km/s) = 6.24287 7.22502 6.75183
#
# Compressibility (1/GPa) = 0.01414936
#
# Stress axis : x y z
#
# Youngs Moduli (GPa) = 117.24777 79.05932 83.54654
#
# Poissons Ratio (x) = 0.27746 0.13346
# Poissons Ratio (y) = 0.41148 0.36693
# Poissons Ratio (z) = 0.18729 0.34722
#
# Static dielectric constant tensor:
#      x y z
#    x 1.619710 0.000000 0.000000 
#    y 0.000000 1.647320 0.000000 
#    z 0.000000 0.000000 1.679970 
# 
# From -- ./inp_files/28510.got.cif
#   From: 2010.05.17/outbox.cif.g08.bks.cpg/sg53_15_cif.got.tgz:28510.got - 2010.06.03 12:45:16.
