data_PCOD9416798
_publ_section_title
;
Structure prediction by ZEFSAII (Michael W. Deem and Ramdas Pophale) SiO2 
 PCOD9416798
Probable space group: P M N A
;
_chemical_formula_sum "Si O2"
_cell_formula_units_Z 40
_cell_length_a 9.458011
_cell_length_b 12.995983
_cell_length_c 20.219027
_cell_angle_alpha 90.000000
_cell_angle_beta 90.000000
_cell_angle_gamma 90.000000
_cell_volume 2485.244959
_symmetry_space_group_name_H-M "P M N A"
_symmetry_group_IT_number 53
_symmetry_cell_setting 'orthorhombic'
loop_
_space_group_symop_operation_xyz
x,y,z
1/2-x,-y,1/2+z
x,-y,-z
1/2-x,y,1/2-z
-x,-y,-z
1/2+x,y,1/2-z
-x,y,z
1/2+x,-y,1/2+z
loop_
_atom_site_type_symbol
_atom_site_label
_atom_site_fract_x
_atom_site_fract_y
_atom_site_fract_z
Si Si1 0.337456 0.478356 0.420683
Si Si2 0.172024 0.953586 0.570302
Si Si3 0.670166 0.117782 0.818798
Si Si4 0.332519 0.278896 0.056293
Si Si5 0.166053 0.677099 0.400132
O O1 0.334986 0.500000 0.500000
O O2 0.500000 0.470949 0.399896
O O3 0.254043 0.371945 0.411729
O O4 0.258895 0.575872 0.389074
O O5 0.215093 0.834894 0.577372
O O6 0.000000 0.953148 0.567943
O O7 0.220082 0.000000 0.500000
O O8 0.212943 0.028060 0.630000
O O9 0.750000 0.108022 0.750000
O O10 0.500000 0.112190 0.810046
O O11 0.701493 0.227435 0.853199
O O12 0.500000 0.290915 0.069823
O O13 0.315822 0.287170 0.976533
O O14 0.000000 0.652036 0.392273
#
# Coordination Sequence:
#
# PCOD9416798 Si02
#       5
#     8   8   8   8   8
#     4   9  17  27  41  66 100 128 150 187 243 295
#     4   9  15  28  51  75  96 124 167 211 243 279
#     4  10  20  33  50  73 101 131 163 202 249 299
#     4   9  15  26  48  73  94 120 160 206 242 278
#     4   9  16  28  47  69  93 123 161 200 237 284
#
# _framework density 16.094994
#
# number of rings (size 3 to 8) (size 9 to 14) (size 15 to 20)
#    0.000    2.800    2.000    0.600    0.000    3.200 
#    0.000    1.000    0.000    2.400    0.000    2.800 
#    0.000    0.000    0.000    0.000    0.000    0.000 
#
# Total GULP energy -222863.172338 kJ/mol
# GULP energy per Si atom -5571.579308 kJ/mol
# Density = 1.605836 g / cm^3
# Si number density = 16.094994 Si / 1000 Ang^3
#
#
#
# Elastic Constant Matrix: (Units=GPa)
#
#
# Indices 1 2 3 4 5 6 
#
# 1 55.5463 80.0484 43.0395 0.0000 0.0000 0.0000
# 2 80.0484 192.0182 68.5481 0.0000 0.0000 0.0000
# 3 43.0395 68.5481 72.5699 0.0000 0.0000 0.0000
# 4 0.0000 0.0000 0.0000 15.9067 0.0000 0.0000
# 5 0.0000 0.0000 0.0000 0.0000 21.3530 0.0000
# 6 0.0000 0.0000 0.0000 0.0000 0.0000 7.4894
#
#
#
# Elastic Compliance Matrix: (Units=1/GPa)
#
#
# Indices 1 2 3 4 5 6 
#
# 1 0.056095 -0.017363 -0.016868 0.000000 0.000000 0.000000
# 2 -0.017363 0.013232 -0.002201 0.000000 0.000000 0.000000
# 3 -0.016868 -0.002201 0.025862 0.000000 0.000000 0.000000
# 4 0.000000 0.000000 0.000000 0.062867 0.000000 0.000000
# 5 0.000000 0.000000 0.000000 0.000000 0.046832 0.000000
# 6 0.000000 0.000000 0.000000 0.000000 0.000000 0.133523
#
#
# Mechanical properties :
#
#
# Convention : Reuss Voigt Hill
#
# Bulk Modulus (GPa) = 44.79091 78.15627 61.47359
# Shear Modulus (GPa) = 11.94124 17.51638 14.72881
#
# Velocity S-wave (km/s) = 2.72678 3.30254 3.02837
# Velocity P-wave (km/s) = 6.14844 7.95029 7.10670
#
# Compressibility (1/GPa) = 0.02232596
#
# Stress axis : x y z
#
# Youngs Moduli (GPa) = 17.82675 75.57462 38.66604
#
# Poissons Ratio (x) = 1.31224 0.65221
# Poissons Ratio (y) = 0.30953 0.08509
# Poissons Ratio (z) = 0.30070 0.16632
#
# Static dielectric constant tensor:
#      x y z
#    x 1.533790 0.000000 0.000000 
#    y 0.000000 1.540870 0.000000 
#    z 0.000000 0.000000 1.512970 
# 
# From -- ./inp_files/21663.got.cif
#   From: 2010.05.17/outbox.cif.g08.bks.cpg/sg53_11_cif.got.tgz:21663.got - 2010.06.03 12:45:16.
