data_PCOD9416612
_publ_section_title
;
Structure prediction by ZEFSAII (Michael W. Deem and Ramdas Pophale) SiO2 
 PCOD9416612
Probable space group: P M N A
;
_chemical_formula_sum "Si O2"
_cell_formula_units_Z 48
_cell_length_a 19.235722
_cell_length_b 7.799616
_cell_length_c 14.243232
_cell_angle_alpha 90.000000
_cell_angle_beta 90.000000
_cell_angle_gamma 90.000000
_cell_volume 2136.929831
_symmetry_space_group_name_H-M "P M N A"
_symmetry_group_IT_number 53
_symmetry_cell_setting 'orthorhombic'
loop_
_space_group_symop_operation_xyz
x,y,z
1/2-x,-y,1/2+z
x,-y,-z
1/2-x,y,1/2-z
-x,-y,-z
1/2+x,y,1/2-z
-x,y,z
1/2+x,-y,1/2+z
loop_
_atom_site_type_symbol
_atom_site_label
_atom_site_fract_x
_atom_site_fract_y
_atom_site_fract_z
Si Si1 0.330741 0.300627 0.463719
Si Si2 0.078811 0.774857 0.135145
Si Si3 0.816058 0.697131 0.468984
Si Si4 0.922088 0.620820 0.797171
Si Si5 0.419387 0.813263 0.890343
Si Si6 0.677414 0.087210 0.792542
O O1 0.328600 0.500000 0.500000
O O2 0.386455 0.217608 0.533384
O O3 0.253419 0.229239 0.479936
O O4 0.361391 0.295494 0.359400
O O5 0.078392 0.578067 0.173160
O O6 0.127719 0.871097 0.206581
O O7 0.000000 0.836998 0.134693
O O8 0.815883 0.500000 0.500000
O O9 0.888924 0.763674 0.509175
O O10 0.808854 0.747926 0.360150
O O11 0.913541 0.660103 0.687011
O O12 0.000000 0.686273 0.822452
O O13 0.500000 0.865486 0.893292
O O14 0.366035 0.954507 0.853631
O O15 0.750000 0.026089 0.750000
#
# Coordination Sequence:
#
# PCOD9416612 Si02
#       6
#     8   8   8   8   8   8
#     4   9  18  34  59  94 128 159 201 258 314 366
#     4  10  19  37  65  93 124 164 208 262 316 371
#     4  11  24  43  68  95 124 164 215 268 318 369
#     4   9  19  37  63  94 125 162 211 258 311 373
#     4  11  26  45  64  92 129 171 214 261 317 378
#     4  12  25  42  61  93 130 169 210 258 315 384
#
# _framework density 22.462133000000001
#
# number of rings (size 3 to 8) (size 9 to 14) (size 15 to 20)
#    0.000    1.667    1.667    2.500    2.333    4.333 
#    0.000    0.833    0.000    3.000    0.000    0.000 
#    0.000    0.000    0.000    0.000    0.000    0.000 
#
# Total GULP energy -268193.786270 kJ/mol
# GULP energy per Si atom -5587.370547 kJ/mol
# Density = 2.241101 g / cm^3
# Si number density = 22.462133 Si / 1000 Ang^3
#
#
#
# Elastic Constant Matrix: (Units=GPa)
#
#
# Indices 1 2 3 4 5 6 
#
# 1 172.3640 23.0027 29.6723 0.0000 0.0000 0.0000
# 2 23.0027 28.4672 -12.8540 0.0000 0.0000 0.0000
# 3 29.6723 -12.8540 47.7087 0.0000 0.0000 0.0000
# 4 0.0000 0.0000 0.0000 11.2235 0.0000 0.0000
# 5 0.0000 0.0000 0.0000 0.0000 43.7931 0.0000
# 6 0.0000 0.0000 0.0000 0.0000 0.0000 41.8701
#
#
#
# Elastic Compliance Matrix: (Units=1/GPa)
#
#
# Indices 1 2 3 4 5 6 
#
# 1 0.008659 -0.010735 -0.008278 0.000000 0.000000 0.000000
# 2 -0.010735 0.053302 0.021037 0.000000 0.000000 0.000000
# 3 -0.008278 0.021037 0.031777 0.000000 0.000000 0.000000
# 4 0.000000 0.000000 0.000000 0.089099 0.000000 0.000000
# 5 0.000000 0.000000 0.000000 0.000000 0.022835 0.000000
# 6 0.000000 0.000000 0.000000 0.000000 0.000000 0.023883
#
#
# Mechanical properties :
#
#
# Convention : Reuss Voigt Hill
#
# Bulk Modulus (GPa) = 10.22630 36.46468 23.34549
# Shear Modulus (GPa) = 19.37225 33.29193 26.33209
#
# Velocity S-wave (km/s) = 2.93992 3.85403 3.42758
# Velocity P-wave (km/s) = 4.01083 6.00615 5.10688
#
# Compressibility (1/GPa) = 0.09778712
#
# Stress axis : x y z
#
# Youngs Moduli (GPa) = 115.48238 18.76115 31.46932
#
# Poissons Ratio (x) = 0.20140 0.26050
# Poissons Ratio (y) = 1.23969 -0.66203
# Poissons Ratio (z) = 0.95595 -0.39469
#
# Static dielectric constant tensor:
#      x y z
#    x 1.802470 0.000000 0.000000 
#    y 0.000000 1.927860 0.000000 
#    z 0.000000 0.000000 1.829040 
# 
# From -- ./inp_files/23657.got.cif
#   From: 2010.05.17/outbox.cif.g08.bks.cpg/sg53_12_cif.got.tgz:23657.got - 2010.06.03 12:45:16.
