data_PCOD9416936
_publ_section_title
;
Structure prediction by ZEFSAII (Michael W. Deem and Ramdas Pophale) SiO2 
 PCOD9416936
Probable space group: P M N A
;
_chemical_formula_sum "Si O2"
_cell_formula_units_Z 64
_cell_length_a 14.105646
_cell_length_b 17.604818
_cell_length_c 13.574152
_cell_angle_alpha 90.000000
_cell_angle_beta 90.000000
_cell_angle_gamma 90.000000
_cell_volume 3370.832931
_symmetry_space_group_name_H-M "P M N A"
_symmetry_group_IT_number 53
_symmetry_cell_setting 'orthorhombic'
loop_
_space_group_symop_operation_xyz
x,y,z
1/2-x,-y,1/2+z
x,-y,-z
1/2-x,y,1/2-z
-x,-y,-z
1/2+x,y,1/2-z
-x,y,z
1/2+x,-y,1/2+z
loop_
_atom_site_type_symbol
_atom_site_label
_atom_site_fract_x
_atom_site_fract_y
_atom_site_fract_z
Si Si1 0.228545 0.663377 0.137154
Si Si2 0.794258 0.230362 0.028101
Si Si3 0.391350 0.249216 0.140927
Si Si4 0.388470 0.483285 0.687042
Si Si5 0.391484 0.078834 0.205754
Si Si6 0.385467 0.651850 0.678659
Si Si7 0.610912 0.559137 0.084696
Si Si8 0.798937 0.941139 0.912225
O O1 0.250000 0.682435 0.250000
O O2 0.162017 0.588756 0.138998
O O3 0.323649 0.632763 0.085177
O O4 0.188198 0.734514 0.078704
O O5 0.683198 0.236899 0.055292
O O6 0.846684 0.286627 0.103300
O O7 0.819281 0.143290 0.046596
O O8 0.500000 0.259494 0.109312
O O9 0.386704 0.171315 0.205133
O O10 0.362300 0.318741 0.211424
O O11 0.500000 0.479601 0.664735
O O12 0.351525 0.566392 0.657802
O O13 0.377509 0.475807 0.805574
O O14 0.500000 0.058170 0.180655
O O15 0.309901 0.054648 0.128512
O O16 0.362223 0.049563 0.313803
O O17 0.500000 0.650941 0.674086
O O18 0.500000 0.577121 0.071257
O O19 0.638245 0.500000 0.000000
O O20 0.814463 0.000000 0.000000
#
# Coordination Sequence:
#
# PCOD9416936 Si02
#       8
#     8   8   8   8   8   8   8   8
#     4  10  23  38  52  74 108 151 193 230 273 325
#     4  11  22  35  57  82 110 146 186 226 283 335
#     4   9  18  33  56  86 116 138 171 229 290 339
#     4   9  20  37  53  74 108 146 184 230 278 325
#     4   9  18  37  61  87 122 153 180 228 292 340
#     4  10  20  33  54  84 113 140 178 230 283 338
#     4   9  19  34  52  75 103 140 187 232 275 322
#     4  10  21  38  59  92 118 151 190 234 285 347
#
# _framework density 18.986405000000001
#
# number of rings (size 3 to 8) (size 9 to 14) (size 15 to 20)
#    0.000    2.375    1.250    0.375    3.500    3.500 
#    2.250    1.250    0.000    0.000    0.000    0.000 
#    0.000    0.000    0.000    0.000    0.000    0.000 
#
# Total GULP energy -357171.493307 kJ/mol
# GULP energy per Si atom -5580.804583 kJ/mol
# Density = 1.894319 g / cm^3
# Si number density = 18.986405 Si / 1000 Ang^3
#
#
#
# Elastic Constant Matrix: (Units=GPa)
#
#
# Indices 1 2 3 4 5 6 
#
# 1 33.9934 3.7159 -1.0434 0.0000 0.0000 0.0000
# 2 3.7159 78.1941 40.8448 0.0000 0.0000 0.0000
# 3 -1.0434 40.8448 48.6412 0.0000 0.0000 0.0000
# 4 0.0000 0.0000 0.0000 34.8652 0.0000 0.0000
# 5 0.0000 0.0000 0.0000 0.0000 -4.8403 0.0000
# 6 0.0000 0.0000 0.0000 0.0000 0.0000 9.9303
#
#
#
# Elastic Compliance Matrix: (Units=1/GPa)
#
#
# Indices 1 2 3 4 5 6 
#
# 1 0.029859 -0.003124 0.003263 0.000000 0.000000 0.000000
# 2 -0.003124 0.023108 -0.019471 0.000000 0.000000 0.000000
# 3 0.003263 -0.019471 0.036979 0.000000 0.000000 0.000000
# 4 0.000000 0.000000 0.000000 0.028682 0.000000 0.000000
# 5 0.000000 0.000000 0.000000 0.000000 -0.206598 0.000000
# 6 0.000000 0.000000 0.000000 0.000000 0.000000 0.100702
#
#
# Mechanical properties :
#
#
# Convention : Reuss Voigt Hill
#
# Bulk Modulus (GPa) = 19.49948 27.54038 23.51993
# Shear Modulus (GPa) = 73.00496 15.81180 44.40838
#
# Velocity S-wave (km/s) = 6.20763 2.88895 4.84152
# Velocity P-wave (km/s) = 7.85316 5.06605 6.60821
#
# Compressibility (1/GPa) = 0.05128341
#
# Stress axis : x y z
#
# Youngs Moduli (GPa) = 33.49060 43.27526 27.04244
#
# Poissons Ratio (x) = 0.13518 -0.08825
# Poissons Ratio (y) = 0.10461 0.52655
# Poissons Ratio (z) = -0.10930 0.84262
#
# Static dielectric constant tensor:
#      x y z
#    x 1.696340 0.000000 0.000000 
#    y 0.000000 1.644340 0.000000 
#    z 0.000000 0.000000 1.660560 
# 
# From -- ./inp_files/16225.got.cif
#   From: 2010.05.17/outbox.cif.g08.bks.cpg/sg53_9_cif.got.tgz:16225.got - 2010.06.03 12:45:16.
