data_PCOD9416760
_publ_section_title
;
Structure prediction by ZEFSAII (Michael W. Deem and Ramdas Pophale) SiO2 
 PCOD9416760
Probable space group: P M N A
;
_chemical_formula_sum "Si O2"
_cell_formula_units_Z 64
_cell_length_a 8.615219
_cell_length_b 12.702286
_cell_length_c 32.037562
_cell_angle_alpha 90.000000
_cell_angle_beta 90.000000
_cell_angle_gamma 90.000000
_cell_volume 3505.965744
_symmetry_space_group_name_H-M "P M N A"
_symmetry_group_IT_number 53
_symmetry_cell_setting 'orthorhombic'
loop_
_space_group_symop_operation_xyz
x,y,z
1/2-x,-y,1/2+z
x,-y,-z
1/2-x,y,1/2-z
-x,-y,-z
1/2+x,y,1/2-z
-x,y,z
1/2+x,-y,1/2+z
loop_
_atom_site_type_symbol
_atom_site_label
_atom_site_fract_x
_atom_site_fract_y
_atom_site_fract_z
Si Si1 0.185477 0.801345 0.295557
Si Si2 0.311879 0.351900 0.871282
Si Si3 0.678564 0.584308 0.881299
Si Si4 0.685467 0.976026 0.352110
Si Si5 0.685717 0.818391 0.888077
Si Si6 0.671879 0.586010 0.535171
Si Si7 0.677524 0.170365 0.479520
Si Si8 0.312495 0.175338 0.570909
O O1 0.250000 0.777648 0.250000
O O2 0.231956 0.715054 0.330360
O O3 0.249467 0.911723 0.313017
O O4 0.000000 0.804766 0.294342
O O5 0.500000 0.353929 0.874610
O O6 0.254877 0.472274 0.866575
O O7 0.248857 0.287127 0.911329
O O8 0.500000 0.587639 0.867379
O O9 0.746271 0.701720 0.874879
O O10 0.693997 0.574712 0.931248
O O11 0.500000 0.979039 0.350320
O O12 0.730445 0.908981 0.393539
O O13 0.752572 0.091719 0.357855
O O14 0.500000 0.814504 0.887836
O O15 0.738861 0.846738 0.935401
O O16 0.686009 0.500000 0.500000
O O17 0.500000 0.573375 0.555475
O O18 0.674064 0.702638 0.516678
O O19 0.500000 0.130776 0.475133
O O20 0.742070 0.138253 0.524898
O O21 0.500000 0.181901 0.568447
#
# Coordination Sequence:
#
# PCOD9416760 Si02
#       8
#     8   8   8   8   8   8   8   8
#     4  10  20  36  59  85 108 127 151 188 239 297
#     4   9  18  32  51  75 102 130 160 198 246 298
#     4   9  18  31  46  66  94 130 167 201 241 288
#     4  10  20  35  54  75 100 130 167 209 252 298
#     4  10  20  33  48  68  97 136 180 217 251 293
#     4   9  16  25  39  60  87 122 165 211 251 287
#     4   9  17  29  43  62  92 130 172 216 260 299
#     4   9  18  31  48  70  96 129 169 214 261 305
#
# _framework density 18.254598999999999
#
# number of rings (size 3 to 8) (size 9 to 14) (size 15 to 20)
#    0.000    2.625    0.000    1.875    0.000    4.250 
#    0.000    5.000    0.000    0.750    0.000    1.750 
#    0.000    0.000    0.000    0.000    0.000    0.000 
#
# Total GULP energy -356546.603189 kJ/mol
# GULP energy per Si atom -5571.040675 kJ/mol
# Density = 1.821305 g / cm^3
# Si number density = 18.254599 Si / 1000 Ang^3
#
#
#
# Elastic Constant Matrix: (Units=GPa)
#
#
# Indices 1 2 3 4 5 6 
#
# 1 20.1222 13.8052 9.2573 0.0000 0.0000 0.0000
# 2 13.8052 94.3267 17.3878 0.0000 0.0000 0.0000
# 3 9.2573 17.3878 47.9945 0.0000 0.0000 0.0000
# 4 0.0000 0.0000 0.0000 16.4127 0.0000 0.0000
# 5 0.0000 0.0000 0.0000 0.0000 22.3849 0.0000
# 6 0.0000 0.0000 0.0000 0.0000 0.0000 13.8193
#
#
#
# Elastic Compliance Matrix: (Units=1/GPa)
#
#
# Indices 1 2 3 4 5 6 
#
# 1 0.058494 -0.006945 -0.008766 0.000000 0.000000 0.000000
# 2 -0.006945 0.012185 -0.003075 0.000000 0.000000 0.000000
# 3 -0.008766 -0.003075 0.023641 0.000000 0.000000 0.000000
# 4 0.000000 0.000000 0.000000 0.060928 0.000000 0.000000
# 5 0.000000 0.000000 0.000000 0.000000 0.044673 0.000000
# 6 0.000000 0.000000 0.000000 0.000000 0.000000 0.072363
#
#
# Mechanical properties :
#
#
# Convention : Reuss Voigt Hill
#
# Bulk Modulus (GPa) = 17.62209 27.03822 22.33016
# Shear Modulus (GPa) = 15.20812 18.65624 16.93218
#
# Velocity S-wave (km/s) = 2.88950 3.20034 3.04889
# Velocity P-wave (km/s) = 4.56144 5.33855 4.96522
#
# Compressibility (1/GPa) = 0.05674696
#
# Stress axis : x y z
#
# Youngs Moduli (GPa) = 17.09573 82.07024 42.30011
#
# Poissons Ratio (x) = 0.56998 0.37082
# Poissons Ratio (y) = 0.11873 0.13006
# Poissons Ratio (z) = 0.14987 0.25235
#
# Static dielectric constant tensor:
#      x y z
#    x 1.647720 0.000000 0.000000 
#    y 0.000000 1.676310 0.000000 
#    z 0.000000 0.000000 1.613290 
# 
# From -- ./inp_files/38293.got.cif
#   From: 2010.05.17/outbox.cif.g08.bks.cpg/sg53_20_cif.got.tgz:38293.got - 2010.06.03 12:45:16.
