data_PCOD9416415
_publ_section_title
;
Structure prediction by ZEFSAII (Michael W. Deem and Ramdas Pophale) SiO2 
 PCOD9416415
Probable space group: P M N A
;
_chemical_formula_sum "Si O2"
_cell_formula_units_Z 48
_cell_length_a 8.512124
_cell_length_b 14.934384
_cell_length_c 20.998406
_cell_angle_alpha 90.000000
_cell_angle_beta 90.000000
_cell_angle_gamma 90.000000
_cell_volume 2669.387263
_symmetry_space_group_name_H-M "P M N A"
_symmetry_group_IT_number 53
_symmetry_cell_setting 'orthorhombic'
loop_
_space_group_symop_operation_xyz
x,y,z
1/2-x,-y,1/2+z
x,-y,-z
1/2-x,y,1/2-z
-x,-y,-z
1/2+x,y,1/2-z
-x,y,z
1/2+x,-y,1/2+z
loop_
_atom_site_type_symbol
_atom_site_label
_atom_site_fract_x
_atom_site_fract_y
_atom_site_fract_z
Si Si1 0.188498 0.749029 0.373262
Si Si2 0.311679 0.562549 0.319588
Si Si3 0.309649 0.249945 0.482077
Si Si4 0.308590 0.443552 0.437956
Si Si5 0.310341 0.944499 0.562920
Si Si6 0.312161 0.941344 0.180081
O O1 0.255266 0.661643 0.338747
O O2 0.245037 0.749472 0.446249
O O3 0.241811 0.841268 0.340034
O O4 0.000000 0.745685 0.371425
O O5 0.250000 0.538962 0.250000
O O6 0.500000 0.562302 0.319223
O O7 0.256218 0.493669 0.374192
O O8 0.500000 0.250427 0.486278
O O9 0.259600 0.340811 0.446709
O O10 0.262125 0.158458 0.447254
O O11 0.258692 0.500000 0.500000
O O12 0.500000 0.444569 0.437623
O O13 0.500000 0.947877 0.565774
O O14 0.261136 0.000000 0.500000
O O15 0.244647 0.990701 0.625816
O O16 0.250000 0.963663 0.250000
O O17 0.500000 0.941050 0.181158
#
# Coordination Sequence:
#
# PCOD9416415 Si02
#       6
#     8   8   8   8   8   8
#     4  11  22  35  55  86 117 147 182 230 286 334
#     4  11  22  37  57  81 113 148 186 228 278 337
#     4  10  19  35  59  86 114 147 188 230 274 331
#     4   9  17  33  58  83 108 147 188 224 270 326
#     4  10  20  35  59  87 114 148 189 231 277 334
#     4  11  24  39  57  81 115 152 188 232 283 339
#
# _framework density 17.981655
#
# number of rings (size 3 to 8) (size 9 to 14) (size 15 to 20)
#    0.000    1.667    3.333    2.000    0.000    4.333 
#    0.000    3.333    0.000    2.000    0.000    0.000 
#    0.000    0.000    0.000    0.000    0.000    0.000 
#
# Total GULP energy -268120.943756 kJ/mol
# GULP energy per Si atom -5585.852995 kJ/mol
# Density = 1.794073 g / cm^3
# Si number density = 17.981655 Si / 1000 Ang^3
#
#
#
# Elastic Constant Matrix: (Units=GPa)
#
#
# Indices 1 2 3 4 5 6 
#
# 1 22.2968 28.3675 28.6403 0.0000 0.0000 0.0000
# 2 28.3675 164.0672 100.5402 0.0000 0.0000 0.0000
# 3 28.6403 100.5402 186.0210 0.0000 0.0000 0.0000
# 4 0.0000 0.0000 0.0000 14.2299 0.0000 0.0000
# 5 0.0000 0.0000 0.0000 0.0000 32.5267 0.0000
# 6 0.0000 0.0000 0.0000 0.0000 0.0000 18.2775
#
#
#
# Elastic Compliance Matrix: (Units=1/GPa)
#
#
# Indices 1 2 3 4 5 6 
#
# 1 0.061074 -0.007173 -0.005526 0.000000 0.000000 0.000000
# 2 -0.007173 0.009956 -0.004277 0.000000 0.000000 0.000000
# 3 -0.005526 -0.004277 0.008538 0.000000 0.000000 0.000000
# 4 0.000000 0.000000 0.000000 0.070275 0.000000 0.000000
# 5 0.000000 0.000000 0.000000 0.000000 0.030744 0.000000
# 6 0.000000 0.000000 0.000000 0.000000 0.000000 0.054712
#
#
# Mechanical properties :
#
#
# Convention : Reuss Voigt Hill
#
# Bulk Modulus (GPa) = 21.92208 76.38677 49.15443
# Shear Modulus (GPa) = 17.57737 27.32928 22.45333
#
# Velocity S-wave (km/s) = 3.12992 3.90275 3.53750
# Velocity P-wave (km/s) = 5.02789 7.92976 6.63931
#
# Compressibility (1/GPa) = 0.04561611
#
# Stress axis : x y z
#
# Youngs Moduli (GPa) = 16.37347 100.44144 117.12422
#
# Poissons Ratio (x) = 0.72051 0.64724
# Poissons Ratio (y) = 0.11745 0.50089
# Poissons Ratio (z) = 0.09048 0.42955
#
# Static dielectric constant tensor:
#      x y z
#    x 1.613270 0.000000 0.000000 
#    y 0.000000 1.613690 0.000000 
#    z 0.000000 0.000000 1.598990 
# 
# From -- ./inp_files/26181.got.cif
#   From: 2010.05.17/outbox.cif.g08.bks.cpg/sg53_14_cif.got.tgz:26181.got - 2010.06.03 12:45:16.
