data_PCOD9416229
_publ_section_title
;
Structure prediction by ZEFSAII (Michael W. Deem and Ramdas Pophale) SiO2 
 PCOD9416229
Probable space group: P M N A
;
_chemical_formula_sum "Si O2"
_cell_formula_units_Z 64
_cell_length_a 8.712325
_cell_length_b 22.196480
_cell_length_c 17.976950
_cell_angle_alpha 90.000000
_cell_angle_beta 90.000000
_cell_angle_gamma 90.000000
_cell_volume 3476.435580
_symmetry_space_group_name_H-M "P M N A"
_symmetry_group_IT_number 53
_symmetry_cell_setting 'orthorhombic'
loop_
_space_group_symop_operation_xyz
x,y,z
1/2-x,-y,1/2+z
x,-y,-z
1/2-x,y,1/2-z
-x,-y,-z
1/2+x,y,1/2-z
-x,y,z
1/2+x,-y,1/2+z
loop_
_atom_site_type_symbol
_atom_site_label
_atom_site_fract_x
_atom_site_fract_y
_atom_site_fract_z
Si Si1 0.685239 0.691398 0.453908
Si Si2 0.816104 0.104109 0.571186
Si Si3 0.316170 0.214373 0.667301
Si Si4 0.683281 0.373298 0.327042
Si Si5 0.816176 0.255517 0.394708
Si Si6 0.815338 0.118646 0.396656
Si Si7 0.817746 0.000119 0.169925
Si Si8 0.686648 0.566616 0.518741
O O1 0.500000 0.694264 0.462955
O O2 0.724620 0.724403 0.377287
O O3 0.759072 0.728052 0.522246
O O4 0.731735 0.621561 0.464145
O O5 0.747801 0.159366 0.618209
O O6 0.777404 0.109733 0.484035
O O7 0.000000 0.105035 0.577436
O O8 0.752024 0.043135 0.606980
O O9 0.250000 0.212956 0.750000
O O10 0.500000 0.209524 0.670594
O O11 0.750000 0.396456 0.250000
O O12 0.500000 0.372472 0.324425
O O13 0.743279 0.305846 0.342121
O O14 0.731819 0.412248 0.398635
O O15 0.773261 0.187036 0.376054
O O16 0.000000 0.260145 0.392633
O O17 0.732095 0.068046 0.348921
O O18 0.000000 0.111688 0.388709
O O19 0.750000 0.982268 0.250000
O O20 0.000000 0.994257 0.171287
O O21 0.743732 0.500000 0.500000
O O22 0.500000 0.564566 0.517213
#
# Coordination Sequence:
#
# PCOD9416229 Si02
#       8
#     8   8   8   8   8   8   8   8
#     4   9  18  33  54  80 110 144 184 228 272 326
#     4  11  22  40  62  83 110 143 183 228 280 336
#     4  11  22  35  54  81 113 145 185 231 279 332
#     4  10  20  34  54  82 114 150 189 233 280 328
#     4  10  19  34  57  83 110 143 180 222 277 333
#     4  10  22  39  60  85 111 143 180 225 279 336
#     4  12  26  42  59  80 109 146 185 230 280 331
#     4   8  15  31  56  82 108 145 190 230 273 326
#
# _framework density 18.409662000000001
#
# number of rings (size 3 to 8) (size 9 to 14) (size 15 to 20)
#    0.000    1.875    1.250    4.125    0.000    4.500 
#    0.000    0.625    0.000    9.375    0.000    0.000 
#    0.000    0.000    0.000    0.000    0.000    0.000 
#
# Total GULP energy -357443.554647 kJ/mol
# GULP energy per Si atom -5585.055541 kJ/mol
# Density = 1.836776 g / cm^3
# Si number density = 18.409662 Si / 1000 Ang^3
#
#
#
# Elastic Constant Matrix: (Units=GPa)
#
#
# Indices 1 2 3 4 5 6 
#
# 1 40.0928 17.0183 16.5139 0.0000 0.0000 0.0000
# 2 17.0183 102.1096 6.8340 0.0000 0.0000 0.0000
# 3 16.5139 6.8340 46.7651 0.0000 0.0000 0.0000
# 4 0.0000 0.0000 0.0000 12.4448 0.0000 0.0000
# 5 0.0000 0.0000 0.0000 0.0000 26.6549 0.0000
# 6 0.0000 0.0000 0.0000 0.0000 0.0000 -36.5981
#
#
#
# Elastic Compliance Matrix: (Units=1/GPa)
#
#
# Indices 1 2 3 4 5 6 
#
# 1 0.031103 -0.004493 -0.010327 0.000000 0.000000 0.000000
# 2 -0.004493 0.010539 0.000046 0.000000 0.000000 0.000000
# 3 -0.010327 0.000046 0.025023 0.000000 0.000000 0.000000
# 4 0.000000 0.000000 0.000000 0.080355 0.000000 0.000000
# 5 0.000000 0.000000 0.000000 0.000000 0.037516 0.000000
# 6 0.000000 0.000000 0.000000 0.000000 0.000000 -0.027324
#
#
# Mechanical properties :
#
#
# Convention : Reuss Voigt Hill
#
# Bulk Modulus (GPa) = 26.94026 29.96666 28.45346
# Shear Modulus (GPa) = 25.10909 10.40709 17.75809
#
# Velocity S-wave (km/s) = 3.69712 2.38020 3.10918
# Velocity P-wave (km/s) = 5.73502 4.88537 5.32716
#
# Compressibility (1/GPa) = 0.03711917
#
# Stress axis : x y z
#
# Youngs Moduli (GPa) = 32.15172 94.88507 39.96277
#
# Poissons Ratio (x) = 0.42628 0.41268
# Poissons Ratio (y) = 0.14445 -0.00185
# Poissons Ratio (z) = 0.33202 -0.00440
#
# Static dielectric constant tensor:
#      x y z
#    x 1.616940 0.000000 0.000000 
#    y 0.000000 1.637360 0.000000 
#    z 0.000000 0.000000 1.614190 
# 
# From -- ./inp_files/26863.got.cif
#   From: 2010.05.17/outbox.cif.g08.bks.cpg/sg53_14_cif.got.tgz:26863.got - 2010.06.03 12:45:16.
