data_PCOD9416647
_publ_section_title
;
Structure prediction by ZEFSAII (Michael W. Deem and Ramdas Pophale) SiO2 
 PCOD9416647
Probable space group: P M N A
;
_chemical_formula_sum "Si O2"
_cell_formula_units_Z 40
_cell_length_a 16.600041
_cell_length_b 11.868431
_cell_length_c 9.884219
_cell_angle_alpha 90.000000
_cell_angle_beta 90.000000
_cell_angle_gamma 90.000000
_cell_volume 1947.353651
_symmetry_space_group_name_H-M "P M N A"
_symmetry_group_IT_number 53
_symmetry_cell_setting 'orthorhombic'
loop_
_space_group_symop_operation_xyz
x,y,z
1/2-x,-y,1/2+z
x,-y,-z
1/2-x,y,1/2-z
-x,-y,-z
1/2+x,y,1/2-z
-x,y,z
1/2+x,-y,1/2+z
loop_
_atom_site_type_symbol
_atom_site_label
_atom_site_fract_x
_atom_site_fract_y
_atom_site_fract_z
Si Si1 0.132087 0.872874 0.016127
Si Si2 0.152555 0.263313 0.731202
Si Si3 0.833737 0.502868 0.833914
Si Si4 0.825476 0.869390 0.529053
Si Si5 0.589407 0.739816 0.738228
O O1 0.089952 0.793677 0.909562
O O2 0.119015 0.828454 0.166020
O O3 0.228443 0.866707 0.985202
O O4 0.105763 0.000000 0.000000
O O5 0.250000 0.263732 0.750000
O O6 0.126346 0.386775 0.780640
O O7 0.139000 0.218024 0.581178
O O8 0.750000 0.509328 0.750000
O O9 0.880835 0.613026 0.785437
O O10 0.823946 0.500000 0.000000
O O11 0.853103 0.818879 0.671427
O O12 0.849188 0.000000 0.500000
O O13 0.500000 0.741561 0.797549
#
# Coordination Sequence:
#
# PCOD9416647 Si02
#       5
#     8   8   8   8   8
#     4  10  19  38  66  93 118 158 214 267 310 363
#     4   9  19  35  61  93 118 149 204 269 319 353
#     4  11  23  41  68  93 120 163 215 272 313 364
#     4  10  21  40  67  95 123 158 212 267 311 365
#     4  12  26  40  59  91 135 174 203 249 319 388
#
# _framework density 20.540697999999999
#
# number of rings (size 3 to 8) (size 9 to 14) (size 15 to 20)
#    0.000    1.600    2.000    3.000    5.600    4.400 
#    0.000    3.000    0.000    0.000    0.000    0.000 
#    0.000    0.000    0.000    0.000    0.000    0.000 
#
# Total GULP energy -223244.720228 kJ/mol
# GULP energy per Si atom -5581.118006 kJ/mol
# Density = 2.049395 g / cm^3
# Si number density = 20.540698 Si / 1000 Ang^3
#
#
#
# Elastic Constant Matrix: (Units=GPa)
#
#
# Indices 1 2 3 4 5 6 
#
# 1 29.1682 14.9119 1.2162 0.0000 0.0000 0.0000
# 2 14.9119 144.4465 6.8131 0.0000 0.0000 0.0000
# 3 1.2162 6.8131 71.7944 0.0000 0.0000 0.0000
# 4 0.0000 0.0000 0.0000 39.9085 0.0000 0.0000
# 5 0.0000 0.0000 0.0000 0.0000 14.1740 0.0000
# 6 0.0000 0.0000 0.0000 0.0000 0.0000 -11.8885
#
#
#
# Elastic Compliance Matrix: (Units=1/GPa)
#
#
# Indices 1 2 3 4 5 6 
#
# 1 0.036199 -0.003725 -0.000260 0.000000 0.000000 0.000000
# 2 -0.003725 0.007337 -0.000633 0.000000 0.000000 0.000000
# 3 -0.000260 -0.000633 0.013993 0.000000 0.000000 0.000000
# 4 0.000000 0.000000 0.000000 0.025057 0.000000 0.000000
# 5 0.000000 0.000000 0.000000 0.000000 0.070552 0.000000
# 6 0.000000 0.000000 0.000000 0.000000 0.000000 -0.084115
#
#
# Mechanical properties :
#
#
# Convention : Reuss Voigt Hill
#
# Bulk Modulus (GPa) = 20.70644 32.36572 26.53608
# Shear Modulus (GPa) = 52.99002 23.26999 38.13001
#
# Velocity S-wave (km/s) = 5.08464 3.36947 4.31317
# Velocity P-wave (km/s) = 6.67638 5.56137 6.14422
#
# Compressibility (1/GPa) = 0.04829415
#
# Stress axis : x y z
#
# Youngs Moduli (GPa) = 27.62505 136.28867 71.46352
#
# Poissons Ratio (x) = 0.50764 0.01856
# Poissons Ratio (y) = 0.10290 0.04525
# Poissons Ratio (z) = 0.00718 0.08630
#
# Static dielectric constant tensor:
#      x y z
#    x 1.788820 0.000000 0.000000 
#    y 0.000000 1.728820 0.000000 
#    z 0.000000 0.000000 1.693380 
# 
# From -- ./inp_files/9665.got.cif
#   From: 2010.05.17/outbox.cif.g08.bks.cpg/sg53_5_cif.got.tgz:9665.got - 2010.06.03 12:45:16.
