data_PCOD9416306
_publ_section_title
;
Structure prediction by ZEFSAII (Michael W. Deem and Ramdas Pophale) SiO2 
 PCOD9416306
Probable space group: P M N A
;
_chemical_formula_sum "Si O2"
_cell_formula_units_Z 64
_cell_length_a 18.576834
_cell_length_b 8.779457
_cell_length_c 17.902616
_cell_angle_alpha 90.000000
_cell_angle_beta 90.000000
_cell_angle_gamma 90.000000
_cell_volume 2919.818479
_symmetry_space_group_name_H-M "P M N A"
_symmetry_group_IT_number 53
_symmetry_cell_setting 'orthorhombic'
loop_
_space_group_symop_operation_xyz
x,y,z
1/2-x,-y,1/2+z
x,-y,-z
1/2-x,y,1/2-z
-x,-y,-z
1/2+x,y,1/2-z
-x,y,z
1/2+x,-y,1/2+z
loop_
_atom_site_type_symbol
_atom_site_label
_atom_site_fract_x
_atom_site_fract_y
_atom_site_fract_z
Si Si1 0.700899 0.161262 0.085660
Si Si2 0.154318 0.997881 0.921984
Si Si3 0.919013 0.974925 0.353239
Si Si4 0.582103 0.632473 0.207394
Si Si5 0.299221 0.715856 0.322660
Si Si6 0.582313 0.808155 0.706599
Si Si7 0.284641 0.597488 0.675630
Si Si8 0.081543 0.598640 0.574062
O O1 0.651907 0.014017 0.100194
O O2 0.733257 0.263060 0.153276
O O3 0.640689 0.275245 0.054947
O O4 0.777273 0.108577 0.054445
O O5 0.185476 0.146660 0.879462
O O6 0.104511 0.920759 0.859855
O O7 0.112420 0.000000 0.000000
O O8 0.911382 0.092781 0.283020
O O9 0.000000 0.997737 0.385010
O O10 0.915576 0.798942 0.330927
O O11 0.500000 0.599683 0.227644
O O12 0.629304 0.657602 0.280414
O O13 0.602761 0.504890 0.145829
O O14 0.250000 0.768471 0.250000
O O15 0.279774 0.561081 0.370140
O O16 0.500000 0.757451 0.701831
O O17 0.638373 0.670699 0.694966
O O18 0.250000 0.533601 0.750000
O O19 0.076363 0.500000 0.500000
O O20 0.000000 0.657343 0.589866
#
# Coordination Sequence:
#
# PCOD9416306 Si02
#       8
#     8   8   8   8   8   8   8   8
#     4  11  22  36  58  85 123 161 204 256 318 380
#     4  11  26  42  62  91 124 170 221 272 332 391
#     4  10  19  34  60  91 121 156 204 260 314 378
#     4  10  21  37  58  87 116 155 206 255 312 375
#     4  11  22  38  62  88 122 160 208 269 321 378
#     4  10  21  39  63  91 126 164 206 264 331 389
#     4  10  20  35  57  90 123 154 199 260 325 380
#     4  10  22  40  61  89 131 174 211 259 323 398
#
# _framework density 21.919170000000001
#
# number of rings (size 3 to 8) (size 9 to 14) (size 15 to 20)
#    0.000    1.625    2.500    2.625    0.000    3.750 
#    0.000    1.875    0.000    4.500    0.000    0.000 
#    0.000    0.000    0.000    0.000    0.000    0.000 
#
# Total GULP energy -356395.346320 kJ/mol
# GULP energy per Si atom -5568.677286 kJ/mol
# Density = 2.186928 g / cm^3
# Si number density = 21.919170 Si / 1000 Ang^3
#
#
#
# Elastic Constant Matrix: (Units=GPa)
#
#
# Indices 1 2 3 4 5 6 
#
# 1 81.3472 -1.1702 -10.3731 0.0000 0.0000 0.0000
# 2 -1.1702 81.7156 -7.0633 0.0000 0.0000 0.0000
# 3 -10.3731 -7.0633 32.2960 0.0000 0.0000 0.0000
# 4 0.0000 0.0000 0.0000 17.1151 0.0000 0.0000
# 5 0.0000 0.0000 0.0000 0.0000 12.8996 0.0000
# 6 0.0000 0.0000 0.0000 0.0000 0.0000 28.7260
#
#
#
# Elastic Compliance Matrix: (Units=1/GPa)
#
#
# Indices 1 2 3 4 5 6 
#
# 1 0.012842 0.000551 0.004245 0.000000 0.000000 0.000000
# 2 0.000551 0.012497 0.002910 0.000000 0.000000 0.000000
# 3 0.004245 0.002910 0.032964 0.000000 0.000000 0.000000
# 4 0.000000 0.000000 0.000000 0.058428 0.000000 0.000000
# 5 0.000000 0.000000 0.000000 0.000000 0.077522 0.000000
# 6 0.000000 0.000000 0.000000 0.000000 0.000000 0.034812
#
#
# Mechanical properties :
#
#
# Convention : Reuss Voigt Hill
#
# Bulk Modulus (GPa) = 13.56572 17.57175 15.56873
# Shear Modulus (GPa) = 20.98867 26.01248 23.50057
#
# Velocity S-wave (km/s) = 3.09778 3.44865 3.27792
# Velocity P-wave (km/s) = 4.35861 4.88791 4.63083
#
# Compressibility (1/GPa) = 0.07371519
#
# Stress axis : x y z
#
# Youngs Moduli (GPa) = 77.86795 80.01931 30.33651
#
# Poissons Ratio (x) = -0.04408 -0.12879
# Poissons Ratio (y) = -0.04289 -0.08828
# Poissons Ratio (z) = -0.33057 -0.23286
#
# Static dielectric constant tensor:
#      x y z
#    x 1.844900 0.000000 0.000000 
#    y 0.000000 1.896170 0.000000 
#    z 0.000000 0.000000 1.868360 
# 
# From -- ./inp_files/32859.got.cif
#   From: 2010.05.17/outbox.cif.g08.bks.cpg/sg53_17_cif.got.tgz:32859.got - 2010.06.03 12:45:16.
