data_PCOD9416042
_publ_section_title
;
Structure prediction by ZEFSAII (Michael W. Deem and Ramdas Pophale) SiO2 
 PCOD9416042
Probable space group: P M N A
;
_chemical_formula_sum "Si O2"
_cell_formula_units_Z 56
_cell_length_a 8.973902
_cell_length_b 17.089604
_cell_length_c 21.685185
_cell_angle_alpha 90.000000
_cell_angle_beta 90.000000
_cell_angle_gamma 90.000000
_cell_volume 3325.649329
_symmetry_space_group_name_H-M "P M N A"
_symmetry_group_IT_number 53
_symmetry_cell_setting 'orthorhombic'
loop_
_space_group_symop_operation_xyz
x,y,z
1/2-x,-y,1/2+z
x,-y,-z
1/2-x,y,1/2-z
-x,-y,-z
1/2+x,y,1/2-z
-x,y,z
1/2+x,-y,1/2+z
loop_
_atom_site_type_symbol
_atom_site_label
_atom_site_fract_x
_atom_site_fract_y
_atom_site_fract_z
Si Si1 0.820976 0.625886 0.972231
Si Si2 0.320947 0.472748 0.594934
Si Si3 0.322619 0.807563 0.125477
Si Si4 0.679643 0.040245 0.066168
Si Si5 0.321502 0.793784 0.983493
Si Si6 0.675642 0.358857 0.815065
Si Si7 0.321794 0.045661 0.684062
O O1 0.776523 0.561434 0.921256
O O2 0.000000 0.633015 0.970945
O O3 0.781741 0.583248 0.036832
O O4 0.750632 0.711044 0.966911
O O5 0.500000 0.470992 0.600477
O O6 0.245362 0.434784 0.653508
O O7 0.500000 0.824609 0.132197
O O8 0.280902 0.816628 0.053839
O O9 0.297136 0.717784 0.143428
O O10 0.230611 0.865989 0.168158
O O11 0.500000 0.030970 0.073135
O O12 0.759086 0.003101 0.125460
O O13 0.715940 0.132156 0.058954
O O14 0.717853 0.000000 0.000000
O O15 0.500000 0.784356 0.983042
O O16 0.750000 0.344015 0.750000
O O17 0.500000 0.368317 0.808400
O O18 0.250000 0.022881 0.750000
O O19 0.500000 0.040354 0.687406
#
# Coordination Sequence:
#
# PCOD9416042 Si02
#       7
#     8   8   8   8   8   8   8
#     4   9  18  32  52  77 107 139 172 217 266 312
#     4   9  18  33  51  74 105 141 177 214 262 312
#     4  10  20  36  54  79 113 148 184 219 271 328
#     4  10  20  38  60  81 113 150 183 228 282 331
#     4  10  19  33  56  83 112 145 179 222 273 325
#     4  11  22  34  51  75 107 145 183 221 262 318
#     4  12  25  39  58  82 111 148 191 233 277 334
#
# _framework density 16.838816999999999
#
# number of rings (size 3 to 8) (size 9 to 14) (size 15 to 20)
#    0.000    1.857    2.857    3.000    0.000    4.286 
#    0.000    1.429    0.000    0.857    0.000    6.000 
#    0.000    0.000    0.000    0.000    0.000    0.000 
#
# Total GULP energy -312477.857158 kJ/mol
# GULP energy per Si atom -5579.961735 kJ/mol
# Density = 1.680049 g / cm^3
# Si number density = 16.838817 Si / 1000 Ang^3
#
#
#
# Elastic Constant Matrix: (Units=GPa)
#
#
# Indices 1 2 3 4 5 6 
#
# 1 48.8265 44.4553 45.3684 0.0000 0.0000 0.0000
# 2 44.4553 105.3596 38.0922 0.0000 0.0000 0.0000
# 3 45.3684 38.0922 86.0169 0.0000 0.0000 0.0000
# 4 0.0000 0.0000 0.0000 23.9733 0.0000 0.0000
# 5 0.0000 0.0000 0.0000 0.0000 35.6550 0.0000
# 6 0.0000 0.0000 0.0000 0.0000 0.0000 30.6652
#
#
#
# Elastic Compliance Matrix: (Units=1/GPa)
#
#
# Indices 1 2 3 4 5 6 
#
# 1 0.054977 -0.015137 -0.022294 0.000000 0.000000 0.000000
# 2 -0.015137 0.015468 0.001134 0.000000 0.000000 0.000000
# 3 -0.022294 0.001134 0.022882 0.000000 0.000000 0.000000
# 4 0.000000 0.000000 0.000000 0.041713 0.000000 0.000000
# 5 0.000000 0.000000 0.000000 0.000000 0.028047 0.000000
# 6 0.000000 0.000000 0.000000 0.000000 0.000000 0.032610
#
#
# Mechanical properties :
#
#
# Convention : Reuss Voigt Hill
#
# Bulk Modulus (GPa) = 48.23043 55.11498 51.67271
# Shear Modulus (GPa) = 18.16847 25.54450 21.85649
#
# Velocity S-wave (km/s) = 3.28832 3.89910 3.60666
# Velocity P-wave (km/s) = 6.56673 7.28509 6.93522
#
# Compressibility (1/GPa) = 0.02073380
#
# Stress axis : x y z
#
# Youngs Moduli (GPa) = 18.18941 64.64851 43.70245
#
# Poissons Ratio (x) = 0.97857 0.97428
# Poissons Ratio (y) = 0.27533 -0.04954
# Poissons Ratio (z) = 0.40551 -0.07329
#
# Static dielectric constant tensor:
#      x y z
#    x 1.561870 0.000000 0.000000 
#    y 0.000000 1.572240 0.000000 
#    z 0.000000 0.000000 1.561280 
# 
# From -- ./inp_files/30878.got.cif
#   From: 2010.05.17/outbox.cif.g08.bks.cpg/sg53_16_cif.got.tgz:30878.got - 2010.06.03 12:45:16.
