data_PCOD9416580
_publ_section_title
;
Structure prediction by ZEFSAII (Michael W. Deem and Ramdas Pophale) SiO2 
 PCOD9416580
Probable space group: P M N A
;
_chemical_formula_sum "Si O2"
_cell_formula_units_Z 32
_cell_length_a 13.751768
_cell_length_b 7.558858
_cell_length_c 17.470967
_cell_angle_alpha 90.000000
_cell_angle_beta 90.000000
_cell_angle_gamma 90.000000
_cell_volume 1816.066165
_symmetry_space_group_name_H-M "P M N A"
_symmetry_group_IT_number 53
_symmetry_cell_setting 'orthorhombic'
loop_
_space_group_symop_operation_xyz
x,y,z
1/2-x,-y,1/2+z
x,-y,-z
1/2-x,y,1/2-z
-x,-y,-z
1/2+x,y,1/2-z
-x,y,z
1/2+x,-y,1/2+z
loop_
_atom_site_type_symbol
_atom_site_label
_atom_site_fract_x
_atom_site_fract_y
_atom_site_fract_z
Si Si1 0.888030 0.705859 0.022995
Si Si2 0.786311 0.110123 0.429886
Si Si3 0.253206 0.765018 0.340583
Si Si4 0.389903 0.471509 0.091269
O O1 0.812754 0.186588 0.030938
O O2 0.850886 0.724885 0.110429
O O3 0.000000 0.761914 0.014262
O O4 0.880373 0.500000 0.000000
O O5 0.770252 0.965686 0.364800
O O6 0.835549 0.000000 0.500000
O O7 0.844988 0.277082 0.399009
O O8 0.250000 0.746227 0.250000
O O9 0.175578 0.625321 0.373650
O O10 0.500000 0.480506 0.120032
O O11 0.390152 0.500000 0.000000
#
# Coordination Sequence:
#
# PCOD9416580 Si02
#       4
#     8   8   8   8
#     4  10  19  38  65  86 110 151 201 243 286 346
#     4  10  19  37  59  89 111 151 198 241 284 340
#     4  11  23  38  59  86 123 153 190 241 298 350
#     4  11  21  38  62  87 115 152 199 240 283 346
#
# _framework density 17.620502999999999
#
# number of rings (size 3 to 8) (size 9 to 14) (size 15 to 20)
#    0.000    1.500    7.500    0.000    0.000    8.000 
#    0.000    0.000    0.000    0.000    0.000    0.000 
#    0.000    0.000    0.000    0.000    0.000    0.000 
#
# Total GULP energy -178429.404499 kJ/mol
# GULP energy per Si atom -5575.918891 kJ/mol
# Density = 1.758040 g / cm^3
# Si number density = 17.620503 Si / 1000 Ang^3
#
#
#
# Elastic Constant Matrix: (Units=GPa)
#
#
# Indices 1 2 3 4 5 6 
#
# 1 88.0727 47.3541 26.8719 0.0000 0.0000 0.0000
# 2 47.3541 127.4864 29.4337 0.0000 0.0000 0.0000
# 3 26.8719 29.4337 95.9208 0.0000 0.0000 0.0000
# 4 0.0000 0.0000 0.0000 19.7556 0.0000 0.0000
# 5 0.0000 0.0000 0.0000 0.0000 11.6617 0.0000
# 6 0.0000 0.0000 0.0000 0.0000 0.0000 -17.9651
#
#
#
# Elastic Compliance Matrix: (Units=1/GPa)
#
#
# Indices 1 2 3 4 5 6 
#
# 1 0.014786 -0.004882 -0.002644 0.000000 0.000000 0.000000
# 2 -0.004882 0.010054 -0.001717 0.000000 0.000000 0.000000
# 3 -0.002644 -0.001717 0.011693 0.000000 0.000000 0.000000
# 4 0.000000 0.000000 0.000000 0.050619 0.000000 0.000000
# 5 0.000000 0.000000 0.000000 0.000000 0.085750 0.000000
# 6 0.000000 0.000000 0.000000 0.000000 0.000000 -0.055663
#
#
# Mechanical properties :
#
#
# Convention : Reuss Voigt Hill
#
# Bulk Modulus (GPa) = 55.41415 57.64438 56.52926
# Shear Modulus (GPa) = 35.27584 16.54512 25.91048
#
# Velocity S-wave (km/s) = 4.47920 3.06759 3.83884
# Velocity P-wave (km/s) = 7.63334 6.73292 7.19722
#
# Compressibility (1/GPa) = 0.01804593
#
# Stress axis : x y z
#
# Youngs Moduli (GPa) = 67.63275 99.46549 85.52090
#
# Poissons Ratio (x) = 0.48555 0.22614
# Poissons Ratio (y) = 0.33016 0.14688
# Poissons Ratio (z) = 0.17884 0.17083
#
# Static dielectric constant tensor:
#      x y z
#    x 1.623370 0.000000 0.000000 
#    y 0.000000 1.415400 0.000000 
#    z 0.000000 0.000000 1.579470 
# 
# From -- ./inp_files/23246.got.cif
#   From: 2010.05.17/outbox.cif.g08.bks.cpg/sg53_12_cif.got.tgz:23246.got - 2010.06.03 12:45:16.
