data_PCOD9416310
_publ_section_title
;
Structure prediction by ZEFSAII (Michael W. Deem and Ramdas Pophale) SiO2 
 PCOD9416310
Probable space group: P M N A
;
_chemical_formula_sum "Si O2"
_cell_formula_units_Z 32
_cell_length_a 18.704392
_cell_length_b 5.303811
_cell_length_c 16.037840
_cell_angle_alpha 90.000000
_cell_angle_beta 90.000000
_cell_angle_gamma 90.000000
_cell_volume 1591.026861
_symmetry_space_group_name_H-M "P M N A"
_symmetry_group_IT_number 53
_symmetry_cell_setting 'orthorhombic'
loop_
_space_group_symop_operation_xyz
x,y,z
1/2-x,-y,1/2+z
x,-y,-z
1/2-x,y,1/2-z
-x,-y,-z
1/2+x,y,1/2-z
-x,y,z
1/2+x,-y,1/2+z
loop_
_atom_site_type_symbol
_atom_site_label
_atom_site_fract_x
_atom_site_fract_y
_atom_site_fract_z
Si Si1 0.818832 0.244984 0.949232
Si Si2 0.583270 0.629982 0.875729
Si Si3 0.830824 0.390608 0.762032
Si Si4 0.156672 0.133709 0.598383
O O1 0.845399 0.300524 0.855295
O O2 0.733536 0.200719 0.938444
O O3 0.830835 0.500000 0.000000
O O4 0.846240 0.000000 0.000000
O O5 0.500000 0.686068 0.876229
O O6 0.613407 0.580735 0.781572
O O7 0.601196 0.360393 0.917081
O O8 0.627034 0.857329 0.917180
O O9 0.750000 0.496953 0.750000
O O10 0.832457 0.154432 0.698796
#
# Coordination Sequence:
#
# PCOD9416310 Si02
#       4
#     8   8   8   8
#     4  11  22  34  56  85 116 147 179 232 286 328
#     4  10  19  34  61  82 108 143 189 233 275 319
#     4   8  20  35  57  82 108 140 190 234 268 323
#     4   9  20  35  55  80 112 137 192 225 269 324
#
# _framework density 20.112794999999998
#
# number of rings (size 3 to 8) (size 9 to 14) (size 15 to 20)
#    1.500    1.000    0.000    2.250    3.500    1.000 
#    0.000    0.000    0.000   16.500    0.000    0.000 
#    0.000    0.000    0.000    0.000    0.000    0.000 
#
# Total GULP energy -178241.483268 kJ/mol
# GULP energy per Si atom -5570.046352 kJ/mol
# Density = 2.006702 g / cm^3
# Si number density = 20.112795 Si / 1000 Ang^3
#
#
#
# Elastic Constant Matrix: (Units=GPa)
#
#
# Indices 1 2 3 4 5 6 
#
# 1 33.4565 2.7568 -11.1379 0.0000 0.0000 0.0000
# 2 2.7568 124.3549 35.3232 0.0000 0.0000 0.0000
# 3 -11.1379 35.3232 105.0875 0.0000 0.0000 0.0000
# 4 0.0000 0.0000 0.0000 20.9050 0.0000 0.0000
# 5 0.0000 0.0000 0.0000 0.0000 15.5545 0.0000
# 6 0.0000 0.0000 0.0000 0.0000 0.0000 5.7982
#
#
#
# Elastic Compliance Matrix: (Units=1/GPa)
#
#
# Indices 1 2 3 4 5 6 
#
# 1 0.031348 -0.001812 0.003931 0.000000 0.000000 0.000000
# 2 -0.001812 0.008995 -0.003216 0.000000 0.000000 0.000000
# 3 0.003931 -0.003216 0.011013 0.000000 0.000000 0.000000
# 4 0.000000 0.000000 0.000000 0.047836 0.000000 0.000000
# 5 0.000000 0.000000 0.000000 0.000000 0.064290 0.000000
# 6 0.000000 0.000000 0.000000 0.000000 0.000000 0.172468
#
#
# Mechanical properties :
#
#
# Convention : Reuss Voigt Hill
#
# Bulk Modulus (GPa) = 20.33988 35.19812 27.76900
# Shear Modulus (GPa) = 14.10322 24.18199 19.14261
#
# Velocity S-wave (km/s) = 2.65090 3.47121 3.08841
# Velocity P-wave (km/s) = 4.41640 5.79690 5.15309
#
# Compressibility (1/GPa) = 0.04916449
#
# Stress axis : x y z
#
# Youngs Moduli (GPa) = 31.90032 111.17243 90.79860
#
# Poissons Ratio (x) = 0.20141 -0.35696
# Poissons Ratio (y) = 0.05779 0.29196
# Poissons Ratio (z) = -0.12541 0.35748
#
# Static dielectric constant tensor:
#      x y z
#    x 1.667220 0.000000 0.000000 
#    y 0.000000 1.705870 0.000000 
#    z 0.000000 0.000000 1.836710 
# 
# From -- ./inp_files/29156.got.cif
#   From: 2010.05.17/outbox.cif.g08.bks.cpg/sg53_15_cif.got.tgz:29156.got - 2010.06.03 12:45:16.
