data_PCOD9416745
_publ_section_title
;
Structure prediction by ZEFSAII (Michael W. Deem and Ramdas Pophale) SiO2 
 PCOD9416745
Probable space group: P M N A
;
_chemical_formula_sum "Si O2"
_cell_formula_units_Z 48
_cell_length_a 26.978747
_cell_length_b 5.283699
_cell_length_c 16.000631
_cell_angle_alpha 90.000000
_cell_angle_beta 90.000000
_cell_angle_gamma 90.000000
_cell_volume 2280.851204
_symmetry_space_group_name_H-M "P M N A"
_symmetry_group_IT_number 53
_symmetry_cell_setting 'orthorhombic'
loop_
_space_group_symop_operation_xyz
x,y,z
1/2-x,-y,1/2+z
x,-y,-z
1/2-x,y,1/2-z
-x,-y,-z
1/2+x,y,1/2-z
-x,y,z
1/2+x,-y,1/2+z
loop_
_atom_site_type_symbol
_atom_site_label
_atom_site_fract_x
_atom_site_fract_y
_atom_site_fract_z
Si Si1 0.155617 0.642530 0.782676
Si Si2 0.863147 0.747616 0.974611
Si Si3 0.188114 0.144474 0.696302
Si Si4 0.746397 0.751503 0.453034
Si Si5 0.087366 0.879965 0.407941
Si Si6 0.945116 0.379438 0.320207
O O1 0.153027 0.722658 0.879009
O O2 0.177928 0.369102 0.761581
O O3 0.099937 0.619949 0.745635
O O4 0.185955 0.865929 0.736294
O O5 0.892385 0.500000 0.000000
O O6 0.812906 0.749702 0.031825
O O7 0.890498 0.000000 0.000000
O O8 0.235448 0.217060 0.640954
O O9 0.142261 0.142370 0.630933
O O10 0.765381 0.500000 0.500000
O O11 0.765337 0.000000 0.500000
O O12 0.064753 0.601411 0.389354
O O13 0.089618 0.000000 0.500000
O O14 0.058119 0.098112 0.358165
O O15 0.000000 0.423407 0.285283
#
# Coordination Sequence:
#
# PCOD9416745 Si02
#       6
#     8   8   8   8   8   8
#     4  10  21  38  58  79 107 144 181 221 272 329
#     4  10  21  39  58  80 107 140 178 223 279 323
#     4  10  20  35  55  79 108 144 184 220 264 319
#     4  10  20  35  53  77 108 142 179 222 265 310
#     4  10  20  32  51  78 111 147 179 217 265 321
#     4  10  21  35  53  79 108 142 182 225 271 318
#
# _framework density 21.044774
#
# number of rings (size 3 to 8) (size 9 to 14) (size 15 to 20)
#    0.000    2.000    0.000    3.500    0.000    4.667 
#    0.000   20.000    0.000    1.000    0.000    0.000 
#    0.000    0.000    0.000    0.000    0.000    0.000 
#
# Total GULP energy -267908.459796 kJ/mol
# GULP energy per Si atom -5581.426246 kJ/mol
# Density = 2.099687 g / cm^3
# Si number density = 21.044774 Si / 1000 Ang^3
#
#
#
# Elastic Constant Matrix: (Units=GPa)
#
#
# Indices 1 2 3 4 5 6 
#
# 1 89.5988 25.8778 33.7829 0.0000 0.0000 0.0000
# 2 25.8778 170.2495 30.0110 0.0000 0.0000 0.0000
# 3 33.7829 30.0110 93.0372 0.0000 0.0000 0.0000
# 4 0.0000 0.0000 0.0000 35.7144 0.0000 0.0000
# 5 0.0000 0.0000 0.0000 0.0000 -4.7292 0.0000
# 6 0.0000 0.0000 0.0000 0.0000 0.0000 13.2178
#
#
#
# Elastic Compliance Matrix: (Units=1/GPa)
#
#
# Indices 1 2 3 4 5 6 
#
# 1 0.013169 -0.001229 -0.004386 0.000000 0.000000 0.000000
# 2 -0.001229 0.006342 -0.001600 0.000000 0.000000 0.000000
# 3 -0.004386 -0.001600 0.012857 0.000000 0.000000 0.000000
# 4 0.000000 0.000000 0.000000 0.028000 0.000000 0.000000
# 5 0.000000 0.000000 0.000000 0.000000 -0.211454 0.000000
# 6 0.000000 0.000000 0.000000 0.000000 0.000000 0.075656
#
#
# Mechanical properties :
#
#
# Convention : Reuss Voigt Hill
#
# Bulk Modulus (GPa) = 55.73932 59.13654 57.43793
# Shear Modulus (GPa) = -90.87374 26.38819 -32.24277
#
# Velocity S-wave (km/s) = -6.57836 3.54490 -3.91846
# Velocity P-wave (km/s) = 5.58178 6.70197 2.62299
#
# Compressibility (1/GPa) = 0.01794066
#
# Stress axis : x y z
#
# Youngs Moduli (GPa) = 75.93423 157.66692 77.77932
#
# Poissons Ratio (x) = 0.19372 0.34111
# Poissons Ratio (y) = 0.09330 0.12443
# Poissons Ratio (z) = 0.33302 0.25223
#
# Static dielectric constant tensor:
#      x y z
#    x 1.775350 0.000000 0.000000 
#    y 0.000000 1.874730 0.000000 
#    z 0.000000 0.000000 1.738170 
# 
# From -- ./inp_files/24936.got.cif
#   From: 2010.05.17/outbox.cif.g08.bks.cpg/sg53_13_cif.got.tgz:24936.got - 2010.06.03 12:45:16.
