data_PCOD9416076
_publ_section_title
;
Structure prediction by ZEFSAII (Michael W. Deem and Ramdas Pophale) SiO2 
 PCOD9416076
Probable space group: P M N A
;
_chemical_formula_sum "Si O2"
_cell_formula_units_Z 64
_cell_length_a 15.941023
_cell_length_b 12.844197
_cell_length_c 14.719850
_cell_angle_alpha 90.000000
_cell_angle_beta 90.000000
_cell_angle_gamma 90.000000
_cell_volume 3013.883985
_symmetry_space_group_name_H-M "P M N A"
_symmetry_group_IT_number 53
_symmetry_cell_setting 'orthorhombic'
loop_
_space_group_symop_operation_xyz
x,y,z
1/2-x,-y,1/2+z
x,-y,-z
1/2-x,y,1/2-z
-x,-y,-z
1/2+x,y,1/2-z
-x,y,z
1/2+x,-y,1/2+z
loop_
_atom_site_type_symbol
_atom_site_label
_atom_site_fract_x
_atom_site_fract_y
_atom_site_fract_z
Si Si1 0.400675 0.172904 0.722909
Si Si2 0.346949 0.044597 0.222716
Si Si3 0.632445 0.110596 0.020936
Si Si4 0.397577 0.616038 0.180169
Si Si5 0.822760 0.116156 0.970389
Si Si6 0.402056 0.216282 0.359857
Si Si7 0.897559 0.388017 0.282310
Si Si8 0.405269 0.342407 0.016086
O O1 0.500000 0.183185 0.707424
O O2 0.369652 0.278751 0.770147
O O3 0.356635 0.148326 0.627308
O O4 0.384365 0.070782 0.783602
O O5 0.250000 0.035475 0.250000
O O6 0.353595 0.105834 0.128979
O O7 0.393011 0.111936 0.299423
O O8 0.590266 0.218858 0.998191
O O9 0.722424 0.111094 0.971579
O O10 0.591036 0.000000 0.000000
O O11 0.500000 0.621204 0.174956
O O12 0.376531 0.509115 0.231137
O O13 0.366613 0.610712 0.075581
O O14 0.852517 0.195857 0.047752
O O15 0.852586 0.000000 0.000000
O O16 0.500000 0.233837 0.380550
O O17 0.368607 0.309644 0.296139
O O18 0.867240 0.358862 0.384095
O O19 0.000000 0.377216 0.282705
O O20 0.500000 0.383985 0.023264
#
# Coordination Sequence:
#
# PCOD9416076 Si02
#       8
#     8   8   8   8   8   8   8   8
#     4  11  23  38  61  88 116 156 205 253 291 348
#     4  12  21  36  56  81 119 154 186 237 300 351
#     4  11  22  35  53  82 120 158 189 228 300 362
#     4   9  19  36  56  84 116 148 192 246 303 351
#     4  11  22  39  57  81 117 161 196 239 292 356
#     4  11  21  35  60  90 112 144 198 247 283 340
#     4   9  18  34  58  86 115 148 191 244 301 353
#     4  10  19  33  57  85 114 151 195 243 290 356
#
# _framework density 21.235057999999999
#
# number of rings (size 3 to 8) (size 9 to 14) (size 15 to 20)
#    0.000    1.500    3.750    2.625    0.000    2.750 
#    0.000    0.625    0.000   11.250    0.000    0.000 
#    0.000    0.000    0.000    0.000    0.000    0.000 
#
# Total GULP energy -357641.805721 kJ/mol
# GULP energy per Si atom -5588.153214 kJ/mol
# Density = 2.118673 g / cm^3
# Si number density = 21.235058 Si / 1000 Ang^3
#
#
#
# Elastic Constant Matrix: (Units=GPa)
#
#
# Indices 1 2 3 4 5 6 
#
# 1 47.5559 5.0986 19.2158 0.0000 0.0000 0.0000
# 2 5.0986 143.0143 35.7807 0.0000 0.0000 0.0000
# 3 19.2158 35.7807 100.9318 0.0000 0.0000 0.0000
# 4 0.0000 0.0000 0.0000 32.5376 0.0000 0.0000
# 5 0.0000 0.0000 0.0000 0.0000 17.5482 0.0000
# 6 0.0000 0.0000 0.0000 0.0000 0.0000 -17.6788
#
#
#
# Elastic Compliance Matrix: (Units=1/GPa)
#
#
# Indices 1 2 3 4 5 6 
#
# 1 0.022792 0.000300 -0.004445 0.000000 0.000000 0.000000
# 2 0.000300 0.007677 -0.002778 0.000000 0.000000 0.000000
# 3 -0.004445 -0.002778 0.011739 0.000000 0.000000 0.000000
# 4 0.000000 0.000000 0.000000 0.030734 0.000000 0.000000
# 5 0.000000 0.000000 0.000000 0.000000 0.056986 0.000000
# 6 0.000000 0.000000 0.000000 0.000000 0.000000 -0.056565
#
#
# Mechanical properties :
#
#
# Convention : Reuss Voigt Hill
#
# Bulk Modulus (GPa) = 35.26191 45.74357 40.50274
# Shear Modulus (GPa) = 51.72550 21.90854 36.81702
#
# Velocity S-wave (km/s) = 4.94079 3.21552 4.16839
# Velocity P-wave (km/s) = 7.01357 5.94764 6.50248
#
# Compressibility (1/GPa) = 0.02835921
#
# Stress axis : x y z
#
# Youngs Moduli (GPa) = 43.87496 130.26308 85.18600
#
# Poissons Ratio (x) = -0.03903 0.37869
# Poissons Ratio (y) = -0.01315 0.23669
# Poissons Ratio (z) = 0.19505 0.36194
#
# Static dielectric constant tensor:
#      x y z
#    x 1.760210 0.000000 0.000000 
#    y 0.000000 1.776990 0.000000 
#    z 0.000000 0.000000 1.767250 
# 
# From -- ./inp_files/23920.got.cif
#   From: 2010.05.17/outbox.cif.g08.bks.cpg/sg53_12_cif.got.tgz:23920.got - 2010.06.03 12:45:16.
