data_PCOD9416110
_publ_section_title
;
Structure prediction by ZEFSAII (Michael W. Deem and Ramdas Pophale) SiO2 
 PCOD9416110
Probable space group: P M N A
;
_chemical_formula_sum "Si O2"
_cell_formula_units_Z 64
_cell_length_a 17.897544
_cell_length_b 7.677843
_cell_length_c 29.664613
_cell_angle_alpha 90.000000
_cell_angle_beta 90.000000
_cell_angle_gamma 90.000000
_cell_volume 4076.348940
_symmetry_space_group_name_H-M "P M N A"
_symmetry_group_IT_number 53
_symmetry_cell_setting 'orthorhombic'
loop_
_space_group_symop_operation_xyz
x,y,z
1/2-x,-y,1/2+z
x,-y,-z
1/2-x,y,1/2-z
-x,-y,-z
1/2+x,y,1/2-z
-x,y,z
1/2+x,-y,1/2+z
loop_
_atom_site_type_symbol
_atom_site_label
_atom_site_fract_x
_atom_site_fract_y
_atom_site_fract_z
Si Si1 0.707168 0.510006 0.296887
Si Si2 0.084793 0.458602 0.449809
Si Si3 0.672239 0.049598 0.140097
Si Si4 0.849430 0.451486 0.357089
Si Si5 0.915059 0.043384 0.448461
Si Si6 0.920462 0.238955 0.687847
Si Si7 0.697367 0.893540 0.705720
Si Si8 0.414922 0.794798 0.294236
O O1 0.750000 0.561986 0.250000
O O2 0.769639 0.498007 0.335750
O O3 0.678786 0.311693 0.289829
O O4 0.642636 0.645036 0.310075
O O5 0.111359 0.500000 0.500000
O O6 0.138194 0.508791 0.408755
O O7 0.079171 0.251284 0.446841
O O8 0.000000 0.530864 0.444511
O O9 0.638359 0.244046 0.147786
O O10 0.646637 0.997997 0.089389
O O11 0.755496 0.075326 0.159630
O O12 0.639899 0.895953 0.170393
O O13 0.907004 0.567128 0.329340
O O14 0.000000 0.973801 0.439709
O O15 0.894916 0.000000 0.500000
O O16 0.920413 0.241535 0.741126
O O17 0.000000 0.172858 0.670740
O O18 0.750000 0.933553 0.750000
O O19 0.626457 0.019269 0.702919
O O20 0.500000 0.792035 0.312607
#
# Coordination Sequence:
#
# PCOD9416110 Si02
#       8
#     8   8   8   8   8   8   8   8
#     4  10  19  34  52  69  94 129 164 201 245 286
#     4   9  18  31  45  65  96 129 160 196 235 275
#     4  10  20  33  49  67  91 128 168 204 237 280
#     4  10  20  33  49  67  91 128 168 204 237 280
#     4   9  18  31  45  65  96 129 160 196 235 275
#     4  11  21  29  45  69  94 128 168 200 235 284
#     4  10  19  34  52  69  94 129 164 201 245 286
#     4  11  22  34  48  72 102 126 158 206 250 290
#
# _framework density 15.700324999999999
#
# number of rings (size 3 to 8) (size 9 to 14) (size 15 to 20)
#    0.000    2.000    2.500    1.875    1.750    2.000 
#    0.000    2.500    0.000    0.000    0.000    0.000 
#    0.000    1.000    0.500    0.000    0.000    0.000 
#
# Total GULP energy -356301.309140 kJ/mol
# GULP energy per Si atom -5567.207955 kJ/mol
# Density = 1.566459 g / cm^3
# Si number density = 15.700325 Si / 1000 Ang^3
#
#
#
# Elastic Constant Matrix: (Units=GPa)
#
#
# Indices 1 2 3 4 5 6 
#
# 1 49.5453 21.1792 19.0152 0.0000 0.0000 0.0000
# 2 21.1792 44.7025 0.7264 0.0000 0.0000 0.0000
# 3 19.0152 0.7264 81.1012 0.0000 0.0000 0.0000
# 4 0.0000 0.0000 0.0000 20.5812 0.0000 0.0000
# 5 0.0000 0.0000 0.0000 0.0000 23.3958 0.0000
# 6 0.0000 0.0000 0.0000 0.0000 0.0000 8.6902
#
#
#
# Elastic Compliance Matrix: (Units=1/GPa)
#
#
# Indices 1 2 3 4 5 6 
#
# 1 0.028399 -0.013349 -0.006539 0.000000 0.000000 0.000000
# 2 -0.013349 0.028648 0.002873 0.000000 0.000000 0.000000
# 3 -0.006539 0.002873 0.013838 0.000000 0.000000 0.000000
# 4 0.000000 0.000000 0.000000 0.048588 0.000000 0.000000
# 5 0.000000 0.000000 0.000000 0.000000 0.042743 0.000000
# 6 0.000000 0.000000 0.000000 0.000000 0.000000 0.115073
#
#
# Mechanical properties :
#
#
# Convention : Reuss Voigt Hill
#
# Bulk Modulus (GPa) = 27.13290 28.57673 27.85481
# Shear Modulus (GPa) = 15.45103 19.49532 17.47317
#
# Velocity S-wave (km/s) = 3.14047 3.52762 3.33966
# Velocity P-wave (km/s) = 5.51991 5.90195 5.71412
#
# Compressibility (1/GPa) = 0.03685563
#
# Stress axis : x y z
#
# Youngs Moduli (GPa) = 35.21190 34.90659 72.26634
#
# Poissons Ratio (x) = 0.46596 0.47255
# Poissons Ratio (y) = 0.47004 -0.20764
# Poissons Ratio (z) = 0.23025 -0.10029
#
# Static dielectric constant tensor:
#      x y z
#    x 1.548620 0.000000 0.000000 
#    y 0.000000 1.572500 0.000000 
#    z 0.000000 0.000000 1.539340 
# 
# From -- ./inp_files/38955.got.cif
#   From: 2010.05.17/outbox.cif.g08.bks.cpg/sg53_20_cif.got.tgz:38955.got - 2010.06.03 12:45:16.
