data_PCOD9416194
_publ_section_title
;
Structure prediction by ZEFSAII (Michael W. Deem and Ramdas Pophale) SiO2 
 PCOD9416194
Probable space group: P M N A
;
_chemical_formula_sum "Si O2"
_cell_formula_units_Z 40
_cell_length_a 7.687055
_cell_length_b 15.618858
_cell_length_c 13.153768
_cell_angle_alpha 90.000000
_cell_angle_beta 90.000000
_cell_angle_gamma 90.000000
_cell_volume 1579.281117
_symmetry_space_group_name_H-M "P M N A"
_symmetry_group_IT_number 53
_symmetry_cell_setting 'orthorhombic'
loop_
_space_group_symop_operation_xyz
x,y,z
1/2-x,-y,1/2+z
x,-y,-z
1/2-x,y,1/2-z
-x,-y,-z
1/2+x,y,1/2-z
-x,y,z
1/2+x,-y,1/2+z
loop_
_atom_site_type_symbol
_atom_site_label
_atom_site_fract_x
_atom_site_fract_y
_atom_site_fract_z
Si Si1 0.286374 0.204715 0.081031
Si Si2 0.699421 0.610738 0.912854
Si Si3 0.209110 0.837164 0.355295
Si Si4 0.802147 0.020464 0.380144
Si Si5 0.694706 0.576116 0.364706
O O1 0.500000 0.203384 0.083729
O O2 0.231198 0.296902 0.121625
O O3 0.225315 0.115385 0.130490
O O4 0.232500 0.200373 0.962316
O O5 0.500000 0.600943 0.879179
O O6 0.798885 0.527286 0.875693
O O7 0.699662 0.608575 0.036991
O O8 0.250000 0.790884 0.250000
O O9 0.000000 0.844223 0.362974
O O10 0.287939 0.933116 0.346366
O O11 0.000000 0.024873 0.339482
O O12 0.817242 0.000000 0.500000
O O13 0.750000 0.596354 0.250000
O O14 0.500000 0.607261 0.380548
#
# Coordination Sequence:
#
# PCOD9416194 Si02
#       5
#     8   8   8   8   8
#     4   8  15  28  48  71  94 125 163 200 240 293
#     4  10  19  34  56  82 108 134 169 212 262 315
#     4   9  16  27  44  67  95 127 163 201 241 286
#     4   7  11  23  43  63  85 119 159 190 220 267
#     4  11  22  38  57  77 103 136 173 211 258 313
#
# _framework density 25.327978999999999
#
# number of rings (size 3 to 8) (size 9 to 14) (size 15 to 20)
#    0.000    3.000    0.000    6.000    0.000    0.800 
#    0.000    5.000    0.000   10.200    0.000    0.000 
#    0.000    0.000    0.000    0.000    0.000    0.000 
#
# Total GULP energy -223221.177837 kJ/mol
# GULP energy per Si atom -5580.529446 kJ/mol
# Density = 2.527033 g / cm^3
# Si number density = 25.327979 Si / 1000 Ang^3
#
#
#
# Elastic Constant Matrix: (Units=GPa)
#
#
# Indices 1 2 3 4 5 6 
#
# 1 67.2218 -1.4676 -4.4199 0.0000 0.0000 0.0000
# 2 -1.4676 177.4383 -3.3946 0.0000 0.0000 0.0000
# 3 -4.4199 -3.3946 98.3449 0.0000 0.0000 0.0000
# 4 0.0000 0.0000 0.0000 -9.7390 0.0000 0.0000
# 5 0.0000 0.0000 0.0000 0.0000 -5.7175 0.0000
# 6 0.0000 0.0000 0.0000 0.0000 0.0000 -11.4002
#
#
#
# Elastic Compliance Matrix: (Units=1/GPa)
#
#
# Indices 1 2 3 4 5 6 
#
# 1 0.014924 0.000136 0.000675 0.000000 0.000000 0.000000
# 2 0.000136 0.005641 0.000201 0.000000 0.000000 0.000000
# 3 0.000675 0.000201 0.010206 0.000000 0.000000 0.000000
# 4 0.000000 0.000000 0.000000 -0.102680 0.000000 0.000000
# 5 0.000000 0.000000 0.000000 0.000000 -0.174900 0.000000
# 6 0.000000 0.000000 0.000000 0.000000 0.000000 -0.087718
#
#
# Mechanical properties :
#
#
# Convention : Reuss Voigt Hill
#
# Bulk Modulus (GPa) = 30.49243 36.04897 33.27070
# Shear Modulus (GPa) = -15.35523 18.11445 1.37961
#
# Velocity S-wave (km/s) = -2.46490 2.67722 0.73884
# Velocity P-wave (km/s) = 1.99103 4.88061 3.72724
#
# Compressibility (1/GPa) = 0.03279503
#
# Stress axis : x y z
#
# Youngs Moduli (GPa) = 67.00832 177.28192 97.98557
#
# Poissons Ratio (x) = -0.02417 -0.06618
# Poissons Ratio (y) = -0.00914 -0.01968
# Poissons Ratio (z) = -0.04526 -0.03560
#
# Static dielectric constant tensor:
#      x y z
#    x 1.909450 0.000000 0.000000 
#    y 0.000000 2.039030 0.000000 
#    z 0.000000 0.000000 2.040720 
# 
# From -- ./inp_files/20021.got.cif
#   From: 2010.05.17/outbox.cif.g08.bks.cpg/sg53_11_cif.got.tgz:20021.got - 2010.06.03 12:45:16.
