data_PCOD9416219
_publ_section_title
;
Structure prediction by ZEFSAII (Michael W. Deem and Ramdas Pophale) SiO2 
 PCOD9416219
Probable space group: P M N A
;
_chemical_formula_sum "Si O2"
_cell_formula_units_Z 36
_cell_length_a 22.044317
_cell_length_b 16.920022
_cell_length_c 5.074379
_cell_angle_alpha 90.000000
_cell_angle_beta 90.000000
_cell_angle_gamma 90.000000
_cell_volume 1892.694291
_symmetry_space_group_name_H-M "P M N A"
_symmetry_group_IT_number 53
_symmetry_cell_setting 'orthorhombic'
loop_
_space_group_symop_operation_xyz
x,y,z
1/2-x,-y,1/2+z
x,-y,-z
1/2-x,y,1/2-z
-x,-y,-z
1/2+x,y,1/2-z
-x,y,z
1/2+x,-y,1/2+z
loop_
_atom_site_type_symbol
_atom_site_label
_atom_site_fract_x
_atom_site_fract_y
_atom_site_fract_z
Si Si1 0.866191 0.147999 0.550757
Si Si2 0.750000 0.050087 0.750000
Si Si3 0.000000 0.756683 0.837813
Si Si4 0.206868 0.415473 0.002800
Si Si5 0.870603 0.740857 0.952410
Si Si6 0.000000 0.861128 0.342842
O O1 0.807197 0.097646 0.629170
O O2 0.858978 0.190407 0.266703
O O3 0.932588 0.104659 0.586039
O O4 0.868044 0.217779 0.765157
O O5 0.726640 0.000000 0.500000
O O6 0.061285 0.712635 0.897954
O O7 0.000000 0.785568 0.537926
O O8 0.000000 0.833099 0.038114
O O9 0.250000 0.424704 0.250000
O O10 0.170968 0.335095 0.048084
O O11 0.171881 0.500000 0.000000
O O12 0.250000 0.405916 0.750000
#
# Coordination Sequence:
#
# PCOD9416219 Si02
#       6
#     8   4   4   8   8   4
#     4  10  21  36  60  81 107 144 184 225 268 325
#     4  12  26  42  54  82 120 142 170 228 288 328
#     4   8  16  30  51  79 108 132 171 243 266 292
#     4  10  21  34  49  76 116 149 179 227 274 314
#     4  10  19  34  57  82 105 140 192 221 265 323
#     4   8  16  34  54  81 105 134 181 225 264 316
#
# _framework density 19.020505
#
# number of rings (size 3 to 8) (size 9 to 14) (size 15 to 20)
#    0.000    2.222    0.000    2.667    4.667    0.000 
#    0.000    1.667    0.000    0.000    0.000   14.000 
#    0.000    0.000    0.000    0.000    0.000    0.000 
#
# Total GULP energy -200412.776891 kJ/mol
# GULP energy per Si atom -5567.021580 kJ/mol
# Density = 1.897721 g / cm^3
# Si number density = 19.020505 Si / 1000 Ang^3
#
#
#
# Elastic Constant Matrix: (Units=GPa)
#
#
# Indices 1 2 3 4 5 6 
#
# 1 113.2657 40.1372 1.2233 0.0000 0.0000 0.0000
# 2 40.1372 45.1446 5.1757 0.0000 0.0000 0.0000
# 3 1.2233 5.1757 95.7966 0.0000 0.0000 0.0000
# 4 0.0000 0.0000 0.0000 21.5714 0.0000 0.0000
# 5 0.0000 0.0000 0.0000 0.0000 21.6586 0.0000
# 6 0.0000 0.0000 0.0000 0.0000 0.0000 -23.4112
#
#
#
# Elastic Compliance Matrix: (Units=1/GPa)
#
#
# Indices 1 2 3 4 5 6 
#
# 1 0.012910 -0.011530 0.000458 0.000000 0.000000 0.000000
# 2 -0.011530 0.032587 -0.001613 0.000000 0.000000 0.000000
# 3 0.000458 -0.001613 0.010520 0.000000 0.000000 0.000000
# 4 0.000000 0.000000 0.000000 0.046358 0.000000 0.000000
# 5 0.000000 0.000000 0.000000 0.000000 0.046171 0.000000
# 6 0.000000 0.000000 0.000000 0.000000 0.000000 -0.042715
#
#
# Mechanical properties :
#
#
# Convention : Reuss Voigt Hill
#
# Bulk Modulus (GPa) = 32.63065 38.58657 35.60861
# Shear Modulus (GPa) = 35.35619 17.80848 26.58233
#
# Velocity S-wave (km/s) = 4.31611 3.06319 3.74245
# Velocity P-wave (km/s) = 6.48315 5.73077 6.11853
#
# Compressibility (1/GPa) = 0.03064604
#
# Stress axis : x y z
#
# Youngs Moduli (GPa) = 77.46065 30.68669 95.05607
#
# Poissons Ratio (x) = 0.35383 -0.04355
# Poissons Ratio (y) = 0.89315 0.15336
# Poissons Ratio (z) = -0.03549 0.04951
#
# Static dielectric constant tensor:
#      x y z
#    x 1.739590 0.000000 0.000000 
#    y 0.000000 1.644420 0.000000 
#    z 0.000000 0.000000 1.650380 
# 
# From -- ./inp_files/2816.got.cif
#   From: 2010.05.17/outbox.cif.g08.bks.cpg/sg53_2_cif.got.tgz:2816.got - 2010.06.03 12:45:16.
