data_PCOD9416592
_publ_section_title
;
Structure prediction by ZEFSAII (Michael W. Deem and Ramdas Pophale) SiO2 
 PCOD9416592
Probable space group: P M N A
;
_chemical_formula_sum "Si O2"
_cell_formula_units_Z 44
_cell_length_a 23.107756
_cell_length_b 6.871879
_cell_length_c 13.606877
_cell_angle_alpha 90.000000
_cell_angle_beta 90.000000
_cell_angle_gamma 90.000000
_cell_volume 2160.686388
_symmetry_space_group_name_H-M "P M N A"
_symmetry_group_IT_number 53
_symmetry_cell_setting 'orthorhombic'
loop_
_space_group_symop_operation_xyz
x,y,z
1/2-x,-y,1/2+z
x,-y,-z
1/2-x,y,1/2-z
-x,-y,-z
1/2+x,y,1/2-z
-x,y,z
1/2+x,-y,1/2+z
loop_
_atom_site_type_symbol
_atom_site_label
_atom_site_fract_x
_atom_site_fract_y
_atom_site_fract_z
Si Si1 0.318384 0.162910 0.747807
Si Si2 0.370596 0.449830 0.886115
Si Si3 0.000000 0.836562 0.087344
Si Si4 0.500000 0.622475 0.101161
Si Si5 0.500000 0.023400 0.192068
Si Si6 0.387926 0.562124 0.396302
Si Si7 0.114033 0.228223 0.254086
O O1 0.250000 0.145945 0.750000
O O2 0.339663 0.254179 0.851611
O O3 0.342918 0.315826 0.668533
O O4 0.349573 0.960042 0.725739
O O5 0.438013 0.427662 0.852481
O O6 0.348609 0.634798 0.825654
O O7 0.368273 0.500000 0.000000
O O8 0.056302 0.697831 0.083394
O O9 0.000000 0.929964 0.197471
O O10 0.000000 0.000000 0.000000
O O11 0.500000 0.857122 0.108731
O O12 0.500000 0.500000 0.000000
O O13 0.442372 0.150780 0.188538
O O14 0.362200 0.500000 0.500000
O O15 0.403467 0.365165 0.336955
#
# Coordination Sequence:
#
# PCOD9416592 Si02
#       7
#     8   8   4   4   4   8   8
#     4  11  25  44  64  90 123 173 229 268 314 380
#     4  10  22  42  64  93 130 160 209 264 325 387
#     4  12  22  38  70 104 140 165 210 265 340 425
#     4  10  19  37  61  96 132 159 200 260 319 401
#     4  12  18  37  64  91 132 177 197 261 332 388
#     4  11  24  42  66  99 135 169 208 271 333 397
#     4  11  22  39  65  91 129 170 212 260 328 388
#
# _framework density 20.363899
#
# number of rings (size 3 to 8) (size 9 to 14) (size 15 to 20)
#    0.000    1.091    3.636    3.545    0.000    4.364 
#    0.000    3.636    0.000    0.000    0.000    0.000 
#    0.000    0.000    0.000    0.000    0.000    0.000 
#
# Total GULP energy -245663.203173 kJ/mol
# GULP energy per Si atom -5583.254618 kJ/mol
# Density = 2.031755 g / cm^3
# Si number density = 20.363899 Si / 1000 Ang^3
#
#
#
# Elastic Constant Matrix: (Units=GPa)
#
#
# Indices 1 2 3 4 5 6 
#
# 1 109.4156 44.4456 3.5502 0.0000 0.0000 0.0000
# 2 44.4456 153.5677 43.1898 0.0000 0.0000 0.0000
# 3 3.5502 43.1898 85.1386 0.0000 0.0000 0.0000
# 4 0.0000 0.0000 0.0000 36.5600 0.0000 0.0000
# 5 0.0000 0.0000 0.0000 0.0000 10.4474 0.0000
# 6 0.0000 0.0000 0.0000 0.0000 0.0000 -4.0872
#
#
#
# Elastic Compliance Matrix: (Units=1/GPa)
#
#
# Indices 1 2 3 4 5 6 
#
# 1 0.010476 -0.003393 0.001285 0.000000 0.000000 0.000000
# 2 -0.003393 0.008695 -0.004269 0.000000 0.000000 0.000000
# 3 0.001285 -0.004269 0.013858 0.000000 0.000000 0.000000
# 4 0.000000 0.000000 0.000000 0.027352 0.000000 0.000000
# 5 0.000000 0.000000 0.000000 0.000000 0.095717 0.000000
# 6 0.000000 0.000000 0.000000 0.000000 0.000000 -0.244665
#
#
# Mechanical properties :
#
#
# Convention : Reuss Voigt Hill
#
# Bulk Modulus (GPa) = 49.32770 58.94368 54.13569
# Shear Modulus (GPa) = -72.40702 25.71313 -23.34695
#
# Velocity S-wave (km/s) = -5.96940 3.55728 -3.38965
# Velocity P-wave (km/s) = 4.82037 6.77350 3.36484
#
# Compressibility (1/GPa) = 0.02027258
#
# Stress axis : x y z
#
# Youngs Moduli (GPa) = 95.45483 115.01484 72.16218
#
# Poissons Ratio (x) = 0.39028 -0.09269
# Poissons Ratio (y) = 0.32390 0.30807
# Poissons Ratio (z) = -0.12261 0.49101
#
# Static dielectric constant tensor:
#      x y z
#    x 1.703760 0.000000 0.000000 
#    y 0.000000 1.759180 0.000000 
#    z 0.000000 0.000000 1.759670 
# 
# From -- ./inp_files/24865.got.cif
#   From: 2010.05.17/outbox.cif.g08.bks.cpg/sg53_13_cif.got.tgz:24865.got - 2010.06.03 12:45:16.
