data_PCOD9416579
_publ_section_title
;
Structure prediction by ZEFSAII (Michael W. Deem and Ramdas Pophale) SiO2 
 PCOD9416579
Probable space group: P M N A
;
_chemical_formula_sum "Si O2"
_cell_formula_units_Z 40
_cell_length_a 22.317520
_cell_length_b 10.575232
_cell_length_c 7.744160
_cell_angle_alpha 90.000000
_cell_angle_beta 90.000000
_cell_angle_gamma 90.000000
_cell_volume 1827.722060
_symmetry_space_group_name_H-M "P M N A"
_symmetry_group_IT_number 53
_symmetry_cell_setting 'orthorhombic'
loop_
_space_group_symop_operation_xyz
x,y,z
1/2-x,-y,1/2+z
x,-y,-z
1/2-x,y,1/2-z
-x,-y,-z
1/2+x,y,1/2-z
-x,y,z
1/2+x,-y,1/2+z
loop_
_atom_site_type_symbol
_atom_site_label
_atom_site_fract_x
_atom_site_fract_y
_atom_site_fract_z
Si Si1 0.124182 0.208055 0.674239
Si Si2 0.500000 0.620669 0.767818
Si Si3 0.309412 0.000000 0.000000
Si Si4 0.628966 0.669527 0.793766
Si Si5 0.183156 0.435491 0.815534
Si Si6 0.250000 0.807958 0.750000
Si Si7 0.500000 0.672386 0.184447
O O1 0.148238 0.066991 0.643504
O O2 0.127911 0.267377 0.481298
O O3 0.166525 0.289957 0.797381
O O4 0.057363 0.242621 0.730033
O O5 0.563229 0.681347 0.707822
O O6 0.500000 0.468957 0.734147
O O7 0.500000 0.644221 0.976664
O O8 0.268007 0.103712 0.090363
O O9 0.639647 0.519302 0.803785
O O10 0.690193 0.726120 0.712814
O O11 0.250000 0.452098 0.750000
O O12 0.175489 0.500000 0.000000
#
# Coordination Sequence:
#
# PCOD9416579 Si02
#       7
#     8   4   4   8   8   4   4
#     4  10  21  38  59  87 122 162 207 254 310 379
#     4   9  16  30  58  89 120 151 189 247 323 385
#     4  10  24  39  58  85 120 170 216 262 294 364
#     4  10  19  37  59  88 118 156 198 252 319 384
#     4  12  24  35  58  91 124 158 200 266 331 384
#     4  10  22  38  60  82 118 158 218 258 312 370
#     4   9  16  31  60  88 118 157 195 252 310 384
#
# _framework density 21.885164
#
# number of rings (size 3 to 8) (size 9 to 14) (size 15 to 20)
#    0.000    1.800    3.000    1.800    4.200    0.400 
#    0.000    3.000    0.000    0.600    0.000    0.000 
#    0.000    0.000    0.000    0.000    0.000    0.000 
#
# Total GULP energy -223172.635538 kJ/mol
# GULP energy per Si atom -5579.315888 kJ/mol
# Density = 2.183535 g / cm^3
# Si number density = 21.885164 Si / 1000 Ang^3
#
#
#
# Elastic Constant Matrix: (Units=GPa)
#
#
# Indices 1 2 3 4 5 6 
#
# 1 184.4397 52.1876 23.2439 0.0000 0.0000 0.0000
# 2 52.1876 88.3189 15.9793 0.0000 0.0000 0.0000
# 3 23.2439 15.9793 37.7129 0.0000 0.0000 0.0000
# 4 0.0000 0.0000 0.0000 118.9195 0.0000 0.0000
# 5 0.0000 0.0000 0.0000 0.0000 5.3236 0.0000
# 6 0.0000 0.0000 0.0000 0.0000 0.0000 17.6093
#
#
#
# Elastic Compliance Matrix: (Units=1/GPa)
#
#
# Indices 1 2 3 4 5 6 
#
# 1 0.006751 -0.003505 -0.002676 0.000000 0.000000 0.000000
# 2 -0.003505 0.014082 -0.003807 0.000000 0.000000 0.000000
# 3 -0.002676 -0.003807 0.029778 0.000000 0.000000 0.000000
# 4 0.000000 0.000000 0.000000 0.008409 0.000000 0.000000
# 5 0.000000 0.000000 0.000000 0.000000 0.187844 0.000000
# 6 0.000000 0.000000 0.000000 0.000000 0.000000 0.056788
#
#
# Mechanical properties :
#
#
# Convention : Reuss Voigt Hill
#
# Bulk Modulus (GPa) = 32.64043 54.81036 43.72540
# Shear Modulus (GPa) = 14.97728 42.97452 28.97590
#
# Velocity S-wave (km/s) = 2.61886 4.43610 3.64262
# Velocity P-wave (km/s) = 4.90830 7.16502 6.14121
#
# Compressibility (1/GPa) = 0.03063685
#
# Stress axis : x y z
#
# Youngs Moduli (GPa) = 148.13172 71.01069 33.58164
#
# Poissons Ratio (x) = 0.24889 0.08985
# Poissons Ratio (y) = 0.51919 0.12783
# Poissons Ratio (z) = 0.39635 0.27031
#
# Static dielectric constant tensor:
#      x y z
#    x 1.839200 0.000000 0.000000 
#    y 0.000000 1.807250 0.000000 
#    z 0.000000 0.000000 1.870250 
# 
# From -- ./inp_files/10834.got.cif
#   From: 2010.05.17/outbox.cif.g08.bks.cpg/sg53_6_cif.got.tgz:10834.got - 2010.06.03 12:45:16.
