data_PCOD9416337
_publ_section_title
;
Structure prediction by ZEFSAII (Michael W. Deem and Ramdas Pophale) SiO2 
 PCOD9416337
Probable space group: P M N A
;
_chemical_formula_sum "Si O2"
_cell_formula_units_Z 64
_cell_length_a 8.727355
_cell_length_b 20.787696
_cell_length_c 20.216093
_cell_angle_alpha 90.000000
_cell_angle_beta 90.000000
_cell_angle_gamma 90.000000
_cell_volume 3667.635991
_symmetry_space_group_name_H-M "P M N A"
_symmetry_group_IT_number 53
_symmetry_cell_setting 'orthorhombic'
loop_
_space_group_symop_operation_xyz
x,y,z
1/2-x,-y,1/2+z
x,-y,-z
1/2-x,y,1/2-z
-x,-y,-z
1/2+x,y,1/2-z
-x,y,z
1/2+x,-y,1/2+z
loop_
_atom_site_type_symbol
_atom_site_label
_atom_site_fract_x
_atom_site_fract_y
_atom_site_fract_z
Si Si1 0.682265 0.417445 0.177265
Si Si2 0.313196 0.975390 0.927590
Si Si3 0.814403 0.083212 0.676984
Si Si4 0.815181 0.520415 0.075400
Si Si5 0.683648 0.202942 0.909878
Si Si6 0.683389 0.696903 0.594161
Si Si7 0.815880 0.335365 0.942941
Si Si8 0.815528 0.169621 0.438114
O O1 0.750000 0.427566 0.250000
O O2 0.500000 0.417024 0.180193
O O3 0.739113 0.472931 0.127458
O O4 0.742058 0.350178 0.147160
O O5 0.500000 0.975572 0.928895
O O6 0.266450 0.901588 0.916478
O O7 0.265224 0.025061 0.871114
O O8 0.263563 0.000000 0.000000
O O9 0.750000 0.076287 0.750000
O O10 0.764854 0.150425 0.643306
O O11 0.000000 0.083040 0.678689
O O12 0.767842 0.594851 0.082970
O O13 0.000000 0.515750 0.082467
O O14 0.779349 0.500000 0.000000
O O15 0.500000 0.207464 0.906419
O O16 0.752319 0.273941 0.904351
O O17 0.721086 0.177255 0.983692
O O18 0.500000 0.692804 0.598777
O O19 0.729671 0.672870 0.520216
O O20 0.737882 0.770556 0.598420
O O21 0.000000 0.333335 0.941607
O O22 0.000000 0.174826 0.431529
#
# Coordination Sequence:
#
# PCOD9416337 Si02
#       8
#     8   8   8   8   8   8   8   8
#     4  12  25  40  59  84 114 150 191 233 281 337
#     4   9  15  29  54  79 104 138 184 232 277 322
#     4  10  20  34  52  76 106 144 181 222 276 334
#     4  10  19  37  60  84 116 151 185 226 279 334
#     4   9  17  30  50  76 105 135 177 227 269 315
#     4  10  19  35  55  80 113 147 179 221 277 334
#     4   9  18  32  55  82 110 142 176 219 275 324
#     4   9  16  29  53  82 105 132 179 234 275 318
#
# _framework density 17.449933000000001
#
# number of rings (size 3 to 8) (size 9 to 14) (size 15 to 20)
#    0.000    2.250    2.500    1.500    0.000    1.750 
#    0.000    1.875    0.000    3.750    0.000    0.000 
#    0.000    0.000    0.000    0.000    0.000    0.000 
#
# Total GULP energy -357072.235809 kJ/mol
# GULP energy per Si atom -5579.253685 kJ/mol
# Density = 1.741022 g / cm^3
# Si number density = 17.449933 Si / 1000 Ang^3
#
#
#
# Elastic Constant Matrix: (Units=GPa)
#
#
# Indices 1 2 3 4 5 6 
#
# 1 36.8292 48.2207 40.9233 0.0000 0.0000 0.0000
# 2 48.2207 184.5079 88.0482 0.0000 0.0000 0.0000
# 3 40.9233 88.0482 119.0601 0.0000 0.0000 0.0000
# 4 0.0000 0.0000 0.0000 24.7012 0.0000 0.0000
# 5 0.0000 0.0000 0.0000 0.0000 22.6050 0.0000
# 6 0.0000 0.0000 0.0000 0.0000 0.0000 23.3252
#
#
#
# Elastic Compliance Matrix: (Units=1/GPa)
#
#
# Indices 1 2 3 4 5 6 
#
# 1 0.049845 -0.007497 -0.011589 0.000000 0.000000 0.000000
# 2 -0.007497 0.009503 -0.004451 0.000000 0.000000 0.000000
# 3 -0.011589 -0.004451 0.015674 0.000000 0.000000 0.000000
# 4 0.000000 0.000000 0.000000 0.040484 0.000000 0.000000
# 5 0.000000 0.000000 0.000000 0.000000 0.044238 0.000000
# 6 0.000000 0.000000 0.000000 0.000000 0.000000 0.042872
#
#
# Mechanical properties :
#
#
# Convention : Reuss Voigt Hill
#
# Bulk Modulus (GPa) = 35.77925 77.19796 56.48860
# Shear Modulus (GPa) = 19.30464 25.00660 22.15562
#
# Velocity S-wave (km/s) = 3.32970 3.78967 3.56711
# Velocity P-wave (km/s) = 5.94399 7.96772 7.02906
#
# Compressibility (1/GPa) = 0.02794916
#
# Stress axis : x y z
#
# Youngs Moduli (GPa) = 20.06232 105.22856 63.79957
#
# Poissons Ratio (x) = 0.78886 0.73935
# Poissons Ratio (y) = 0.15040 0.28398
# Poissons Ratio (z) = 0.23250 0.46838
#
# Static dielectric constant tensor:
#      x y z
#    x 1.591280 0.000000 0.000000 
#    y 0.000000 1.600500 0.000000 
#    z 0.000000 0.000000 1.565680 
# 
# From -- ./inp_files/26870.got.cif
#   From: 2010.05.17/outbox.cif.g08.bks.cpg/sg53_14_cif.got.tgz:26870.got - 2010.06.03 12:45:16.
