data_PCOD9416820
_publ_section_title
;
Structure prediction by ZEFSAII (Michael W. Deem and Ramdas Pophale) SiO2 
 PCOD9416820
Probable space group: P M N A
;
_chemical_formula_sum "Si O2"
_cell_formula_units_Z 56
_cell_length_a 8.822917
_cell_length_b 18.981098
_cell_length_c 19.033918
_cell_angle_alpha 90.000000
_cell_angle_beta 90.000000
_cell_angle_gamma 90.000000
_cell_volume 3187.584594
_symmetry_space_group_name_H-M "P M N A"
_symmetry_group_IT_number 53
_symmetry_cell_setting 'orthorhombic'
loop_
_space_group_symop_operation_xyz
x,y,z
1/2-x,-y,1/2+z
x,-y,-z
1/2-x,y,1/2-z
-x,-y,-z
1/2+x,y,1/2-z
-x,y,z
1/2+x,-y,1/2+z
loop_
_atom_site_type_symbol
_atom_site_label
_atom_site_fract_x
_atom_site_fract_y
_atom_site_fract_z
Si Si1 0.181903 0.274713 0.328368
Si Si2 0.325105 0.004858 0.585338
Si Si3 0.180933 0.571466 0.171304
Si Si4 0.320045 0.149722 0.922757
Si Si5 0.317340 0.150605 0.421225
Si Si6 0.819115 0.431093 0.328682
Si Si7 0.318269 0.727753 0.328290
O O1 0.250000 0.270903 0.250000
O O2 0.253871 0.213533 0.374670
O O3 0.215365 0.353402 0.358316
O O4 0.000000 0.267459 0.324962
O O5 0.500000 0.016873 0.605967
O O6 0.227018 0.072287 0.605353
O O7 0.322338 0.000000 0.500000
O O8 0.275286 0.927004 0.608856
O O9 0.250000 0.573544 0.250000
O O10 0.249953 0.501256 0.136676
O O11 0.215830 0.649122 0.141705
O O12 0.000000 0.563897 0.175704
O O13 0.500000 0.155376 0.926346
O O14 0.251441 0.210927 0.874974
O O15 0.249718 0.156166 0.000588
O O16 0.500000 0.152464 0.425108
O O17 0.750000 0.428955 0.250000
O O18 0.000000 0.438746 0.324202
O O19 0.250000 0.731799 0.250000
O O20 0.500000 0.734522 0.324518
#
# Coordination Sequence:
#
# PCOD9416820 Si02
#       7
#     8   8   8   8   8   8   8
#     4  10  20  33  50  75 105 135 167 205 250 297
#     4   8  16  32  52  73  97 127 165 205 244 289
#     4   9  16  26  44  68  94 126 163 202 242 286
#     4  11  21  33  53  78 102 131 166 204 247 296
#     4  10  20  35  55  76 100 132 167 206 249 293
#     4   9  16  26  43  67  96 128 162 201 242 286
#     4  10  20  34  51  74 104 134 166 206 251 296
#
# _framework density 17.568162000000001
#
# number of rings (size 3 to 8) (size 9 to 14) (size 15 to 20)
#    0.000    2.429    0.000    5.143    0.000    6.571 
#    0.000    0.714    0.000    4.286    0.000    6.000 
#    0.000    0.000    0.000    0.000    0.000    0.000 
#
# Total GULP energy -312043.225787 kJ/mol
# GULP energy per Si atom -5572.200460 kJ/mol
# Density = 1.752818 g / cm^3
# Si number density = 17.568162 Si / 1000 Ang^3
#
#
#
# Elastic Constant Matrix: (Units=GPa)
#
#
# Indices 1 2 3 4 5 6 
#
# 1 99.0678 89.1187 26.6590 0.0000 0.0000 0.0000
# 2 89.1187 216.7827 55.6037 0.0000 0.0000 0.0000
# 3 26.6590 55.6037 32.8024 0.0000 0.0000 0.0000
# 4 0.0000 0.0000 0.0000 48.0501 0.0000 0.0000
# 5 0.0000 0.0000 0.0000 0.0000 21.1025 0.0000
# 6 0.0000 0.0000 0.0000 0.0000 0.0000 33.4779
#
#
#
# Elastic Compliance Matrix: (Units=1/GPa)
#
#
# Indices 1 2 3 4 5 6 
#
# 1 0.016220 -0.005815 -0.003325 0.000000 0.000000 0.000000
# 2 -0.005815 0.010246 -0.012642 0.000000 0.000000 0.000000
# 3 -0.003325 -0.012642 0.054618 0.000000 0.000000 0.000000
# 4 0.000000 0.000000 0.000000 0.020812 0.000000 0.000000
# 5 0.000000 0.000000 0.000000 0.000000 0.047388 0.000000
# 6 0.000000 0.000000 0.000000 0.000000 0.000000 0.029870
#
#
# Mechanical properties :
#
#
# Convention : Reuss Voigt Hill
#
# Bulk Modulus (GPa) = 26.65293 76.82398 51.73846
# Shear Modulus (GPa) = 21.25619 32.34419 26.80019
#
# Velocity S-wave (km/s) = 3.48217 4.29542 3.91000
# Velocity P-wave (km/s) = 5.60102 8.27193 7.06386
#
# Compressibility (1/GPa) = 0.03751933
#
# Stress axis : x y z
#
# Youngs Moduli (GPa) = 61.65232 97.59685 18.30897
#
# Poissons Ratio (x) = 0.56754 0.06088
# Poissons Ratio (y) = 0.35852 0.23147
# Poissons Ratio (z) = 0.20499 1.23386
#
# Static dielectric constant tensor:
#      x y z
#    x 1.582910 0.000000 0.000000 
#    y 0.000000 1.662640 0.000000 
#    z 0.000000 0.000000 1.568850 
# 
# From -- ./inp_files/31039.got.cif
#   From: 2010.05.17/outbox.cif.g08.bks.cpg/sg53_16_cif.got.tgz:31039.got - 2010.06.03 12:45:16.
