data_PCOD9416288
_publ_section_title
;
Structure prediction by ZEFSAII (Michael W. Deem and Ramdas Pophale) SiO2 
 PCOD9416288
Probable space group: P M N A
;
_chemical_formula_sum "Si O2"
_cell_formula_units_Z 32
_cell_length_a 12.081948
_cell_length_b 8.669913
_cell_length_c 17.310543
_cell_angle_alpha 90.000000
_cell_angle_beta 90.000000
_cell_angle_gamma 90.000000
_cell_volume 1813.269651
_symmetry_space_group_name_H-M "P M N A"
_symmetry_group_IT_number 53
_symmetry_cell_setting 'orthorhombic'
loop_
_space_group_symop_operation_xyz
x,y,z
1/2-x,-y,1/2+z
x,-y,-z
1/2-x,y,1/2-z
-x,-y,-z
1/2+x,y,1/2-z
-x,y,z
1/2+x,-y,1/2+z
loop_
_atom_site_type_symbol
_atom_site_label
_atom_site_fract_x
_atom_site_fract_y
_atom_site_fract_z
Si Si1 0.707753 0.103765 0.926312
Si Si2 0.768499 0.199953 0.339839
Si Si3 0.500000 0.692442 0.083339
Si Si4 0.131192 0.322066 0.020489
Si Si5 0.000000 0.337965 0.397032
O O1 0.609274 0.211444 0.897191
O O2 0.742168 0.980137 0.862434
O O3 0.805130 0.209883 0.960869
O O4 0.668513 0.000000 0.000000
O O5 0.750000 0.226447 0.250000
O O6 0.681860 0.286454 0.395525
O O7 0.890224 0.258638 0.364117
O O8 0.500000 0.521433 0.118049
O O9 0.500000 0.678189 0.989908
O O10 0.000000 0.295241 0.018571
O O11 0.153821 0.500000 0.000000
#
# Coordination Sequence:
#
# PCOD9416288 Si02
#       5
#     8   8   4   8   4
#     4  10  19  34  59  87 112 148 186 238 275 339
#     4  11  24  38  58  85 121 152 187 233 294 343
#     4  11  18  35  64  91 108 137 200 241 281 330
#     4  10  21  39  62  85 111 153 200 236 277 337
#     4  11  21  36  63  88 112 149 186 239 289 338
#
# _framework density 17.647679
#
# number of rings (size 3 to 8) (size 9 to 14) (size 15 to 20)
#    0.000    1.500    5.000    2.625    1.750    4.500 
#    0.000    5.000    0.000    0.000    0.000    0.000 
#    0.000    0.000    0.000    0.000    0.000    0.000 
#
# Total GULP energy -178667.965963 kJ/mol
# GULP energy per Si atom -5583.373936 kJ/mol
# Density = 1.760751 g / cm^3
# Si number density = 17.647679 Si / 1000 Ang^3
#
#
#
# Elastic Constant Matrix: (Units=GPa)
#
#
# Indices 1 2 3 4 5 6 
#
# 1 107.2579 81.3451 54.0392 0.0000 0.0000 0.0000
# 2 81.3451 137.0449 52.0104 0.0000 0.0000 0.0000
# 3 54.0392 52.0104 94.7599 0.0000 0.0000 0.0000
# 4 0.0000 0.0000 0.0000 12.3502 0.0000 0.0000
# 5 0.0000 0.0000 0.0000 0.0000 1.0144 0.0000
# 6 0.0000 0.0000 0.0000 0.0000 0.0000 59.9198
#
#
#
# Elastic Compliance Matrix: (Units=1/GPa)
#
#
# Indices 1 2 3 4 5 6 
#
# 1 0.019298 -0.009193 -0.005959 0.000000 0.000000 0.000000
# 2 -0.009193 0.013596 -0.002220 0.000000 0.000000 0.000000
# 3 -0.005959 -0.002220 0.015170 0.000000 0.000000 0.000000
# 4 0.000000 0.000000 0.000000 0.080970 0.000000 0.000000
# 5 0.000000 0.000000 0.000000 0.000000 0.985814 0.000000
# 6 0.000000 0.000000 0.000000 0.000000 0.000000 0.016689
#
#
# Mechanical properties :
#
#
# Convention : Reuss Voigt Hill
#
# Bulk Modulus (GPa) = 75.07878 79.31689 77.19784
# Shear Modulus (GPa) = 4.27088 24.76807 14.51947
#
# Velocity S-wave (km/s) = 1.55735 3.75036 2.87146
# Velocity P-wave (km/s) = 6.77269 7.98723 7.40490
#
# Compressibility (1/GPa) = 0.01331934
#
# Stress axis : x y z
#
# Youngs Moduli (GPa) = 51.81978 73.55184 65.91995
#
# Poissons Ratio (x) = 0.67614 0.39284
# Poissons Ratio (y) = 0.47637 0.14634
# Poissons Ratio (z) = 0.30881 0.16328
#
# Static dielectric constant tensor:
#      x y z
#    x 1.590140 0.000000 0.000000 
#    y 0.000000 1.614510 0.000000 
#    z 0.000000 0.000000 1.577620 
# 
# From -- ./inp_files/21487.got.cif
#   From: 2010.05.17/outbox.cif.g08.bks.cpg/sg53_11_cif.got.tgz:21487.got - 2010.06.03 12:45:16.
