data_PCOD9416923
_publ_section_title
;
Structure prediction by ZEFSAII (Michael W. Deem and Ramdas Pophale) SiO2 
 PCOD9416923
Probable space group: P M N A
;
_chemical_formula_sum "Si O2"
_cell_formula_units_Z 64
_cell_length_a 8.444858
_cell_length_b 13.082178
_cell_length_c 28.680553
_cell_angle_alpha 90.000000
_cell_angle_beta 90.000000
_cell_angle_gamma 90.000000
_cell_volume 3168.545341
_symmetry_space_group_name_H-M "P M N A"
_symmetry_group_IT_number 53
_symmetry_cell_setting 'orthorhombic'
loop_
_space_group_symop_operation_xyz
x,y,z
1/2-x,-y,1/2+z
x,-y,-z
1/2-x,y,1/2-z
-x,-y,-z
1/2+x,y,1/2-z
-x,y,z
1/2+x,-y,1/2+z
loop_
_atom_site_type_symbol
_atom_site_label
_atom_site_fract_x
_atom_site_fract_y
_atom_site_fract_z
Si Si1 0.311937 0.806397 0.698652
Si Si2 0.310528 0.258162 0.558844
Si Si3 0.190932 0.029937 0.550877
Si Si4 0.689924 0.246347 0.842594
Si Si5 0.189632 0.628745 0.631335
Si Si6 0.191055 0.396064 0.026253
Si Si7 0.308178 0.009180 0.846777
Si Si8 0.808940 0.450604 0.700388
O O1 0.250000 0.777639 0.750000
O O2 0.500000 0.802408 0.698781
O O3 0.249226 0.728197 0.659342
O O4 0.257292 0.922055 0.686741
O O5 0.500000 0.265411 0.562241
O O6 0.249932 0.143832 0.556942
O O7 0.236351 0.294640 0.607310
O O8 0.259877 0.310689 0.511027
O O9 0.238218 0.978150 0.599825
O O10 0.000000 0.025532 0.549605
O O11 0.252146 0.000000 0.500000
O O12 0.500000 0.240146 0.840458
O O13 0.745611 0.127707 0.837888
O O14 0.746883 0.333385 0.807102
O O15 0.243794 0.621113 0.577790
O O16 0.244071 0.528185 0.659944
O O17 0.000000 0.631227 0.631970
O O18 0.000000 0.396841 0.029813
O O19 0.239577 0.500000 0.000000
O O20 0.500000 0.008962 0.844134
O O21 0.750000 0.489209 0.750000
O O22 0.000000 0.449464 0.699915
#
# Coordination Sequence:
#
# PCOD9416923 Si02
#       8
#     8   8   8   8   8   8   8   8
#     4  12  26  44  65  88 121 162 208 259 312 363
#     4  10  20  33  53  83 115 151 193 236 284 337
#     4   9  19  35  56  82 114 155 193 233 288 346
#     4   9  19  38  61  87 121 156 193 240 294 356
#     4  11  24  41  63  90 121 158 205 252 300 362
#     4  10  22  39  58  86 124 162 199 243 298 356
#     4   9  19  37  60  88 122 158 200 245 295 355
#     4  10  22  39  61  89 116 147 190 241 297 356
#
# _framework density 20.198543999999998
#
# number of rings (size 3 to 8) (size 9 to 14) (size 15 to 20)
#    0.000    2.000    0.000    3.750    1.750    6.500 
#    0.000    1.250    0.000    0.000    0.000    0.000 
#    0.000    0.000    0.000    0.000    0.000    0.000 
#
# Total GULP energy -356946.991640 kJ/mol
# GULP energy per Si atom -5577.296744 kJ/mol
# Density = 2.015257 g / cm^3
# Si number density = 20.198544 Si / 1000 Ang^3
#
#
#
# Elastic Constant Matrix: (Units=GPa)
#
#
# Indices 1 2 3 4 5 6 
#
# 1 15.7439 20.5096 9.9707 0.0000 0.0000 0.0000
# 2 20.5096 88.8193 52.2031 0.0000 0.0000 0.0000
# 3 9.9707 52.2031 125.3468 0.0000 0.0000 0.0000
# 4 0.0000 0.0000 0.0000 36.1814 0.0000 0.0000
# 5 0.0000 0.0000 0.0000 0.0000 31.5726 0.0000
# 6 0.0000 0.0000 0.0000 0.0000 0.0000 13.2640
#
#
#
# Elastic Compliance Matrix: (Units=1/GPa)
#
#
# Indices 1 2 3 4 5 6 
#
# 1 0.091224 -0.022245 0.002008 0.000000 0.000000 0.000000
# 2 -0.022245 0.020332 -0.006698 0.000000 0.000000 0.000000
# 3 0.002008 -0.006698 0.010608 0.000000 0.000000 0.000000
# 4 0.000000 0.000000 0.000000 0.027638 0.000000 0.000000
# 5 0.000000 0.000000 0.000000 0.000000 0.031673 0.000000
# 6 0.000000 0.000000 0.000000 0.000000 0.000000 0.075392
#
#
# Mechanical properties :
#
#
# Convention : Reuss Voigt Hill
#
# Bulk Modulus (GPa) = 14.64275 43.91963 29.28119
# Shear Modulus (GPa) = 14.99241 26.01872 20.50556
#
# Velocity S-wave (km/s) = 2.72739 3.59297 3.18968
# Velocity P-wave (km/s) = 4.14528 6.24530 5.30033
#
# Compressibility (1/GPa) = 0.06829318
#
# Stress axis : x y z
#
# Youngs Moduli (GPa) = 10.96208 49.18266 94.27025
#
# Poissons Ratio (x) = 1.09406 -0.18929
# Poissons Ratio (y) = 0.24385 0.63145
# Poissons Ratio (z) = -0.02201 0.32944
#
# Static dielectric constant tensor:
#      x y z
#    x 1.681450 0.000000 0.000000 
#    y 0.000000 1.777870 0.000000 
#    z 0.000000 0.000000 1.785290 
# 
# From -- ./inp_files/34150.got.cif
#   From: 2010.05.17/outbox.cif.g08.bks.cpg/sg53_18_cif.got.tgz:34150.got - 2010.06.03 12:45:16.
