data_PCOD9416291
_publ_section_title
;
Structure prediction by ZEFSAII (Michael W. Deem and Ramdas Pophale) SiO2 
 PCOD9416291
Probable space group: P M N A
;
_chemical_formula_sum "Si O2"
_cell_formula_units_Z 64
_cell_length_a 8.988804
_cell_length_b 23.991364
_cell_length_c 15.079796
_cell_angle_alpha 90.000000
_cell_angle_beta 90.000000
_cell_angle_gamma 90.000000
_cell_volume 3252.013330
_symmetry_space_group_name_H-M "P M N A"
_symmetry_group_IT_number 53
_symmetry_cell_setting 'orthorhombic'
loop_
_space_group_symop_operation_xyz
x,y,z
1/2-x,-y,1/2+z
x,-y,-z
1/2-x,y,1/2-z
-x,-y,-z
1/2+x,y,1/2-z
-x,y,z
1/2+x,-y,1/2+z
loop_
_atom_site_type_symbol
_atom_site_label
_atom_site_fract_x
_atom_site_fract_y
_atom_site_fract_z
Si Si1 0.675573 0.094145 0.655442
Si Si2 0.832460 0.740686 0.337397
Si Si3 0.175264 0.038686 0.155477
Si Si4 0.323785 0.434302 0.486537
Si Si5 0.320414 0.354793 0.152701
Si Si6 0.822325 0.874585 0.524670
Si Si7 0.819746 0.751794 0.535974
Si Si8 0.168428 0.606863 0.337569
O O1 0.750000 0.105984 0.750000
O O2 0.500000 0.106794 0.656783
O O3 0.757442 0.123899 0.574492
O O4 0.692862 0.027438 0.639323
O O5 0.750000 0.761884 0.250000
O O6 0.762665 0.748478 0.434634
O O7 0.841898 0.673657 0.328421
O O8 0.000000 0.763866 0.338181
O O9 0.250000 0.051162 0.250000
O O10 0.251069 0.075698 0.080443
O O11 0.000000 0.050627 0.158689
O O12 0.298735 0.500000 0.500000
O O13 0.500000 0.424667 0.476444
O O14 0.238018 0.407207 0.403984
O O15 0.261699 0.405822 0.575220
O O16 0.250000 0.354358 0.250000
O O17 0.500000 0.355680 0.157585
O O18 0.272274 0.299077 0.098102
O O19 0.786509 0.814313 0.567669
O O20 0.000000 0.880598 0.521395
O O21 0.000000 0.746491 0.529624
O O22 0.250000 0.584637 0.250000
O O23 0.000000 0.585174 0.345626
#
# Coordination Sequence:
#
# PCOD9416291 Si02
#       8
#     8   8   8   8   8   8   8   8
#     4  10  21  38  59  84 117 157 199 247 301 359
#     4   9  17  33  55  81 110 144 183 226 279 338
#     4  10  21  38  59  83 114 152 199 251 302 357
#     4  11  24  41  62  91 124 156 196 245 295 351
#     4  11  23  44  68  90 120 160 205 249 297 352
#     4  11  22  36  58  87 121 157 195 245 300 356
#     4   9  20  39  59  83 119 158 197 243 294 349
#     4  10  19  34  59  87 117 152 188 233 284 342
#
# _framework density 19.680115000000001
#
# number of rings (size 3 to 8) (size 9 to 14) (size 15 to 20)
#    0.000    1.875    1.250    2.625    0.000    6.000 
#    0.000    6.250    0.000    0.000    0.000    0.000 
#    0.000    0.000    0.000    0.000    0.000    0.000 
#
# Total GULP energy -357449.035602 kJ/mol
# GULP energy per Si atom -5585.141181 kJ/mol
# Density = 1.963532 g / cm^3
# Si number density = 19.680115 Si / 1000 Ang^3
#
#
#
# Elastic Constant Matrix: (Units=GPa)
#
#
# Indices 1 2 3 4 5 6 
#
# 1 94.1612 60.1721 54.2740 0.0000 0.0000 0.0000
# 2 60.1721 79.4031 51.8438 0.0000 0.0000 0.0000
# 3 54.2740 51.8438 139.9615 0.0000 0.0000 0.0000
# 4 0.0000 0.0000 0.0000 -5.9917 0.0000 0.0000
# 5 0.0000 0.0000 0.0000 0.0000 36.8399 0.0000
# 6 0.0000 0.0000 0.0000 0.0000 0.0000 15.2758
#
#
#
# Elastic Compliance Matrix: (Units=1/GPa)
#
#
# Indices 1 2 3 4 5 6 
#
# 1 0.021530 -0.014330 -0.003041 0.000000 0.000000 0.000000
# 2 -0.014330 0.026150 -0.004129 0.000000 0.000000 0.000000
# 3 -0.003041 -0.004129 0.009853 0.000000 0.000000 0.000000
# 4 0.000000 0.000000 0.000000 -0.166898 0.000000 0.000000
# 5 0.000000 0.000000 0.000000 0.000000 0.027144 0.000000
# 6 0.000000 0.000000 0.000000 0.000000 0.000000 0.065463
#
#
# Mechanical properties :
#
#
# Convention : Reuss Voigt Hill
#
# Bulk Modulus (GPa) = 68.81042 71.78949 70.29996
# Shear Modulus (GPa) = 160.83173 19.04053 89.93613
#
# Velocity S-wave (km/s) = 9.04988 3.11384 6.76744
# Velocity P-wave (km/s) = 12.01003 7.03459 9.84191
#
# Compressibility (1/GPa) = 0.01453268
#
# Stress axis : x y z
#
# Youngs Moduli (GPa) = 46.44586 38.24130 101.48683
#
# Poissons Ratio (x) = 0.54802 0.30860
# Poissons Ratio (y) = 0.66559 0.41906
# Poissons Ratio (z) = 0.14123 0.15791
#
# Static dielectric constant tensor:
#      x y z
#    x 1.675400 0.000000 0.000000 
#    y 0.000000 1.708430 0.000000 
#    z 0.000000 0.000000 1.672180 
# 
# From -- ./inp_files/20915.got.cif
#   From: 2010.05.17/outbox.cif.g08.bks.cpg/sg53_11_cif.got.tgz:20915.got - 2010.06.03 12:45:16.
