data_PCOD9416606
_publ_section_title
;
Structure prediction by ZEFSAII (Michael W. Deem and Ramdas Pophale) SiO2 
 PCOD9416606
Probable space group: P M N A
;
_chemical_formula_sum "Si O2"
_cell_formula_units_Z 56
_cell_length_a 9.108712
_cell_length_b 20.632812
_cell_length_c 15.643733
_cell_angle_alpha 90.000000
_cell_angle_beta 90.000000
_cell_angle_gamma 90.000000
_cell_volume 2940.057247
_symmetry_space_group_name_H-M "P M N A"
_symmetry_group_IT_number 53
_symmetry_cell_setting 'orthorhombic'
loop_
_space_group_symop_operation_xyz
x,y,z
1/2-x,-y,1/2+z
x,-y,-z
1/2-x,y,1/2-z
-x,-y,-z
1/2+x,y,1/2-z
-x,y,z
1/2+x,-y,1/2+z
loop_
_atom_site_type_symbol
_atom_site_label
_atom_site_fract_x
_atom_site_fract_y
_atom_site_fract_z
Si Si1 0.827632 0.439597 0.338961
Si Si2 0.172942 0.997210 0.102663
Si Si3 0.327599 0.595583 0.161228
Si Si4 0.324760 0.148807 0.661341
Si Si5 0.172510 0.361228 0.010612
Si Si6 0.672771 0.209134 0.482330
Si Si7 0.174360 0.874461 0.662525
O O1 0.750000 0.421256 0.250000
O O2 0.814716 0.517428 0.347961
O O3 0.750471 0.404514 0.417830
O O4 0.000000 0.423483 0.336327
O O5 0.270954 0.052462 0.144665
O O6 0.000000 0.009806 0.120630
O O7 0.210038 0.925829 0.136898
O O8 0.190912 0.000000 0.000000
O O9 0.250000 0.614018 0.250000
O O10 0.500000 0.611715 0.163250
O O11 0.247984 0.626574 0.080392
O O12 0.250000 0.167024 0.750000
O O13 0.500000 0.153445 0.671363
O O14 0.283084 0.191750 0.579357
O O15 0.000000 0.377461 0.005598
O O16 0.186032 0.285445 0.032941
O O17 0.500000 0.190320 0.473465
O O18 0.766879 0.168435 0.415721
O O19 0.250000 0.851769 0.750000
O O20 0.000000 0.871749 0.669374
#
# Coordination Sequence:
#
# PCOD9416606 Si02
#       7
#     8   8   8   8   8   8   8
#     4  10  21  38  61  89 121 156 195 242 296 350
#     4  10  19  37  64  88 117 154 188 237 298 348
#     4  10  21  38  61  89 122 157 196 243 292 349
#     4  10  21  38  61  85 114 151 191 236 289 346
#     4  11  23  38  61  88 118 157 200 245 294 353
#     4  10  23  44  61  81 116 159 201 241 291 347
#     4  12  25  40  62  89 118 153 196 245 296 353
#
# _framework density 19.047249000000001
#
# number of rings (size 3 to 8) (size 9 to 14) (size 15 to 20)
#    0.000    1.571    1.429    3.429    0.000    8.286 
#    0.000    1.429    0.000    0.000    0.000    0.000 
#    0.000    0.000    0.000    0.000    0.000    0.000 
#
# Total GULP energy -313123.823390 kJ/mol
# GULP energy per Si atom -5591.496846 kJ/mol
# Density = 1.900390 g / cm^3
# Si number density = 19.047249 Si / 1000 Ang^3
#
#
#
# Elastic Constant Matrix: (Units=GPa)
#
#
# Indices 1 2 3 4 5 6 
#
# 1 100.6679 25.4016 32.2431 0.0000 0.0000 0.0000
# 2 25.4016 10.3031 -1.7533 0.0000 0.0000 0.0000
# 3 32.2431 -1.7533 75.2781 0.0000 0.0000 0.0000
# 4 0.0000 0.0000 0.0000 -30.6399 0.0000 0.0000
# 5 0.0000 0.0000 0.0000 0.0000 39.7233 0.0000
# 6 0.0000 0.0000 0.0000 0.0000 0.0000 10.6526
#
#
#
# Elastic Compliance Matrix: (Units=1/GPa)
#
#
# Indices 1 2 3 4 5 6 
#
# 1 0.049481 -0.126098 -0.024131 0.000000 0.000000 0.000000
# 2 -0.126098 0.418795 0.063764 0.000000 0.000000 0.000000
# 3 -0.024131 0.063764 0.025105 0.000000 0.000000 0.000000
# 4 0.000000 0.000000 0.000000 -0.032637 0.000000 0.000000
# 5 0.000000 0.000000 0.000000 0.000000 0.025174 0.000000
# 6 0.000000 0.000000 0.000000 0.000000 0.000000 0.093874
#
#
# Mechanical properties :
#
#
# Convention : Reuss Voigt Hill
#
# Bulk Modulus (GPa) = 3.12059 33.11464 18.11761
# Shear Modulus (GPa) = 5.81708 12.63771 9.22740
#
# Velocity S-wave (km/s) = 1.74947 2.57863 2.20340
# Velocity P-wave (km/s) = 2.39223 5.12728 4.00074
#
# Compressibility (1/GPa) = 0.32045225
#
# Stress axis : x y z
#
# Youngs Moduli (GPa) = 20.20984 2.38780 39.83306
#
# Poissons Ratio (x) = 0.30110 0.96119
# Poissons Ratio (y) = 2.54842 -2.53993
# Poissons Ratio (z) = 0.48767 -0.15226
#
# Static dielectric constant tensor:
#      x y z
#    x 1.635260 0.000000 0.000000 
#    y 0.000000 1.645010 0.000000 
#    z 0.000000 0.000000 1.639140 
# 
# From -- ./inp_files/20443.got.cif
#   From: 2010.05.17/outbox.cif.g08.bks.cpg/sg53_11_cif.got.tgz:20443.got - 2010.06.03 12:45:16.
