data_PCOD9416267
_publ_section_title
;
Structure prediction by ZEFSAII (Michael W. Deem and Ramdas Pophale) SiO2 
 PCOD9416267
Probable space group: P M N A
;
_chemical_formula_sum "Si O2"
_cell_formula_units_Z 56
_cell_length_a 8.416143
_cell_length_b 18.177017
_cell_length_c 19.905087
_cell_angle_alpha 90.000000
_cell_angle_beta 90.000000
_cell_angle_gamma 90.000000
_cell_volume 3045.087661
_symmetry_space_group_name_H-M "P M N A"
_symmetry_group_IT_number 53
_symmetry_cell_setting 'orthorhombic'
loop_
_space_group_symop_operation_xyz
x,y,z
1/2-x,-y,1/2+z
x,-y,-z
1/2-x,y,1/2-z
-x,-y,-z
1/2+x,y,1/2-z
-x,y,z
1/2+x,-y,1/2+z
loop_
_atom_site_type_symbol
_atom_site_label
_atom_site_fract_x
_atom_site_fract_y
_atom_site_fract_z
Si Si1 0.189315 0.807890 0.675763
Si Si2 0.310105 0.605767 0.325822
Si Si3 0.191773 0.941198 0.905896
Si Si4 0.807593 0.688092 0.567488
Si Si5 0.193345 0.100790 0.942394
Si Si6 0.307989 0.263836 0.579095
Si Si7 0.308241 0.520929 0.924113
O O1 0.250000 0.792117 0.750000
O O2 0.242214 0.888130 0.650723
O O3 0.248471 0.748252 0.621332
O O4 0.000000 0.804607 0.675923
O O5 0.250000 0.601174 0.250000
O O6 0.500000 0.608155 0.324689
O O7 0.251230 0.679458 0.364170
O O8 0.258070 0.536244 0.370471
O O9 0.000000 0.939763 0.903230
O O10 0.244089 0.026416 0.904552
O O11 0.239131 0.909316 0.979297
O O12 0.743490 0.706813 0.493786
O O13 0.761070 0.605439 0.587933
O O14 0.000000 0.690333 0.564294
O O15 0.248362 0.179320 0.914946
O O16 0.000000 0.100800 0.941422
O O17 0.500000 0.262848 0.581003
O O18 0.500000 0.516520 0.921911
O O19 0.258253 0.500000 0.000000
#
# Coordination Sequence:
#
# PCOD9416267 Si02
#       7
#     8   8   8   8   8   8   8
#     4  11  23  37  53  77 112 149 187 229 280 334
#     4  11  24  39  58  84 115 150 187 229 278 333
#     4   9  16  31  55  80 108 143 181 223 273 327
#     4  10  21  36  56  84 112 143 184 230 280 331
#     4   8  15  29  54  84 109 139 179 223 271 324
#     4  10  19  34  58  85 112 145 187 229 271 328
#     4  10  20  37  61  85 114 148 182 227 281 334
#
# _framework density 18.390276
#
# number of rings (size 3 to 8) (size 9 to 14) (size 15 to 20)
#    0.000    2.143    2.857    1.714    0.000    2.571 
#    0.000    4.286    0.000    1.714    0.000    0.000 
#    0.000    0.000    0.000    0.000    0.000    0.000 
#
# Total GULP energy -312504.819232 kJ/mol
# GULP energy per Si atom -5580.443201 kJ/mol
# Density = 1.834842 g / cm^3
# Si number density = 18.390276 Si / 1000 Ang^3
#
#
#
# Elastic Constant Matrix: (Units=GPa)
#
#
# Indices 1 2 3 4 5 6 
#
# 1 11.9976 21.7155 20.2942 0.0000 0.0000 0.0000
# 2 21.7155 169.7623 81.2864 0.0000 0.0000 0.0000
# 3 20.2942 81.2864 139.4788 0.0000 0.0000 0.0000
# 4 0.0000 0.0000 0.0000 27.2657 0.0000 0.0000
# 5 0.0000 0.0000 0.0000 0.0000 22.8911 0.0000
# 6 0.0000 0.0000 0.0000 0.0000 0.0000 23.2315
#
#
#
# Elastic Compliance Matrix: (Units=1/GPa)
#
#
# Indices 1 2 3 4 5 6 
#
# 1 0.121273 -0.009798 -0.011935 0.000000 0.000000 0.000000
# 2 -0.009798 0.008962 -0.003797 0.000000 0.000000 0.000000
# 3 -0.011935 -0.003797 0.011119 0.000000 0.000000 0.000000
# 4 0.000000 0.000000 0.000000 0.036676 0.000000 0.000000
# 5 0.000000 0.000000 0.000000 0.000000 0.043685 0.000000
# 6 0.000000 0.000000 0.000000 0.000000 0.000000 0.043045
#
#
# Mechanical properties :
#
#
# Convention : Reuss Voigt Hill
#
# Bulk Modulus (GPa) = 11.07506 63.09234 37.08370
# Shear Modulus (GPa) = 14.45426 27.87386 21.16406
#
# Velocity S-wave (km/s) = 2.80656 3.89740 3.39607
# Velocity P-wave (km/s) = 4.06666 7.39154 5.96543
#
# Compressibility (1/GPa) = 0.09029297
#
# Stress axis : x y z
#
# Youngs Moduli (GPa) = 8.24589 111.57908 89.93464
#
# Poissons Ratio (x) = 1.09326 1.07336
# Poissons Ratio (y) = 0.08079 0.34152
# Poissons Ratio (z) = 0.09841 0.42372
#
# Static dielectric constant tensor:
#      x y z
#    x 1.633690 0.000000 0.000000 
#    y 0.000000 1.655490 0.000000 
#    z 0.000000 0.000000 1.597260 
# 
# From -- ./inp_files/31047.got.cif
#   From: 2010.05.17/outbox.cif.g08.bks.cpg/sg53_16_cif.got.tgz:31047.got - 2010.06.03 12:45:16.
