data_PCOD9416059
_publ_section_title
;
Structure prediction by ZEFSAII (Michael W. Deem and Ramdas Pophale) SiO2 
 PCOD9416059
Probable space group: P M N A
;
_chemical_formula_sum "Si O2"
_cell_formula_units_Z 64
_cell_length_a 11.812693
_cell_length_b 15.948183
_cell_length_c 16.126247
_cell_angle_alpha 90.000000
_cell_angle_beta 90.000000
_cell_angle_gamma 90.000000
_cell_volume 3038.039632
_symmetry_space_group_name_H-M "P M N A"
_symmetry_group_IT_number 53
_symmetry_cell_setting 'orthorhombic'
loop_
_space_group_symop_operation_xyz
x,y,z
1/2-x,-y,1/2+z
x,-y,-z
1/2-x,y,1/2-z
-x,-y,-z
1/2+x,y,1/2-z
-x,y,z
1/2+x,-y,1/2+z
loop_
_atom_site_type_symbol
_atom_site_label
_atom_site_fract_x
_atom_site_fract_y
_atom_site_fract_z
Si Si1 0.203695 0.625411 0.842189
Si Si2 0.879033 0.220031 0.061112
Si Si3 0.296231 0.698385 0.394700
Si Si4 0.872489 0.400311 0.489542
Si Si5 0.126525 0.020200 0.290173
Si Si6 0.624457 0.163950 0.861376
Si Si7 0.875281 0.451941 0.792562
Si Si8 0.689280 0.087945 0.036652
O O1 0.250000 0.637094 0.750000
O O2 0.134901 0.705081 0.873652
O O3 0.309644 0.618939 0.904045
O O4 0.134642 0.538008 0.845461
O O5 0.783019 0.151711 0.067784
O O6 0.000000 0.179198 0.069696
O O7 0.865028 0.260929 0.970131
O O8 0.199539 0.641514 0.437917
O O9 0.226941 0.771599 0.348930
O O10 0.370673 0.635119 0.341713
O O11 0.873387 0.500000 0.500000
O O12 0.000000 0.368118 0.489650
O O13 0.250000 0.043781 0.250000
O O14 0.133603 0.920135 0.307178
O O15 0.000000 0.036367 0.251023
O O16 0.122034 0.062502 0.381301
O O17 0.500000 0.201947 0.846557
O O18 0.630688 0.133225 0.958041
O O19 0.750000 0.452080 0.750000
O O20 0.000000 0.456429 0.748536
O O21 0.735203 0.000000 0.000000
#
# Coordination Sequence:
#
# PCOD9416059 Si02
#       8
#     8   8   8   8   8   8   8   8
#     4  10  22  39  56  82 116 158 201 250 303 358
#     4  10  21  36  58  84 114 152 194 243 301 360
#     4  10  20  37  56  85 116 152 197 249 301 354
#     4  10  19  33  56  85 115 150 198 254 304 352
#     4  10  21  38  60  88 119 154 191 236 291 354
#     4   9  18  35  60  86 114 150 196 244 293 345
#     4  11  24  40  59  83 115 160 207 252 302 360
#     4   9  19  37  60  86 114 148 194 242 288 351
#
# _framework density 21.066216000000001
#
# number of rings (size 3 to 8) (size 9 to 14) (size 15 to 20)
#    0.000    2.125    1.250    1.500    0.000    6.750 
#    0.000    9.375    0.000    0.000    0.000    0.000 
#    0.000    0.000    0.000    0.000    0.000    0.000 
#
# Total GULP energy -356826.269854 kJ/mol
# GULP energy per Si atom -5575.410466 kJ/mol
# Density = 2.101827 g / cm^3
# Si number density = 21.066216 Si / 1000 Ang^3
#
#
#
# Elastic Constant Matrix: (Units=GPa)
#
#
# Indices 1 2 3 4 5 6 
#
# 1 143.1991 27.5817 21.9455 0.0000 0.0000 0.0000
# 2 27.5817 82.3041 5.4200 0.0000 0.0000 0.0000
# 3 21.9455 5.4200 38.6291 0.0000 0.0000 0.0000
# 4 0.0000 0.0000 0.0000 21.9080 0.0000 0.0000
# 5 0.0000 0.0000 0.0000 0.0000 -42.4389 0.0000
# 6 0.0000 0.0000 0.0000 0.0000 0.0000 9.2994
#
#
#
# Elastic Compliance Matrix: (Units=1/GPa)
#
#
# Indices 1 2 3 4 5 6 
#
# 1 0.008106 -0.002436 -0.004263 0.000000 0.000000 0.000000
# 2 -0.002436 0.012995 -0.000440 0.000000 0.000000 0.000000
# 3 -0.004263 -0.000440 0.028371 0.000000 0.000000 0.000000
# 4 0.000000 0.000000 0.000000 0.045645 0.000000 0.000000
# 5 0.000000 0.000000 0.000000 0.000000 -0.023563 0.000000
# 6 0.000000 0.000000 0.000000 0.000000 0.000000 0.107534
#
#
# Mechanical properties :
#
#
# Convention : Reuss Voigt Hill
#
# Bulk Modulus (GPa) = 28.41321 41.55852 34.98587
# Shear Modulus (GPa) = 24.37873 11.69936 18.03904
#
# Velocity S-wave (km/s) = 3.40552 2.35917 2.92944
# Velocity P-wave (km/s) = 5.38333 5.21453 5.29960
#
# Compressibility (1/GPa) = 0.03519489
#
# Stress axis : x y z
#
# Youngs Moduli (GPa) = 123.36910 76.95116 35.24743
#
# Poissons Ratio (x) = 0.18743 0.15027
# Poissons Ratio (y) = 0.30048 0.01550
# Poissons Ratio (z) = 0.52595 0.03383
#
# Static dielectric constant tensor:
#      x y z
#    x 1.766700 0.000000 0.000000 
#    y 0.000000 1.750320 0.000000 
#    z 0.000000 0.000000 1.819400 
# 
# From -- ./inp_files/27707.got.cif
#   From: 2010.05.17/outbox.cif.g08.bks.cpg/sg53_14_cif.got.tgz:27707.got - 2010.06.03 12:45:16.
