data_PCOD9416898
_publ_section_title
;
Structure prediction by ZEFSAII (Michael W. Deem and Ramdas Pophale) SiO2 
 PCOD9416898
Probable space group: P M N A
;
_chemical_formula_sum "Si O2"
_cell_formula_units_Z 40
_cell_length_a 19.095747
_cell_length_b 10.196211
_cell_length_c 10.318978
_cell_angle_alpha 90.000000
_cell_angle_beta 90.000000
_cell_angle_gamma 90.000000
_cell_volume 2009.149033
_symmetry_space_group_name_H-M "P M N A"
_symmetry_group_IT_number 53
_symmetry_cell_setting 'orthorhombic'
loop_
_space_group_symop_operation_xyz
x,y,z
1/2-x,-y,1/2+z
x,-y,-z
1/2-x,y,1/2-z
-x,-y,-z
1/2+x,y,1/2-z
-x,y,z
1/2+x,-y,1/2+z
loop_
_atom_site_type_symbol
_atom_site_label
_atom_site_fract_x
_atom_site_fract_y
_atom_site_fract_z
Si Si1 0.176832 0.185281 0.108103
Si Si2 0.719727 0.423618 0.122931
Si Si3 0.580291 0.681009 0.824640
Si Si4 0.322779 0.879096 0.313747
Si Si5 0.081038 0.125800 0.570042
O O1 0.246852 0.276493 0.116950
O O2 0.116918 0.248248 0.200683
O O3 0.184516 0.036063 0.157819
O O4 0.160409 0.180503 0.954758
O O5 0.750000 0.488213 0.250000
O O6 0.636572 0.428775 0.139392
O O7 0.744600 0.500000 0.000000
O O8 0.500000 0.645198 0.797808
O O9 0.581154 0.768312 0.955436
O O10 0.250000 0.834633 0.250000
O O11 0.379774 0.848782 0.203607
O O12 0.000000 0.095199 0.601647
O O13 0.115110 0.000000 0.500000
#
# Coordination Sequence:
#
# PCOD9416898 Si02
#       5
#     8   8   8   8   8
#     4  10  22  36  54  84 113 151 185 228 285 333
#     4  10  22  40  60  80 108 144 192 242 291 334
#     4  10  20  37  59  83 115 149 186 228 278 340
#     4  11  21  32  55  84 119 150 187 226 269 342
#     4  10  20  33  52  81 118 154 182 219 270 331
#
# _framework density 19.908925
#
# number of rings (size 3 to 8) (size 9 to 14) (size 15 to 20)
#    0.000    1.800    2.000    3.000    2.800    3.600 
#    0.000    2.000    0.000    9.600    0.000    0.000 
#    0.000    0.000    0.000    0.000    0.000    0.000 
#
# Total GULP energy -222954.125747 kJ/mol
# GULP energy per Si atom -5573.853144 kJ/mol
# Density = 1.986361 g / cm^3
# Si number density = 19.908925 Si / 1000 Ang^3
#
#
#
# Elastic Constant Matrix: (Units=GPa)
#
#
# Indices 1 2 3 4 5 6 
#
# 1 122.9557 11.5227 53.3285 0.0000 0.0000 0.0000
# 2 11.5227 21.4975 17.1213 0.0000 0.0000 0.0000
# 3 53.3285 17.1213 186.0147 0.0000 0.0000 0.0000
# 4 0.0000 0.0000 0.0000 19.8257 0.0000 0.0000
# 5 0.0000 0.0000 0.0000 0.0000 32.4122 0.0000
# 6 0.0000 0.0000 0.0000 0.0000 0.0000 49.4603
#
#
#
# Elastic Compliance Matrix: (Units=1/GPa)
#
#
# Indices 1 2 3 4 5 6 
#
# 1 0.009481 -0.003148 -0.002428 0.000000 0.000000 0.000000
# 2 -0.003148 0.051242 -0.003814 0.000000 0.000000 0.000000
# 3 -0.002428 -0.003814 0.006423 0.000000 0.000000 0.000000
# 4 0.000000 0.000000 0.000000 0.050440 0.000000 0.000000
# 5 0.000000 0.000000 0.000000 0.000000 0.030853 0.000000
# 6 0.000000 0.000000 0.000000 0.000000 0.000000 0.020218
#
#
# Mechanical properties :
#
#
# Convention : Reuss Voigt Hill
#
# Bulk Modulus (GPa) = 20.67580 54.93477 37.80528
# Shear Modulus (GPa) = 24.56286 36.90599 30.73443
#
# Velocity S-wave (km/s) = 3.51630 4.31018 3.93332
# Velocity P-wave (km/s) = 5.18590 7.24038 6.29749
#
# Compressibility (1/GPa) = 0.04836573
#
# Stress axis : x y z
#
# Youngs Moduli (GPa) = 105.47094 19.51528 155.68611
#
# Poissons Ratio (x) = 0.06143 0.37808
# Poissons Ratio (y) = 0.33201 0.59378
# Poissons Ratio (z) = 0.25613 0.07443
#
# Static dielectric constant tensor:
#      x y z
#    x 1.717000 0.000000 0.000000 
#    y 0.000000 1.743620 0.000000 
#    z 0.000000 0.000000 0.758220 
# 
# From -- ./inp_files/9669.got.cif
#   From: 2010.05.17/outbox.cif.g08.bks.cpg/sg53_5_cif.got.tgz:9669.got - 2010.06.03 12:45:16.
