data_PCOD9416041
_publ_section_title
;
Structure prediction by ZEFSAII (Michael W. Deem and Ramdas Pophale) SiO2 
 PCOD9416041
Probable space group: P M N A
;
_chemical_formula_sum "Si O2"
_cell_formula_units_Z 48
_cell_length_a 8.764710
_cell_length_b 10.537808
_cell_length_c 28.996482
_cell_angle_alpha 90.000000
_cell_angle_beta 90.000000
_cell_angle_gamma 90.000000
_cell_volume 2678.139178
_symmetry_space_group_name_H-M "P M N A"
_symmetry_group_IT_number 53
_symmetry_cell_setting 'orthorhombic'
loop_
_space_group_symop_operation_xyz
x,y,z
1/2-x,-y,1/2+z
x,-y,-z
1/2-x,y,1/2-z
-x,-y,-z
1/2+x,y,1/2-z
-x,y,z
1/2+x,-y,1/2+z
loop_
_atom_site_type_symbol
_atom_site_label
_atom_site_fract_x
_atom_site_fract_y
_atom_site_fract_z
Si Si1 0.316365 0.494244 0.895886
Si Si2 0.316156 0.984841 0.602506
Si Si3 0.817117 0.248943 0.944680
Si Si4 0.682941 0.746661 0.952789
Si Si5 0.316902 0.607379 0.798290
Si Si6 0.182878 0.890580 0.798279
O O1 0.500000 0.480636 0.899075
O O2 0.238779 0.369836 0.915978
O O3 0.272980 0.617904 0.925935
O O4 0.277154 0.524098 0.842810
O O5 0.500000 0.974653 0.598952
O O6 0.244394 0.868061 0.574765
O O7 0.276298 0.970846 0.656458
O O8 0.269698 0.118386 0.580395
O O9 0.000000 0.249779 0.947934
O O10 0.748053 0.254092 0.995770
O O11 0.500000 0.751588 0.954264
O O12 0.250000 0.558602 0.750000
O O13 0.500000 0.617087 0.795341
O O14 0.249467 0.748780 0.804906
O O15 0.250000 0.939491 0.750000
O O16 0.000000 0.882464 0.794738
#
# Coordination Sequence:
#
# PCOD9416041 Si02
#       6
#     8   8   8   8   8   8
#     4  10  22  39  57  82 115 147 185 231 278 330
#     4  10  22  39  57  82 115 148 185 230 277 330
#     4  11  24  39  56  81 115 151 189 231 279 334
#     4  11  22  38  60  84 111 146 190 235 279 330
#     4  10  19  34  56  84 113 142 181 229 277 327
#     4  10  19  33  56  83 111 142 180 227 276 325
#
# _framework density 17.922892000000001
#
# number of rings (size 3 to 8) (size 9 to 14) (size 15 to 20)
#    0.000    1.667    1.667    4.000    0.000    8.667 
#    0.000    0.833    0.000    4.000    0.000    0.000 
#    0.000    0.000    0.000    0.000    0.000    0.000 
#
# Total GULP energy -268157.769302 kJ/mol
# GULP energy per Si atom -5586.620194 kJ/mol
# Density = 1.788210 g / cm^3
# Si number density = 17.922892 Si / 1000 Ang^3
#
#
#
# Elastic Constant Matrix: (Units=GPa)
#
#
# Indices 1 2 3 4 5 6 
#
# 1 40.3014 35.1209 47.9972 0.0000 0.0000 0.0000
# 2 35.1209 113.5409 65.0931 0.0000 0.0000 0.0000
# 3 47.9972 65.0931 167.7700 0.0000 0.0000 0.0000
# 4 0.0000 0.0000 0.0000 -14.3091 0.0000 0.0000
# 5 0.0000 0.0000 0.0000 0.0000 42.4751 0.0000
# 6 0.0000 0.0000 0.0000 0.0000 0.0000 32.1177
#
#
#
# Elastic Compliance Matrix: (Units=1/GPa)
#
#
# Indices 1 2 3 4 5 6 
#
# 1 0.042577 -0.007957 -0.009094 0.000000 0.000000 0.000000
# 2 -0.007957 0.012814 -0.002695 0.000000 0.000000 0.000000
# 3 -0.009094 -0.002695 0.009608 0.000000 0.000000 0.000000
# 4 0.000000 0.000000 0.000000 -0.069886 0.000000 0.000000
# 5 0.000000 0.000000 0.000000 0.000000 0.023543 0.000000
# 6 0.000000 0.000000 0.000000 0.000000 0.000000 0.031136
#
#
# Mechanical properties :
#
#
# Convention : Reuss Voigt Hill
#
# Bulk Modulus (GPa) = 39.20423 68.67052 53.93737
# Shear Modulus (GPa) = 51.13197 23.61680 37.37439
#
# Velocity S-wave (km/s) = 5.34704 3.63394 4.57145
# Velocity P-wave (km/s) = 7.74870 7.48364 7.61733
#
# Compressibility (1/GPa) = 0.02550745
#
# Stress axis : x y z
#
# Youngs Moduli (GPa) = 23.48671 78.04079 104.08061
#
# Poissons Ratio (x) = 0.62094 0.94649
# Poissons Ratio (y) = 0.18688 0.28053
# Poissons Ratio (z) = 0.21358 0.21034
#
# Static dielectric constant tensor:
#      x y z
#    x 1.603790 0.000000 0.000000 
#    y 0.000000 1.576140 0.000000 
#    z 0.000000 0.000000 1.614470 
# 
# From -- ./inp_files/36153.got.cif
#   From: 2010.05.17/outbox.cif.g08.bks.cpg/sg53_19_cif.got.tgz:36153.got - 2010.06.03 12:45:16.
