data_PCOD9416856
_publ_section_title
;
Structure prediction by ZEFSAII (Michael W. Deem and Ramdas Pophale) SiO2 
 PCOD9416856
Probable space group: P M N A
;
_chemical_formula_sum "Si O2"
_cell_formula_units_Z 40
_cell_length_a 8.735277
_cell_length_b 26.880195
_cell_length_c 9.243243
_cell_angle_alpha 90.000000
_cell_angle_beta 90.000000
_cell_angle_gamma 90.000000
_cell_volume 2170.368446
_symmetry_space_group_name_H-M "P M N A"
_symmetry_group_IT_number 53
_symmetry_cell_setting 'orthorhombic'
loop_
_space_group_symop_operation_xyz
x,y,z
1/2-x,-y,1/2+z
x,-y,-z
1/2-x,y,1/2-z
-x,-y,-z
1/2+x,y,1/2-z
-x,y,z
1/2+x,-y,1/2+z
loop_
_atom_site_type_symbol
_atom_site_label
_atom_site_fract_x
_atom_site_fract_y
_atom_site_fract_z
Si Si1 0.683293 0.950859 0.088266
Si Si2 0.183931 0.647089 0.589309
Si Si3 0.817005 0.849632 0.087280
Si Si4 0.816221 0.739113 0.087221
Si Si5 0.315338 0.451258 0.910954
O O1 0.750000 0.954845 0.250000
O O2 0.500000 0.947787 0.096074
O O3 0.746447 0.899474 0.020073
O O4 0.726767 0.000000 0.000000
O O5 0.250000 0.643210 0.750000
O O6 0.246707 0.696137 0.510854
O O7 0.229828 0.598652 0.496206
O O8 0.000000 0.648913 0.594996
O O9 0.750000 0.848595 0.250000
O O10 0.779948 0.794728 0.028003
O O11 0.000000 0.854672 0.093177
O O12 0.750000 0.734977 0.250000
O O13 0.000000 0.734537 0.094371
O O14 0.250000 0.451565 0.750000
O O15 0.500000 0.452080 0.902686
O O16 0.265586 0.500000 0.000000
#
# Coordination Sequence:
#
# PCOD9416856 Si02
#       5
#     8   8   8   8   8
#     4  10  20  33  51  76 104 136 174 216 263 315
#     4  11  23  38  57  81 111 147 184 224 272 324
#     4   9  17  30  51  76 102 135 173 215 263 314
#     4  10  20  35  56  82 109 139 179 224 270 321
#     4  10  22  39  59  85 114 145 183 225 270 320
#
# _framework density 18.430052
#
# number of rings (size 3 to 8) (size 9 to 14) (size 15 to 20)
#    0.000    2.000    0.000    4.800    0.000    7.600 
#    0.000    1.000    0.000    2.400    0.000    0.000 
#    0.000    0.000    0.000    0.000    0.000    0.000 
#
# Total GULP energy -223264.442549 kJ/mol
# GULP energy per Si atom -5581.611064 kJ/mol
# Density = 1.838810 g / cm^3
# Si number density = 18.430052 Si / 1000 Ang^3
#
#
#
# Elastic Constant Matrix: (Units=GPa)
#
#
# Indices 1 2 3 4 5 6 
#
# 1 56.7403 66.7018 36.2489 0.0000 0.0000 0.0000
# 2 66.7018 228.0856 94.5208 0.0000 0.0000 0.0000
# 3 36.2489 94.5208 110.6009 0.0000 0.0000 0.0000
# 4 0.0000 0.0000 0.0000 33.6935 0.0000 0.0000
# 5 0.0000 0.0000 0.0000 0.0000 28.2430 0.0000
# 6 0.0000 0.0000 0.0000 0.0000 0.0000 36.7426
#
#
#
# Elastic Compliance Matrix: (Units=1/GPa)
#
#
# Indices 1 2 3 4 5 6 
#
# 1 0.027627 -0.006700 -0.003329 0.000000 0.000000 0.000000
# 2 -0.006700 0.008413 -0.004994 0.000000 0.000000 0.000000
# 3 -0.003329 -0.004994 0.014401 0.000000 0.000000 0.000000
# 4 0.000000 0.000000 0.000000 0.029679 0.000000 0.000000
# 5 0.000000 0.000000 0.000000 0.000000 0.035407 0.000000
# 6 0.000000 0.000000 0.000000 0.000000 0.000000 0.027216
#
#
# Mechanical properties :
#
#
# Convention : Reuss Voigt Hill
#
# Bulk Modulus (GPa) = 49.03162 87.81887 68.42524
# Shear Modulus (GPa) = 27.84157 32.93284 30.38720
#
# Velocity S-wave (km/s) = 3.89094 4.23177 4.06493
# Velocity P-wave (km/s) = 6.84455 8.46348 7.69670
#
# Compressibility (1/GPa) = 0.02039500
#
# Stress axis : x y z
#
# Youngs Moduli (GPa) = 36.19674 118.85983 69.44096
#
# Poissons Ratio (x) = 0.79633 0.23116
# Poissons Ratio (y) = 0.24251 0.34681
# Poissons Ratio (z) = 0.12050 0.59362
#
# Static dielectric constant tensor:
#      x y z
#    x 1.619640 0.000000 0.000000 
#    y 0.000000 1.672130 0.000000 
#    z 0.000000 0.000000 1.607450 
# 
# From -- ./inp_files/6429.got.cif
#   From: 2010.05.17/outbox.cif.g08.bks.cpg/sg53_4_cif.got.tgz:6429.got - 2010.06.03 12:45:16.
