data_PCOD9416032
_publ_section_title
;
Structure prediction by ZEFSAII (Michael W. Deem and Ramdas Pophale) SiO2 
 PCOD9416032
Probable space group: P M N A
;
_chemical_formula_sum "Si O2"
_cell_formula_units_Z 64
_cell_length_a 9.138045
_cell_length_b 13.839107
_cell_length_c 28.519563
_cell_angle_alpha 90.000000
_cell_angle_beta 90.000000
_cell_angle_gamma 90.000000
_cell_volume 3606.651886
_symmetry_space_group_name_H-M "P M N A"
_symmetry_group_IT_number 53
_symmetry_cell_setting 'orthorhombic'
loop_
_space_group_symop_operation_xyz
x,y,z
1/2-x,-y,1/2+z
x,-y,-z
1/2-x,y,1/2-z
-x,-y,-z
1/2+x,y,1/2-z
-x,y,z
1/2+x,-y,1/2+z
loop_
_atom_site_type_symbol
_atom_site_label
_atom_site_fract_x
_atom_site_fract_y
_atom_site_fract_z
Si Si1 0.667130 0.888081 0.128385
Si Si2 0.677431 0.029337 0.299826
Si Si3 0.169802 0.743103 0.065192
Si Si4 0.672170 0.608412 0.880462
Si Si5 0.167169 0.584675 0.148853
Si Si6 0.174871 0.611958 0.511064
Si Si7 0.676045 0.238963 0.202295
Si Si8 0.661390 0.273622 0.791877
O O1 0.500000 0.921304 0.118694
O O2 0.763034 0.966712 0.156403
O O3 0.745063 0.837963 0.083850
O O4 0.655701 0.800479 0.165512
O O5 0.750000 0.997119 0.250000
O O6 0.500000 0.026600 0.296858
O O7 0.740942 0.137638 0.305903
O O8 0.173183 0.662944 0.106778
O O9 0.000000 0.765880 0.055974
O O10 0.244852 0.688686 0.021871
O O11 0.500000 0.582533 0.878622
O O12 0.764561 0.514703 0.867839
O O13 0.703609 0.634585 0.934416
O O14 0.697218 0.691598 0.842225
O O15 0.258793 0.630810 0.190718
O O16 0.000000 0.571936 0.162631
O O17 0.218390 0.500000 0.500000
O O18 0.000000 0.617493 0.502404
O O19 0.750000 0.279482 0.250000
O O20 0.500000 0.224289 0.208845
O O21 0.750000 0.227399 0.750000
O O22 0.500000 0.296040 0.775386
#
# Coordination Sequence:
#
# PCOD9416032 Si02
#       8
#     8   8   8   8   8   8   8   8
#     4  10  20  34  54  78 106 141 178 219 270 325
#     4  11  21  35  57  83 110 140 179 225 275 327
#     4  10  20  33  50  78 112 143 178 222 271 322
#     4  10  21  36  55  79 106 141 183 228 272 321
#     4  10  20  32  48  70 101 138 176 217 263 316
#     4  10  19  33  56  80 107 144 187 229 272 323
#     4  10  21  38  58  80 108 140 180 225 272 322
#     4  10  20  32  47  68  99 136 174 214 258 313
#
# _framework density 17.744989
#
# number of rings (size 3 to 8) (size 9 to 14) (size 15 to 20)
#    0.000    1.875    1.250    4.125    0.000    5.750 
#    0.000    1.250    0.000    0.750    0.000    5.250 
#    0.000    0.000    0.000    0.000    0.000    0.000 
#
# Total GULP energy -356962.784695 kJ/mol
# GULP energy per Si atom -5577.543511 kJ/mol
# Density = 1.770460 g / cm^3
# Si number density = 17.744989 Si / 1000 Ang^3
#
#
#
# Elastic Constant Matrix: (Units=GPa)
#
#
# Indices 1 2 3 4 5 6 
#
# 1 123.0376 43.7928 53.9878 0.0000 0.0000 0.0000
# 2 43.7928 38.6207 25.0932 0.0000 0.0000 0.0000
# 3 53.9878 25.0932 77.0068 0.0000 0.0000 0.0000
# 4 0.0000 0.0000 0.0000 26.7830 0.0000 0.0000
# 5 0.0000 0.0000 0.0000 0.0000 22.7827 0.0000
# 6 0.0000 0.0000 0.0000 0.0000 0.0000 31.8186
#
#
#
# Elastic Compliance Matrix: (Units=1/GPa)
#
#
# Indices 1 2 3 4 5 6 
#
# 1 0.015964 -0.013739 -0.006715 0.000000 0.000000 0.000000
# 2 -0.013739 0.044671 -0.004924 0.000000 0.000000 0.000000
# 3 -0.006715 -0.004924 0.019298 0.000000 0.000000 0.000000
# 4 0.000000 0.000000 0.000000 0.037337 0.000000 0.000000
# 5 0.000000 0.000000 0.000000 0.000000 0.043893 0.000000
# 6 0.000000 0.000000 0.000000 0.000000 0.000000 0.031428
#
#
# Mechanical properties :
#
#
# Convention : Reuss Voigt Hill
#
# Bulk Modulus (GPa) = 34.27384 53.82365 44.04874
# Shear Modulus (GPa) = 19.75694 23.99626 21.87660
#
# Velocity S-wave (km/s) = 3.34036 3.68133 3.51498
# Velocity P-wave (km/s) = 5.85097 6.96184 6.43044
#
# Compressibility (1/GPa) = 0.02917677
#
# Stress axis : x y z
#
# Youngs Moduli (GPa) = 62.63941 22.38566 51.81774
#
# Poissons Ratio (x) = 0.30756 0.34797
# Poissons Ratio (y) = 0.86062 0.25516
# Poissons Ratio (z) = 0.42064 0.11023
#
# Static dielectric constant tensor:
#      x y z
#    x 1.563020 0.000000 0.000000 
#    y 0.000000 1.591260 0.000000 
#    z 0.000000 0.000000 1.609270 
# 
# From -- ./inp_files/38509.got.cif
#   From: 2010.05.17/outbox.cif.g08.bks.cpg/sg53_20_cif.got.tgz:38509.got - 2010.06.03 12:45:16.
