data_PCOD9416077
_publ_section_title
;
Structure prediction by ZEFSAII (Michael W. Deem and Ramdas Pophale) SiO2 
 PCOD9416077
Probable space group: P M N A
;
_chemical_formula_sum "Si O2"
_cell_formula_units_Z 64
_cell_length_a 9.200098
_cell_length_b 23.696241
_cell_length_c 15.039382
_cell_angle_alpha 90.000000
_cell_angle_beta 90.000000
_cell_angle_gamma 90.000000
_cell_volume 3278.701672
_symmetry_space_group_name_H-M "P M N A"
_symmetry_group_IT_number 53
_symmetry_cell_setting 'orthorhombic'
loop_
_space_group_symop_operation_xyz
x,y,z
1/2-x,-y,1/2+z
x,-y,-z
1/2-x,y,1/2-z
-x,-y,-z
1/2+x,y,1/2-z
-x,y,z
1/2+x,-y,1/2+z
loop_
_atom_site_type_symbol
_atom_site_label
_atom_site_fract_x
_atom_site_fract_y
_atom_site_fract_z
Si Si1 0.837547 0.107918 0.834211
Si Si2 0.162873 0.242950 0.835095
Si Si3 0.329899 0.459081 0.156837
Si Si4 0.826854 0.065840 0.495102
Si Si5 0.174414 0.845443 0.654304
Si Si6 0.670137 0.405878 0.843032
Si Si7 0.326580 0.250462 0.462619
Si Si8 0.171802 0.377584 0.021041
O O1 0.750000 0.084732 0.750000
O O2 0.847900 0.175364 0.822952
O O3 0.000000 0.084578 0.836872
O O4 0.755538 0.096250 0.925182
O O5 0.250000 0.264887 0.750000
O O6 0.000000 0.267352 0.835572
O O7 0.224507 0.248924 0.934367
O O8 0.250000 0.447453 0.250000
O O9 0.500000 0.443666 0.161303
O O10 0.321910 0.526345 0.141106
O O11 0.250019 0.424525 0.080188
O O12 0.794418 0.098058 0.403284
O O13 0.000000 0.070623 0.509545
O O14 0.788128 0.000000 0.500000
O O15 0.250000 0.847445 0.750000
O O16 0.239732 0.793246 0.597763
O O17 0.000000 0.839694 0.662986
O O18 0.750000 0.395240 0.750000
O O19 0.500000 0.390095 0.840123
O O20 0.754182 0.377483 0.924348
O O21 0.500000 0.236086 0.462315
O O22 0.311282 0.315722 0.435162
O O23 0.000000 0.388981 0.012323
#
# Coordination Sequence:
#
# PCOD9416077 Si02
#       8
#     8   8   8   8   8   8   8   8
#     4  10  19  33  57  85 115 150 186 230 281 338
#     4   9  18  33  55  81 110 144 182 228 278 336
#     4  10  21  38  60  85 115 153 199 249 301 356
#     4  10  22  40  61  89 123 154 192 242 292 347
#     4  11  24  42  66  89 116 158 201 245 295 348
#     4  10  21  38  60  86 119 158 198 245 299 358
#     4  10  22  41  60  84 119 156 199 246 292 346
#     4  11  23  37  58  87 120 157 196 246 301 355
#
# _framework density 19.519921
#
# number of rings (size 3 to 8) (size 9 to 14) (size 15 to 20)
#    0.000    1.875    1.250    2.250    0.000    7.250 
#    0.000    2.500    0.000    0.000    0.000    0.000 
#    0.000    0.000    0.000    0.000    0.000    0.000 
#
# Total GULP energy -357469.454238 kJ/mol
# GULP energy per Si atom -5585.460222 kJ/mol
# Density = 1.947549 g / cm^3
# Si number density = 19.519921 Si / 1000 Ang^3
#
#
#
# Elastic Constant Matrix: (Units=GPa)
#
#
# Indices 1 2 3 4 5 6 
#
# 1 104.6360 61.6579 72.7192 0.0000 0.0000 0.0000
# 2 61.6579 80.3621 52.5682 0.0000 0.0000 0.0000
# 3 72.7192 52.5682 146.7384 0.0000 0.0000 0.0000
# 4 0.0000 0.0000 0.0000 -7.1911 0.0000 0.0000
# 5 0.0000 0.0000 0.0000 0.0000 32.9162 0.0000
# 6 0.0000 0.0000 0.0000 0.0000 0.0000 18.9095
#
#
#
# Elastic Compliance Matrix: (Units=1/GPa)
#
#
# Indices 1 2 3 4 5 6 
#
# 1 0.020836 -0.012058 -0.006006 0.000000 0.000000 0.000000
# 2 -0.012058 0.023230 -0.002347 0.000000 0.000000 0.000000
# 3 -0.006006 -0.002347 0.010632 0.000000 0.000000 0.000000
# 4 0.000000 0.000000 0.000000 -0.139062 0.000000 0.000000
# 5 0.000000 0.000000 0.000000 0.000000 0.030380 0.000000
# 6 0.000000 0.000000 0.000000 0.000000 0.000000 0.052884
#
#
# Mechanical properties :
#
#
# Convention : Reuss Voigt Hill
#
# Bulk Modulus (GPa) = 72.06056 78.40302 75.23179
# Shear Modulus (GPa) = 112.74772 18.57968 65.66370
#
# Velocity S-wave (km/s) = 7.60827 3.08852 5.80623
# Velocity P-wave (km/s) = 10.68539 7.27815 9.14191
#
# Compressibility (1/GPa) = 0.01387722
#
# Stress axis : x y z
#
# Youngs Moduli (GPa) = 47.99332 43.04794 94.05579
#
# Poissons Ratio (x) = 0.51906 0.56492
# Poissons Ratio (y) = 0.57869 0.22071
# Poissons Ratio (z) = 0.28826 0.10101
#
# Static dielectric constant tensor:
#      x y z
#    x 1.669800 0.000000 0.000000 
#    y 0.000000 1.696110 0.000000 
#    z 0.000000 0.000000 1.658920 
# 
# From -- ./inp_files/20888.got.cif
#   From: 2010.05.17/outbox.cif.g08.bks.cpg/sg53_11_cif.got.tgz:20888.got - 2010.06.03 12:45:16.
