data_PCOD9416065
_publ_section_title
;
Structure prediction by ZEFSAII (Michael W. Deem and Ramdas Pophale) SiO2 
 PCOD9416065
Probable space group: P M N A
;
_chemical_formula_sum "Si O2"
_cell_formula_units_Z 48
_cell_length_a 15.655898
_cell_length_b 10.179886
_cell_length_c 17.232345
_cell_angle_alpha 90.000000
_cell_angle_beta 90.000000
_cell_angle_gamma 90.000000
_cell_volume 2746.409411
_symmetry_space_group_name_H-M "P M N A"
_symmetry_group_IT_number 53
_symmetry_cell_setting 'orthorhombic'
loop_
_space_group_symop_operation_xyz
x,y,z
1/2-x,-y,1/2+z
x,-y,-z
1/2-x,y,1/2-z
-x,-y,-z
1/2+x,y,1/2-z
-x,y,z
1/2+x,-y,1/2+z
loop_
_atom_site_type_symbol
_atom_site_label
_atom_site_fract_x
_atom_site_fract_y
_atom_site_fract_z
Si Si1 0.500000 0.483371 0.823420
Si Si2 0.173412 0.863747 0.956558
Si Si3 0.169776 0.619658 0.061400
Si Si4 0.831114 0.493889 0.405685
Si Si5 0.805519 0.795083 0.669416
Si Si6 0.500000 0.204493 0.201862
Si Si7 0.000000 0.437465 0.858017
Si Si8 0.000000 0.750739 0.883320
O O1 0.585045 0.444524 0.868332
O O2 0.500000 0.642740 0.823799
O O3 0.500000 0.439390 0.734681
O O4 0.245770 0.873975 0.890502
O O5 0.085075 0.808398 0.921395
O O6 0.197732 0.749714 0.017091
O O7 0.160558 0.000000 0.000000
O O8 0.246362 0.573195 0.115498
O O9 0.082692 0.632211 0.107503
O O10 0.157150 0.500000 0.000000
O O11 0.838796 0.500000 0.500000
O O12 0.816300 0.349000 0.370156
O O13 0.750000 0.785350 0.750000
O O14 0.904163 0.846014 0.678586
O O15 0.500000 0.206744 0.294372
O O16 0.000000 0.591366 0.884826
#
# Coordination Sequence:
#
# PCOD9416065 Si02
#       8
#     4   8   8   8   8   4   4   4
#     4   9  21  30  53  89 118 152 185 248 295 344
#     4  12  24  38  60  88 118 157 197 247 300 349
#     4  11  20  35  58  84 119 151 188 239 299 357
#     4  10  19  33  56  86 116 148 191 240 290 345
#     4  11  20  37  61  89 120 153 204 244 288 355
#     4   9  20  31  58  90 113 149 199 246 280 332
#     4  11  20  33  58  87 122 146 194 241 304 349
#     4  11  18  35  58  93 113 145 190 249 296 352
#
# _framework density 17.477366
#
# number of rings (size 3 to 8) (size 9 to 14) (size 15 to 20)
#    0.000    1.333    6.667    1.250    4.667    0.000 
#    0.000    0.417    3.667    0.000    0.000    0.000 
#    0.000    0.000    0.000    0.000    0.000    0.000 
#
# Total GULP energy -267459.553573 kJ/mol
# GULP energy per Si atom -5572.074033 kJ/mol
# Density = 1.743759 g / cm^3
# Si number density = 17.477366 Si / 1000 Ang^3
#
#
#
# Elastic Constant Matrix: (Units=GPa)
#
#
# Indices 1 2 3 4 5 6 
#
# 1 132.8912 -11.4650 45.5339 0.0000 0.0000 0.0000
# 2 -11.4650 33.6655 19.1148 0.0000 0.0000 0.0000
# 3 45.5339 19.1148 72.3843 0.0000 0.0000 0.0000
# 4 0.0000 0.0000 0.0000 17.1777 0.0000 0.0000
# 5 0.0000 0.0000 0.0000 0.0000 -3.4192 0.0000
# 6 0.0000 0.0000 0.0000 0.0000 0.0000 -7.1341
#
#
#
# Elastic Compliance Matrix: (Units=1/GPa)
#
#
# Indices 1 2 3 4 5 6 
#
# 1 0.011769 0.009660 -0.009954 0.000000 0.000000 0.000000
# 2 0.009660 0.042872 -0.017398 0.000000 0.000000 0.000000
# 3 -0.009954 -0.017398 0.024671 0.000000 0.000000 0.000000
# 4 0.000000 0.000000 0.000000 0.058215 0.000000 0.000000
# 5 0.000000 0.000000 0.000000 0.000000 -0.292467 0.000000
# 6 0.000000 0.000000 0.000000 0.000000 0.000000 -0.140172
#
#
# Mechanical properties :
#
#
# Convention : Reuss Voigt Hill
#
# Bulk Modulus (GPa) = 22.76468 38.36760 30.56614
# Shear Modulus (GPa) = -20.40122 13.70871 -3.34626
#
# Velocity S-wave (km/s) = -3.42027 2.80370 -1.38520
# Velocity P-wave (km/s) = 1.59505 5.69924 3.86893
#
# Compressibility (1/GPa) = 0.04392769
#
# Stress axis : x y z
#
# Youngs Moduli (GPa) = 84.96795 23.32517 40.53270
#
# Poissons Ratio (x) = -0.22532 0.40348
# Poissons Ratio (y) = -0.82079 0.70519
# Poissons Ratio (z) = 0.84581 0.40581
#
# Static dielectric constant tensor:
#      x y z
#    x 1.644550 0.000000 0.000000 
#    y 0.000000 1.563580 0.000000 
#    z 0.000000 0.000000 1.621790 
# 
# From -- ./inp_files/28346.got.cif
#   From: 2010.05.17/outbox.cif.g08.bks.cpg/sg53_15_cif.got.tgz:28346.got - 2010.06.03 12:45:16.
