data_PCOD9416640
_publ_section_title
;
Structure prediction by ZEFSAII (Michael W. Deem and Ramdas Pophale) SiO2 
 PCOD9416640
Probable space group: P M N A
;
_chemical_formula_sum "Si O2"
_cell_formula_units_Z 56
_cell_length_a 15.224195
_cell_length_b 11.771108
_cell_length_c 14.581215
_cell_angle_alpha 90.000000
_cell_angle_beta 90.000000
_cell_angle_gamma 90.000000
_cell_volume 2613.036018
_symmetry_space_group_name_H-M "P M N A"
_symmetry_group_IT_number 53
_symmetry_cell_setting 'orthorhombic'
loop_
_space_group_symop_operation_xyz
x,y,z
1/2-x,-y,1/2+z
x,-y,-z
1/2-x,y,1/2-z
-x,-y,-z
1/2+x,y,1/2-z
-x,y,z
1/2+x,-y,1/2+z
loop_
_atom_site_type_symbol
_atom_site_label
_atom_site_fract_x
_atom_site_fract_y
_atom_site_fract_z
Si Si1 0.159055 0.720646 0.140664
Si Si2 0.899557 0.128049 0.476897
Si Si3 0.096147 0.870211 0.968824
Si Si4 0.289250 0.528371 0.607738
Si Si5 0.131247 0.253540 0.660599
Si Si6 0.907364 0.504953 0.610917
Si Si7 0.760869 0.775421 0.857978
O O1 0.157272 0.580976 0.144801
O O2 0.263777 0.740753 0.143655
O O3 0.118244 0.773419 0.232878
O O4 0.121060 0.784042 0.052210
O O5 0.904110 0.180031 0.578337
O O6 0.830079 0.200340 0.414999
O O7 0.000000 0.126539 0.438897
O O8 0.868951 0.000000 0.500000
O O9 0.172149 0.868537 0.894174
O O10 0.000000 0.836554 0.933742
O O11 0.091767 0.000000 0.000000
O O12 0.283535 0.500000 0.500000
O O13 0.188544 0.542367 0.644814
O O14 0.314845 0.658572 0.619490
O O15 0.092137 0.377098 0.644952
O O16 0.904754 0.500000 0.500000
O O17 0.000000 0.562900 0.636790
O O18 0.750000 0.781709 0.750000
#
# Coordination Sequence:
#
# PCOD9416640 Si02
#       7
#     8   8   8   8   8   8   8
#     4  10  21  39  65  99 130 172 224 277 331 401
#     4  11  24  44  69 100 139 179 225 283 344 400
#     4  11  25  48  73  97 131 177 231 283 339 403
#     4  10  19  38  64  89 131 180 220 271 334 405
#     4  10  20  35  63  94 132 167 219 274 330 398
#     4   9  17  29  50  84 124 163 207 256 312 383
#     4  12  26  43  69  99 140 183 225 279 346 404
#
# _framework density 21.431010000000001
#
# number of rings (size 3 to 8) (size 9 to 14) (size 15 to 20)
#    0.000    1.571    2.857    2.571    4.000    4.571 
#    0.000    4.286    0.000    0.000    0.000    0.000 
#    0.000    0.000    0.000    0.000    0.000    0.000 
#
# Total GULP energy -311959.651657 kJ/mol
# GULP energy per Si atom -5570.708065 kJ/mol
# Density = 2.138223 g / cm^3
# Si number density = 21.431010 Si / 1000 Ang^3
#
#
#
# Elastic Constant Matrix: (Units=GPa)
#
#
# Indices 1 2 3 4 5 6 
#
# 1 78.1312 5.7348 29.6620 0.0000 0.0000 0.0000
# 2 5.7348 70.9429 28.2379 0.0000 0.0000 0.0000
# 3 29.6620 28.2379 126.1134 0.0000 0.0000 0.0000
# 4 0.0000 0.0000 0.0000 10.8771 0.0000 0.0000
# 5 0.0000 0.0000 0.0000 0.0000 10.2312 0.0000
# 6 0.0000 0.0000 0.0000 0.0000 0.0000 29.7880
#
#
#
# Elastic Compliance Matrix: (Units=1/GPa)
#
#
# Indices 1 2 3 4 5 6 
#
# 1 0.014056 0.000197 -0.003350 0.000000 0.000000 0.000000
# 2 0.000197 0.015478 -0.003512 0.000000 0.000000 0.000000
# 3 -0.003350 -0.003512 0.009504 0.000000 0.000000 0.000000
# 4 0.000000 0.000000 0.000000 0.091936 0.000000 0.000000
# 5 0.000000 0.000000 0.000000 0.000000 0.097740 0.000000
# 6 0.000000 0.000000 0.000000 0.000000 0.000000 0.033571
#
#
# Mechanical properties :
#
#
# Convention : Reuss Voigt Hill
#
# Bulk Modulus (GPa) = 38.89851 44.71744 41.80797
# Shear Modulus (GPa) = 17.59420 24.28277 20.93848
#
# Velocity S-wave (km/s) = 2.86836 3.36976 3.12912
# Velocity P-wave (km/s) = 5.40000 6.00428 5.71014
#
# Compressibility (1/GPa) = 0.02570792
#
# Stress axis : x y z
#
# Youngs Moduli (GPa) = 71.14191 64.60862 105.22188
#
# Poissons Ratio (x) = -0.01274 0.35252
# Poissons Ratio (y) = -0.01403 0.36954
# Poissons Ratio (z) = 0.23834 0.22691
#
# Static dielectric constant tensor:
#      x y z
#    x 1.864800 0.000000 0.000000 
#    y 0.000000 1.734490 0.000000 
#    z 0.000000 0.000000 1.612930 
# 
# From -- ./inp_files/22796.got.cif
#   From: 2010.05.17/outbox.cif.g08.bks.cpg/sg53_12_cif.got.tgz:22796.got - 2010.06.03 12:45:16.
