data_PCOD9416223
_publ_section_title
;
Structure prediction by ZEFSAII (Michael W. Deem and Ramdas Pophale) SiO2 
 PCOD9416223
Probable space group: P M N A
;
_chemical_formula_sum "Si O2"
_cell_formula_units_Z 64
_cell_length_a 9.454883
_cell_length_b 17.524887
_cell_length_c 20.076952
_cell_angle_alpha 90.000000
_cell_angle_beta 90.000000
_cell_angle_gamma 90.000000
_cell_volume 3326.665743
_symmetry_space_group_name_H-M "P M N A"
_symmetry_group_IT_number 53
_symmetry_cell_setting 'orthorhombic'
loop_
_space_group_symop_operation_xyz
x,y,z
1/2-x,-y,1/2+z
x,-y,-z
1/2-x,y,1/2-z
-x,-y,-z
1/2+x,y,1/2-z
-x,y,z
1/2+x,-y,1/2+z
loop_
_atom_site_type_symbol
_atom_site_label
_atom_site_fract_x
_atom_site_fract_y
_atom_site_fract_z
Si Si1 0.166262 0.729886 0.816283
Si Si2 0.341317 0.732247 0.189582
Si Si3 0.167008 0.086651 0.182652
Si Si4 0.170545 0.289840 0.035712
Si Si5 0.169156 0.812519 0.442169
Si Si6 0.335307 0.013415 0.921225
Si Si7 0.661393 0.434281 0.554917
Si Si8 0.338558 0.548610 0.186368
O O1 0.250000 0.706577 0.750000
O O2 0.183142 0.821686 0.825013
O O3 0.211223 0.694900 0.887435
O O4 0.000000 0.714166 0.806541
O O5 0.250000 0.762364 0.250000
O O6 0.500000 0.762320 0.195082
O O7 0.287522 0.756664 0.117761
O O8 0.345784 0.640834 0.193912
O O9 0.250000 0.065096 0.250000
O O10 0.000000 0.070798 0.188152
O O11 0.236250 0.040656 0.122013
O O12 0.000000 0.280727 0.034731
O O13 0.246244 0.214690 0.006867
O O14 0.208101 0.359262 0.986142
O O15 0.197742 0.897015 0.415319
O O16 0.000000 0.806530 0.454987
O O17 0.500000 0.000070 0.902625
O O18 0.322385 0.000000 0.000000
O O19 0.657576 0.500000 0.500000
O O20 0.500000 0.420862 0.579604
O O21 0.757653 0.459901 0.616494
O O22 0.250000 0.519266 0.250000
O O23 0.500000 0.519909 0.185328
#
# Coordination Sequence:
#
# PCOD9416223 Si02
#       8
#     8   8   8   8   8   8   8   8
#     4   9  19  35  55  80 104 134 176 222 270 320
#     4   9  18  31  48  72 101 132 168 214 257 303
#     4  10  20  35  55  76 104 139 179 224 270 323
#     4  10  20  35  56  80 107 138 178 224 269 322
#     4  10  20  34  51  75 106 138 177 223 268 316
#     4  10  21  35  51  74 106 142 178 219 270 324
#     4  10  21  37  57  83 116 151 182 221 274 328
#     4  10  19  34  57  82 110 144 183 222 262 315
#
# _framework density 19.238484
#
# number of rings (size 3 to 8) (size 9 to 14) (size 15 to 20)
#    0.000    2.250    1.250    1.500    0.000    3.500 
#    0.000    1.875    0.000    1.500    0.000    0.000 
#    0.000    0.000    0.000    0.000    0.000    0.000 
#
# Total GULP energy -356968.945937 kJ/mol
# GULP energy per Si atom -5577.639780 kJ/mol
# Density = 1.919470 g / cm^3
# Si number density = 19.238484 Si / 1000 Ang^3
#
#
#
# Elastic Constant Matrix: (Units=GPa)
#
#
# Indices 1 2 3 4 5 6 
#
# 1 68.0676 11.6700 62.8905 0.0000 0.0000 0.0000
# 2 11.6700 16.6938 3.5917 0.0000 0.0000 0.0000
# 3 62.8905 3.5917 125.1060 0.0000 0.0000 0.0000
# 4 0.0000 0.0000 0.0000 19.3805 0.0000 0.0000
# 5 0.0000 0.0000 0.0000 0.0000 40.2592 0.0000
# 6 0.0000 0.0000 0.0000 0.0000 0.0000 11.6631
#
#
#
# Elastic Compliance Matrix: (Units=1/GPa)
#
#
# Indices 1 2 3 4 5 6 
#
# 1 0.032693 -0.019438 -0.015877 0.000000 0.000000 0.000000
# 2 -0.019438 0.071832 0.007709 0.000000 0.000000 0.000000
# 3 -0.015877 0.007709 0.015753 0.000000 0.000000 0.000000
# 4 0.000000 0.000000 0.000000 0.051598 0.000000 0.000000
# 5 0.000000 0.000000 0.000000 0.000000 0.024839 0.000000
# 6 0.000000 0.000000 0.000000 0.000000 0.000000 0.085740
#
#
# Mechanical properties :
#
#
# Convention : Reuss Voigt Hill
#
# Bulk Modulus (GPa) = 15.36877 40.68575 28.02726
# Shear Modulus (GPa) = 13.91378 23.04159 18.47769
#
# Velocity S-wave (km/s) = 2.69220 3.46451 3.10248
# Velocity P-wave (km/s) = 4.20355 6.09900 5.23773
#
# Compressibility (1/GPa) = 0.06506700
#
# Stress axis : x y z
#
# Youngs Moduli (GPa) = 30.58764 13.92132 63.47997
#
# Poissons Ratio (x) = 0.27061 1.00785
# Poissons Ratio (y) = 0.59457 -0.48939
# Poissons Ratio (z) = 0.48563 -0.10732
#
# Static dielectric constant tensor:
#      x y z
#    x 1.671860 0.000000 0.000000 
#    y 0.000000 1.712230 0.000000 
#    z 0.000000 0.000000 1.662460 
# 
# From -- ./inp_files/26877.got.cif
#   From: 2010.05.17/outbox.cif.g08.bks.cpg/sg53_14_cif.got.tgz:26877.got - 2010.06.03 12:45:16.
