data_PCOD9416091
_publ_section_title
;
Structure prediction by ZEFSAII (Michael W. Deem and Ramdas Pophale) SiO2 
 PCOD9416091
Probable space group: P M N A
;
_chemical_formula_sum "Si O2"
_cell_formula_units_Z 48
_cell_length_a 16.961576
_cell_length_b 9.703555
_cell_length_c 14.009022
_cell_angle_alpha 90.000000
_cell_angle_beta 90.000000
_cell_angle_gamma 90.000000
_cell_volume 2305.711108
_symmetry_space_group_name_H-M "P M N A"
_symmetry_group_IT_number 53
_symmetry_cell_setting 'orthorhombic'
loop_
_space_group_symop_operation_xyz
x,y,z
1/2-x,-y,1/2+z
x,-y,-z
1/2-x,y,1/2-z
-x,-y,-z
1/2+x,y,1/2-z
-x,y,z
1/2+x,-y,1/2+z
loop_
_atom_site_type_symbol
_atom_site_label
_atom_site_fract_x
_atom_site_fract_y
_atom_site_fract_z
Si Si1 0.171688 0.567601 0.194308
Si Si2 0.278346 0.656743 0.020058
Si Si3 0.856417 0.717128 0.883714
Si Si4 0.841045 0.992898 0.774837
Si Si5 0.083210 0.860191 0.060329
Si Si6 0.407277 0.224498 0.846331
O O1 0.250000 0.519671 0.250000
O O2 0.210540 0.638349 0.101248
O O3 0.126858 0.431138 0.160801
O O4 0.122879 0.667953 0.263686
O O5 0.349995 0.742588 0.064164
O O6 0.305303 0.500000 0.000000
O O7 0.233529 0.715364 0.926733
O O8 0.868122 0.842522 0.810281
O O9 0.905689 0.747185 0.979146
O O10 0.750000 0.985295 0.750000
O O11 0.851343 0.096413 0.864354
O O12 0.888606 0.070624 0.691934
O O13 0.000000 0.836030 0.112530
O O14 0.077643 0.000000 0.000000
O O15 0.500000 0.242320 0.864621
#
# Coordination Sequence:
#
# PCOD9416091 Si02
#       6
#     8   8   8   8   8   8
#     4   9  18  35  56  82 110 140 183 231 273 320
#     4   9  19  37  60  82 108 144 191 235 271 322
#     4  10  19  33  58  84 105 137 182 234 277 317
#     4  11  21  34  54  79 107 142 184 226 273 326
#     4   9  18  31  47  71 104 137 166 204 263 327
#     4  11  22  36  56  82 115 151 182 221 278 339
#
# _framework density 20.817872999999999
#
# number of rings (size 3 to 8) (size 9 to 14) (size 15 to 20)
#    0.000    2.167    0.000    4.500    0.000    1.667 
#    0.000    0.000    0.000    8.000    0.000    0.000 
#    0.000    0.000    0.000    0.000    0.000    0.000 
#
# Total GULP energy -267584.705914 kJ/mol
# GULP energy per Si atom -5574.681373 kJ/mol
# Density = 2.077049 g / cm^3
# Si number density = 20.817873 Si / 1000 Ang^3
#
#
#
# Elastic Constant Matrix: (Units=GPa)
#
#
# Indices 1 2 3 4 5 6 
#
# 1 53.1235 7.1726 3.6255 0.0000 0.0000 0.0000
# 2 7.1726 64.5447 7.0739 0.0000 0.0000 0.0000
# 3 3.6255 7.0739 34.0245 0.0000 0.0000 0.0000
# 4 0.0000 0.0000 0.0000 34.6546 0.0000 0.0000
# 5 0.0000 0.0000 0.0000 0.0000 17.4692 0.0000
# 6 0.0000 0.0000 0.0000 0.0000 0.0000 -10.3162
#
#
#
# Elastic Compliance Matrix: (Units=1/GPa)
#
#
# Indices 1 2 3 4 5 6 
#
# 1 0.019200 -0.001954 -0.001640 0.000000 0.000000 0.000000
# 2 -0.001954 0.016053 -0.003129 0.000000 0.000000 0.000000
# 3 -0.001640 -0.003129 0.030216 0.000000 0.000000 0.000000
# 4 0.000000 0.000000 0.000000 0.028856 0.000000 0.000000
# 5 0.000000 0.000000 0.000000 0.000000 0.057244 0.000000
# 6 0.000000 0.000000 0.000000 0.000000 0.000000 -0.096935
#
#
# Mechanical properties :
#
#
# Convention : Reuss Voigt Hill
#
# Bulk Modulus (GPa) = 19.22221 20.82630 20.02426
# Shear Modulus (GPa) = 58.53376 17.28288 37.90832
#
# Velocity S-wave (km/s) = 5.30831 2.88444 4.27189
# Velocity P-wave (km/s) = 6.84283 4.59555 5.82853
#
# Compressibility (1/GPa) = 0.05202316
#
# Stress axis : x y z
#
# Youngs Moduli (GPa) = 52.08399 62.29270 33.09511
#
# Poissons Ratio (x) = 0.12171 0.05426
# Poissons Ratio (y) = 0.10177 0.10357
# Poissons Ratio (z) = 0.08540 0.19494
#
# Static dielectric constant tensor:
#      x y z
#    x 1.784770 0.000000 0.000000 
#    y 0.000000 1.778180 0.000000 
#    z 0.000000 0.000000 1.774150 
# 
# From -- ./inp_files/22704.got.cif
#   From: 2010.05.17/outbox.cif.g08.bks.cpg/sg53_12_cif.got.tgz:22704.got - 2010.06.03 12:45:16.
