data_PCOD9416721
_publ_section_title
;
Structure prediction by ZEFSAII (Michael W. Deem and Ramdas Pophale) SiO2 
 PCOD9416721
Probable space group: P M N A
;
_chemical_formula_sum "Si O2"
_cell_formula_units_Z 48
_cell_length_a 8.794622
_cell_length_b 16.101102
_cell_length_c 19.932993
_cell_angle_alpha 90.000000
_cell_angle_beta 90.000000
_cell_angle_gamma 90.000000
_cell_volume 2822.573718
_symmetry_space_group_name_H-M "P M N A"
_symmetry_group_IT_number 53
_symmetry_cell_setting 'orthorhombic'
loop_
_space_group_symop_operation_xyz
x,y,z
1/2-x,-y,1/2+z
x,-y,-z
1/2-x,y,1/2-z
-x,-y,-z
1/2+x,y,1/2-z
-x,y,z
1/2+x,-y,1/2+z
loop_
_atom_site_type_symbol
_atom_site_label
_atom_site_fract_x
_atom_site_fract_y
_atom_site_fract_z
Si Si1 0.317827 0.402982 0.323490
Si Si2 0.318440 0.916356 0.926310
Si Si3 0.818706 0.082280 0.923440
Si Si4 0.683125 0.593359 0.323177
Si Si5 0.316400 0.266147 0.572466
Si Si6 0.318349 0.268272 0.076955
O O1 0.250000 0.385709 0.250000
O O2 0.500000 0.398205 0.320694
O O3 0.274928 0.498356 0.341043
O O4 0.255388 0.337946 0.376901
O O5 0.500000 0.922913 0.934160
O O6 0.283161 0.825509 0.896890
O O7 0.256894 0.000192 0.892042
O O8 0.241103 0.914767 0.999806
O O9 0.780565 0.174582 0.897523
O O10 0.000000 0.071991 0.922988
O O11 0.750000 0.611617 0.250000
O O12 0.500000 0.596916 0.319118
O O13 0.732340 0.660281 0.378263
O O14 0.500000 0.269494 0.564275
O O15 0.242550 0.274322 0.499182
O O16 0.500000 0.277241 0.076533
#
# Coordination Sequence:
#
# PCOD9416721 Si02
#       6
#     8   8   8   8   8   8
#     4  10  20  35  54  72  94 126 161 198 240 288
#     4   9  16  26  41  63  94 126 155 191 234 279
#     4   9  15  24  42  66  92 123 158 193 231 279
#     4   9  19  35  53  72  95 126 162 197 238 289
#     4   9  18  32  49  72 101 129 159 197 241 286
#     4  10  20  32  48  73 101 128 161 200 241 283
#
# _framework density 17.005756999999999
#
# number of rings (size 3 to 8) (size 9 to 14) (size 15 to 20)
#    0.000    2.667    0.000    3.000    0.000    4.667 
#    0.000    3.333    0.000    1.000    0.000    4.667 
#    0.000    0.000    0.000    0.000    0.000    0.000 
#
# Total GULP energy -267343.637880 kJ/mol
# GULP energy per Si atom -5569.659123 kJ/mol
# Density = 1.696705 g / cm^3
# Si number density = 17.005757 Si / 1000 Ang^3
#
#
#
# Elastic Constant Matrix: (Units=GPa)
#
#
# Indices 1 2 3 4 5 6 
#
# 1 45.2329 54.0784 27.3315 0.0000 0.0000 0.0000
# 2 54.0784 178.9079 84.8134 0.0000 0.0000 0.0000
# 3 27.3315 84.8134 58.9068 0.0000 0.0000 0.0000
# 4 0.0000 0.0000 0.0000 -7.5442 0.0000 0.0000
# 5 0.0000 0.0000 0.0000 0.0000 20.0799 0.0000
# 6 0.0000 0.0000 0.0000 0.0000 0.0000 27.0655
#
#
#
# Elastic Compliance Matrix: (Units=1/GPa)
#
#
# Indices 1 2 3 4 5 6 
#
# 1 0.034803 -0.009024 -0.003155 0.000000 0.000000 0.000000
# 2 -0.009024 0.019947 -0.024533 0.000000 0.000000 0.000000
# 3 -0.003155 -0.024533 0.053762 0.000000 0.000000 0.000000
# 4 0.000000 0.000000 0.000000 -0.132552 0.000000 0.000000
# 5 0.000000 0.000000 0.000000 0.000000 0.049801 0.000000
# 6 0.000000 0.000000 0.000000 0.000000 0.000000 0.036947
#
#
# Mechanical properties :
#
#
# Convention : Reuss Voigt Hill
#
# Bulk Modulus (GPa) = 28.49939 68.38828 48.44383
# Shear Modulus (GPa) = 33.82271 15.70851 24.76561
#
# Velocity S-wave (km/s) = 4.46454 3.04257 3.82030
# Velocity P-wave (km/s) = 6.58569 7.25569 6.92879
#
# Compressibility (1/GPa) = 0.03508847
#
# Stress axis : x y z
#
# Youngs Moduli (GPa) = 28.73301 50.13180 18.60054
#
# Poissons Ratio (x) = 0.45241 0.05868
# Poissons Ratio (y) = 0.25930 0.45633
# Poissons Ratio (z) = 0.09064 1.22988
#
# Static dielectric constant tensor:
#      x y z
#    x 1.569760 0.000000 0.000000 
#    y 0.000000 1.639110 0.000000 
#    z 0.000000 0.000000 1.525580 
# 
# From -- ./inp_files/30523.got.cif
#   From: 2010.05.17/outbox.cif.g08.bks.cpg/sg53_16_cif.got.tgz:30523.got - 2010.06.03 12:45:16.
