data_PCOD9416627
_publ_section_title
;
Structure prediction by ZEFSAII (Michael W. Deem and Ramdas Pophale) SiO2 
 PCOD9416627
Probable space group: P M N A
;
_chemical_formula_sum "Si O2"
_cell_formula_units_Z 48
_cell_length_a 28.632807
_cell_length_b 9.535981
_cell_length_c 9.934307
_cell_angle_alpha 90.000000
_cell_angle_beta 90.000000
_cell_angle_gamma 90.000000
_cell_volume 2712.482094
_symmetry_space_group_name_H-M "P M N A"
_symmetry_group_IT_number 53
_symmetry_cell_setting 'orthorhombic'
loop_
_space_group_symop_operation_xyz
x,y,z
1/2-x,-y,1/2+z
x,-y,-z
1/2-x,y,1/2-z
-x,-y,-z
1/2+x,y,1/2-z
-x,y,z
1/2+x,-y,1/2+z
loop_
_atom_site_type_symbol
_atom_site_label
_atom_site_fract_x
_atom_site_fract_y
_atom_site_fract_z
Si Si1 0.664479 0.339925 0.521281
Si Si2 0.500000 0.684566 0.649835
Si Si3 0.249621 0.859448 0.413375
Si Si4 0.401190 0.353494 0.779303
Si Si5 0.602394 0.315847 0.254829
Si Si6 0.854931 0.167494 0.495279
Si Si7 0.500000 0.343929 0.657649
O O1 0.680113 0.500000 0.500000
O O2 0.709302 0.243988 0.541881
O O3 0.633354 0.327475 0.654679
O O4 0.630279 0.310476 0.395637
O O5 0.548499 0.728310 0.719634
O O6 0.500000 0.514110 0.647745
O O7 0.500000 0.720888 0.491586
O O8 0.250000 0.879562 0.250000
O O9 0.198644 0.806752 0.460373
O O10 0.257147 0.000000 0.500000
O O11 0.399379 0.522579 0.798244
O O12 0.385539 0.260015 0.903362
O O13 0.452913 0.309685 0.735148
O O14 0.630912 0.221658 0.151283
O O15 0.862558 0.000000 0.500000
#
# Coordination Sequence:
#
# PCOD9416627 Si02
#       7
#     8   4   8   8   8   8   4
#     4  10  21  37  62  91 117 147 190 245 297 342
#     4   9  16  33  59  92 120 148 193 238 289 352
#     4  11  25  43  62  84 116 157 202 242 288 354
#     4  10  19  38  61  91 118 150 193 243 294 343
#     4  10  21  36  63  91 119 152 192 241 293 348
#     4  11  25  41  57  82 119 160 197 240 294 345
#     4   9  16  31  63  90 116 152 193 240 287 350
#
# _framework density 17.695969000000002
#
# number of rings (size 3 to 8) (size 9 to 14) (size 15 to 20)
#    0.000    1.833    3.333    0.500    4.667    2.000 
#    0.000    4.167    0.000    1.000    0.000    0.000 
#    0.000    0.000    0.000    0.000    0.000    0.000 
#
# Total GULP energy -267712.389428 kJ/mol
# GULP energy per Si atom -5577.341446 kJ/mol
# Density = 1.765569 g / cm^3
# Si number density = 17.695969 Si / 1000 Ang^3
#
#
#
# Elastic Constant Matrix: (Units=GPa)
#
#
# Indices 1 2 3 4 5 6 
#
# 1 113.7879 39.7977 20.9490 0.0000 0.0000 0.0000
# 2 39.7977 36.3325 22.9018 0.0000 0.0000 0.0000
# 3 20.9490 22.9018 58.8056 0.0000 0.0000 0.0000
# 4 0.0000 0.0000 0.0000 27.5064 0.0000 0.0000
# 5 0.0000 0.0000 0.0000 0.0000 24.8317 0.0000
# 6 0.0000 0.0000 0.0000 0.0000 0.0000 -16.9242
#
#
#
# Elastic Compliance Matrix: (Units=1/GPa)
#
#
# Indices 1 2 3 4 5 6 
#
# 1 0.014325 -0.016533 0.001336 0.000000 0.000000 0.000000
# 2 -0.016533 0.055560 -0.015748 0.000000 0.000000 0.000000
# 3 0.001336 -0.015748 0.022662 0.000000 0.000000 0.000000
# 4 0.000000 0.000000 0.000000 0.036355 0.000000 0.000000
# 5 0.000000 0.000000 0.000000 0.000000 0.040271 0.000000
# 6 0.000000 0.000000 0.000000 0.000000 0.000000 -0.059087
#
#
# Mechanical properties :
#
#
# Convention : Reuss Voigt Hill
#
# Bulk Modulus (GPa) = 32.61953 41.80255 37.21104
# Shear Modulus (GPa) = 27.44290 15.43461 21.43875
#
# Velocity S-wave (km/s) = 3.94229 2.95653 3.48444
# Velocity P-wave (km/s) = 6.26063 5.94379 6.10427
#
# Compressibility (1/GPa) = 0.03065648
#
# Stress axis : x y z
#
# Youngs Moduli (GPa) = 69.80884 17.99853 44.12585
#
# Poissons Ratio (x) = 0.29757 -0.05894
# Poissons Ratio (y) = 1.15415 0.69490
# Poissons Ratio (z) = -0.09324 0.28344
#
# Static dielectric constant tensor:
#      x y z
#    x 1.597230 0.000000 0.000000 
#    y 0.000000 1.602570 0.000000 
#    z 0.000000 0.000000 1.597250 
# 
# From -- ./inp_files/13064.got.cif
#   From: 2010.05.17/outbox.cif.g08.bks.cpg/sg53_7_cif.got.tgz:13064.got - 2010.06.03 12:45:16.
