data_PCOD9416784
_publ_section_title
;
Structure prediction by ZEFSAII (Michael W. Deem and Ramdas Pophale) SiO2 
 PCOD9416784
Probable space group: P M N A
;
_chemical_formula_sum "Si O2"
_cell_formula_units_Z 64
_cell_length_a 8.755945
_cell_length_b 18.709042
_cell_length_c 23.800142
_cell_angle_alpha 90.000000
_cell_angle_beta 90.000000
_cell_angle_gamma 90.000000
_cell_volume 3898.828419
_symmetry_space_group_name_H-M "P M N A"
_symmetry_group_IT_number 53
_symmetry_cell_setting 'orthorhombic'
loop_
_space_group_symop_operation_xyz
x,y,z
1/2-x,-y,1/2+z
x,-y,-z
1/2-x,y,1/2-z
-x,-y,-z
1/2+x,y,1/2-z
-x,y,z
1/2+x,-y,1/2+z
loop_
_atom_site_type_symbol
_atom_site_label
_atom_site_fract_x
_atom_site_fract_y
_atom_site_fract_z
Si Si1 0.317361 0.075767 0.313147
Si Si2 0.684847 0.633921 0.608809
Si Si3 0.183866 0.765530 0.812829
Si Si4 0.816649 0.502962 0.811033
Si Si5 0.683047 0.583703 0.006603
Si Si6 0.182267 0.932366 0.313073
Si Si7 0.683088 0.773159 0.186831
Si Si8 0.816481 0.361440 0.876436
O O1 0.250000 0.077117 0.250000
O O2 0.500000 0.069452 0.310788
O O3 0.277064 0.154806 0.335207
O O4 0.250382 0.003942 0.340745
O O5 0.500000 0.634570 0.603067
O O6 0.731516 0.703536 0.644459
O O7 0.728899 0.564390 0.645274
O O8 0.759328 0.625704 0.548132
O O9 0.250000 0.755789 0.750000
O O10 0.000000 0.762356 0.807639
O O11 0.750000 0.516833 0.750000
O O12 0.769522 0.425813 0.834583
O O13 0.000000 0.504098 0.807497
O O14 0.500000 0.586287 0.010388
O O15 0.729006 0.500000 0.000000
O O16 0.755172 0.616983 0.062512
O O17 0.250000 0.930713 0.250000
O O18 0.219266 0.853300 0.335625
O O19 0.000000 0.939580 0.310139
O O20 0.750000 0.765994 0.250000
O O21 0.500000 0.766864 0.190397
O O22 0.750160 0.712017 0.147416
O O23 0.000000 0.358257 0.877619
#
# Coordination Sequence:
#
# PCOD9416784 Si02
#       8
#     8   8   8   8   8   8   8   8
#     4   9  15  24  40  65  96 130 166 199 236 285
#     4  10  20  36  53  71  98 131 167 205 247 295
#     4   9  18  30  47  72 103 136 166 202 246 293
#     4  10  21  33  49  72  98 129 162 196 238 291
#     4  11  23  38  56  76  95 123 165 215 257 294
#     4   9  16  26  42  65  95 132 167 199 239 287
#     4  10  20  33  49  73 105 136 168 206 248 298
#     4  11  22  36  54  74  97 131 168 206 253 298
#
# _framework density 16.415187
#
# number of rings (size 3 to 8) (size 9 to 14) (size 15 to 20)
#    0.000    2.125    1.250    3.375    0.000    5.500 
#    0.000    0.000    0.000    0.000    0.000    0.875 
#    0.000    7.000    0.000    0.000    0.000    0.000 
#
# Total GULP energy -356840.743196 kJ/mol
# GULP energy per Si atom -5575.636612 kJ/mol
# Density = 1.637783 g / cm^3
# Si number density = 16.415187 Si / 1000 Ang^3
#
#
#
# Elastic Constant Matrix: (Units=GPa)
#
#
# Indices 1 2 3 4 5 6 
#
# 1 38.0207 34.5569 13.8333 0.0000 0.0000 0.0000
# 2 34.5569 127.7833 18.5243 0.0000 0.0000 0.0000
# 3 13.8333 18.5243 53.5218 0.0000 0.0000 0.0000
# 4 0.0000 0.0000 0.0000 3.0635 0.0000 0.0000
# 5 0.0000 0.0000 0.0000 0.0000 25.1887 0.0000
# 6 0.0000 0.0000 0.0000 0.0000 0.0000 -27.8333
#
#
#
# Elastic Compliance Matrix: (Units=1/GPa)
#
#
# Indices 1 2 3 4 5 6 
#
# 1 0.036841 -0.009036 -0.006394 0.000000 0.000000 0.000000
# 2 -0.009036 0.010455 -0.001283 0.000000 0.000000 0.000000
# 3 -0.006394 -0.001283 0.020781 0.000000 0.000000 0.000000
# 4 0.000000 0.000000 0.000000 0.326422 0.000000 0.000000
# 5 0.000000 0.000000 0.000000 0.000000 0.039700 0.000000
# 6 0.000000 0.000000 0.000000 0.000000 0.000000 -0.035928
#
#
# Mechanical properties :
#
#
# Convention : Reuss Voigt Hill
#
# Bulk Modulus (GPa) = 28.86039 39.23944 34.04991
# Shear Modulus (GPa) = 11.28034 10.24454 10.76244
#
# Velocity S-wave (km/s) = 2.62427 2.50089 2.56332
# Velocity P-wave (km/s) = 5.17707 5.68291 5.43588
#
# Compressibility (1/GPa) = 0.03464957
#
# Stress axis : x y z
#
# Youngs Moduli (GPa) = 27.14381 95.64418 48.12129
#
# Poissons Ratio (x) = 0.86424 0.30771
# Poissons Ratio (y) = 0.24527 0.06175
# Poissons Ratio (z) = 0.17357 0.12273
#
# Static dielectric constant tensor:
#      x y z
#    x 1.553420 0.000000 0.000000 
#    y 0.000000 1.603100 0.000000 
#    z 0.000000 0.000000 1.507050 
# 
# From -- ./inp_files/31144.got.cif
#   From: 2010.05.17/outbox.cif.g08.bks.cpg/sg53_16_cif.got.tgz:31144.got - 2010.06.03 12:45:16.
