data_PCOD9416039
_publ_section_title
;
Structure prediction by ZEFSAII (Michael W. Deem and Ramdas Pophale) SiO2 
 PCOD9416039
Probable space group: P M N A
;
_chemical_formula_sum "Si O2"
_cell_formula_units_Z 48
_cell_length_a 16.944720
_cell_length_b 13.066390
_cell_length_c 12.138860
_cell_angle_alpha 90.000000
_cell_angle_beta 90.000000
_cell_angle_gamma 90.000000
_cell_volume 2687.620321
_symmetry_space_group_name_H-M "P M N A"
_symmetry_group_IT_number 53
_symmetry_cell_setting 'orthorhombic'
loop_
_space_group_symop_operation_xyz
x,y,z
1/2-x,-y,1/2+z
x,-y,-z
1/2-x,y,1/2-z
-x,-y,-z
1/2+x,y,1/2-z
-x,y,z
1/2+x,-y,1/2+z
loop_
_atom_site_type_symbol
_atom_site_label
_atom_site_fract_x
_atom_site_fract_y
_atom_site_fract_z
Si Si1 0.903591 0.811390 0.733897
Si Si2 0.343069 0.198794 0.762257
Si Si3 0.904740 0.611959 0.132766
Si Si4 0.404529 0.120495 0.993625
Si Si5 0.595217 0.008008 0.625381
Si Si6 0.903952 0.622027 0.880353
O O1 0.879863 0.825143 0.607225
O O2 0.876752 0.709185 0.796395
O O3 0.000000 0.811062 0.734769
O O4 0.877958 0.911112 0.802605
O O5 0.250000 0.192499 0.750000
O O6 0.371647 0.309001 0.720445
O O7 0.368961 0.172505 0.885994
O O8 0.380507 0.112522 0.683438
O O9 0.880344 0.493804 0.149405
O O10 0.000000 0.615565 0.136814
O O11 0.881065 0.642297 0.007526
O O12 0.500000 0.124916 0.985078
O O13 0.383435 0.000000 0.000000
O O14 0.500000 0.004713 0.622958
O O15 0.623987 0.000000 0.500000
O O16 0.000000 0.623285 0.879450
#
# Coordination Sequence:
#
# PCOD9416039 Si02
#       6
#     8   8   8   8   8   8
#     4   9  16  29  54  84 107 128 168 222 270 321
#     4  12  24  35  51  75 113 149 182 221 262 327
#     4   9  17  33  58  81 105 137 180 227 275 318
#     4  10  19  35  57  77 106 147 181 213 265 328
#     4  10  19  33  56  83 106 133 177 231 276 313
#     4   8  15  30  58  89 105 125 169 233 285 317
#
# _framework density 17.859666000000001
#
# number of rings (size 3 to 8) (size 9 to 14) (size 15 to 20)
#    0.000    2.333    1.667    3.500    0.000    3.333 
#    0.000    0.833    7.333    4.000    0.000    0.000 
#    0.000    0.000    0.000    0.000    0.000    0.000 
#
# Total GULP energy -267799.668607 kJ/mol
# GULP energy per Si atom -5579.159763 kJ/mol
# Density = 1.781902 g / cm^3
# Si number density = 17.859666 Si / 1000 Ang^3
#
#
#
# Elastic Constant Matrix: (Units=GPa)
#
#
# Indices 1 2 3 4 5 6 
#
# 1 10.0137 17.3886 29.8014 0.0000 0.0000 0.0000
# 2 17.3886 93.2687 55.2067 0.0000 0.0000 0.0000
# 3 29.8014 55.2067 124.0349 0.0000 0.0000 0.0000
# 4 0.0000 0.0000 0.0000 30.7702 0.0000 0.0000
# 5 0.0000 0.0000 0.0000 0.0000 1.4107 0.0000
# 6 0.0000 0.0000 0.0000 0.0000 0.0000 -14.1174
#
#
#
# Elastic Compliance Matrix: (Units=1/GPa)
#
#
# Indices 1 2 3 4 5 6 
#
# 1 0.383756 -0.023039 -0.081949 0.000000 0.000000 0.000000
# 2 -0.023039 0.015940 -0.001559 0.000000 0.000000 0.000000
# 3 -0.081949 -0.001559 0.028446 0.000000 0.000000 0.000000
# 4 0.000000 0.000000 0.000000 0.032499 0.000000 0.000000
# 5 0.000000 0.000000 0.000000 0.000000 0.708853 0.000000
# 6 0.000000 0.000000 0.000000 0.000000 0.000000 -0.070835
#
#
# Mechanical properties :
#
#
# Convention : Reuss Voigt Hill
#
# Bulk Modulus (GPa) = 4.65016 48.01232 26.33124
# Shear Modulus (GPa) = 3.61419 11.94075 7.77747
#
# Velocity S-wave (km/s) = 1.42410 2.58851 2.08907
# Velocity P-wave (km/s) = 2.30509 5.98960 4.53810
#
# Compressibility (1/GPa) = 0.21504636
#
# Stress axis : x y z
#
# Youngs Moduli (GPa) = 2.60582 62.73558 35.15457
#
# Poissons Ratio (x) = 1.44539 2.88088
# Poissons Ratio (y) = 0.06004 0.05481
# Poissons Ratio (z) = 0.21354 0.09781
#
# Static dielectric constant tensor:
#      x y z
#    x 1.597180 0.000000 0.000000 
#    y 0.000000 1.601550 0.000000 
#    z 0.000000 0.000000 1.605040 
# 
# From -- ./inp_files/16939.got.cif
#   From: 2010.05.17/outbox.cif.g08.bks.cpg/sg53_9_cif.got.tgz:16939.got - 2010.06.03 12:45:16.
