data_PCOD9416133
_publ_section_title
;
Structure prediction by ZEFSAII (Michael W. Deem and Ramdas Pophale) SiO2 
 PCOD9416133
Probable space group: P M N A
;
_chemical_formula_sum "Si O2"
_cell_formula_units_Z 44
_cell_length_a 17.379653
_cell_length_b 5.247358
_cell_length_c 25.900777
_cell_angle_alpha 90.000000
_cell_angle_beta 90.000000
_cell_angle_gamma 90.000000
_cell_volume 2362.079926
_symmetry_space_group_name_H-M "P M N A"
_symmetry_group_IT_number 53
_symmetry_cell_setting 'orthorhombic'
loop_
_space_group_symop_operation_xyz
x,y,z
1/2-x,-y,1/2+z
x,-y,-z
1/2-x,y,1/2-z
-x,-y,-z
1/2+x,y,1/2-z
-x,y,z
1/2+x,-y,1/2+z
loop_
_atom_site_type_symbol
_atom_site_label
_atom_site_fract_x
_atom_site_fract_y
_atom_site_fract_z
Si Si1 0.230016 0.881499 0.109939
Si Si2 0.676580 0.387257 0.142836
Si Si3 0.417399 0.690761 0.952578
Si Si4 0.721302 0.000000 0.000000
Si Si5 0.408949 0.554527 0.749892
Si Si6 0.409827 0.055208 0.681854
O O1 0.265867 0.617173 0.129786
O O2 0.231716 0.879769 0.047275
O O3 0.145777 0.917480 0.133298
O O4 0.281835 0.116011 0.132275
O O5 0.604977 0.420404 0.102914
O O6 0.643802 0.408748 0.200228
O O7 0.500000 0.831950 0.948090
O O8 0.426120 0.500000 0.000000
O O9 0.339724 0.828752 0.969336
O O10 0.500000 0.560147 0.764112
O O11 0.393687 0.287316 0.721375
O O12 0.395655 0.787965 0.710669
O O13 0.500000 0.069047 0.668154
#
# Coordination Sequence:
#
# PCOD9416133 Si02
#       6
#     8   8   8   4   8   8
#     4  11  23  37  59  81 113 146 185 236 277 330
#     4  11  22  36  56  88 113 148 186 224 273 325
#     4  10  19  34  54  78 113 152 186 217 261 325
#     4  10  21  38  53  82 114 148 188 236 279 318
#     4  10  21  38  58  83 117 148 182 226 272 330
#     4  10  22  40  59  81 109 146 185 230 288 337
#
# _framework density 18.627652999999999
#
# number of rings (size 3 to 8) (size 9 to 14) (size 15 to 20)
#    0.000    1.636    1.818    3.000    0.000    4.364 
#    0.000    2.273    0.000    0.000    0.000    7.636 
#    0.000    0.000    0.000    0.000    0.000    0.000 
#
# Total GULP energy -245284.704259 kJ/mol
# GULP energy per Si atom -5574.652370 kJ/mol
# Density = 1.858526 g / cm^3
# Si number density = 18.627653 Si / 1000 Ang^3
#
#
#
# Elastic Constant Matrix: (Units=GPa)
#
#
# Indices 1 2 3 4 5 6 
#
# 1 50.0852 -16.4901 47.2281 0.0000 0.0000 0.0000
# 2 -16.4901 47.3701 -21.4128 0.0000 0.0000 0.0000
# 3 47.2281 -21.4128 78.0338 0.0000 0.0000 0.0000
# 4 0.0000 0.0000 0.0000 17.1826 0.0000 0.0000
# 5 0.0000 0.0000 0.0000 0.0000 57.3452 0.0000
# 6 0.0000 0.0000 0.0000 0.0000 0.0000 25.3071
#
#
#
# Elastic Compliance Matrix: (Units=1/GPa)
#
#
# Indices 1 2 3 4 5 6 
#
# 1 0.047167 0.004013 -0.027446 0.000000 0.000000 0.000000
# 2 0.004013 0.024441 0.004278 0.000000 0.000000 0.000000
# 3 -0.027446 0.004278 0.030600 0.000000 0.000000 0.000000
# 4 0.000000 0.000000 0.000000 0.058199 0.000000 0.000000
# 5 0.000000 0.000000 0.000000 0.000000 0.017438 0.000000
# 6 0.000000 0.000000 0.000000 0.000000 0.000000 0.039515
#
#
# Mechanical properties :
#
#
# Convention : Reuss Voigt Hill
#
# Bulk Modulus (GPa) = 15.64972 21.57106 18.61039
# Shear Modulus (GPa) = 18.05261 31.04458 24.54860
#
# Velocity S-wave (km/s) = 3.11646 4.08681 3.63417
# Velocity P-wave (km/s) = 4.62270 5.82019 5.25566
#
# Compressibility (1/GPa) = 0.06389891
#
# Stress axis : x y z
#
# Youngs Moduli (GPa) = 21.20114 40.91462 32.68012
#
# Poissons Ratio (x) = -0.16420 0.89693
# Poissons Ratio (y) = -0.08509 -0.13980
# Poissons Ratio (z) = 0.58188 -0.17503
#
# Static dielectric constant tensor:
#      x y z
#    x 1.696990 0.000000 0.000000 
#    y 0.000000 1.626220 0.000000 
#    z 0.000000 0.000000 1.570100 
# 
# From -- ./inp_files/35457.got.cif
#   From: 2010.05.17/outbox.cif.g08.bks.cpg/sg53_18_cif.got.tgz:35457.got - 2010.06.03 12:45:16.
