data_PCOD9416146
_publ_section_title
;
Structure prediction by ZEFSAII (Michael W. Deem and Ramdas Pophale) SiO2 
 PCOD9416146
Probable space group: P M N A
;
_chemical_formula_sum "Si O2"
_cell_formula_units_Z 64
_cell_length_a 7.862466
_cell_length_b 21.003740
_cell_length_c 20.032607
_cell_angle_alpha 90.000000
_cell_angle_beta 90.000000
_cell_angle_gamma 90.000000
_cell_volume 3308.208591
_symmetry_space_group_name_H-M "P M N A"
_symmetry_group_IT_number 53
_symmetry_cell_setting 'orthorhombic'
loop_
_space_group_symop_operation_xyz
x,y,z
1/2-x,-y,1/2+z
x,-y,-z
1/2-x,y,1/2-z
-x,-y,-z
1/2+x,y,1/2-z
-x,y,z
1/2+x,-y,1/2+z
loop_
_atom_site_type_symbol
_atom_site_label
_atom_site_fract_x
_atom_site_fract_y
_atom_site_fract_z
Si Si1 0.703904 0.263580 0.676746
Si Si2 0.204624 0.242210 0.324696
Si Si3 0.294841 0.882840 0.323936
Si Si4 0.800810 0.059159 0.959373
Si Si5 0.799109 0.819292 0.541694
Si Si6 0.203171 0.436661 0.035612
Si Si7 0.206966 0.308780 0.964075
Si Si8 0.702532 0.611946 0.824771
O O1 0.750000 0.287921 0.750000
O O2 0.500000 0.260516 0.673481
O O3 0.768149 0.190480 0.670644
O O4 0.761042 0.303940 0.613169
O O5 0.250000 0.221785 0.250000
O O6 0.265781 0.196651 0.383829
O O7 0.269133 0.315109 0.333643
O O8 0.000000 0.244713 0.330082
O O9 0.250000 0.906401 0.250000
O O10 0.500000 0.880427 0.328827
O O11 0.228652 0.923543 0.386365
O O12 0.000000 0.044185 0.948297
O O13 0.787778 0.122453 0.004103
O O14 0.724390 0.000000 0.000000
O O15 0.770935 0.754365 0.500770
O O16 0.000000 0.833306 0.544354
O O17 0.235068 0.431093 0.114485
O O18 0.000000 0.436445 0.025751
O O19 0.271199 0.500000 0.000000
O O20 0.269096 0.372108 0.000999
O O21 0.000000 0.307572 0.966817
O O22 0.750000 0.591213 0.750000
O O23 0.500000 0.614621 0.828793
#
# Coordination Sequence:
#
# PCOD9416146 Si02
#       8
#     8   8   8   8   8   8   8   8
#     4   9  17  30  49  75 103 132 171 217 263 312
#     4   9  19  33  51  79 109 138 176 224 270 322
#     4   9  17  31  51  76 102 132 174 215 256 310
#     4  10  21  38  57  78 107 144 183 217 261 325
#     4  11  21  34  54  82 111 135 174 226 272 316
#     4  10  21  36  55  81 112 147 185 226 274 328
#     4  10  19  34  55  77 106 142 179 219 266 321
#     4  10  19  34  55  80 109 142 184 228 274 329
#
# _framework density 19.345817
#
# number of rings (size 3 to 8) (size 9 to 14) (size 15 to 20)
#    0.000    2.250    2.500    0.750    0.000    3.000 
#    0.000    1.250    0.000    4.500    0.000    0.000 
#    0.000    0.000    0.000    0.000    0.000    0.000 
#
# Total GULP energy -357058.582587 kJ/mol
# GULP energy per Si atom -5579.040353 kJ/mol
# Density = 1.930179 g / cm^3
# Si number density = 19.345817 Si / 1000 Ang^3
#
#
#
# Elastic Constant Matrix: (Units=GPa)
#
#
# Indices 1 2 3 4 5 6 
#
# 1 16.4758 -5.8114 -10.3535 0.0000 0.0000 0.0000
# 2 -5.8114 86.9945 60.5900 0.0000 0.0000 0.0000
# 3 -10.3535 60.5900 171.7437 0.0000 0.0000 0.0000
# 4 0.0000 0.0000 0.0000 26.6875 0.0000 0.0000
# 5 0.0000 0.0000 0.0000 0.0000 23.6813 0.0000
# 6 0.0000 0.0000 0.0000 0.0000 0.0000 -3.5484
#
#
#
# Elastic Compliance Matrix: (Units=1/GPa)
#
#
# Indices 1 2 3 4 5 6 
#
# 1 0.063369 0.002085 0.003085 0.000000 0.000000 0.000000
# 2 0.002085 0.015308 -0.005275 0.000000 0.000000 0.000000
# 3 0.003085 -0.005275 0.007870 0.000000 0.000000 0.000000
# 4 0.000000 0.000000 0.000000 0.037471 0.000000 0.000000
# 5 0.000000 0.000000 0.000000 0.000000 0.042227 0.000000
# 6 0.000000 0.000000 0.000000 0.000000 0.000000 -0.281821
#
#
# Mechanical properties :
#
#
# Convention : Reuss Voigt Hill
#
# Bulk Modulus (GPa) = 11.58273 40.45159 26.01716
# Shear Modulus (GPa) = -57.74574 24.75001 -16.49787
#
# Velocity S-wave (km/s) = -5.46937 3.58068 -2.92342
# Velocity P-wave (km/s) = 5.82110 6.16848 1.44308
#
# Compressibility (1/GPa) = 0.08633545
#
# Stress axis : x y z
#
# Youngs Moduli (GPa) = 15.78062 65.32485 127.07224
#
# Poissons Ratio (x) = -0.13618 -0.39198
# Poissons Ratio (y) = -0.03290 0.67030
# Poissons Ratio (z) = -0.04868 0.34458
#
# Static dielectric constant tensor:
#      x y z
#    x 1.717030 0.000000 0.000000 
#    y 0.000000 1.659560 0.000000 
#    z 0.000000 0.000000 1.695800 
# 
# From -- ./inp_files/26850.got.cif
#   From: 2010.05.17/outbox.cif.g08.bks.cpg/sg53_14_cif.got.tgz:26850.got - 2010.06.03 12:45:16.
