data_PCOD9416522
_publ_section_title
;
Structure prediction by ZEFSAII (Michael W. Deem and Ramdas Pophale) SiO2 
 PCOD9416522
Probable space group: P M N A
;
_chemical_formula_sum "Si O2"
_cell_formula_units_Z 32
_cell_length_a 15.985995
_cell_length_b 10.952363
_cell_length_c 8.858015
_cell_angle_alpha 90.000000
_cell_angle_beta 90.000000
_cell_angle_gamma 90.000000
_cell_volume 1550.900420
_symmetry_space_group_name_H-M "P M N A"
_symmetry_group_IT_number 53
_symmetry_cell_setting 'orthorhombic'
loop_
_space_group_symop_operation_xyz
x,y,z
1/2-x,-y,1/2+z
x,-y,-z
1/2-x,y,1/2-z
-x,-y,-z
1/2+x,y,1/2-z
-x,y,z
1/2+x,-y,1/2+z
loop_
_atom_site_type_symbol
_atom_site_label
_atom_site_fract_x
_atom_site_fract_y
_atom_site_fract_z
Si Si1 0.656398 0.132505 0.320542
Si Si2 0.405474 0.636582 0.139845
Si Si3 0.156718 0.135368 0.818497
Si Si4 0.343616 0.622464 0.814155
O O1 0.750000 0.130677 0.250000
O O2 0.661365 0.143014 0.500825
O O3 0.616298 0.255626 0.256193
O O4 0.619716 0.999222 0.281799
O O5 0.500000 0.638340 0.080905
O O6 0.390973 0.750521 0.248128
O O7 0.388930 0.505670 0.216192
O O8 0.344818 0.641953 0.994836
O O9 0.250000 0.139621 0.750000
O O10 0.250000 0.611043 0.750000
#
# Coordination Sequence:
#
# PCOD9416522 Si02
#       4
#     8   8   8   8
#     4   9  19  34  58  90 116 144 198 257 291 330
#     4  11  24  41  58  87 125 157 190 241 298 352
#     4  10  19  36  61  87 116 154 199 244 290 349
#     4  10  20  37  61  86 112 151 199 242 287 345
#
# _framework density 20.633172999999999
#
# number of rings (size 3 to 8) (size 9 to 14) (size 15 to 20)
#    0.000    2.000    0.000    5.250    0.000    8.000 
#    0.000   10.000    0.000    0.000    0.000    0.000 
#    0.000    0.000    0.000    0.000    0.000    0.000 
#
# Total GULP energy -178552.486721 kJ/mol
# GULP energy per Si atom -5579.765210 kJ/mol
# Density = 2.058621 g / cm^3
# Si number density = 20.633173 Si / 1000 Ang^3
#
#
#
# Elastic Constant Matrix: (Units=GPa)
#
#
# Indices 1 2 3 4 5 6 
#
# 1 46.5606 22.5285 18.6433 0.0000 0.0000 0.0000
# 2 22.5285 229.9988 78.3721 0.0000 0.0000 0.0000
# 3 18.6433 78.3721 81.1545 0.0000 0.0000 0.0000
# 4 0.0000 0.0000 0.0000 41.8948 0.0000 0.0000
# 5 0.0000 0.0000 0.0000 0.0000 8.4015 0.0000
# 6 0.0000 0.0000 0.0000 0.0000 0.0000 -20.9000
#
#
#
# Elastic Compliance Matrix: (Units=1/GPa)
#
#
# Indices 1 2 3 4 5 6 
#
# 1 0.023728 -0.000696 -0.004779 0.000000 0.000000 0.000000
# 2 -0.000696 0.006501 -0.006118 0.000000 0.000000 0.000000
# 3 -0.004779 -0.006118 0.019328 0.000000 0.000000 0.000000
# 4 0.000000 0.000000 0.000000 0.023869 0.000000 0.000000
# 5 0.000000 0.000000 0.000000 0.000000 0.119027 0.000000
# 6 0.000000 0.000000 0.000000 0.000000 0.000000 -0.047847
#
#
# Mechanical properties :
#
#
# Convention : Reuss Voigt Hill
#
# Bulk Modulus (GPa) = 37.92020 66.31129 52.11575
# Shear Modulus (GPa) = 28.31555 21.75726 25.03640
#
# Velocity S-wave (km/s) = 3.70852 3.25080 3.48718
# Velocity P-wave (km/s) = 6.06264 6.80428 6.44414
#
# Compressibility (1/GPa) = 0.02637117
#
# Stress axis : x y z
#
# Youngs Moduli (GPa) = 42.14506 153.82952 51.73764
#
# Poissons Ratio (x) = 0.10702 0.24725
# Poissons Ratio (y) = 0.02932 0.31653
# Poissons Ratio (z) = 0.20141 0.94113
#
# Static dielectric constant tensor:
#      x y z
#    x 1.708270 0.000000 0.000000 
#    y 0.000000 1.801740 0.000000 
#    z 0.000000 0.000000 1.715840 
# 
# From -- ./inp_files/7989.got.cif
#   From: 2010.05.17/outbox.cif.g08.bks.cpg/sg53_4_cif.got.tgz:7989.got - 2010.06.03 12:45:16.
