data_PCOD9416010
_publ_section_title
;
Structure prediction by ZEFSAII (Michael W. Deem and Ramdas Pophale) SiO2 
 PCOD9416010
Probable space group: P M N A
;
_chemical_formula_sum "Si O2"
_cell_formula_units_Z 48
_cell_length_a 8.675146
_cell_length_b 15.138938
_cell_length_c 19.125460
_cell_angle_alpha 90.000000
_cell_angle_beta 90.000000
_cell_angle_gamma 90.000000
_cell_volume 2511.794426
_symmetry_space_group_name_H-M "P M N A"
_symmetry_group_IT_number 53
_symmetry_cell_setting 'orthorhombic'
loop_
_space_group_symop_operation_xyz
x,y,z
1/2-x,-y,1/2+z
x,-y,-z
1/2-x,y,1/2-z
-x,-y,-z
1/2+x,y,1/2-z
-x,y,z
1/2+x,-y,1/2+z
loop_
_atom_site_type_symbol
_atom_site_label
_atom_site_fract_x
_atom_site_fract_y
_atom_site_fract_z
Si Si1 0.815830 0.533374 0.326676
Si Si2 0.314919 0.222375 0.175712
Si Si3 0.815444 0.051808 0.401895
Si Si4 0.315700 0.878686 0.451558
Si Si5 0.686283 0.624682 0.930365
Si Si6 0.815957 0.322923 0.922035
O O1 0.750000 0.515189 0.250000
O O2 0.768273 0.458896 0.383159
O O3 0.758246 0.626246 0.357191
O O4 0.000000 0.531988 0.322970
O O5 0.250000 0.250687 0.250000
O O6 0.500000 0.225099 0.178456
O O7 0.267606 0.122764 0.156329
O O8 0.267938 0.288733 0.114040
O O9 0.767115 0.096369 0.475676
O O10 0.000000 0.041263 0.400807
O O11 0.735103 0.956794 0.399454
O O12 0.500000 0.882050 0.462087
O O13 0.272570 0.780470 0.427564
O O14 0.500000 0.623465 0.938340
O O15 0.759675 0.630613 0.006506
O O16 0.000000 0.328492 0.917281
#
# Coordination Sequence:
#
# PCOD9416010 Si02
#       6
#     8   8   8   8   8   8
#     4  11  24  41  62  85 116 155 193 240 294 348
#     4  10  21  35  54  82 117 153 191 234 288 348
#     4  10  19  33  55  81 111 149 188 232 283 340
#     4  10  20  34  55  83 112 145 186 235 284 333
#     4  10  21  39  60  86 117 151 192 239 292 347
#     4  11  23  38  60  89 118 152 195 242 290 343
#
# _framework density 19.109843999999999
#
# number of rings (size 3 to 8) (size 9 to 14) (size 15 to 20)
#    0.000    1.667    1.667    4.000    0.000    7.333 
#    0.000    0.833    0.000    2.000    0.000    0.000 
#    0.000    0.000    0.000    0.000    0.000    0.000 
#
# Total GULP energy -268153.318310 kJ/mol
# GULP energy per Si atom -5586.527465 kJ/mol
# Density = 1.906635 g / cm^3
# Si number density = 19.109844 Si / 1000 Ang^3
#
#
#
# Elastic Constant Matrix: (Units=GPa)
#
#
# Indices 1 2 3 4 5 6 
#
# 1 25.1510 24.1643 9.6579 0.0000 0.0000 0.0000
# 2 24.1643 111.6757 18.1494 0.0000 0.0000 0.0000
# 3 9.6579 18.1494 41.2814 0.0000 0.0000 0.0000
# 4 0.0000 0.0000 0.0000 20.2579 0.0000 0.0000
# 5 0.0000 0.0000 0.0000 0.0000 27.9548 0.0000
# 6 0.0000 0.0000 0.0000 0.0000 0.0000 28.4952
#
#
#
# Elastic Compliance Matrix: (Units=1/GPa)
#
#
# Indices 1 2 3 4 5 6 
#
# 1 0.052450 -0.010075 -0.007842 0.000000 0.000000 0.000000
# 2 -0.010075 0.011579 -0.002734 0.000000 0.000000 0.000000
# 3 -0.007842 -0.002734 0.027260 0.000000 0.000000 0.000000
# 4 0.000000 0.000000 0.000000 0.049363 0.000000 0.000000
# 5 0.000000 0.000000 0.000000 0.000000 0.035772 0.000000
# 6 0.000000 0.000000 0.000000 0.000000 0.000000 0.035094
#
#
# Mechanical properties :
#
#
# Convention : Reuss Voigt Hill
#
# Bulk Modulus (GPa) = 20.00412 31.33904 25.67158
# Shear Modulus (GPa) = 18.55412 23.75067 21.15239
#
# Velocity S-wave (km/s) = 3.11934 3.52923 3.33060
# Velocity P-wave (km/s) = 4.84401 5.74825 5.31539
#
# Compressibility (1/GPa) = 0.04998970
#
# Stress axis : x y z
#
# Youngs Moduli (GPa) = 19.06560 86.36528 36.68326
#
# Poissons Ratio (x) = 0.87011 0.28766
# Poissons Ratio (y) = 0.19208 0.10028
# Poissons Ratio (z) = 0.14951 0.23609
#
# Static dielectric constant tensor:
#      x y z
#    x 1.640010 0.000000 0.000000 
#    y 0.000000 1.698110 0.000000 
#    z 0.000000 0.000000 1.631570 
# 
# From -- ./inp_files/26293.got.cif
#   From: 2010.05.17/outbox.cif.g08.bks.cpg/sg53_14_cif.got.tgz:26293.got - 2010.06.03 12:45:16.
