data_PCOD9416978
_publ_section_title
;
Structure prediction by ZEFSAII (Michael W. Deem and Ramdas Pophale) SiO2 
 PCOD9416978
Probable space group: P M N A
;
_chemical_formula_sum "Si O2"
_cell_formula_units_Z 56
_cell_length_a 14.753198
_cell_length_b 24.495599
_cell_length_c 8.735590
_cell_angle_alpha 90.000000
_cell_angle_beta 90.000000
_cell_angle_gamma 90.000000
_cell_volume 3156.941087
_symmetry_space_group_name_H-M "P M N A"
_symmetry_group_IT_number 53
_symmetry_cell_setting 'orthorhombic'
loop_
_space_group_symop_operation_xyz
x,y,z
1/2-x,-y,1/2+z
x,-y,-z
1/2-x,y,1/2-z
-x,-y,-z
1/2+x,y,1/2-z
-x,y,z
1/2+x,-y,1/2+z
loop_
_atom_site_type_symbol
_atom_site_label
_atom_site_fract_x
_atom_site_fract_y
_atom_site_fract_z
Si Si1 0.750000 0.939688 0.433832
Si Si2 0.250000 0.353319 0.935099
Si Si3 0.605199 0.849691 0.064780
Si Si4 0.104460 0.557665 0.434103
Si Si5 0.250000 0.767499 0.567692
Si Si6 0.394801 0.849691 0.435220
Si Si7 0.104460 0.442335 0.934103
O O1 0.750000 0.943144 0.250000
O O2 0.838154 0.903953 0.479293
O O3 0.661846 0.903953 0.479293
O O4 0.750000 0.000000 0.500000
O O5 0.250000 0.346835 0.750000
O O6 0.335848 0.390619 0.979307
O O7 0.164152 0.390619 0.979307
O O8 0.250000 0.294480 0.010622
O O9 0.500000 0.850942 0.018224
O O10 0.608471 0.845757 0.250000
O O11 0.662174 0.799500 0.996847
O O12 0.137734 0.500000 0.500000
O O13 0.107931 0.554038 0.250000
O O14 0.000000 0.564349 0.481997
O O15 0.250000 0.770157 0.750000
O O16 0.337826 0.799501 0.503153
O O17 0.500000 0.850942 0.481776
O O18 0.000000 0.435651 0.981997
O O19 0.137734 0.500000 0.000000
#
# Coordination Sequence:
#
# PCOD9416978 Si02
#       7
#     8   8   8   8   8   8   8
#     4   9  18  32  52  82 114 141 173 213 257 306
#     4  10  20  34  51  71  98 134 173 207 248 310
#     4   9  19  38  60  77 101 143 186 218 255 309
#     4   9  18  32  50  72  97 126 162 205 253 305
#     4  11  23  36  52  79 110 135 170 224 275 314
#     4   9  19  38  60  77 101 143 186 218 255 309
#     4   9  18  32  50  72  97 126 162 205 253 305
#
# _framework density 17.738689999999998
#
# number of rings (size 3 to 8) (size 9 to 14) (size 15 to 20)
#    0.000    2.571    0.000    2.571    0.000    5.714 
#    0.000    2.857    0.000    0.000    0.000    0.000 
#    0.000    0.000    0.000    0.000    0.000    0.000 
#
# Total GULP energy -312385.160398 kJ/mol
# GULP energy per Si atom -5578.306436 kJ/mol
# Density = 1.769832 g / cm^3
# Si number density = 17.738690 Si / 1000 Ang^3
#
#
#
# Elastic Constant Matrix: (Units=GPa)
#
#
# Indices 1 2 3 4 5 6 
#
# 1 168.9245 104.4626 39.2428 0.0000 0.0000 0.0000
# 2 104.4626 197.3772 41.6024 0.0000 0.0000 0.0000
# 3 39.2428 41.6024 18.9447 0.0000 0.0000 0.0000
# 4 0.0000 0.0000 0.0000 36.4608 0.0000 0.0000
# 5 0.0000 0.0000 0.0000 0.0000 14.6998 0.0000
# 6 0.0000 0.0000 0.0000 0.0000 0.0000 16.0111
#
#
#
# Elastic Compliance Matrix: (Units=1/GPa)
#
#
# Indices 1 2 3 4 5 6 
#
# 1 0.011837 -0.002042 -0.020036 0.000000 0.000000 0.000000
# 2 -0.002042 0.009784 -0.017258 0.000000 0.000000 0.000000
# 3 -0.020036 -0.017258 0.132187 0.000000 0.000000 0.000000
# 4 0.000000 0.000000 0.000000 0.027427 0.000000 0.000000
# 5 0.000000 0.000000 0.000000 0.000000 0.068028 0.000000
# 6 0.000000 0.000000 0.000000 0.000000 0.000000 0.062457
#
#
# Mechanical properties :
#
#
# Convention : Reuss Voigt Hill
#
# Bulk Modulus (GPa) = 13.30895 83.98466 48.64681
# Shear Modulus (GPa) = 12.03554 26.76356 19.39955
#
# Velocity S-wave (km/s) = 2.60761 3.88850 3.31059
# Velocity P-wave (km/s) = 4.07250 8.22246 6.48822
#
# Compressibility (1/GPa) = 0.07513742
#
# Stress axis : x y z
#
# Youngs Moduli (GPa) = 84.48137 102.20323 7.56505
#
# Poissons Ratio (x) = 0.20866 0.15158
# Poissons Ratio (y) = 0.17248 0.13055
# Poissons Ratio (z) = 1.69269 1.76377
#
# Static dielectric constant tensor:
#      x y z
#    x 1.619020 0.000000 0.000000 
#    y 0.000000 1.568770 0.000000 
#    z 0.000000 0.000000 1.596810 
# 
# From -- ./inp_files/8862.got.cif
#   From: 2010.05.17/outbox.cif.g08.bks.cpg/sg53_5_cif.got.tgz:8862.got - 2010.06.03 12:45:16.
