data_PCOD9416879
_publ_section_title
;
Structure prediction by ZEFSAII (Michael W. Deem and Ramdas Pophale) SiO2 
 PCOD9416879
Probable space group: P M N A
;
_chemical_formula_sum "Si O2"
_cell_formula_units_Z 52
_cell_length_a 9.563204
_cell_length_b 21.165675
_cell_length_c 14.941994
_cell_angle_alpha 90.000000
_cell_angle_beta 90.000000
_cell_angle_gamma 90.000000
_cell_volume 3024.433926
_symmetry_space_group_name_H-M "P M N A"
_symmetry_group_IT_number 53
_symmetry_cell_setting 'orthorhombic'
loop_
_space_group_symop_operation_xyz
x,y,z
1/2-x,-y,1/2+z
x,-y,-z
1/2-x,y,1/2-z
-x,-y,-z
1/2+x,y,1/2-z
-x,y,z
1/2+x,-y,1/2+z
loop_
_atom_site_type_symbol
_atom_site_label
_atom_site_fract_x
_atom_site_fract_y
_atom_site_fract_z
Si Si1 0.000000 0.571367 0.961345
Si Si2 0.329720 0.260744 0.836533
Si Si3 0.500000 0.465875 0.905272
Si Si4 0.832249 0.149239 0.525987
Si Si5 0.665273 0.892786 0.839953
Si Si6 0.213395 0.605729 0.105135
Si Si7 0.334281 0.041027 0.840729
Si Si8 0.500000 0.487438 0.702027
O O1 0.000000 0.552473 0.856645
O O2 0.000000 0.500000 0.000000
O O3 0.868571 0.604473 0.009990
O O4 0.250000 0.233118 0.750000
O O5 0.500000 0.269792 0.823836
O O6 0.309321 0.212677 0.918482
O O7 0.244617 0.325157 0.856723
O O8 0.362975 0.424199 0.906474
O O9 0.500000 0.500184 0.808018
O O10 0.500000 0.500000 0.000000
O O11 0.780737 0.146871 0.424529
O O12 0.783375 0.089029 0.583363
O O13 0.000000 0.141413 0.518303
O O14 0.750000 0.880887 0.750000
O O15 0.500000 0.881622 0.824566
O O16 0.680665 0.967169 0.864621
O O17 0.127667 0.558638 0.171164
O O18 0.250000 0.052150 0.750000
O O19 0.500000 0.052504 0.825900
#
# Coordination Sequence:
#
# PCOD9416879 Si02
#       8
#     4   8   4   8   8   8   8   4
#     4   8  18  36  54  72 102 134 164 198 246 293
#     4  11  22  34  51  76 105 138 169 203 247 302
#     4  12  20  30  52  82 106 128 167 208 242 288
#     4   9  18  32  49  71 100 134 170 208 250 301
#     4   9  17  31  52  72  94 126 170 216 256 302
#     4  10  20  33  52  76 102 135 167 200 242 298
#     4   9  16  28  48  73  99 130 163 204 259 309
#     4  10  20  36  54  76 106 138 162 200 252 293
#
# _framework density 17.193300000000001
#
# number of rings (size 3 to 8) (size 9 to 14) (size 15 to 20)
#    0.000    2.462    0.769    3.692    2.154    1.846 
#    0.000    1.538    0.000    5.538    0.000    0.000 
#    0.000    0.000    0.000    0.000    0.000    0.000 
#
# Total GULP energy -289504.776894 kJ/mol
# GULP energy per Si atom -5567.399556 kJ/mol
# Density = 1.715417 g / cm^3
# Si number density = 17.193300 Si / 1000 Ang^3
#
#
#
# Elastic Constant Matrix: (Units=GPa)
#
#
# Indices 1 2 3 4 5 6 
#
# 1 77.6062 23.8544 35.5073 0.0000 0.0000 0.0000
# 2 23.8544 34.3282 45.7216 0.0000 0.0000 0.0000
# 3 35.5073 45.7216 129.8423 0.0000 0.0000 0.0000
# 4 0.0000 0.0000 0.0000 19.8769 0.0000 0.0000
# 5 0.0000 0.0000 0.0000 0.0000 11.4974 0.0000
# 6 0.0000 0.0000 0.0000 0.0000 0.0000 0.9121
#
#
#
# Elastic Compliance Matrix: (Units=1/GPa)
#
#
# Indices 1 2 3 4 5 6 
#
# 1 0.016440 -0.010238 -0.000891 0.000000 0.000000 0.000000
# 2 -0.010238 0.061235 -0.018763 0.000000 0.000000 0.000000
# 3 -0.000891 -0.018763 0.014552 0.000000 0.000000 0.000000
# 4 0.000000 0.000000 0.000000 0.050310 0.000000 0.000000
# 5 0.000000 0.000000 0.000000 0.000000 0.086976 0.000000
# 6 0.000000 0.000000 0.000000 0.000000 0.000000 1.096378
#
#
# Mechanical properties :
#
#
# Convention : Reuss Voigt Hill
#
# Bulk Modulus (GPa) = 30.82195 50.21590 40.51893
# Shear Modulus (GPa) = 3.58041 15.57017 9.57529
#
# Velocity S-wave (km/s) = 1.44463 3.01258 2.36247
# Velocity P-wave (km/s) = 4.55503 6.43202 5.57311
#
# Compressibility (1/GPa) = 0.03244441
#
# Stress axis : x y z
#
# Youngs Moduli (GPa) = 60.82758 16.33046 68.71723
#
# Poissons Ratio (x) = 0.16718 0.06121
# Poissons Ratio (y) = 0.62272 1.28936
# Poissons Ratio (z) = 0.05418 0.30641
#
# Static dielectric constant tensor:
#      x y z
#    x 1.399870 0.000000 0.000000 
#    y 0.000000 1.619710 0.000000 
#    z 0.000000 0.000000 1.645490 
# 
# From -- ./inp_files/20435.got.cif
#   From: 2010.05.17/outbox.cif.g08.bks.cpg/sg53_11_cif.got.tgz:20435.got - 2010.06.03 12:45:16.
