data_PCOD9416055
_publ_section_title
;
Structure prediction by ZEFSAII (Michael W. Deem and Ramdas Pophale) SiO2 
 PCOD9416055
Probable space group: P M N A
;
_chemical_formula_sum "Si O2"
_cell_formula_units_Z 56
_cell_length_a 15.401744
_cell_length_b 11.983502
_cell_length_c 14.091887
_cell_angle_alpha 90.000000
_cell_angle_beta 90.000000
_cell_angle_gamma 90.000000
_cell_volume 2600.894913
_symmetry_space_group_name_H-M "P M N A"
_symmetry_group_IT_number 53
_symmetry_cell_setting 'orthorhombic'
loop_
_space_group_symop_operation_xyz
x,y,z
1/2-x,-y,1/2+z
x,-y,-z
1/2-x,y,1/2-z
-x,-y,-z
1/2+x,y,1/2-z
-x,y,z
1/2+x,-y,1/2+z
loop_
_atom_site_type_symbol
_atom_site_label
_atom_site_fract_x
_atom_site_fract_y
_atom_site_fract_z
Si Si1 0.224273 0.621943 0.391486
Si Si2 0.403545 0.239537 0.615057
Si Si3 0.904797 0.798910 0.708149
Si Si4 0.707709 0.993948 0.854895
Si Si5 0.777731 0.364609 0.391358
Si Si6 0.646889 0.165967 0.416274
Si Si7 0.101065 0.197489 0.675610
O O1 0.318313 0.682016 0.385558
O O2 0.189469 0.632024 0.499715
O O3 0.236502 0.492907 0.365648
O O4 0.151154 0.685137 0.331196
O O5 0.500000 0.294734 0.617907
O O6 0.398684 0.169973 0.517673
O O7 0.398305 0.168310 0.711921
O O8 0.870102 0.905273 0.651124
O O9 0.839531 0.699178 0.682044
O O10 0.904511 0.837927 0.817684
O O11 0.000000 0.764830 0.679101
O O12 0.750000 0.003501 0.750000
O O13 0.781652 0.931536 0.913932
O O14 0.663764 0.111267 0.879521
O O15 0.694194 0.285865 0.402252
O O16 0.000000 0.199273 0.645398
#
# Coordination Sequence:
#
# PCOD9416055 Si02
#       7
#     8   8   8   8   8   8   8
#     4  10  21  40  61  82 117 156 197 250 300 354
#     4  10  21  38  61  91 123 156 197 243 299 364
#     4  10  19  33  56  84 115 151 194 245 296 354
#     4   9  18  36  58  80 112 154 192 235 291 346
#     4   9  20  38  59  82 111 154 199 243 300 357
#     4   9  19  37  59  85 118 153 192 240 299 358
#     4  11  23  38  60  89 120 158 201 244 294 353
#
# _framework density 21.531051000000001
#
# number of rings (size 3 to 8) (size 9 to 14) (size 15 to 20)
#    0.000    2.286    0.000    3.429    0.000    3.429 
#    0.000   27.143    0.000   21.429    0.000    0.000 
#    0.000    0.000    0.000    0.000    0.000    0.000 
#
# Total GULP energy -312334.635255 kJ/mol
# GULP energy per Si atom -5577.404201 kJ/mol
# Density = 2.148205 g / cm^3
# Si number density = 21.531051 Si / 1000 Ang^3
#
#
#
# Elastic Constant Matrix: (Units=GPa)
#
#
# Indices 1 2 3 4 5 6 
#
# 1 99.5406 32.6421 15.9333 0.0000 0.0000 0.0000
# 2 32.6421 92.9716 3.0871 0.0000 0.0000 0.0000
# 3 15.9333 3.0871 82.0409 0.0000 0.0000 0.0000
# 4 0.0000 0.0000 0.0000 21.5093 0.0000 0.0000
# 5 0.0000 0.0000 0.0000 0.0000 20.3583 0.0000
# 6 0.0000 0.0000 0.0000 0.0000 0.0000 -3.7558
#
#
#
# Elastic Compliance Matrix: (Units=1/GPa)
#
#
# Indices 1 2 3 4 5 6 
#
# 1 0.011711 -0.004041 -0.002122 0.000000 0.000000 0.000000
# 2 -0.004041 0.012164 0.000327 0.000000 0.000000 0.000000
# 3 -0.002122 0.000327 0.012589 0.000000 0.000000 0.000000
# 4 0.000000 0.000000 0.000000 0.046492 0.000000 0.000000
# 5 0.000000 0.000000 0.000000 0.000000 0.049120 0.000000
# 6 0.000000 0.000000 0.000000 0.000000 0.000000 -0.266252
#
#
# Mechanical properties :
#
#
# Convention : Reuss Voigt Hill
#
# Bulk Modulus (GPa) = 40.33716 41.98646 41.16181
# Shear Modulus (GPa) = -43.76771 22.48172 -10.64300
#
# Velocity S-wave (km/s) = -4.51352 3.23484 -2.22572
# Velocity P-wave (km/s) = 2.89610 5.78749 3.54314
#
# Compressibility (1/GPa) = 0.02479104
#
# Stress axis : x y z
#
# Youngs Moduli (GPa) = 85.38892 82.20987 79.43486
#
# Poissons Ratio (x) = 0.33223 0.16859
# Poissons Ratio (y) = 0.34508 -0.02599
# Poissons Ratio (z) = 0.18123 -0.02689
#
# Static dielectric constant tensor:
#      x y z
#    x 1.776760 0.000000 0.000000 
#    y 0.000000 1.776040 0.000000 
#    z 0.000000 0.000000 1.878510 
# 
# From -- ./inp_files/22791.got.cif
#   From: 2010.05.17/outbox.cif.g08.bks.cpg/sg53_12_cif.got.tgz:22791.got - 2010.06.03 12:45:16.
