data_PCOD9416359
_publ_section_title
;
Structure prediction by ZEFSAII (Michael W. Deem and Ramdas Pophale) SiO2 
 PCOD9416359
Probable space group: P M N A
;
_chemical_formula_sum "Si O2"
_cell_formula_units_Z 40
_cell_length_a 15.172405
_cell_length_b 9.916513
_cell_length_c 13.903939
_cell_angle_alpha 90.000000
_cell_angle_beta 90.000000
_cell_angle_gamma 90.000000
_cell_volume 2091.949836
_symmetry_space_group_name_H-M "P M N A"
_symmetry_group_IT_number 53
_symmetry_cell_setting 'orthorhombic'
loop_
_space_group_symop_operation_xyz
x,y,z
1/2-x,-y,1/2+z
x,-y,-z
1/2-x,y,1/2-z
-x,-y,-z
1/2+x,y,1/2-z
-x,y,z
1/2+x,-y,1/2+z
loop_
_atom_site_type_symbol
_atom_site_label
_atom_site_fract_x
_atom_site_fract_y
_atom_site_fract_z
Si Si1 0.600776 0.953272 0.343027
Si Si2 0.777842 0.253431 0.950370
Si Si3 0.597330 0.765183 0.162333
Si Si4 0.175773 0.245800 0.168271
Si Si5 0.154497 0.462022 0.800976
O O1 0.500000 0.925388 0.372599
O O2 0.668382 0.877269 0.413241
O O3 0.613609 0.886771 0.237606
O O4 0.618385 0.111355 0.337120
O O5 0.678686 0.244821 0.909919
O O6 0.827196 0.379348 0.898868
O O7 0.779472 0.263978 0.064206
O O8 0.500000 0.779830 0.118874
O O9 0.599458 0.633030 0.230457
O O10 0.250000 0.227710 0.250000
O O11 0.123847 0.385317 0.186455
O O12 0.250000 0.471716 0.750000
#
# Coordination Sequence:
#
# PCOD9416359 Si02
#       5
#     8   8   8   8   8
#     4  10  21  36  55  79 106 138 178 225 273 321
#     4  10  19  35  57  78 106 145 183 217 264 327
#     4   9  18  36  60  82 105 138 183 227 268 322
#     4  11  21  33  52  78 111 145 177 219 269 315
#     4   8  17  33  54  78 104 138 176 214 262 313
#
# _framework density 19.120916999999999
#
# number of rings (size 3 to 8) (size 9 to 14) (size 15 to 20)
#    0.000    2.400    0.000    4.200    0.000    2.400 
#    0.000    1.000    0.000   26.400    0.000    0.000 
#    0.000    0.000    0.000    0.000    0.000    0.000 
#
# Total GULP energy -223195.426574 kJ/mol
# GULP energy per Si atom -5579.885664 kJ/mol
# Density = 1.907740 g / cm^3
# Si number density = 19.120917 Si / 1000 Ang^3
#
#
#
# Elastic Constant Matrix: (Units=GPa)
#
#
# Indices 1 2 3 4 5 6 
#
# 1 74.4898 15.1999 25.2071 0.0000 0.0000 0.0000
# 2 15.1999 139.4163 19.0921 0.0000 0.0000 0.0000
# 3 25.2071 19.0921 79.4136 0.0000 0.0000 0.0000
# 4 0.0000 0.0000 0.0000 5.6912 0.0000 0.0000
# 5 0.0000 0.0000 0.0000 0.0000 3.2226 0.0000
# 6 0.0000 0.0000 0.0000 0.0000 0.0000 -0.4523
#
#
#
# Elastic Compliance Matrix: (Units=1/GPa)
#
#
# Indices 1 2 3 4 5 6 
#
# 1 0.015182 -0.001029 -0.004571 0.000000 0.000000 0.000000
# 2 -0.001029 0.007487 -0.001473 0.000000 0.000000 0.000000
# 3 -0.004571 -0.001473 0.014398 0.000000 0.000000 0.000000
# 4 0.000000 0.000000 0.000000 0.175708 0.000000 0.000000
# 5 0.000000 0.000000 0.000000 0.000000 0.310304 0.000000
# 6 0.000000 0.000000 0.000000 0.000000 0.000000 -2.211118
#
#
# Mechanical properties :
#
#
# Convention : Reuss Voigt Hill
#
# Bulk Modulus (GPa) = 43.63349 45.81311 44.72330
# Shear Modulus (GPa) = -3.00075 17.28037 7.13981
#
# Velocity S-wave (km/s) = -1.25410 3.00949 1.93446
# Velocity P-wave (km/s) = 4.55766 6.00731 5.33198
#
# Compressibility (1/GPa) = 0.02291817
#
# Stress axis : x y z
#
# Youngs Moduli (GPa) = 65.86912 133.56997 69.45625
#
# Poissons Ratio (x) = 0.13746 0.31752
# Poissons Ratio (y) = 0.06779 0.10233
# Poissons Ratio (z) = 0.30112 0.19678
#
# Static dielectric constant tensor:
#      x y z
#    x 1.648460 0.000000 0.000000 
#    y 0.000000 1.701060 0.000000 
#    z 0.000000 0.000000 1.644310 
# 
# From -- ./inp_files/22425.got.cif
#   From: 2010.05.17/outbox.cif.g08.bks.cpg/sg53_12_cif.got.tgz:22425.got - 2010.06.03 12:45:16.
