data_PCOD9416512
_publ_section_title
;
Structure prediction by ZEFSAII (Michael W. Deem and Ramdas Pophale) SiO2 
 PCOD9416512
Probable space group: P M N A
;
_chemical_formula_sum "Si O2"
_cell_formula_units_Z 64
_cell_length_a 8.624685
_cell_length_b 22.094979
_cell_length_c 17.906901
_cell_angle_alpha 90.000000
_cell_angle_beta 90.000000
_cell_angle_gamma 90.000000
_cell_volume 3412.379058
_symmetry_space_group_name_H-M "P M N A"
_symmetry_group_IT_number 53
_symmetry_cell_setting 'orthorhombic'
loop_
_space_group_symop_operation_xyz
x,y,z
1/2-x,-y,1/2+z
x,-y,-z
1/2-x,y,1/2-z
-x,-y,-z
1/2+x,y,1/2-z
-x,y,z
1/2+x,-y,1/2+z
loop_
_atom_site_type_symbol
_atom_site_label
_atom_site_fract_x
_atom_site_fract_y
_atom_site_fract_z
Si Si1 0.687581 0.689679 0.450422
Si Si2 0.814227 0.104138 0.568379
Si Si3 0.313663 0.214589 0.666643
Si Si4 0.815375 0.374328 0.328000
Si Si5 0.686203 0.252085 0.391056
Si Si6 0.814440 0.120759 0.394037
Si Si7 0.815788 0.999677 0.169646
Si Si8 0.688025 0.567252 0.523029
O O1 0.500000 0.689003 0.448336
O O2 0.740315 0.724654 0.376763
O O3 0.730260 0.728888 0.523800
O O4 0.737483 0.620797 0.466001
O O5 0.743024 0.158457 0.616789
O O6 0.771686 0.110624 0.481351
O O7 0.000000 0.106369 0.573488
O O8 0.754648 0.042201 0.604810
O O9 0.250000 0.210870 0.750000
O O10 0.500000 0.213679 0.668870
O O11 0.750000 0.397896 0.250000
O O12 0.748589 0.306878 0.341223
O O13 0.755099 0.413755 0.397194
O O14 0.000000 0.372373 0.327259
O O15 0.500000 0.249586 0.386674
O O16 0.758201 0.187520 0.372364
O O17 0.735448 0.068277 0.346245
O O18 0.000000 0.116115 0.387055
O O19 0.750000 0.979878 0.250000
O O20 0.000000 0.994165 0.169935
O O21 0.735306 0.500000 0.500000
O O22 0.500000 0.568893 0.527420
#
# Coordination Sequence:
#
# PCOD9416512 Si02
#       8
#     8   8   8   8   8   8   8   8
#     4   8  16  32  55  81 112 148 187 230 278 339
#     4  11  23  40  61  85 114 147 189 237 289 347
#     4  11  21  35  55  82 114 149 191 237 290 344
#     4  11  22  37  58  87 122 158 200 246 296 346
#     4  10  19  36  60  86 114 149 192 235 289 348
#     4  11  23  39  61  89 118 148 188 237 291 349
#     4  12  26  43  61  81 111 150 193 239 293 347
#     4   9  18  36  62  89 118 158 201 242 293 349
#
# _framework density 18.755244999999999
#
# number of rings (size 3 to 8) (size 9 to 14) (size 15 to 20)
#    0.000    1.625    1.250    5.250    0.000    3.750 
#    0.000    3.750    0.000    1.500    0.000    0.000 
#    0.000    0.000    0.000    0.000    0.000    0.000 
#
# Total GULP energy -357651.059339 kJ/mol
# GULP energy per Si atom -5588.297802 kJ/mol
# Density = 1.871256 g / cm^3
# Si number density = 18.755245 Si / 1000 Ang^3
#
#
#
# Elastic Constant Matrix: (Units=GPa)
#
#
# Indices 1 2 3 4 5 6 
#
# 1 55.7439 9.2521 19.1129 0.0000 0.0000 0.0000
# 2 9.2521 93.1821 9.4011 0.0000 0.0000 0.0000
# 3 19.1129 9.4011 59.2600 0.0000 0.0000 0.0000
# 4 0.0000 0.0000 0.0000 15.9667 0.0000 0.0000
# 5 0.0000 0.0000 0.0000 0.0000 21.0788 0.0000
# 6 0.0000 0.0000 0.0000 0.0000 0.0000 21.6777
#
#
#
# Elastic Compliance Matrix: (Units=1/GPa)
#
#
# Indices 1 2 3 4 5 6 
#
# 1 0.020343 -0.001380 -0.006342 0.000000 0.000000 0.000000
# 2 -0.001380 0.011000 -0.001300 0.000000 0.000000 0.000000
# 3 -0.006342 -0.001300 0.019127 0.000000 0.000000 0.000000
# 4 0.000000 0.000000 0.000000 0.062630 0.000000 0.000000
# 5 0.000000 0.000000 0.000000 0.000000 0.047441 0.000000
# 6 0.000000 0.000000 0.000000 0.000000 0.000000 0.046130
#
#
# Mechanical properties :
#
#
# Convention : Reuss Voigt Hill
#
# Bulk Modulus (GPa) = 30.84045 31.52425 31.18235
# Shear Modulus (GPa) = 21.22931 23.10596 22.16764
#
# Velocity S-wave (km/s) = 3.36804 3.51376 3.44167
# Velocity P-wave (km/s) = 5.62177 5.77120 5.69697
#
# Compressibility (1/GPa) = 0.03242494
#
# Stress axis : x y z
#
# Youngs Moduli (GPa) = 49.15752 90.91034 52.28341
#
# Poissons Ratio (x) = 0.12545 0.33159
# Poissons Ratio (y) = 0.06784 0.06797
# Poissons Ratio (z) = 0.31176 0.11818
#
# Static dielectric constant tensor:
#      x y z
#    x 1.625300 0.000000 0.000000 
#    y 0.000000 1.644040 0.000000 
#    z 0.000000 0.000000 1.631890 
# 
# From -- ./inp_files/26826.got.cif
#   From: 2010.05.17/outbox.cif.g08.bks.cpg/sg53_14_cif.got.tgz:26826.got - 2010.06.03 12:45:16.
