data_PCOD9416138
_publ_section_title
;
Structure prediction by ZEFSAII (Michael W. Deem and Ramdas Pophale) SiO2 
 PCOD9416138
Probable space group: P M N A
;
_chemical_formula_sum "Si O2"
_cell_formula_units_Z 36
_cell_length_a 19.279134
_cell_length_b 9.349345
_cell_length_c 11.615476
_cell_angle_alpha 90.000000
_cell_angle_beta 90.000000
_cell_angle_gamma 90.000000
_cell_volume 2093.657898
_symmetry_space_group_name_H-M "P M N A"
_symmetry_group_IT_number 53
_symmetry_cell_setting 'orthorhombic'
loop_
_space_group_symop_operation_xyz
x,y,z
1/2-x,-y,1/2+z
x,-y,-z
1/2-x,y,1/2-z
-x,-y,-z
1/2+x,y,1/2-z
-x,y,z
1/2+x,-y,1/2+z
loop_
_atom_site_type_symbol
_atom_site_label
_atom_site_fract_x
_atom_site_fract_y
_atom_site_fract_z
Si Si1 0.845110 0.500000 0.500000
Si Si2 0.676467 0.709668 0.798150
Si Si3 0.579661 0.973167 0.863834
Si Si4 0.081691 0.713792 0.322375
Si Si5 0.581822 0.480676 0.365687
O O1 0.808993 0.402521 0.402664
O O2 0.887896 0.384865 0.576020
O O3 0.750000 0.758582 0.750000
O O4 0.629064 0.840551 0.839148
O O5 0.631628 0.628870 0.700276
O O6 0.500000 0.945771 0.824041
O O7 0.607559 0.123877 0.814528
O O8 0.576831 0.000000 0.000000
O O9 0.090791 0.628686 0.203829
O O10 0.000000 0.726742 0.346910
O O11 0.597314 0.500000 0.500000
O O12 0.500000 0.439864 0.354080
#
# Coordination Sequence:
#
# PCOD9416138 Si02
#       5
#     4   8   8   8   8
#     4  10  19  34  54  80 107 144 184 236 278 334
#     4  11  23  36  55  81 117 151 190 231 286 342
#     4  10  19  35  58  86 116 144 185 241 290 335
#     4   9  17  31  58  87 110 137 182 237 286 327
#     4   9  19  37  59  82 110 148 195 237 278 334
#
# _framework density 17.194787000000002
#
# number of rings (size 3 to 8) (size 9 to 14) (size 15 to 20)
#    0.000    2.222    2.222    1.000    1.556    1.778 
#    0.000    7.778    0.000    5.333    0.000    0.000 
#    0.000    0.000    0.000    0.000    0.000    0.000 
#
# Total GULP energy -200562.960150 kJ/mol
# GULP energy per Si atom -5571.193337 kJ/mol
# Density = 1.715565 g / cm^3
# Si number density = 17.194787 Si / 1000 Ang^3
#
#
#
# Elastic Constant Matrix: (Units=GPa)
#
#
# Indices 1 2 3 4 5 6 
#
# 1 68.3576 51.5357 35.6053 0.0000 0.0000 0.0000
# 2 51.5357 108.3046 26.7605 0.0000 0.0000 0.0000
# 3 35.6053 26.7605 97.5407 0.0000 0.0000 0.0000
# 4 0.0000 0.0000 0.0000 16.8903 0.0000 0.0000
# 5 0.0000 0.0000 0.0000 0.0000 4.5472 0.0000
# 6 0.0000 0.0000 0.0000 0.0000 0.0000 -9.0903
#
#
#
# Elastic Compliance Matrix: (Units=1/GPa)
#
#
# Indices 1 2 3 4 5 6 
#
# 1 0.026259 -0.010863 -0.006605 0.000000 0.000000 0.000000
# 2 -0.010863 0.014399 0.000015 0.000000 0.000000 0.000000
# 3 -0.006605 0.000015 0.012659 0.000000 0.000000 0.000000
# 4 0.000000 0.000000 0.000000 0.059206 0.000000 0.000000
# 5 0.000000 0.000000 0.000000 0.000000 0.219918 0.000000
# 6 0.000000 0.000000 0.000000 0.000000 0.000000 -0.110007
#
#
# Mechanical properties :
#
#
# Convention : Reuss Voigt Hill
#
# Bulk Modulus (GPa) = 54.31661 55.77843 55.04752
# Shear Modulus (GPa) = 18.97702 13.15618 16.06660
#
# Velocity S-wave (km/s) = 3.32573 2.76909 3.06009
# Velocity P-wave (km/s) = 6.81211 6.53708 6.67601
#
# Compressibility (1/GPa) = 0.01841058
#
# Stress axis : x y z
#
# Youngs Moduli (GPa) = 38.08191 69.45108 78.99495
#
# Poissons Ratio (x) = 0.75446 0.52177
# Poissons Ratio (y) = 0.41369 -0.00119
# Poissons Ratio (z) = 0.25153 -0.00105
#
# Static dielectric constant tensor:
#      x y z
#    x 1.574590 0.000000 0.000000 
#    y 0.000000 1.659910 0.000000 
#    z 0.000000 0.000000 1.588000 
# 
# From -- ./inp_files/10610.got.cif
#   From: 2010.05.17/outbox.cif.g08.bks.cpg/sg53_6_cif.got.tgz:10610.got - 2010.06.03 12:45:16.
