data_PCOD9416515
_publ_section_title
;
Structure prediction by ZEFSAII (Michael W. Deem and Ramdas Pophale) SiO2 
 PCOD9416515
Probable space group: P M N A
;
_chemical_formula_sum "Si O2"
_cell_formula_units_Z 64
_cell_length_a 9.093514
_cell_length_b 14.815276
_cell_length_c 23.149682
_cell_angle_alpha 90.000000
_cell_angle_beta 90.000000
_cell_angle_gamma 90.000000
_cell_volume 3118.792750
_symmetry_space_group_name_H-M "P M N A"
_symmetry_group_IT_number 53
_symmetry_cell_setting 'orthorhombic'
loop_
_space_group_symop_operation_xyz
x,y,z
1/2-x,-y,1/2+z
x,-y,-z
1/2-x,y,1/2-z
-x,-y,-z
1/2+x,y,1/2-z
-x,y,z
1/2+x,-y,1/2+z
loop_
_atom_site_type_symbol
_atom_site_label
_atom_site_fract_x
_atom_site_fract_y
_atom_site_fract_z
Si Si1 0.662339 0.688282 0.002159
Si Si2 0.665066 0.111700 0.621607
Si Si3 0.828956 0.294165 0.635347
Si Si4 0.827035 0.243834 0.309154
Si Si5 0.826877 0.934601 0.628497
Si Si6 0.825231 0.621692 0.895046
Si Si7 0.675296 0.516769 0.189381
Si Si8 0.269099 0.897943 0.993477
O O1 0.500000 0.655443 0.985310
O O2 0.778459 0.640443 0.960875
O O3 0.659567 0.798167 0.996324
O O4 0.688573 0.670653 0.069544
O O5 0.500000 0.094839 0.641152
O O6 0.723635 0.208744 0.641016
O O7 0.669440 0.106941 0.550946
O O8 0.775890 0.034650 0.642831
O O9 0.802078 0.376891 0.677859
O O10 0.000000 0.265044 0.640290
O O11 0.750000 0.269589 0.250000
O O12 0.811410 0.137473 0.321124
O O13 0.744919 0.294548 0.360437
O O14 0.000000 0.266281 0.309172
O O15 0.726569 0.903961 0.573825
O O16 0.000000 0.931711 0.610798
O O17 0.749770 0.537028 0.863310
O O18 0.000000 0.617458 0.889058
O O19 0.750000 0.490743 0.250000
O O20 0.500000 0.499350 0.190668
O O21 0.338353 0.000000 0.000000
#
# Coordination Sequence:
#
# PCOD9416515 Si02
#       8
#     8   8   8   8   8   8   8   8
#     4  10  19  36  60  89 124 163 205 249 299 363
#     4  10  21  34  54  87 124 156 194 247 301 352
#     4   9  21  41  65  90 121 160 202 247 305 370
#     4  11  23  41  60  84 115 157 205 255 305 359
#     4  10  20  35  56  80 113 158 206 245 291 356
#     4  12  25  40  61  91 125 161 198 249 308 368
#     4  11  24  45  70  94 118 153 203 256 308 369
#     4   9  18  31  52  84 118 161 202 243 293 347
#
# _framework density 20.520761
#
# number of rings (size 3 to 8) (size 9 to 14) (size 15 to 20)
#    0.000    1.750    1.250    3.000    0.000   12.750 
#    0.000    3.125    0.000    0.000    0.000    0.000 
#    0.000    0.000    0.000    0.000    0.000    0.000 
#
# Total GULP energy -356788.438448 kJ/mol
# GULP energy per Si atom -5574.819351 kJ/mol
# Density = 2.047405 g / cm^3
# Si number density = 20.520761 Si / 1000 Ang^3
#
#
#
# Elastic Constant Matrix: (Units=GPa)
#
#
# Indices 1 2 3 4 5 6 
#
# 1 91.3773 37.1991 12.6145 0.0000 0.0000 0.0000
# 2 37.1991 81.8328 16.9536 0.0000 0.0000 0.0000
# 3 12.6145 16.9536 26.0146 0.0000 0.0000 0.0000
# 4 0.0000 0.0000 0.0000 0.8776 0.0000 0.0000
# 5 0.0000 0.0000 0.0000 0.0000 19.1875 0.0000
# 6 0.0000 0.0000 0.0000 0.0000 0.0000 1.6685
#
#
#
# Elastic Compliance Matrix: (Units=1/GPa)
#
#
# Indices 1 2 3 4 5 6 
#
# 1 0.013625 -0.005578 -0.002972 0.000000 0.000000 0.000000
# 2 -0.005578 0.016411 -0.007990 0.000000 0.000000 0.000000
# 3 -0.002972 -0.007990 0.045088 0.000000 0.000000 0.000000
# 4 0.000000 0.000000 0.000000 1.139527 0.000000 0.000000
# 5 0.000000 0.000000 0.000000 0.000000 0.052117 0.000000
# 6 0.000000 0.000000 0.000000 0.000000 0.000000 0.599357
#
#
# Mechanical properties :
#
#
# Convention : Reuss Voigt Hill
#
# Bulk Modulus (GPa) = 23.78435 36.97323 30.37879
# Shear Modulus (GPa) = 2.61340 13.17720 7.89530
#
# Velocity S-wave (km/s) = 1.12974 2.53680 1.96362
# Velocity P-wave (km/s) = 3.64929 5.16111 4.46958
#
# Compressibility (1/GPa) = 0.04204445
#
# Stress axis : x y z
#
# Youngs Moduli (GPa) = 73.39715 60.93505 22.17878
#
# Poissons Ratio (x) = 0.33988 0.06591
# Poissons Ratio (y) = 0.40939 0.17721
# Poissons Ratio (z) = 0.21810 0.48689
#
# Static dielectric constant tensor:
#      x y z
#    x 1.701710 0.000000 0.000000 
#    y 0.000000 1.752560 0.000000 
#    z 0.000000 0.000000 2.052340 
# 
# From -- ./inp_files/34345.got.cif
#   From: 2010.05.17/outbox.cif.g08.bks.cpg/sg53_18_cif.got.tgz:34345.got - 2010.06.03 12:45:16.
