data_PCOD9416958
_publ_section_title
;
Structure prediction by ZEFSAII (Michael W. Deem and Ramdas Pophale) SiO2 
 PCOD9416958
Probable space group: P M N A
;
_chemical_formula_sum "Si O2"
_cell_formula_units_Z 58
_cell_length_a 17.466096
_cell_length_b 9.907631
_cell_length_c 17.924903
_cell_angle_alpha 90.000000
_cell_angle_beta 90.000000
_cell_angle_gamma 90.000000
_cell_volume 3101.862057
_symmetry_space_group_name_H-M "P M N A"
_symmetry_group_IT_number 53
_symmetry_cell_setting 'orthorhombic'
loop_
_space_group_symop_operation_xyz
x,y,z
1/2-x,-y,1/2+z
x,-y,-z
1/2-x,y,1/2-z
-x,-y,-z
1/2+x,y,1/2-z
-x,y,z
1/2+x,-y,1/2+z
loop_
_atom_site_type_symbol
_atom_site_label
_atom_site_fract_x
_atom_site_fract_y
_atom_site_fract_z
Si Si1 0.862686 0.828839 0.929765
Si Si2 0.091651 0.570771 0.836626
Si Si3 0.800865 0.959609 0.587307
Si Si4 0.591262 0.497427 0.826130
Si Si5 0.815365 0.380430 0.943704
Si Si6 0.092194 0.721248 0.557390
Si Si7 0.000000 0.000000 0.000000
Si Si8 0.338100 0.746454 0.108853
O O1 0.884136 0.713797 0.870555
O O2 0.785299 0.904636 0.903760
O O3 0.845915 0.742508 0.005583
O O4 0.932126 0.927576 0.948728
O O5 0.120351 0.555513 0.751998
O O6 0.124525 0.451565 0.888848
O O7 0.000000 0.562231 0.837820
O O8 0.863013 0.842327 0.598376
O O9 0.804607 0.000000 0.500000
O O10 0.824585 0.097404 0.627770
O O11 0.500000 0.507065 0.825029
O O12 0.615036 0.584982 0.898535
O O13 0.614614 0.342666 0.833949
O O14 0.744038 0.323384 0.899093
O O15 0.790615 0.500000 0.000000
O O16 0.120422 0.728111 0.471873
O O17 0.000000 0.735833 0.559204
#
# Coordination Sequence:
#
# PCOD9416958 Si02
#       8
#     8   8   8   8   8   8   2   8
#     4  11  20  37  60  90 119 159 199 257 301 365
#     4  10  23  39  58  85 117 157 205 254 302 362
#     4  10  20  36  57  87 125 145 191 253 298 351
#     4  10  22  39  59  84 120 156 204 249 291 358
#     4  10  20  33  58  86 117 147 193 250 304 351
#     4  10  20  36  62  89 115 158 200 242 300 361
#     4  12  20  32  66  88 114 160 206 240 316 360
#     4  11  20  35  60  89 120 150 194 251 302 354
#
# _framework density 18.698446000000001
#
# number of rings (size 3 to 8) (size 9 to 14) (size 15 to 20)
#    0.000    1.655    4.138    1.655    2.897    5.517 
#    0.000    0.000    9.103    0.000    0.000    0.000 
#    0.000    0.000    0.000    0.000    0.000    0.000 
#
# Total GULP energy -323018.756645 kJ/mol
# GULP energy per Si atom -5569.288908 kJ/mol
# Density = 1.865589 g / cm^3
# Si number density = 18.698446 Si / 1000 Ang^3
#
#
#
# Elastic Constant Matrix: (Units=GPa)
#
#
# Indices 1 2 3 4 5 6 
#
# 1 65.0241 46.7552 17.7932 0.0000 0.0000 0.0000
# 2 46.7552 108.6411 27.8724 0.0000 0.0000 0.0000
# 3 17.7932 27.8724 54.8091 0.0000 0.0000 0.0000
# 4 0.0000 0.0000 0.0000 21.5892 0.0000 0.0000
# 5 0.0000 0.0000 0.0000 0.0000 -27.0083 0.0000
# 6 0.0000 0.0000 0.0000 0.0000 0.0000 19.0455
#
#
#
# Elastic Compliance Matrix: (Units=1/GPa)
#
#
# Indices 1 2 3 4 5 6 
#
# 1 0.022626 -0.009031 -0.002753 0.000000 0.000000 0.000000
# 2 -0.009031 0.014191 -0.004285 0.000000 0.000000 0.000000
# 3 -0.002753 -0.004285 0.021318 0.000000 0.000000 0.000000
# 4 0.000000 0.000000 0.000000 0.046320 0.000000 0.000000
# 5 0.000000 0.000000 0.000000 0.000000 -0.037026 0.000000
# 6 0.000000 0.000000 0.000000 0.000000 0.000000 0.052506
#
#
# Mechanical properties :
#
#
# Convention : Reuss Voigt Hill
#
# Bulk Modulus (GPa) = 38.46528 45.92396 42.19462
# Shear Modulus (GPa) = 31.10689 11.79552 21.45121
#
# Velocity S-wave (km/s) = 4.08316 2.51436 3.39074
# Velocity P-wave (km/s) = 6.54566 5.74830 6.15989
#
# Compressibility (1/GPa) = 0.02599747
#
# Stress axis : x y z
#
# Youngs Moduli (GPa) = 44.19701 70.46953 46.90962
#
# Poissons Ratio (x) = 0.63642 0.12912
# Poissons Ratio (y) = 0.39915 0.20098
# Poissons Ratio (z) = 0.12166 0.30193
#
# Static dielectric constant tensor:
#      x y z
#    x 1.635360 0.000000 0.000000 
#    y 0.000000 1.674710 0.000000 
#    z 0.000000 0.000000 1.651410 
# 
# From -- ./inp_files/29016.got.cif
#   From: 2010.05.17/outbox.cif.g08.bks.cpg/sg53_15_cif.got.tgz:29016.got - 2010.06.03 12:45:16.
