data_PCOD9416074
_publ_section_title
;
Structure prediction by ZEFSAII (Michael W. Deem and Ramdas Pophale) SiO2 
 PCOD9416074
Probable space group: P M N A
;
_chemical_formula_sum "Si O2"
_cell_formula_units_Z 32
_cell_length_a 11.230059
_cell_length_b 18.646872
_cell_length_c 7.472465
_cell_angle_alpha 90.000000
_cell_angle_beta 90.000000
_cell_angle_gamma 90.000000
_cell_volume 1564.775066
_symmetry_space_group_name_H-M "P M N A"
_symmetry_group_IT_number 53
_symmetry_cell_setting 'orthorhombic'
loop_
_space_group_symop_operation_xyz
x,y,z
1/2-x,-y,1/2+z
x,-y,-z
1/2-x,y,1/2-z
-x,-y,-z
1/2+x,y,1/2-z
-x,y,z
1/2+x,-y,1/2+z
loop_
_atom_site_type_symbol
_atom_site_label
_atom_site_fract_x
_atom_site_fract_y
_atom_site_fract_z
Si Si1 0.128920 0.435678 0.642625
Si Si2 0.371698 0.915357 0.533649
Si Si3 0.628513 0.857955 0.941326
Si Si4 0.131542 0.688800 0.638486
O O1 0.127320 0.500000 0.500000
O O2 0.250000 0.443050 0.750000
O O3 0.133384 0.361008 0.535415
O O4 0.000000 0.438719 0.740429
O O5 0.500000 0.888044 0.464483
O O6 0.248844 0.882449 0.463320
O O7 0.372755 0.896130 0.745796
O O8 0.367443 0.000000 0.500000
O O9 0.500000 0.874807 0.026215
O O10 0.636266 0.772923 0.907981
O O11 0.250000 0.671214 0.750000
O O12 0.000000 0.676315 0.725815
#
# Coordination Sequence:
#
# PCOD9416074 Si02
#       4
#     8   8   8   8
#     4  10  22  39  59  87 120 152 192 236 281 339
#     4   9  16  27  46  70  97 129 169 215 264 325
#     4   9  17  30  48  72 100 134 177 222 273 328
#     4  10  19  33  57  85 113 149 191 234 282 340
#
# _framework density 20.450223000000001
#
# number of rings (size 3 to 8) (size 9 to 14) (size 15 to 20)
#    0.000    2.500    2.500    0.750    0.000    2.000 
#    0.000    0.000    5.500    0.000    0.000    0.000 
#    0.000    0.000    0.000    0.000    0.000    0.000 
#
# Total GULP energy -178226.537842 kJ/mol
# GULP energy per Si atom -5569.579308 kJ/mol
# Density = 2.040368 g / cm^3
# Si number density = 20.450223 Si / 1000 Ang^3
#
#
#
# Elastic Constant Matrix: (Units=GPa)
#
#
# Indices 1 2 3 4 5 6 
#
# 1 296.6292 15.1418 38.8942 0.0000 0.0000 0.0000
# 2 15.1418 82.1199 25.7842 0.0000 0.0000 0.0000
# 3 38.8942 25.7842 41.9802 0.0000 0.0000 0.0000
# 4 0.0000 0.0000 0.0000 18.6724 0.0000 0.0000
# 5 0.0000 0.0000 0.0000 0.0000 17.4070 0.0000
# 6 0.0000 0.0000 0.0000 0.0000 0.0000 35.8843
#
#
#
# Elastic Compliance Matrix: (Units=1/GPa)
#
#
# Indices 1 2 3 4 5 6 
#
# 1 0.003854 0.000509 -0.003884 0.000000 0.000000 0.000000
# 2 0.000509 0.015154 -0.009779 0.000000 0.000000 0.000000
# 3 -0.003884 -0.009779 0.033425 0.000000 0.000000 0.000000
# 4 0.000000 0.000000 0.000000 0.053555 0.000000 0.000000
# 5 0.000000 0.000000 0.000000 0.000000 0.057448 0.000000
# 6 0.000000 0.000000 0.000000 0.000000 0.000000 0.027867
#
#
# Mechanical properties :
#
#
# Convention : Reuss Voigt Hill
#
# Bulk Modulus (GPa) = 38.27608 64.48550 51.38079
# Shear Modulus (GPa) = 22.09266 37.12003 29.60634
#
# Velocity S-wave (km/s) = 3.29038 4.26507 3.80903
# Velocity P-wave (km/s) = 5.76132 7.47367 6.67265
#
# Compressibility (1/GPa) = 0.02612598
#
# Stress axis : x y z
#
# Youngs Moduli (GPa) = 259.43997 65.98973 29.91786
#
# Poissons Ratio (x) = -0.03357 0.11619
# Poissons Ratio (y) = -0.13196 0.29256
# Poissons Ratio (z) = 1.00754 0.64530
#
# Static dielectric constant tensor:
#      x y z
#    x 1.837190 0.000000 0.000000 
#    y 0.000000 1.685210 0.000000 
#    z 0.000000 0.000000 1.671960 
# 
# From -- ./inp_files/7384.got.cif
#   From: 2010.05.17/outbox.cif.g08.bks.cpg/sg53_4_cif.got.tgz:7384.got - 2010.06.03 12:45:16.
