data_PCOD9416757
_publ_section_title
;
Structure prediction by ZEFSAII (Michael W. Deem and Ramdas Pophale) SiO2 
 PCOD9416757
Probable space group: P M N A
;
_chemical_formula_sum "Si O2"
_cell_formula_units_Z 36
_cell_length_a 19.725353
_cell_length_b 9.057168
_cell_length_c 11.112859
_cell_angle_alpha 90.000000
_cell_angle_beta 90.000000
_cell_angle_gamma 90.000000
_cell_volume 1985.377115
_symmetry_space_group_name_H-M "P M N A"
_symmetry_group_IT_number 53
_symmetry_cell_setting 'orthorhombic'
loop_
_space_group_symop_operation_xyz
x,y,z
1/2-x,-y,1/2+z
x,-y,-z
1/2-x,y,1/2-z
-x,-y,-z
1/2+x,y,1/2-z
-x,y,z
1/2+x,-y,1/2+z
loop_
_atom_site_type_symbol
_atom_site_label
_atom_site_fract_x
_atom_site_fract_y
_atom_site_fract_z
Si Si1 0.250000 0.537375 0.250000
Si Si2 0.351258 0.635075 0.579896
Si Si3 0.776137 0.772102 0.447702
Si Si4 0.578246 0.076311 0.371496
Si Si5 0.811307 0.920786 0.672580
O O1 0.192586 0.440912 0.185107
O O2 0.285706 0.641649 0.148878
O O3 0.377161 0.500000 0.500000
O O4 0.296950 0.731370 0.503052
O O5 0.408793 0.748570 0.616760
O O6 0.824154 0.805402 0.563655
O O7 0.780596 0.927976 0.380589
O O8 0.500000 0.041313 0.346906
O O9 0.627281 0.037440 0.260235
O O10 0.595818 0.000000 0.500000
O O11 0.750000 0.855472 0.750000
#
# Coordination Sequence:
#
# PCOD9416757 Si02
#       5
#     4   8   8   8   8
#     4  10  20  34  58  92 126 148 192 250 310 366
#     4  10  20  34  55  85 122 152 190 248 302 358
#     4  10  20  32  56  96 116 148 197 251 303 358
#     4  11  24  40  60  86 119 161 207 250 300 361
#     4  11  19  33  62  87 118 151 198 252 299 341
#
# _framework density 18.132574000000002
#
# number of rings (size 3 to 8) (size 9 to 14) (size 15 to 20)
#    0.000    1.556    3.333    2.667    3.111    0.444 
#    0.000    2.222    0.000    2.667    0.000    0.000 
#    0.000    0.000    0.000    0.000    0.000    0.000 
#
# Total GULP energy -200530.336692 kJ/mol
# GULP energy per Si atom -5570.287130 kJ/mol
# Density = 1.809130 g / cm^3
# Si number density = 18.132574 Si / 1000 Ang^3
#
#
#
# Elastic Constant Matrix: (Units=GPa)
#
#
# Indices 1 2 3 4 5 6 
#
# 1 51.5562 20.0274 40.5829 0.0000 0.0000 0.0000
# 2 20.0274 89.2232 43.9118 0.0000 0.0000 0.0000
# 3 40.5829 43.9118 122.1242 0.0000 0.0000 0.0000
# 4 0.0000 0.0000 0.0000 42.2975 0.0000 0.0000
# 5 0.0000 0.0000 0.0000 0.0000 16.4011 0.0000
# 6 0.0000 0.0000 0.0000 0.0000 0.0000 -8.5678
#
#
#
# Elastic Compliance Matrix: (Units=1/GPa)
#
#
# Indices 1 2 3 4 5 6 
#
# 1 0.026548 -0.001965 -0.008116 0.000000 0.000000 0.000000
# 2 -0.001965 0.013763 -0.004296 0.000000 0.000000 0.000000
# 3 -0.008116 -0.004296 0.012430 0.000000 0.000000 0.000000
# 4 0.000000 0.000000 0.000000 0.023642 0.000000 0.000000
# 5 0.000000 0.000000 0.000000 0.000000 0.060972 0.000000
# 6 0.000000 0.000000 0.000000 0.000000 0.000000 -0.116716
#
#
# Mechanical properties :
#
#
# Convention : Reuss Voigt Hill
#
# Bulk Modulus (GPa) = 41.68703 52.43866 47.06284
# Shear Modulus (GPa) = 87.12764 20.58491 53.85628
#
# Velocity S-wave (km/s) = 6.93936 3.37299 5.45581
# Velocity P-wave (km/s) = 9.34057 6.64468 8.10549
#
# Compressibility (1/GPa) = 0.02398827
#
# Stress axis : x y z
#
# Youngs Moduli (GPa) = 37.66787 72.65798 80.45134
#
# Poissons Ratio (x) = 0.14277 0.65291
# Poissons Ratio (y) = 0.07401 0.34560
# Poissons Ratio (z) = 0.30570 0.31212
#
# Static dielectric constant tensor:
#      x y z
#    x 1.587190 0.000000 0.000000 
#    y 0.000000 1.651850 0.000000 
#    z 0.000000 0.000000 1.727360 
# 
# From -- ./inp_files/17581.got.cif
#   From: 2010.05.17/outbox.cif.g08.bks.cpg/sg53_9_cif.got.tgz:17581.got - 2010.06.03 12:45:16.
