data_PCOD9416094
_publ_section_title
;
Structure prediction by ZEFSAII (Michael W. Deem and Ramdas Pophale) SiO2 
 PCOD9416094
Probable space group: P M N A
;
_chemical_formula_sum "Si O2"
_cell_formula_units_Z 60
_cell_length_a 19.364649
_cell_length_b 25.932206
_cell_length_c 6.145048
_cell_angle_alpha 90.000000
_cell_angle_beta 90.000000
_cell_angle_gamma 90.000000
_cell_volume 3085.846876
_symmetry_space_group_name_H-M "P M N A"
_symmetry_group_IT_number 53
_symmetry_cell_setting 'orthorhombic'
loop_
_space_group_symop_operation_xyz
x,y,z
1/2-x,-y,1/2+z
x,-y,-z
1/2-x,y,1/2-z
-x,-y,-z
1/2+x,y,1/2-z
-x,y,z
1/2+x,-y,1/2+z
loop_
_atom_site_type_symbol
_atom_site_label
_atom_site_fract_x
_atom_site_fract_y
_atom_site_fract_z
Si Si1 0.577875 0.826601 0.934801
Si Si2 0.214200 0.442746 0.501620
Si Si3 0.078337 0.272001 0.114675
Si Si4 0.325772 0.090792 0.286000
Si Si5 0.074575 0.055589 0.880931
Si Si6 0.827023 0.762821 0.275620
Si Si7 0.131335 0.000000 0.500000
Si Si8 0.321472 0.332039 0.111864
O O1 0.500000 0.840294 0.994785
O O2 0.575633 0.777489 0.773081
O O3 0.618048 0.872511 0.822265
O O4 0.622786 0.806618 0.134377
O O5 0.181266 0.500000 0.500000
O O6 0.250000 0.440574 0.750000
O O7 0.174355 0.388623 0.492325
O O8 0.250000 0.441971 0.250000
O O9 0.111340 0.319858 0.243471
O O10 0.000000 0.281074 0.034334
O O11 0.134819 0.258490 0.935000
O O12 0.250000 0.113379 0.250000
O O13 0.357275 0.082798 0.525971
O O14 0.325688 0.035363 0.164548
O O15 0.085027 0.040009 0.633288
O O16 0.000000 0.081325 0.922526
O O17 0.071783 0.000000 0.000000
O O18 0.750000 0.783827 0.250000
O O19 0.819320 0.714195 0.438030
O O20 0.250000 0.328834 0.250000
#
# Coordination Sequence:
#
# PCOD9416094 Si02
#       8
#     8   8   8   8   8   8   4   8
#     4  10  24  43  60  85 122 158 196 242 300 368
#     4   9  18  31  52  87 130 170 217 279 338 386
#     4  10  22  39  59  86 122 162 200 253 316 378
#     4  11  25  39  63  87 121 152 191 236 293 352
#     4   9  19  38  61  86 112 144 183 227 276 337
#     4  11  21  35  63  90 119 155 206 257 312 366
#     4  10  23  40  64  88 115 146 192 236 293 344
#     4  10  19  33  58  88 122 160 211 264 320 376
#
# _framework density 19.443608000000001
#
# number of rings (size 3 to 8) (size 9 to 14) (size 15 to 20)
#    0.000    2.000    1.333    1.400    6.533    3.200 
#    0.000    0.000    0.000    0.400    0.000    0.933 
#    0.000    0.000    0.000    0.000    0.000    0.000 
#
# Total GULP energy -334044.514014 kJ/mol
# GULP energy per Si atom -5567.408567 kJ/mol
# Density = 1.939935 g / cm^3
# Si number density = 19.443608 Si / 1000 Ang^3
#
#
#
# Elastic Constant Matrix: (Units=GPa)
#
#
# Indices 1 2 3 4 5 6 
#
# 1 160.7384 28.1129 37.2844 0.0000 0.0000 0.0000
# 2 28.1129 70.5739 12.1350 0.0000 0.0000 0.0000
# 3 37.2844 12.1350 75.1796 0.0000 0.0000 0.0000
# 4 0.0000 0.0000 0.0000 20.8073 0.0000 0.0000
# 5 0.0000 0.0000 0.0000 0.0000 17.7917 0.0000
# 6 0.0000 0.0000 0.0000 0.0000 0.0000 20.3702
#
#
#
# Elastic Compliance Matrix: (Units=1/GPa)
#
#
# Indices 1 2 3 4 5 6 
#
# 1 0.007400 -0.002383 -0.003285 0.000000 0.000000 0.000000
# 2 -0.002383 0.015341 -0.001295 0.000000 0.000000 0.000000
# 3 -0.003285 -0.001295 0.015140 0.000000 0.000000 0.000000
# 4 0.000000 0.000000 0.000000 0.048060 0.000000 0.000000
# 5 0.000000 0.000000 0.000000 0.000000 0.056206 0.000000
# 6 0.000000 0.000000 0.000000 0.000000 0.000000 0.049091
#
#
# Mechanical properties :
#
#
# Convention : Reuss Voigt Hill
#
# Bulk Modulus (GPa) = 41.74381 51.28406 46.51394
# Shear Modulus (GPa) = 23.45772 27.05781 25.25776
#
# Velocity S-wave (km/s) = 3.47717 3.73447 3.60811
# Velocity P-wave (km/s) = 6.13487 6.71030 6.42903
#
# Compressibility (1/GPa) = 0.02395565
#
# Stress axis : x y z
#
# Youngs Moduli (GPa) = 135.13299 65.18332 66.05120
#
# Poissons Ratio (x) = 0.15533 0.21700
# Poissons Ratio (y) = 0.32201 0.08551
# Poissons Ratio (z) = 0.44396 0.08438
#
# Static dielectric constant tensor:
#      x y z
#    x 1.708650 0.000000 0.000000 
#    y 0.000000 1.676970 0.000000 
#    z 0.000000 0.000000 1.826870 
# 
# From -- ./inp_files/3085.got.cif
#   From: 2010.05.17/outbox.cif.g08.bks.cpg/sg53_2_cif.got.tgz:3085.got - 2010.06.03 12:45:16.
