data_PCOD9416511
_publ_section_title
;
Structure prediction by ZEFSAII (Michael W. Deem and Ramdas Pophale) SiO2 
 PCOD9416511
Probable space group: P M N A
;
_chemical_formula_sum "Si O2"
_cell_formula_units_Z 64
_cell_length_a 8.093045
_cell_length_b 19.205093
_cell_length_c 20.289134
_cell_angle_alpha 90.000000
_cell_angle_beta 90.000000
_cell_angle_gamma 90.000000
_cell_volume 3153.493065
_symmetry_space_group_name_H-M "P M N A"
_symmetry_group_IT_number 53
_symmetry_cell_setting 'orthorhombic'
loop_
_space_group_symop_operation_xyz
x,y,z
1/2-x,-y,1/2+z
x,-y,-z
1/2-x,y,1/2-z
-x,-y,-z
1/2+x,y,1/2-z
-x,y,z
1/2+x,-y,1/2+z
loop_
_atom_site_type_symbol
_atom_site_label
_atom_site_fract_x
_atom_site_fract_y
_atom_site_fract_z
Si Si1 0.699238 0.547316 0.673290
Si Si2 0.800766 0.945566 0.556004
Si Si3 0.297850 0.356268 0.442560
Si Si4 0.698149 0.204980 0.488842
Si Si5 0.191263 0.573156 0.075053
Si Si6 0.197443 0.035083 0.678115
Si Si7 0.811518 0.670323 0.320169
Si Si8 0.804552 0.811363 0.140237
O O1 0.750000 0.545897 0.750000
O O2 0.500000 0.542907 0.674262
O O3 0.747546 0.614713 0.629441
O O4 0.761629 0.484290 0.625802
O O5 0.744738 0.866703 0.546444
O O6 0.000000 0.945110 0.553027
O O7 0.742161 0.000000 0.500000
O O8 0.746933 0.979496 0.624283
O O9 0.500000 0.356679 0.445643
O O10 0.240753 0.277740 0.458030
O O11 0.241431 0.407614 0.502540
O O12 0.500000 0.209436 0.489666
O O13 0.752029 0.196433 0.564547
O O14 0.204217 0.642775 0.118975
O O15 0.000000 0.553694 0.064608
O O16 0.250000 0.012378 0.750000
O O17 0.272392 0.110682 0.663422
O O18 0.000000 0.042130 0.673799
O O19 0.750000 0.642194 0.250000
O O20 0.793902 0.753319 0.319886
O O21 0.000000 0.650012 0.330939
O O22 0.000000 0.796521 0.145419
#
# Coordination Sequence:
#
# PCOD9416511 Si02
#       8
#     8   8   8   8   8   8   8   8
#     4  10  21  37  61  86 116 154 192 240 292 347
#     4  10  21  38  59  83 115 150 188 233 284 339
#     4   9  18  37  61  87 114 149 196 240 287 342
#     4  10  20  35  60  88 114 145 191 243 283 338
#     4  10  19  36  60  86 114 147 192 240 287 342
#     4  11  23  39  58  83 116 153 189 236 287 344
#     4  12  24  36  52  78 116 159 194 231 281 340
#     4  11  21  36  57  83 115 151 190 236 283 340
#
# _framework density 20.294954000000001
#
# number of rings (size 3 to 8) (size 9 to 14) (size 15 to 20)
#    0.000    1.625    2.500    3.000    0.000    4.750 
#    0.000    1.875    0.000    4.500    0.000    0.000 
#    0.000    0.000    0.000    0.000    0.000    0.000 
#
# Total GULP energy -357350.427294 kJ/mol
# GULP energy per Si atom -5583.600426 kJ/mol
# Density = 2.024876 g / cm^3
# Si number density = 20.294954 Si / 1000 Ang^3
#
#
#
# Elastic Constant Matrix: (Units=GPa)
#
#
# Indices 1 2 3 4 5 6 
#
# 1 29.4686 4.7855 10.5611 0.0000 0.0000 0.0000
# 2 4.7855 102.4160 77.8327 0.0000 0.0000 0.0000
# 3 10.5611 77.8327 165.3626 0.0000 0.0000 0.0000
# 4 0.0000 0.0000 0.0000 29.0472 0.0000 0.0000
# 5 0.0000 0.0000 0.0000 0.0000 20.0676 0.0000
# 6 0.0000 0.0000 0.0000 0.0000 0.0000 23.0328
#
#
#
# Elastic Compliance Matrix: (Units=1/GPa)
#
#
# Indices 1 2 3 4 5 6 
#
# 1 0.034730 0.000098 -0.002264 0.000000 0.000000 0.000000
# 2 0.000098 0.015202 -0.007162 0.000000 0.000000 0.000000
# 3 -0.002264 -0.007162 0.009563 0.000000 0.000000 0.000000
# 4 0.000000 0.000000 0.000000 0.034427 0.000000 0.000000
# 5 0.000000 0.000000 0.000000 0.000000 0.049832 0.000000
# 6 0.000000 0.000000 0.000000 0.000000 0.000000 0.043416
#
#
# Mechanical properties :
#
#
# Convention : Reuss Voigt Hill
#
# Bulk Modulus (GPa) = 24.48633 53.73399 39.11016
# Shear Modulus (GPa) = 22.78548 28.03405 25.40977
#
# Velocity S-wave (km/s) = 3.35433 3.72066 3.54223
# Velocity P-wave (km/s) = 5.20514 6.70759 6.00355
#
# Compressibility (1/GPa) = 0.04083911
#
# Stress axis : x y z
#
# Youngs Moduli (GPa) = 28.79359 65.78053 104.57287
#
# Poissons Ratio (x) = -0.00644 0.23677
# Poissons Ratio (y) = -0.00282 0.74890
# Poissons Ratio (z) = 0.06519 0.47109
#
# Static dielectric constant tensor:
#      x y z
#    x 1.735680 0.000000 0.000000 
#    y 0.000000 1.734130 0.000000 
#    z 0.000000 0.000000 1.722990 
# 
# From -- ./inp_files/26941.got.cif
#   From: 2010.05.17/outbox.cif.g08.bks.cpg/sg53_14_cif.got.tgz:26941.got - 2010.06.03 12:45:16.
