data_PCOD9416765
_publ_section_title
;
Structure prediction by ZEFSAII (Michael W. Deem and Ramdas Pophale) SiO2 
 PCOD9416765
Probable space group: P M N A
;
_chemical_formula_sum "Si O2"
_cell_formula_units_Z 64
_cell_length_a 9.558053
_cell_length_b 21.445395
_cell_length_c 17.866495
_cell_angle_alpha 90.000000
_cell_angle_beta 90.000000
_cell_angle_gamma 90.000000
_cell_volume 3662.206646
_symmetry_space_group_name_H-M "P M N A"
_symmetry_group_IT_number 53
_symmetry_cell_setting 'orthorhombic'
loop_
_space_group_symop_operation_xyz
x,y,z
1/2-x,-y,1/2+z
x,-y,-z
1/2-x,y,1/2-z
-x,-y,-z
1/2+x,y,1/2-z
-x,y,z
1/2+x,-y,1/2+z
loop_
_atom_site_type_symbol
_atom_site_label
_atom_site_fract_x
_atom_site_fract_y
_atom_site_fract_z
Si Si1 0.337312 0.581971 0.074144
Si Si2 0.658347 0.670886 0.630471
Si Si3 0.838167 0.300542 0.950604
Si Si4 0.338677 0.444720 0.105331
Si Si5 0.837402 0.929789 0.970152
Si Si6 0.849437 0.220210 0.346848
Si Si7 0.338577 0.078133 0.181546
Si Si8 0.162062 0.817764 0.477178
O O1 0.500000 0.595475 0.092609
O O2 0.236632 0.640224 0.087267
O O3 0.294587 0.516896 0.112862
O O4 0.334911 0.569044 0.984363
O O5 0.500000 0.662657 0.653848
O O6 0.661313 0.684953 0.540462
O O7 0.745531 0.608109 0.642832
O O8 0.726897 0.731571 0.667208
O O9 0.000000 0.292636 0.928611
O O10 0.745543 0.238663 0.938495
O O11 0.500000 0.439267 0.128613
O O12 0.750724 0.931456 0.893182
O O13 0.753529 0.880939 0.022448
O O14 0.000000 0.909309 0.959618
O O15 0.838758 0.000000 0.000000
O O16 0.846248 0.153176 0.308482
O O17 0.844448 0.202625 0.435249
O O18 0.000000 0.250808 0.332662
O O19 0.250000 0.050966 0.250000
O O20 0.500000 0.056398 0.176014
O O21 0.000000 0.825624 0.452919
#
# Coordination Sequence:
#
# PCOD9416765 Si02
#       8
#     8   8   8   8   8   8   8   8
#     4   8  13  20  28  38  54  81 117 154 194 239
#     4   9  15  20  29  45  63  86 118 158 200 239
#     4   9  15  21  30  45  65  89 119 159 204 245
#     4   8  13  20  28  37  54  82 115 153 195 239
#     4  10  20  33  49  69  93 119 148 185 227 272
#     4   8  15  26  38  53  73  99 130 164 205 249
#     4  10  20  33  50  70  92 119 150 186 226 270
#     4   9  16  26  40  56  75 101 134 171 209 253
#
# _framework density 17.475802000000002
#
# number of rings (size 3 to 8) (size 9 to 14) (size 15 to 20)
#    0.000    3.125    0.000    3.375    0.000    8.000 
#    0.000    2.500    0.000    0.000    0.000    0.000 
#    0.000    0.000    0.000    0.000    0.000    1.250 
#
# Total GULP energy -356334.086541 kJ/mol
# GULP energy per Si atom -5567.720102 kJ/mol
# Density = 1.743603 g / cm^3
# Si number density = 17.475802 Si / 1000 Ang^3
#
#
#
# Elastic Constant Matrix: (Units=GPa)
#
#
# Indices 1 2 3 4 5 6 
#
# 1 147.2200 68.3056 11.8590 0.0000 0.0000 0.0000
# 2 68.3056 91.8938 4.4337 0.0000 0.0000 0.0000
# 3 11.8590 4.4337 7.1112 0.0000 0.0000 0.0000
# 4 0.0000 0.0000 0.0000 1.7805 0.0000 0.0000
# 5 0.0000 0.0000 0.0000 0.0000 2.4975 0.0000
# 6 0.0000 0.0000 0.0000 0.0000 0.0000 28.3410
#
#
#
# Elastic Compliance Matrix: (Units=1/GPa)
#
#
# Indices 1 2 3 4 5 6 
#
# 1 0.011653 -0.007964 -0.014468 0.000000 0.000000 0.000000
# 2 -0.007964 0.016662 0.002892 0.000000 0.000000 0.000000
# 3 -0.014468 0.002892 0.162948 0.000000 0.000000 0.000000
# 4 0.000000 0.000000 0.000000 0.561647 0.000000 0.000000
# 5 0.000000 0.000000 0.000000 0.000000 0.400407 0.000000
# 6 0.000000 0.000000 0.000000 0.000000 0.000000 0.035285
#
#
# Mechanical properties :
#
#
# Convention : Reuss Voigt Hill
#
# Bulk Modulus (GPa) = 6.57097 46.15795 26.36446
# Shear Modulus (GPa) = 3.91111 17.29889 10.60500
#
# Velocity S-wave (km/s) = 1.49762 3.14964 2.46608
# Velocity P-wave (km/s) = 2.59975 6.30054 4.81952
#
# Compressibility (1/GPa) = 0.15218452
#
# Stress axis : x y z
#
# Youngs Moduli (GPa) = 85.81569 60.01662 6.13691
#
# Poissons Ratio (x) = 0.47795 0.08879
# Poissons Ratio (y) = 0.68341 -0.01775
# Poissons Ratio (z) = 1.24157 -0.17357
#
# Static dielectric constant tensor:
#      x y z
#    x 1.611470 0.000000 0.000000 
#    y 0.000000 1.595560 0.000000 
#    z 0.000000 0.000000 1.660420 
# 
# From -- ./inp_files/34583.got.cif
#   From: 2010.05.17/outbox.cif.g08.bks.cpg/sg53_18_cif.got.tgz:34583.got - 2010.06.03 12:45:16.
