data_PCOD9416769
_publ_section_title
;
Structure prediction by ZEFSAII (Michael W. Deem and Ramdas Pophale) SiO2 
 PCOD9416769
Probable space group: P M N A
;
_chemical_formula_sum "Si O2"
_cell_formula_units_Z 56
_cell_length_a 7.907400
_cell_length_b 20.491040
_cell_length_c 18.800303
_cell_angle_alpha 90.000000
_cell_angle_beta 90.000000
_cell_angle_gamma 90.000000
_cell_volume 3046.229070
_symmetry_space_group_name_H-M "P M N A"
_symmetry_group_IT_number 53
_symmetry_cell_setting 'orthorhombic'
loop_
_space_group_symop_operation_xyz
x,y,z
1/2-x,-y,1/2+z
x,-y,-z
1/2-x,y,1/2-z
-x,-y,-z
1/2+x,y,1/2-z
-x,y,z
1/2+x,-y,1/2+z
loop_
_atom_site_type_symbol
_atom_site_label
_atom_site_fract_x
_atom_site_fract_y
_atom_site_fract_z
Si Si1 0.795422 0.430881 0.832816
Si Si2 0.298371 0.986538 0.669345
Si Si3 0.298059 0.136989 0.669384
Si Si4 0.302877 0.068314 0.029139
Si Si5 0.700998 0.651166 0.468912
Si Si6 0.194261 0.202059 0.532550
Si Si7 0.305703 0.545596 0.570566
O O1 0.750000 0.420746 0.750000
O O2 0.737920 0.376974 0.892027
O O3 0.733593 0.500341 0.866368
O O4 0.000000 0.431637 0.835340
O O5 0.250000 0.972168 0.750000
O O6 0.500000 0.983111 0.661185
O O7 0.245546 0.061812 0.654814
O O8 0.211687 0.939455 0.613308
O O9 0.250000 0.151137 0.750000
O O10 0.500000 0.141504 0.660406
O O11 0.207582 0.184824 0.615583
O O12 0.500000 0.068938 0.006451
O O13 0.227589 0.136857 0.003339
O O14 0.226289 0.000000 0.000000
O O15 0.500000 0.637985 0.469094
O O16 0.725799 0.727732 0.478347
O O17 0.773455 0.610760 0.536470
O O18 0.000000 0.206888 0.509475
O O19 0.310590 0.500000 0.500000
O O20 0.500000 0.559974 0.591951
#
# Coordination Sequence:
#
# PCOD9416769 Si02
#       7
#     8   8   8   8   8   8   8
#     4   9  17  30  51  78 104 131 163 200 243 290
#     4  10  20  33  53  76  98 124 160 209 261 313
#     4  10  20  33  49  70  97 129 165 204 250 306
#     4  10  20  35  53  72  99 133 172 219 266 307
#     4   9  18  33  51  70  98 135 172 206 242 294
#     4  11  22  34  50  73 102 136 171 212 259 306
#     4   7  12  27  50  71  92 125 167 202 232 276
#
# _framework density 18.383385000000001
#
# number of rings (size 3 to 8) (size 9 to 14) (size 15 to 20)
#    0.000    2.571    1.429    3.000    0.000    3.714 
#    0.000    2.143    0.000    3.429    0.000    4.000 
#    0.000    0.000    0.000    0.000    0.000    0.000 
#
# Total GULP energy -311860.002613 kJ/mol
# GULP energy per Si atom -5568.928618 kJ/mol
# Density = 1.834154 g / cm^3
# Si number density = 18.383385 Si / 1000 Ang^3
#
#
#
# Elastic Constant Matrix: (Units=GPa)
#
#
# Indices 1 2 3 4 5 6 
#
# 1 26.6563 7.7891 2.2193 0.0000 0.0000 0.0000
# 2 7.7891 131.9960 48.7105 0.0000 0.0000 0.0000
# 3 2.2193 48.7105 51.0839 0.0000 0.0000 0.0000
# 4 0.0000 0.0000 0.0000 19.9586 0.0000 0.0000
# 5 0.0000 0.0000 0.0000 0.0000 6.9291 0.0000
# 6 0.0000 0.0000 0.0000 0.0000 0.0000 14.5192
#
#
#
# Elastic Compliance Matrix: (Units=1/GPa)
#
#
# Indices 1 2 3 4 5 6 
#
# 1 0.038192 -0.002533 0.000756 0.000000 0.000000 0.000000
# 2 -0.002533 0.011857 -0.011196 0.000000 0.000000 0.000000
# 3 0.000756 -0.011196 0.030219 0.000000 0.000000 0.000000
# 4 0.000000 0.000000 0.000000 0.050104 0.000000 0.000000
# 5 0.000000 0.000000 0.000000 0.000000 0.144319 0.000000
# 6 0.000000 0.000000 0.000000 0.000000 0.000000 0.068874
#
#
# Mechanical properties :
#
#
# Convention : Reuss Voigt Hill
#
# Bulk Modulus (GPa) = 18.40896 36.35270 27.38083
# Shear Modulus (GPa) = 12.89929 18.34921 15.62425
#
# Velocity S-wave (km/s) = 2.65180 3.16276 2.91849
# Velocity P-wave (km/s) = 4.40587 5.75805 5.12674
#
# Compressibility (1/GPa) = 0.05432138
#
# Stress axis : x y z
#
# Youngs Moduli (GPa) = 26.18374 84.33695 33.09190
#
# Poissons Ratio (x) = 0.21359 -0.02501
# Poissons Ratio (y) = 0.06631 0.37051
# Poissons Ratio (z) = -0.01979 0.94426
#
# Static dielectric constant tensor:
#      x y z
#    x 1.683490 0.000000 0.000000 
#    y 0.000000 1.669330 0.000000 
#    z 0.000000 0.000000 1.647640 
# 
# From -- ./inp_files/26643.got.cif
#   From: 2010.05.17/outbox.cif.g08.bks.cpg/sg53_14_cif.got.tgz:26643.got - 2010.06.03 12:45:16.
