data_PCOD9416420
_publ_section_title
;
Structure prediction by ZEFSAII (Michael W. Deem and Ramdas Pophale) SiO2 
 PCOD9416420
Probable space group: P M N A
;
_chemical_formula_sum "Si O2"
_cell_formula_units_Z 64
_cell_length_a 9.877292
_cell_length_b 11.845326
_cell_length_c 24.912176
_cell_angle_alpha 90.000000
_cell_angle_beta 90.000000
_cell_angle_gamma 90.000000
_cell_volume 2914.718208
_symmetry_space_group_name_H-M "P M N A"
_symmetry_group_IT_number 53
_symmetry_cell_setting 'orthorhombic'
loop_
_space_group_symop_operation_xyz
x,y,z
1/2-x,-y,1/2+z
x,-y,-z
1/2-x,y,1/2-z
-x,-y,-z
1/2+x,y,1/2-z
-x,y,z
1/2+x,-y,1/2+z
loop_
_atom_site_type_symbol
_atom_site_label
_atom_site_fract_x
_atom_site_fract_y
_atom_site_fract_z
Si Si1 0.345381 0.205615 0.795844
Si Si2 0.160119 0.598076 0.372682
Si Si3 0.849860 0.911904 0.589419
Si Si4 0.164921 0.578517 0.804990
Si Si5 0.346238 0.287949 0.416830
Si Si6 0.353782 0.917398 0.448204
Si Si7 0.846949 0.647982 0.031712
Si Si8 0.353565 0.941503 0.789691
O O1 0.250000 0.253721 0.750000
O O2 0.500000 0.218059 0.777945
O O3 0.331837 0.274217 0.850282
O O4 0.317416 0.072621 0.799939
O O5 0.251983 0.526513 0.331153
O O6 0.231466 0.597763 0.430429
O O7 0.000000 0.564844 0.373041
O O8 0.759565 0.809551 0.569888
O O9 0.859475 0.888315 0.652571
O O10 0.000000 0.915707 0.565894
O O11 0.773274 0.029761 0.582049
O O12 0.250000 0.606908 0.750000
O O13 0.171826 0.663382 0.856786
O O14 0.000000 0.561619 0.794845
O O15 0.500000 0.242799 0.419784
O O16 0.334091 0.372384 0.467723
O O17 0.500000 0.932445 0.419733
O O18 0.342154 0.785146 0.460837
O O19 0.358534 0.000000 0.500000
O O20 0.000000 0.613633 0.048680
O O21 0.250000 0.886088 0.750000
O O22 0.500000 0.939264 0.763398
#
# Coordination Sequence:
#
# PCOD9416420 Si02
#       8
#     8   8   8   8   8   8   8   8
#     4   9  18  33  53  78 113 153 192 238 294 358
#     4  11  23  39  62  92 127 160 197 253 316 380
#     4  11  22  35  56  86 121 158 201 254 309 360
#     4  11  25  46  71  94 120 157 205 261 319 378
#     4  10  23  44  65  86 118 162 208 254 307 372
#     4  10  19  35  59  86 122 167 213 251 288 353
#     4  10  21  39  63  91 125 165 211 254 301 368
#     4   9  19  34  50  75 111 150 192 237 289 353
#
# _framework density 21.957526000000001
#
# number of rings (size 3 to 8) (size 9 to 14) (size 15 to 20)
#    0.000    1.875    1.250    2.250    0.000    7.250 
#    0.000    7.500    0.000    0.000    0.000    0.000 
#    0.000    0.000    0.000    0.000    0.000    0.000 
#
# Total GULP energy -356797.163836 kJ/mol
# GULP energy per Si atom -5574.955685 kJ/mol
# Density = 2.190755 g / cm^3
# Si number density = 21.957526 Si / 1000 Ang^3
#
#
#
# Elastic Constant Matrix: (Units=GPa)
#
#
# Indices 1 2 3 4 5 6 
#
# 1 134.1099 46.4607 71.6795 0.0000 0.0000 0.0000
# 2 46.4607 39.9294 8.7386 0.0000 0.0000 0.0000
# 3 71.6795 8.7386 105.5002 0.0000 0.0000 0.0000
# 4 0.0000 0.0000 0.0000 28.0761 0.0000 0.0000
# 5 0.0000 0.0000 0.0000 0.0000 31.3246 0.0000
# 6 0.0000 0.0000 0.0000 0.0000 0.0000 30.1308
#
#
#
# Elastic Compliance Matrix: (Units=1/GPa)
#
#
# Indices 1 2 3 4 5 6 
#
# 1 0.022976 -0.023748 -0.013643 0.000000 0.000000 0.000000
# 2 -0.023748 0.050053 0.011989 0.000000 0.000000 0.000000
# 3 -0.013643 0.011989 0.017755 0.000000 0.000000 0.000000
# 4 0.000000 0.000000 0.000000 0.035618 0.000000 0.000000
# 5 0.000000 0.000000 0.000000 0.000000 0.031924 0.000000
# 6 0.000000 0.000000 0.000000 0.000000 0.000000 0.033189
#
#
# Mechanical properties :
#
#
# Convention : Reuss Voigt Hill
#
# Bulk Modulus (GPa) = 25.01275 59.25525 42.13400
# Shear Modulus (GPa) = 19.55827 28.08368 23.82097
#
# Velocity S-wave (km/s) = 2.98775 3.58019 3.29730
# Velocity P-wave (km/s) = 4.82891 6.64344 5.80748
#
# Compressibility (1/GPa) = 0.03997961
#
# Stress axis : x y z
#
# Youngs Moduli (GPa) = 43.52342 19.97870 56.32121
#
# Poissons Ratio (x) = 0.47446 0.76842
# Poissons Ratio (y) = 1.03361 -0.67526
# Poissons Ratio (z) = 0.59381 -0.23953
#
# Static dielectric constant tensor:
#      x y z
#    x 1.743260 0.000000 0.000000 
#    y 0.000000 1.835930 0.000000 
#    z 0.000000 0.000000 1.837370 
# 
# From -- ./inp_files/34300.got.cif
#   From: 2010.05.17/outbox.cif.g08.bks.cpg/sg53_18_cif.got.tgz:34300.got - 2010.06.03 12:45:16.
