data_PCOD9416456
_publ_section_title
;
Structure prediction by ZEFSAII (Michael W. Deem and Ramdas Pophale) SiO2 
 PCOD9416456
Probable space group: P M N A
;
_chemical_formula_sum "Si O2"
_cell_formula_units_Z 52
_cell_length_a 26.643265
_cell_length_b 10.975223
_cell_length_c 8.827268
_cell_angle_alpha 90.000000
_cell_angle_beta 90.000000
_cell_angle_gamma 90.000000
_cell_volume 2581.232412
_symmetry_space_group_name_H-M "P M N A"
_symmetry_group_IT_number 53
_symmetry_cell_setting 'orthorhombic'
loop_
_space_group_symop_operation_xyz
x,y,z
1/2-x,-y,1/2+z
x,-y,-z
1/2-x,y,1/2-z
-x,-y,-z
1/2+x,y,1/2-z
-x,y,z
1/2+x,-y,1/2+z
loop_
_atom_site_type_symbol
_atom_site_label
_atom_site_fract_x
_atom_site_fract_y
_atom_site_fract_z
Si Si1 0.665305 0.327696 0.547671
Si Si2 0.444402 0.367313 0.577707
Si Si3 0.753835 0.500000 0.500000
Si Si4 0.363490 0.085918 0.141565
Si Si5 0.706213 0.925572 0.356689
Si Si6 0.195254 0.306636 0.293973
Si Si7 0.942407 0.111705 0.105710
O O1 0.614174 0.368724 0.631244
O O2 0.714896 0.407155 0.581841
O O3 0.674535 0.187804 0.585512
O O4 0.665280 0.333388 0.361999
O O5 0.447683 0.500000 0.500000
O O6 0.500000 0.355199 0.658104
O O7 0.441717 0.243896 0.475415
O O8 0.788455 0.575416 0.613216
O O9 0.335397 0.211839 0.105175
O O10 0.412232 0.115329 0.239395
O O11 0.327157 0.015292 0.257026
O O12 0.373204 0.000000 0.000000
O O13 0.750000 0.878409 0.250000
O O14 0.726795 0.000000 0.500000
O O15 0.250000 0.250818 0.250000
O O16 0.000000 0.081361 0.137708
O O17 0.922942 0.000000 0.000000
#
# Coordination Sequence:
#
# PCOD9416456 Si02
#       7
#     8   8   4   8   8   8   8
#     4  11  21  41  63  88 127 167 210 271 319 387
#     4  10  19  35  63  97 122 157 214 272 328 379
#     4  10  24  38  57  88 123 176 210 254 318 392
#     4  12  24  39  63  95 132 171 217 268 328 395
#     4  12  25  39  63  92 129 170 220 266 330 389
#     4  10  22  41  60  82 130 167 214 258 314 385
#     4  10  21  41  68  96 130 170 216 275 336 396
#
# _framework density 20.145415
#
# number of rings (size 3 to 8) (size 9 to 14) (size 15 to 20)
#    0.000    1.231    3.846    2.308    6.462    2.154 
#    0.000    0.000    0.000    0.000    0.000    2.154 
#    0.000    0.000    0.000    0.000    0.000    0.000 
#
# Total GULP energy -289945.092235 kJ/mol
# GULP energy per Si atom -5575.867158 kJ/mol
# Density = 2.009956 g / cm^3
# Si number density = 20.145415 Si / 1000 Ang^3
#
#
#
# Elastic Constant Matrix: (Units=GPa)
#
#
# Indices 1 2 3 4 5 6 
#
# 1 89.3059 22.2561 21.8137 0.0000 0.0000 0.0000
# 2 22.2561 119.0365 29.1110 0.0000 0.0000 0.0000
# 3 21.8137 29.1110 49.5799 0.0000 0.0000 0.0000
# 4 0.0000 0.0000 0.0000 31.2122 0.0000 0.0000
# 5 0.0000 0.0000 0.0000 0.0000 17.0167 0.0000
# 6 0.0000 0.0000 0.0000 0.0000 0.0000 9.1089
#
#
#
# Elastic Compliance Matrix: (Units=1/GPa)
#
#
# Indices 1 2 3 4 5 6 
#
# 1 0.012685 -0.001176 -0.004891 0.000000 0.000000 0.000000
# 2 -0.001176 0.009918 -0.005306 0.000000 0.000000 0.000000
# 3 -0.004891 -0.005306 0.025437 0.000000 0.000000 0.000000
# 4 0.000000 0.000000 0.000000 0.032039 0.000000 0.000000
# 5 0.000000 0.000000 0.000000 0.000000 0.058766 0.000000
# 6 0.000000 0.000000 0.000000 0.000000 0.000000 0.109783
#
#
# Mechanical properties :
#
#
# Convention : Reuss Voigt Hill
#
# Bulk Modulus (GPa) = 39.53386 44.92044 42.22715
# Shear Modulus (GPa) = 17.86960 23.78366 20.82663
#
# Velocity S-wave (km/s) = 2.98154 3.43971 3.21879
# Velocity P-wave (km/s) = 5.61423 6.17430 5.90092
#
# Compressibility (1/GPa) = 0.02529477
#
# Stress axis : x y z
#
# Youngs Moduli (GPa) = 78.83288 100.82402 39.31308
#
# Poissons Ratio (x) = 0.11853 0.19227
# Poissons Ratio (y) = 0.09268 0.20861
# Poissons Ratio (z) = 0.38555 0.53500
#
# Static dielectric constant tensor:
#      x y z
#    x 1.779940 0.000000 0.000000 
#    y 0.000000 1.739360 0.000000 
#    z 0.000000 0.000000 1.720800 
# 
# From -- ./inp_files/12507.got.cif
#   From: 2010.05.17/outbox.cif.g08.bks.cpg/sg53_7_cif.got.tgz:12507.got - 2010.06.03 12:45:16.
