data_PCOD9416257
_publ_section_title
;
Structure prediction by ZEFSAII (Michael W. Deem and Ramdas Pophale) SiO2 
 PCOD9416257
Probable space group: P M N A
;
_chemical_formula_sum "Si O2"
_cell_formula_units_Z 56
_cell_length_a 15.098173
_cell_length_b 8.762610
_cell_length_c 22.880328
_cell_angle_alpha 90.000000
_cell_angle_beta 90.000000
_cell_angle_gamma 90.000000
_cell_volume 3027.053705
_symmetry_space_group_name_H-M "P M N A"
_symmetry_group_IT_number 53
_symmetry_cell_setting 'orthorhombic'
loop_
_space_group_symop_operation_xyz
x,y,z
1/2-x,-y,1/2+z
x,-y,-z
1/2-x,y,1/2-z
-x,-y,-z
1/2+x,y,1/2-z
-x,y,z
1/2+x,-y,1/2+z
loop_
_atom_site_type_symbol
_atom_site_label
_atom_site_fract_x
_atom_site_fract_y
_atom_site_fract_z
Si Si1 0.303738 0.297467 0.863721
Si Si2 0.741997 0.390771 0.318413
Si Si3 0.896628 0.883494 0.832600
Si Si4 0.858637 0.156171 0.376493
Si Si5 0.398400 0.086478 0.779811
Si Si6 0.202624 0.966953 0.068903
Si Si7 0.000000 0.631772 0.414441
Si Si8 0.000000 0.283542 0.459063
O O1 0.246747 0.449028 0.851934
O O2 0.326716 0.207429 0.803434
O O3 0.404958 0.336849 0.884241
O O4 0.248698 0.192333 0.909870
O O5 0.750000 0.420112 0.250000
O O6 0.661218 0.272419 0.330280
O O7 0.829556 0.299720 0.338334
O O8 0.880766 0.985069 0.890859
O O9 0.000000 0.846550 0.826070
O O10 0.870576 0.992481 0.777787
O O11 0.773178 0.085931 0.406055
O O12 0.917736 0.204658 0.429677
O O13 0.900781 0.033765 0.333242
O O14 0.500000 0.144994 0.771134
O O15 0.189883 0.000000 0.000000
O O16 0.000000 0.458316 0.437461
O O17 0.000000 0.733813 0.472321
#
# Coordination Sequence:
#
# PCOD9416257 Si02
#       8
#     8   8   8   8   8   8   4   4
#     4  11  23  37  60  92 129 159 199 241 305 354
#     4  11  22  38  60  88 124 158 195 250 301 363
#     4  10  23  43  65  88 114 157 209 253 311 362
#     4  10  19  34  58  83 118 163 207 231 291 354
#     4  10  19  35  59  87 120 152 188 244 290 358
#     4  10  23  40  60  86 117 162 206 258 303 356
#     4  11  22  35  51  89 135 169 197 238 281 358
#     4  11  20  33  55  85 127 175 203 232 274 357
#
# _framework density 18.499836999999999
#
# number of rings (size 3 to 8) (size 9 to 14) (size 15 to 20)
#    0.000    1.571    4.286    0.857    2.000    0.286 
#    1.286    2.857    0.000    0.857    0.000    0.000 
#    0.000    0.000    0.000    0.000    0.000    0.000 
#
# Total GULP energy -311966.011519 kJ/mol
# GULP energy per Si atom -5570.821634 kJ/mol
# Density = 1.845773 g / cm^3
# Si number density = 18.499837 Si / 1000 Ang^3
#
#
#
# Elastic Constant Matrix: (Units=GPa)
#
#
# Indices 1 2 3 4 5 6 
#
# 1 63.3173 24.8996 19.9417 0.0000 0.0000 0.0000
# 2 24.8996 76.4405 27.1359 0.0000 0.0000 0.0000
# 3 19.9417 27.1359 111.1819 0.0000 0.0000 0.0000
# 4 0.0000 0.0000 0.0000 21.1005 0.0000 0.0000
# 5 0.0000 0.0000 0.0000 0.0000 20.3905 0.0000
# 6 0.0000 0.0000 0.0000 0.0000 0.0000 24.2800
#
#
#
# Elastic Compliance Matrix: (Units=1/GPa)
#
#
# Indices 1 2 3 4 5 6 
#
# 1 0.018521 -0.005314 -0.002025 0.000000 0.000000 0.000000
# 2 -0.005314 0.015848 -0.002915 0.000000 0.000000 0.000000
# 3 -0.002025 -0.002915 0.010069 0.000000 0.000000 0.000000
# 4 0.000000 0.000000 0.000000 0.047392 0.000000 0.000000
# 5 0.000000 0.000000 0.000000 0.000000 0.049042 0.000000
# 6 0.000000 0.000000 0.000000 0.000000 0.000000 0.041186
#
#
# Mechanical properties :
#
#
# Convention : Reuss Voigt Hill
#
# Bulk Modulus (GPa) = 41.78864 43.87711 42.83288
# Shear Modulus (GPa) = 23.74810 25.08502 24.41656
#
# Velocity S-wave (km/s) = 3.58675 3.68633 3.63688
# Velocity P-wave (km/s) = 6.30799 6.47208 6.39056
#
# Compressibility (1/GPa) = 0.02392995
#
# Stress axis : x y z
#
# Youngs Moduli (GPa) = 53.99267 63.10014 99.31603
#
# Poissons Ratio (x) = 0.33533 0.20111
# Poissons Ratio (y) = 0.28693 0.28948
# Poissons Ratio (z) = 0.10933 0.18392
#
# Static dielectric constant tensor:
#      x y z
#    x 1.691420 0.000000 0.000000 
#    y 0.000000 1.660820 0.000000 
#    z 0.000000 0.000000 1.648340 
# 
# From -- ./inp_files/32510.got.cif
#   From: 2010.05.17/outbox.cif.g08.bks.cpg/sg53_17_cif.got.tgz:32510.got - 2010.06.03 12:45:16.
