data_PCOD9416212
_publ_section_title
;
Structure prediction by ZEFSAII (Michael W. Deem and Ramdas Pophale) SiO2 
 PCOD9416212
Probable space group: P M N A
;
_chemical_formula_sum "Si O2"
_cell_formula_units_Z 58
_cell_length_a 7.466603
_cell_length_b 22.646424
_cell_length_c 14.480782
_cell_angle_alpha 90.000000
_cell_angle_beta 90.000000
_cell_angle_gamma 90.000000
_cell_volume 2448.582325
_symmetry_space_group_name_H-M "P M N A"
_symmetry_group_IT_number 53
_symmetry_cell_setting 'orthorhombic'
loop_
_space_group_symop_operation_xyz
x,y,z
1/2-x,-y,1/2+z
x,-y,-z
1/2-x,y,1/2-z
-x,-y,-z
1/2+x,y,1/2-z
-x,y,z
1/2+x,-y,1/2+z
loop_
_atom_site_type_symbol
_atom_site_label
_atom_site_fract_x
_atom_site_fract_y
_atom_site_fract_z
Si Si1 0.787472 0.130443 0.350312
Si Si2 0.801226 0.535688 0.643320
Si Si3 0.297528 0.937892 0.470610
Si Si4 0.285918 0.401983 0.649283
Si Si5 0.295965 0.291482 0.547671
Si Si6 0.788425 0.266201 0.349146
Si Si7 0.285353 0.171605 0.641504
Si Si8 0.000000 0.500000 0.000000
O O1 0.750000 0.103512 0.250000
O O2 0.696548 0.098057 0.434249
O O3 0.723502 0.198182 0.346829
O O4 0.000000 0.130107 0.366240
O O5 0.750000 0.554340 0.750000
O O6 0.809433 0.464304 0.650393
O O7 0.657061 0.538223 0.559938
O O8 0.000000 0.559412 0.621872
O O9 0.500000 0.952065 0.437482
O O10 0.215570 0.890897 0.398620
O O11 0.210554 0.000000 0.500000
O O12 0.250000 0.375473 0.750000
O O13 0.500000 0.416436 0.631282
O O14 0.214636 0.352097 0.582355
O O15 0.500000 0.293023 0.584294
O O16 0.297373 0.293780 0.438192
O O17 0.218758 0.229362 0.585191
O O18 0.750000 0.293583 0.250000
O O19 0.000000 0.265538 0.363376
O O20 0.250000 0.178122 0.750000
O O21 0.500000 0.169290 0.626281
#
# Coordination Sequence:
#
# PCOD9416212 Si02
#       8
#     8   8   8   8   8   8   8   2
#     4  10  20  34  54  77  99 127 167 221 271 327
#     4  11  21  39  65  99 139 180 230 286 338 392
#     4  10  21  37  55  74 101 136 175 223 281 340
#     4  10  19  34  56  88 128 164 205 259 314 371
#     4  10  20  34  56  83 113 153 192 239 293 356
#     4  10  20  33  53  79 104 135 181 231 279 338
#     4  10  21  36  53  76 108 142 180 224 282 351
#     4  12  22  40  68 100 136 184 234 280 338 392
#
# _framework density 23.687175
#
# number of rings (size 3 to 8) (size 9 to 14) (size 15 to 20)
#    0.000    1.793    2.759    2.690    0.000    4.138 
#    0.000    1.379    0.000    0.828    0.000    0.000 
#    0.000    0.000    0.000    0.000    0.000    0.000 
#
# Total GULP energy -323321.181765 kJ/mol
# GULP energy per Si atom -5574.503134 kJ/mol
# Density = 2.363326 g / cm^3
# Si number density = 23.687175 Si / 1000 Ang^3
#
#
#
# Elastic Constant Matrix: (Units=GPa)
#
#
# Indices 1 2 3 4 5 6 
#
# 1 122.9043 -12.5678 -2.9532 0.0000 0.0000 0.0000
# 2 -12.5678 64.9442 8.5674 0.0000 0.0000 0.0000
# 3 -2.9532 8.5674 115.3125 0.0000 0.0000 0.0000
# 4 0.0000 0.0000 0.0000 21.3300 0.0000 0.0000
# 5 0.0000 0.0000 0.0000 0.0000 30.9011 0.0000
# 6 0.0000 0.0000 0.0000 0.0000 0.0000 -1.7310
#
#
#
# Elastic Compliance Matrix: (Units=1/GPa)
#
#
# Indices 1 2 3 4 5 6 
#
# 1 0.008302 0.001594 0.000094 0.000000 0.000000 0.000000
# 2 0.001594 0.015856 -0.001137 0.000000 0.000000 0.000000
# 3 0.000094 -0.001137 0.008759 0.000000 0.000000 0.000000
# 4 0.000000 0.000000 0.000000 0.046882 0.000000 0.000000
# 5 0.000000 0.000000 0.000000 0.000000 0.032361 0.000000
# 6 0.000000 0.000000 0.000000 0.000000 0.000000 -0.577711
#
#
# Mechanical properties :
#
#
# Convention : Reuss Voigt Hill
#
# Bulk Modulus (GPa) = 29.39533 32.13933 30.76733
# Shear Modulus (GPa) = -10.98147 30.77433 9.89643
#
# Velocity S-wave (km/s) = -2.15548 3.60835 2.04623
# Velocity P-wave (km/s) = 2.49839 5.56399 4.31276
#
# Compressibility (1/GPa) = 0.03401901
#
# Stress axis : x y z
#
# Youngs Moduli (GPa) = 120.45749 63.06627 114.16837
#
# Poissons Ratio (x) = -0.10053 -0.01075
# Poissons Ratio (y) = -0.19202 0.12984
# Poissons Ratio (z) = -0.01134 0.07172
#
# Static dielectric constant tensor:
#      x y z
#    x 2.284770 0.000000 0.000000 
#    y 0.000000 1.966970 0.000000 
#    z 0.000000 0.000000 1.924920 
# 
# From -- ./inp_files/14168.got.cif
#   From: 2010.05.17/outbox.cif.g08.bks.cpg/sg53_8_cif.got.tgz:14168.got - 2010.06.03 12:45:16.
