data_PCOD9416341
_publ_section_title
;
Structure prediction by ZEFSAII (Michael W. Deem and Ramdas Pophale) SiO2 
 PCOD9416341
Probable space group: P M N A
;
_chemical_formula_sum "Si O2"
_cell_formula_units_Z 48
_cell_length_a 12.670641
_cell_length_b 5.311776
_cell_length_c 39.927611
_cell_angle_alpha 90.000000
_cell_angle_beta 90.000000
_cell_angle_gamma 90.000000
_cell_volume 2687.272230
_symmetry_space_group_name_H-M "P M N A"
_symmetry_group_IT_number 53
_symmetry_cell_setting 'orthorhombic'
loop_
_space_group_symop_operation_xyz
x,y,z
1/2-x,-y,1/2+z
x,-y,-z
1/2-x,y,1/2-z
-x,-y,-z
1/2+x,y,1/2-z
-x,y,z
1/2+x,-y,1/2+z
loop_
_atom_site_type_symbol
_atom_site_label
_atom_site_fract_x
_atom_site_fract_y
_atom_site_fract_z
Si Si1 0.880079 0.761218 0.397297
Si Si2 0.626890 0.750384 0.520622
Si Si3 0.769871 0.216225 0.289208
Si Si4 0.814015 0.288597 0.676866
Si Si5 0.246567 0.264346 0.090579
Si Si6 0.875748 0.588735 0.842556
O O1 0.879222 0.740338 0.356861
O O2 0.820168 0.512148 0.409956
O O3 0.000000 0.772437 0.409489
O O4 0.816307 0.013449 0.406072
O O5 0.656107 0.500000 0.500000
O O6 0.500000 0.751870 0.524250
O O7 0.678724 0.748220 0.556987
O O8 0.657260 0.000000 0.500000
O O9 0.750000 0.233082 0.250000
O O10 0.820492 0.953746 0.300008
O O11 0.692808 0.664742 0.335970
O O12 0.661616 0.245606 0.310723
O O13 0.672701 0.706099 0.623500
O O14 0.836329 0.545449 0.697014
O O15 0.000000 0.553709 0.844627
#
# Coordination Sequence:
#
# PCOD9416341 Si02
#       6
#     8   8   8   8   8   8
#     4  11  21  38  60  84 112 148 198 247 287 322
#     4  10  21  38  61  91 125 157 187 225 282 353
#     4  10  19  35  56  73 116 148 183 234 283 338
#     4   9  19  36  52  80 106 145 187 238 277 340
#     4  11  21  38  60  88 115 152 190 241 285 336
#     4   9  20  35  56  84 114 146 183 229 287 346
#
# _framework density 17.861979000000002
#
# number of rings (size 3 to 8) (size 9 to 14) (size 15 to 20)
#    1.000    1.000    1.667    2.500    0.000    0.667 
#    0.000    3.333    0.000   10.000    0.000    0.000 
#    0.000    0.000    0.000    0.000    0.000    0.000 
#
# Total GULP energy -267467.022614 kJ/mol
# GULP energy per Si atom -5572.229638 kJ/mol
# Density = 1.782132 g / cm^3
# Si number density = 17.861979 Si / 1000 Ang^3
#
#
#
# Elastic Constant Matrix: (Units=GPa)
#
#
# Indices 1 2 3 4 5 6 
#
# 1 62.8479 27.5336 31.5853 0.0000 0.0000 0.0000
# 2 27.5336 156.7353 56.1200 0.0000 0.0000 0.0000
# 3 31.5853 56.1200 145.4268 0.0000 0.0000 0.0000
# 4 0.0000 0.0000 0.0000 23.8730 0.0000 0.0000
# 5 0.0000 0.0000 0.0000 0.0000 3.1738 0.0000
# 6 0.0000 0.0000 0.0000 0.0000 0.0000 7.7612
#
#
#
# Elastic Compliance Matrix: (Units=1/GPa)
#
#
# Indices 1 2 3 4 5 6 
#
# 1 0.018435 -0.002094 -0.003196 0.000000 0.000000 0.000000
# 2 -0.002094 0.007641 -0.002494 0.000000 0.000000 0.000000
# 3 -0.003196 -0.002494 0.008533 0.000000 0.000000 0.000000
# 4 0.000000 0.000000 0.000000 0.041888 0.000000 0.000000
# 5 0.000000 0.000000 0.000000 0.000000 0.315083 0.000000
# 6 0.000000 0.000000 0.000000 0.000000 0.000000 0.128846
#
#
# Mechanical properties :
#
#
# Convention : Reuss Voigt Hill
#
# Bulk Modulus (GPa) = 52.51770 66.16531 59.34150
# Shear Modulus (GPa) = 9.21929 23.61300 16.41614
#
# Velocity S-wave (km/s) = 2.27434 3.63983 3.03488
# Velocity P-wave (km/s) = 6.03014 7.40186 6.75093
#
# Compressibility (1/GPa) = 0.01904120
#
# Stress axis : x y z
#
# Youngs Moduli (GPa) = 54.24474 130.87303 117.19556
#
# Poissons Ratio (x) = 0.27408 0.37453
# Poissons Ratio (y) = 0.11360 0.29226
# Poissons Ratio (z) = 0.17335 0.32637
#
# Static dielectric constant tensor:
#      x y z
#    x 1.599290 0.000000 0.000000 
#    y 0.000000 1.623830 0.000000 
#    z 0.000000 0.000000 1.577900 
# 
# From -- ./inp_files/38816.got.cif
#   From: 2010.05.17/outbox.cif.g08.bks.cpg/sg53_20_cif.got.tgz:38816.got - 2010.06.03 12:45:16.
