data_PCOD9416591
_publ_section_title
;
Structure prediction by ZEFSAII (Michael W. Deem and Ramdas Pophale) SiO2 
 PCOD9416591
Probable space group: P M N A
;
_chemical_formula_sum "Si O2"
_cell_formula_units_Z 64
_cell_length_a 25.494110
_cell_length_b 15.214723
_cell_length_c 8.179669
_cell_angle_alpha 90.000000
_cell_angle_beta 90.000000
_cell_angle_gamma 90.000000
_cell_volume 3172.777632
_symmetry_space_group_name_H-M "P M N A"
_symmetry_group_IT_number 53
_symmetry_cell_setting 'orthorhombic'
loop_
_space_group_symop_operation_xyz
x,y,z
1/2-x,-y,1/2+z
x,-y,-z
1/2-x,y,1/2-z
-x,-y,-z
1/2+x,y,1/2-z
-x,y,z
1/2+x,-y,1/2+z
loop_
_atom_site_type_symbol
_atom_site_label
_atom_site_fract_x
_atom_site_fract_y
_atom_site_fract_z
Si Si1 0.250495 0.287123 0.554367
Si Si2 0.559622 0.723948 0.953276
Si Si3 0.938096 0.087695 0.104361
Si Si4 0.613132 0.094190 0.053136
Si Si5 0.558467 0.278684 0.447351
Si Si6 0.235042 0.094750 0.559260
Si Si7 0.650926 0.399621 0.053306
Si Si8 0.848546 0.599648 0.943302
O O1 0.250000 0.282964 0.750000
O O2 0.256285 0.187238 0.489103
O O3 0.197203 0.334354 0.499818
O O4 0.297536 0.348146 0.498258
O O5 0.500000 0.714799 0.007914
O O6 0.559657 0.723619 0.752881
O O7 0.597012 0.644653 0.007647
O O8 0.583472 0.818057 0.004495
O O9 0.896461 0.091939 0.251619
O O10 0.931109 0.177782 0.003243
O O11 0.000000 0.089793 0.162563
O O12 0.931341 0.000000 0.000000
O O13 0.672874 0.097566 0.986944
O O14 0.590304 0.000000 0.000000
O O15 0.500000 0.303842 0.497370
O O16 0.601371 0.346612 0.506792
O O17 0.250000 0.096104 0.750000
O O18 0.255262 0.000000 0.500000
O O19 0.649710 0.399811 0.248353
O O20 0.658853 0.500000 0.000000
O O21 0.847674 0.500000 0.000000
#
# Coordination Sequence:
#
# PCOD9416591 Si02
#       8
#     8   8   8   8   8   8   8   8
#     4  11  23  43  65  88 120 156 203 260 307 361
#     4   9  18  35  60  88 120 159 202 246 302 370
#     4   9  18  36  61  94 130 166 209 257 308 370
#     4  10  19  37  61  90 123 162 209 249 314 369
#     4   8  17  36  59  86 123 162 199 244 302 369
#     4  10  23  44  63  91 126 164 205 253 313 374
#     4  11  22  39  62  87 122 159 201 255 311 369
#     4  11  23  39  61  93 116 157 210 252 311 371
#
# _framework density 20.171599000000001
#
# number of rings (size 3 to 8) (size 9 to 14) (size 15 to 20)
#    0.000    2.125    1.250    2.625    0.000    2.500 
#   13.500    0.000    0.000    3.750    0.000    0.000 
#    0.000    0.000    0.000    0.000    0.000    0.000 
#
# Total GULP energy -357069.524950 kJ/mol
# GULP energy per Si atom -5579.211327 kJ/mol
# Density = 2.012569 g / cm^3
# Si number density = 20.171599 Si / 1000 Ang^3
#
#
#
# Elastic Constant Matrix: (Units=GPa)
#
#
# Indices 1 2 3 4 5 6 
#
# 1 107.8460 69.2892 29.0596 0.0000 0.0000 0.0000
# 2 69.2892 190.0450 26.0468 0.0000 0.0000 0.0000
# 3 29.0596 26.0468 40.3564 0.0000 0.0000 0.0000
# 4 0.0000 0.0000 0.0000 15.5262 0.0000 0.0000
# 5 0.0000 0.0000 0.0000 0.0000 -71.8863 0.0000
# 6 0.0000 0.0000 0.0000 0.0000 0.0000 29.2803
#
#
#
# Elastic Compliance Matrix: (Units=1/GPa)
#
#
# Indices 1 2 3 4 5 6 
#
# 1 0.013854 -0.004041 -0.007368 0.000000 0.000000 0.000000
# 2 -0.004041 0.006951 -0.001576 0.000000 0.000000 0.000000
# 3 -0.007368 -0.001576 0.031102 0.000000 0.000000 0.000000
# 4 0.000000 0.000000 0.000000 0.064407 0.000000 0.000000
# 5 0.000000 0.000000 0.000000 0.000000 -0.013911 0.000000
# 6 0.000000 0.000000 0.000000 0.000000 0.000000 0.034153
#
#
# Mechanical properties :
#
#
# Convention : Reuss Voigt Hill
#
# Bulk Modulus (GPa) = 38.55567 65.22653 51.89110
# Shear Modulus (GPa) = 29.21013 8.84083 19.02548
#
# Velocity S-wave (km/s) = 3.80950 2.09579 3.07446
# Velocity P-wave (km/s) = 6.20524 6.18567 6.19546
#
# Compressibility (1/GPa) = 0.02593652
#
# Stress axis : x y z
#
# Youngs Moduli (GPa) = 72.17992 143.85505 32.15226
#
# Poissons Ratio (x) = 0.58137 0.23689
# Poissons Ratio (y) = 0.29171 0.05069
# Poissons Ratio (z) = 0.53180 0.22679
#
# Static dielectric constant tensor:
#      x y z
#    x 1.736730 0.000000 0.000000 
#    y 0.000000 1.728310 0.000000 
#    z 0.000000 0.000000 1.722540 
# 
# From -- ./inp_files/11960.got.cif
#   From: 2010.05.17/outbox.cif.g08.bks.cpg/sg53_6_cif.got.tgz:11960.got - 2010.06.03 12:45:16.
