data_PCOD9416085
_publ_section_title
;
Structure prediction by ZEFSAII (Michael W. Deem and Ramdas Pophale) SiO2 
 PCOD9416085
Probable space group: P M N A
;
_chemical_formula_sum "Si O2"
_cell_formula_units_Z 64
_cell_length_a 17.191169
_cell_length_b 13.045284
_cell_length_c 12.649720
_cell_angle_alpha 90.000000
_cell_angle_beta 90.000000
_cell_angle_gamma 90.000000
_cell_volume 2836.872782
_symmetry_space_group_name_H-M "P M N A"
_symmetry_group_IT_number 53
_symmetry_cell_setting 'orthorhombic'
loop_
_space_group_symop_operation_xyz
x,y,z
1/2-x,-y,1/2+z
x,-y,-z
1/2-x,y,1/2-z
-x,-y,-z
1/2+x,y,1/2-z
-x,y,z
1/2+x,-y,1/2+z
loop_
_atom_site_type_symbol
_atom_site_label
_atom_site_fract_x
_atom_site_fract_y
_atom_site_fract_z
Si Si1 0.909026 0.214711 0.651943
Si Si2 0.087041 0.835577 0.712489
Si Si3 0.590026 0.604438 0.706892
Si Si4 0.586387 0.727660 0.383577
Si Si5 0.907648 0.543791 0.385514
Si Si6 0.621914 0.895610 0.550637
Si Si7 0.295422 0.173725 0.025755
Si Si8 0.205928 0.383942 0.010364
O O1 0.897410 0.207240 0.777833
O O2 0.895765 0.335510 0.627056
O O3 0.847100 0.157285 0.579074
O O4 0.000000 0.191032 0.627927
O O5 0.088260 0.713438 0.733717
O O6 0.104042 0.886220 0.825814
O O7 0.151411 0.855409 0.624843
O O8 0.000000 0.864177 0.677048
O O9 0.500000 0.581608 0.675609
O O10 0.624659 0.521488 0.788227
O O11 0.644803 0.615567 0.606463
O O12 0.500000 0.681113 0.369541
O O13 0.586126 0.801661 0.484767
O O14 0.654932 0.648236 0.407614
O O15 0.888504 0.500000 0.500000
O O16 0.000000 0.526978 0.375481
O O17 0.714179 0.884856 0.530968
O O18 0.593236 0.000000 0.500000
O O19 0.268319 0.293964 0.029655
O O20 0.233493 0.500000 0.000000
#
# Coordination Sequence:
#
# PCOD9416085 Si02
#       8
#     8   8   8   8   8   8   8   8
#     4  10  21  39  63  92 131 176 219 268 317 374
#     4  11  22  42  71  98 126 165 218 279 329 380
#     4  10  19  33  57  89 127 173 223 276 319 365
#     4  10  21  41  67  95 129 169 222 275 322 384
#     4   9  17  30  51  86 125 169 221 257 301 366
#     4  11  25  45  70  99 129 166 209 266 344 412
#     4  11  24  43  63  95 136 172 214 265 326 404
#     4  11  23  36  57  92 134 183 222 270 322 383
#
# _framework density 22.560054000000001
#
# number of rings (size 3 to 8) (size 9 to 14) (size 15 to 20)
#    0.000    1.625    2.500    3.000    0.000    8.500 
#    4.500    1.250    0.000    1.125    0.000    0.000 
#    0.000    0.000    0.000    0.000    0.000    0.000 
#
# Total GULP energy -357918.783616 kJ/mol
# GULP energy per Si atom -5592.480994 kJ/mol
# Density = 2.250871 g / cm^3
# Si number density = 22.560054 Si / 1000 Ang^3
#
#
#
# Elastic Constant Matrix: (Units=GPa)
#
#
# Indices 1 2 3 4 5 6 
#
# 1 110.9350 8.5160 48.9655 0.0000 0.0000 0.0000
# 2 8.5160 46.3662 -7.5079 0.0000 0.0000 0.0000
# 3 48.9655 -7.5079 116.8994 0.0000 0.0000 0.0000
# 4 0.0000 0.0000 0.0000 3.5872 0.0000 0.0000
# 5 0.0000 0.0000 0.0000 0.0000 -27.6134 0.0000
# 6 0.0000 0.0000 0.0000 0.0000 0.0000 -0.5277
#
#
#
# Elastic Compliance Matrix: (Units=1/GPa)
#
#
# Indices 1 2 3 4 5 6 
#
# 1 0.011434 -0.002906 -0.004976 0.000000 0.000000 0.000000
# 2 -0.002906 0.022533 0.002664 0.000000 0.000000 0.000000
# 3 -0.004976 0.002664 0.010810 0.000000 0.000000 0.000000
# 4 0.000000 0.000000 0.000000 0.278767 0.000000 0.000000
# 5 0.000000 0.000000 0.000000 0.000000 -0.036214 0.000000
# 6 0.000000 0.000000 0.000000 0.000000 0.000000 -1.895012
#
#
# Mechanical properties :
#
#
# Convention : Reuss Voigt Hill
#
# Bulk Modulus (GPa) = 29.11943 41.57198 35.34571
# Shear Modulus (GPa) = -3.15298 10.03769 3.44236
#
# Velocity S-wave (km/s) = -1.18348 2.11163 1.23660
# Velocity P-wave (km/s) = 3.32687 4.94091 4.21192
#
# Compressibility (1/GPa) = 0.03434133
#
# Stress axis : x y z
#
# Youngs Moduli (GPa) = 87.46146 44.38031 92.50968
#
# Poissons Ratio (x) = 0.12896 0.46031
# Poissons Ratio (y) = 0.25414 -0.24647
# Poissons Ratio (z) = 0.43519 -0.11824
#
# Static dielectric constant tensor:
#      x y z
#    x 1.850960 0.000000 0.000000 
#    y 0.000000 1.849600 0.000000 
#    z 0.000000 0.000000 1.807110 
# 
# From -- ./inp_files/17125.got.cif
#   From: 2010.05.17/outbox.cif.g08.bks.cpg/sg53_9_cif.got.tgz:17125.got - 2010.06.03 12:45:16.
