data_PCOD9416350
_publ_section_title
;
Structure prediction by ZEFSAII (Michael W. Deem and Ramdas Pophale) SiO2 
 PCOD9416350
Probable space group: P M N A
;
_chemical_formula_sum "Si O2"
_cell_formula_units_Z 56
_cell_length_a 20.177909
_cell_length_b 11.750818
_cell_length_c 12.348498
_cell_angle_alpha 90.000000
_cell_angle_beta 90.000000
_cell_angle_gamma 90.000000
_cell_volume 2927.914528
_symmetry_space_group_name_H-M "P M N A"
_symmetry_group_IT_number 53
_symmetry_cell_setting 'orthorhombic'
loop_
_space_group_symop_operation_xyz
x,y,z
1/2-x,-y,1/2+z
x,-y,-z
1/2-x,y,1/2-z
-x,-y,-z
1/2+x,y,1/2-z
-x,y,z
1/2+x,-y,1/2+z
loop_
_atom_site_type_symbol
_atom_site_label
_atom_site_fract_x
_atom_site_fract_y
_atom_site_fract_z
Si Si1 0.663287 0.540362 0.838844
Si Si2 0.927560 0.053618 0.380597
Si Si3 0.426374 0.141284 0.698490
Si Si4 0.574272 0.333769 0.873394
Si Si5 0.288030 0.192852 0.633876
Si Si6 0.325692 0.222974 0.040205
Si Si7 0.304538 0.456352 0.613972
O O1 0.599963 0.463735 0.868596
O O2 0.678670 0.663468 0.886932
O O3 0.725137 0.467139 0.881046
O O4 0.667581 0.534082 0.709529
O O5 0.862029 0.130358 0.384907
O O6 0.000000 0.112505 0.364634
O O7 0.929455 0.000000 0.500000
O O8 0.923662 0.954525 0.292139
O O9 0.500000 0.132155 0.646069
O O10 0.425096 0.263624 0.760726
O O11 0.358315 0.127323 0.631482
O O12 0.500000 0.330797 0.915769
O O13 0.621926 0.261505 0.949455
O O14 0.250000 0.172293 0.750000
O O15 0.238395 0.182940 0.530050
O O16 0.312274 0.323742 0.633313
O O17 0.329734 0.500000 0.500000
#
# Coordination Sequence:
#
# PCOD9416350 Si02
#       7
#     8   8   8   8   8   8   8
#     4  11  21  33  52  85 116 150 191 228 295 365
#     4  10  19  35  56  80 118 159 192 242 312 369
#     4  10  20  35  57  83 115 160 206 245 296 355
#     4  11  19  30  51  82 120 153 187 235 288 356
#     4  12  18  32  57  85 113 154 199 244 285 360
#     4  12  21  32  55  87 119 152 189 244 307 362
#     4  11  18  34  56  80 110 156 185 230 293 355
#
# _framework density 19.126242000000001
#
# number of rings (size 3 to 8) (size 9 to 14) (size 15 to 20)
#    0.000    1.000    8.571    0.857    0.000    1.714 
#    0.000    0.000    9.429    1.714    0.000    0.000 
#    0.000   12.000    0.000    0.000    0.000    0.000 
#
# Total GULP energy -311857.227203 kJ/mol
# GULP energy per Si atom -5568.879057 kJ/mol
# Density = 1.908271 g / cm^3
# Si number density = 19.126242 Si / 1000 Ang^3
#
#
#
# Elastic Constant Matrix: (Units=GPa)
#
#
# Indices 1 2 3 4 5 6 
#
# 1 138.2517 35.2859 38.8949 0.0000 0.0000 0.0000
# 2 35.2859 50.6297 12.1283 0.0000 0.0000 0.0000
# 3 38.8949 12.1283 59.2892 0.0000 0.0000 0.0000
# 4 0.0000 0.0000 0.0000 17.9362 0.0000 0.0000
# 5 0.0000 0.0000 0.0000 0.0000 16.7763 0.0000
# 6 0.0000 0.0000 0.0000 0.0000 0.0000 21.4704
#
#
#
# Elastic Compliance Matrix: (Units=1/GPa)
#
#
# Indices 1 2 3 4 5 6 
#
# 1 0.010286 -0.005838 -0.005553 0.000000 0.000000 0.000000
# 2 -0.005838 0.024083 -0.001096 0.000000 0.000000 0.000000
# 3 -0.005553 -0.001096 0.020734 0.000000 0.000000 0.000000
# 4 0.000000 0.000000 0.000000 0.055753 0.000000 0.000000
# 5 0.000000 0.000000 0.000000 0.000000 0.059608 0.000000
# 6 0.000000 0.000000 0.000000 0.000000 0.000000 0.046576
#
#
# Mechanical properties :
#
#
# Convention : Reuss Voigt Hill
#
# Bulk Modulus (GPa) = 33.19352 46.75433 39.97393
# Shear Modulus (GPa) = 19.83678 22.02734 20.93206
#
# Velocity S-wave (km/s) = 3.22398 3.39733 3.31178
# Velocity P-wave (km/s) = 5.59029 6.31564 5.96400
#
# Compressibility (1/GPa) = 0.03012636
#
# Stress axis : x y z
#
# Youngs Moduli (GPa) = 97.22349 41.52347 48.23032
#
# Poissons Ratio (x) = 0.24242 0.26784
# Poissons Ratio (y) = 0.56761 0.05288
# Poissons Ratio (z) = 0.53991 0.04553
#
# Static dielectric constant tensor:
#      x y z
#    x 1.722280 0.000000 0.000000 
#    y 0.000000 1.676420 0.000000 
#    z 0.000000 0.000000 1.692550 
# 
# From -- ./inp_files/17837.got.cif
#   From: 2010.05.17/outbox.cif.g08.bks.cpg/sg53_9_cif.got.tgz:17837.got - 2010.06.03 12:45:16.
