data_PCOD9416538
_publ_section_title
;
Structure prediction by ZEFSAII (Michael W. Deem and Ramdas Pophale) SiO2 
 PCOD9416538
Probable space group: P M N A
;
_chemical_formula_sum "Si O2"
_cell_formula_units_Z 48
_cell_length_a 16.687672
_cell_length_b 9.189504
_cell_length_c 14.971979
_cell_angle_alpha 90.000000
_cell_angle_beta 90.000000
_cell_angle_gamma 90.000000
_cell_volume 2295.974369
_symmetry_space_group_name_H-M "P M N A"
_symmetry_group_IT_number 53
_symmetry_cell_setting 'orthorhombic'
loop_
_space_group_symop_operation_xyz
x,y,z
1/2-x,-y,1/2+z
x,-y,-z
1/2-x,y,1/2-z
-x,-y,-z
1/2+x,y,1/2-z
-x,y,z
1/2+x,-y,1/2+z
loop_
_atom_site_type_symbol
_atom_site_label
_atom_site_fract_x
_atom_site_fract_y
_atom_site_fract_z
Si Si1 0.330181 0.237760 0.690770
Si Si2 0.090147 0.540342 0.321380
Si Si3 0.733125 0.831517 0.500351
Si Si4 0.909666 0.970916 0.718378
Si Si5 0.793134 0.709812 0.665634
Si Si6 0.585505 0.184746 0.949975
O O1 0.250000 0.218786 0.750000
O O2 0.375142 0.376373 0.733787
O O3 0.303108 0.243715 0.587543
O O4 0.382047 0.092072 0.709502
O O5 0.142964 0.411351 0.361601
O O6 0.087332 0.665271 0.396113
O O7 0.000000 0.489733 0.302936
O O8 0.724458 0.752399 0.594766
O O9 0.830563 0.829316 0.498441
O O10 0.707743 0.000000 0.500000
O O11 0.842735 0.848612 0.702749
O O12 0.000000 0.917446 0.737905
O O13 0.913472 0.061476 0.626062
O O14 0.750000 0.640057 0.750000
O O15 0.500000 0.176535 0.999788
#
# Coordination Sequence:
#
# PCOD9416538 Si02
#       6
#     8   8   8   8   8   8
#     4  11  19  39  65  88 124 163 211 252 309 382
#     4  10  22  42  63  87 122 168 209 256 313 373
#     4  12  22  37  63  95 128 166 205 258 318 378
#     4  10  19  36  62  90 125 165 202 255 311 368
#     4  12  25  39  59  92 126 162 211 264 317 373
#     4   9  19  35  58  89 122 158 196 236 307 380
#
# _framework density 20.906158000000001
#
# number of rings (size 3 to 8) (size 9 to 14) (size 15 to 20)
#    0.000    1.333    5.000    4.000    0.000    2.333 
#    0.000    1.667    0.000   12.000    0.000    0.000 
#    0.000    0.000    0.000    0.000    0.000    0.000 
#
# Total GULP energy -267998.805200 kJ/mol
# GULP energy per Si atom -5583.308442 kJ/mol
# Density = 2.085857 g / cm^3
# Si number density = 20.906158 Si / 1000 Ang^3
#
#
#
# Elastic Constant Matrix: (Units=GPa)
#
#
# Indices 1 2 3 4 5 6 
#
# 1 33.8589 -1.0497 0.9182 0.0000 0.0000 0.0000
# 2 -1.0497 91.6655 10.8496 0.0000 0.0000 0.0000
# 3 0.9182 10.8496 90.3907 0.0000 0.0000 0.0000
# 4 0.0000 0.0000 0.0000 12.8246 0.0000 0.0000
# 5 0.0000 0.0000 0.0000 0.0000 21.9649 0.0000
# 6 0.0000 0.0000 0.0000 0.0000 0.0000 11.6429
#
#
#
# Elastic Compliance Matrix: (Units=1/GPa)
#
#
# Indices 1 2 3 4 5 6 
#
# 1 0.029555 0.000379 -0.000346 0.000000 0.000000 0.000000
# 2 0.000379 0.011071 -0.001333 0.000000 0.000000 0.000000
# 3 -0.000346 -0.001333 0.011227 0.000000 0.000000 0.000000
# 4 0.000000 0.000000 0.000000 0.077975 0.000000 0.000000
# 5 0.000000 0.000000 0.000000 0.000000 0.045527 0.000000
# 6 0.000000 0.000000 0.000000 0.000000 0.000000 0.085889
#
#
# Mechanical properties :
#
#
# Convention : Reuss Voigt Hill
#
# Bulk Modulus (GPa) = 20.30246 26.37235 23.33741
# Shear Modulus (GPa) = 17.84048 22.96628 20.40338
#
# Velocity S-wave (km/s) = 2.92440 3.31802 3.12741
# Velocity P-wave (km/s) = 4.59730 5.22695 4.92220
#
# Compressibility (1/GPa) = 0.04925511
#
# Stress axis : x y z
#
# Youngs Moduli (GPa) = 33.83471 90.32349 89.07439
#
# Poissons Ratio (x) = -0.03427 0.03080
# Poissons Ratio (y) = -0.01284 0.11871
# Poissons Ratio (z) = 0.01170 0.12038
#
# Static dielectric constant tensor:
#      x y z
#    x 1.803990 0.000000 0.000000 
#    y 0.000000 1.748490 0.000000 
#    z 0.000000 0.000000 1.825030 
# 
# From -- ./inp_files/23659.got.cif
#   From: 2010.05.17/outbox.cif.g08.bks.cpg/sg53_12_cif.got.tgz:23659.got - 2010.06.03 12:45:16.
