data_PCOD9416128
_publ_section_title
;
Structure prediction by ZEFSAII (Michael W. Deem and Ramdas Pophale) SiO2 
 PCOD9416128
Probable space group: P M N A
;
_chemical_formula_sum "Si O2"
_cell_formula_units_Z 48
_cell_length_a 9.097166
_cell_length_b 9.771754
_cell_length_c 31.179770
_cell_angle_alpha 90.000000
_cell_angle_beta 90.000000
_cell_angle_gamma 90.000000
_cell_volume 2771.734018
_symmetry_space_group_name_H-M "P M N A"
_symmetry_group_IT_number 53
_symmetry_cell_setting 'orthorhombic'
loop_
_space_group_symop_operation_xyz
x,y,z
1/2-x,-y,1/2+z
x,-y,-z
1/2-x,y,1/2-z
-x,-y,-z
1/2+x,y,1/2-z
-x,y,z
1/2+x,-y,1/2+z
loop_
_atom_site_type_symbol
_atom_site_label
_atom_site_fract_x
_atom_site_fract_y
_atom_site_fract_z
Si Si1 0.175610 0.998911 0.867883
Si Si2 0.176569 0.348591 0.482747
Si Si3 0.676251 0.815537 0.203771
Si Si4 0.173238 0.426871 0.640320
Si Si5 0.174787 0.691032 0.891086
Si Si6 0.825003 0.802286 0.431678
O O1 0.209723 0.838561 0.870998
O O2 0.000000 0.017155 0.864339
O O3 0.256326 0.071699 0.828231
O O4 0.234602 0.075432 0.910482
O O5 0.215327 0.500000 0.500000
O O6 0.253459 0.319062 0.438043
O O7 0.213174 0.240026 0.520051
O O8 0.000000 0.346982 0.476787
O O9 0.750000 0.823415 0.250000
O O10 0.500000 0.831226 0.206120
O O11 0.706788 0.669546 0.180831
O O12 0.264232 0.564592 0.636300
O O13 0.199583 0.330620 0.598646
O O14 0.000000 0.459505 0.640562
O O15 0.000000 0.680261 0.895055
O O16 0.000000 0.832527 0.429404
#
# Coordination Sequence:
#
# PCOD9416128 Si02
#       6
#     8   8   8   8   8   8
#     4  10  22  38  54  78 115 151 182 223 274 326
#     4  10  19  34  54  76 107 146 190 237 277 321
#     4  10  21  39  64  89 109 136 176 219 269 330
#     4   9  18  35  57  80 108 140 178 221 267 322
#     4  11  23  35  51  80 114 148 185 226 274 321
#     4   9  18  34  55  78 103 142 192 232 271 320
#
# _framework density 17.317679999999999
#
# number of rings (size 3 to 8) (size 9 to 14) (size 15 to 20)
#    0.000    2.167    1.667    2.500    0.000    7.667 
#    0.000    4.167    0.000    2.000    0.000    0.000 
#    0.000    0.000    0.000    0.000    0.000    0.000 
#
# Total GULP energy -267946.341108 kJ/mol
# GULP energy per Si atom -5582.215440 kJ/mol
# Density = 1.727826 g / cm^3
# Si number density = 17.317680 Si / 1000 Ang^3
#
#
#
# Elastic Constant Matrix: (Units=GPa)
#
#
# Indices 1 2 3 4 5 6 
#
# 1 64.4598 73.7942 56.1716 0.0000 0.0000 0.0000
# 2 73.7942 124.4744 64.5650 0.0000 0.0000 0.0000
# 3 56.1716 64.5650 110.6921 0.0000 0.0000 0.0000
# 4 0.0000 0.0000 0.0000 12.8851 0.0000 0.0000
# 5 0.0000 0.0000 0.0000 0.0000 98.6144 0.0000
# 6 0.0000 0.0000 0.0000 0.0000 0.0000 26.9170
#
#
#
# Elastic Compliance Matrix: (Units=1/GPa)
#
#
# Indices 1 2 3 4 5 6 
#
# 1 0.060374 -0.028534 -0.013994 0.000000 0.000000 0.000000
# 2 -0.028534 0.025004 -0.000105 0.000000 0.000000 0.000000
# 3 -0.013994 -0.000105 0.016197 0.000000 0.000000 0.000000
# 4 0.000000 0.000000 0.000000 0.077609 0.000000 0.000000
# 5 0.000000 0.000000 0.000000 0.000000 0.010141 0.000000
# 6 0.000000 0.000000 0.000000 0.000000 0.000000 0.037151
#
#
# Mechanical properties :
#
#
# Convention : Reuss Voigt Hill
#
# Bulk Modulus (GPa) = 61.31374 76.52089 68.91732
# Shear Modulus (GPa) = 15.76407 34.68967 25.22687
#
# Velocity S-wave (km/s) = 3.02037 4.48050 3.82083
# Velocity P-wave (km/s) = 6.90258 8.42905 7.70372
#
# Compressibility (1/GPa) = 0.01630956
#
# Stress axis : x y z
#
# Youngs Moduli (GPa) = 16.56349 39.99304 61.74133
#
# Poissons Ratio (x) = 1.14115 0.86400
# Poissons Ratio (y) = 0.47262 0.00648
# Poissons Ratio (z) = 0.23179 0.00420
#
# Static dielectric constant tensor:
#      x y z
#    x 1.572320 0.000000 0.000000 
#    y 0.000000 1.582700 0.000000 
#    z 0.000000 0.000000 1.568300 
# 
# From -- ./inp_files/37735.got.cif
#   From: 2010.05.17/outbox.cif.g08.bks.cpg/sg53_19_cif.got.tgz:37735.got - 2010.06.03 12:45:16.
