data_PCOD9416946
_publ_section_title
;
Structure prediction by ZEFSAII (Michael W. Deem and Ramdas Pophale) SiO2 
 PCOD9416946
Probable space group: P M N A
;
_chemical_formula_sum "Si O2"
_cell_formula_units_Z 64
_cell_length_a 8.706934
_cell_length_b 20.447105
_cell_length_c 20.448897
_cell_angle_alpha 90.000000
_cell_angle_beta 90.000000
_cell_angle_gamma 90.000000
_cell_volume 3640.549723
_symmetry_space_group_name_H-M "P M N A"
_symmetry_group_IT_number 53
_symmetry_cell_setting 'orthorhombic'
loop_
_space_group_symop_operation_xyz
x,y,z
1/2-x,-y,1/2+z
x,-y,-z
1/2-x,y,1/2-z
-x,-y,-z
1/2+x,y,1/2-z
-x,y,z
1/2+x,-y,1/2+z
loop_
_atom_site_type_symbol
_atom_site_label
_atom_site_fract_x
_atom_site_fract_y
_atom_site_fract_z
Si Si1 0.684768 0.809624 0.434604
Si Si2 0.183762 0.944999 0.678758
Si Si3 0.184401 0.572837 0.820829
Si Si4 0.816023 0.695528 0.605771
Si Si5 0.685075 0.468799 0.568963
Si Si6 0.817212 0.670036 0.454355
Si Si7 0.814844 0.089668 0.820902
Si Si8 0.184370 0.835772 0.915732
O O1 0.500000 0.804437 0.434376
O O2 0.753063 0.737464 0.425280
O O3 0.729684 0.859844 0.377812
O O4 0.729435 0.834384 0.507329
O O5 0.250000 0.925627 0.750000
O O6 0.240857 0.894669 0.624140
O O7 0.000000 0.946651 0.681797
O O8 0.248321 0.017612 0.665235
O O9 0.250000 0.557217 0.750000
O O10 0.250467 0.641989 0.845157
O O11 0.230833 0.517403 0.873028
O O12 0.000000 0.576206 0.819417
O O13 0.777144 0.672239 0.531817
O O14 0.741627 0.766769 0.613375
O O15 0.000000 0.700200 0.611318
O O16 0.737139 0.500000 0.500000
O O17 0.500000 0.465473 0.567519
O O18 0.748899 0.395905 0.575292
O O19 0.000000 0.669335 0.448766
O O20 0.750000 0.109722 0.750000
O O21 0.000000 0.085830 0.817831
O O22 0.000000 0.839995 0.911758
#
# Coordination Sequence:
#
# PCOD9416946 Si02
#       8
#     8   8   8   8   8   8   8   8
#     4   9  20  37  58  82 113 148 184 226 276 334
#     4  11  22  37  56  80 110 146 186 230 276 331
#     4  11  23  38  56  80 111 147 184 228 275 326
#     4  10  20  35  54  80 111 143 179 222 272 327
#     4  10  20  36  59  82 107 144 187 225 270 331
#     4  10  20  33  56  86 113 139 178 230 275 320
#     4  10  20  37  59  83 109 145 188 230 277 332
#     4  10  20  36  57  82 112 147 185 228 273 325
#
# _framework density 17.579761999999999
#
# number of rings (size 3 to 8) (size 9 to 14) (size 15 to 20)
#    0.000    1.875    1.250    3.750    0.000    4.750 
#    0.000    5.625    0.000    0.000    0.000    0.000 
#    0.000    0.000    0.000    0.000    0.000    0.000 
#
# Total GULP energy -357426.888050 kJ/mol
# GULP energy per Si atom -5584.795126 kJ/mol
# Density = 1.753975 g / cm^3
# Si number density = 17.579762 Si / 1000 Ang^3
#
#
#
# Elastic Constant Matrix: (Units=GPa)
#
#
# Indices 1 2 3 4 5 6 
#
# 1 59.6289 45.9145 45.9249 0.0000 0.0000 0.0000
# 2 45.9145 140.9239 102.1989 0.0000 0.0000 0.0000
# 3 45.9249 102.1989 125.9211 0.0000 0.0000 0.0000
# 4 0.0000 0.0000 0.0000 30.9689 0.0000 0.0000
# 5 0.0000 0.0000 0.0000 0.0000 27.4777 0.0000
# 6 0.0000 0.0000 0.0000 0.0000 0.0000 27.4322
#
#
#
# Elastic Compliance Matrix: (Units=1/GPa)
#
#
# Indices 1 2 3 4 5 6 
#
# 1 0.024043 -0.003584 -0.005860 0.000000 0.000000 0.000000
# 2 -0.003584 0.017782 -0.013125 0.000000 0.000000 0.000000
# 3 -0.005860 -0.013125 0.020731 0.000000 0.000000 0.000000
# 4 0.000000 0.000000 0.000000 0.032290 0.000000 0.000000
# 5 0.000000 0.000000 0.000000 0.000000 0.036393 0.000000
# 6 0.000000 0.000000 0.000000 0.000000 0.000000 0.036453
#
#
# Mechanical properties :
#
#
# Convention : Reuss Voigt Hill
#
# Bulk Modulus (GPa) = 57.41030 79.39451 68.40241
# Shear Modulus (GPa) = 22.86886 26.00481 24.43683
#
# Velocity S-wave (km/s) = 3.61066 3.85027 3.73239
# Velocity P-wave (km/s) = 7.07887 8.06391 7.58739
#
# Compressibility (1/GPa) = 0.01741848
#
# Stress axis : x y z
#
# Youngs Moduli (GPa) = 41.59163 56.23672 48.23625
#
# Poissons Ratio (x) = 0.20153 0.28268
# Poissons Ratio (y) = 0.14905 0.63310
# Poissons Ratio (z) = 0.24374 0.73811
#
# Static dielectric constant tensor:
#      x y z
#    x 1.587740 0.000000 0.000000 
#    y 0.000000 1.570430 0.000000 
#    z 0.000000 0.000000 1.592840 
# 
# From -- ./inp_files/31241.got.cif
#   From: 2010.05.17/outbox.cif.g08.bks.cpg/sg53_16_cif.got.tgz:31241.got - 2010.06.03 12:45:16.
