data_PCOD9416159
_publ_section_title
;
Structure prediction by ZEFSAII (Michael W. Deem and Ramdas Pophale) SiO2 
 PCOD9416159
Probable space group: P M N A
;
_chemical_formula_sum "Si O2"
_cell_formula_units_Z 64
_cell_length_a 8.384819
_cell_length_b 14.976942
_cell_length_c 25.820754
_cell_angle_alpha 90.000000
_cell_angle_beta 90.000000
_cell_angle_gamma 90.000000
_cell_volume 3242.543120
_symmetry_space_group_name_H-M "P M N A"
_symmetry_group_IT_number 53
_symmetry_cell_setting 'orthorhombic'
loop_
_space_group_symop_operation_xyz
x,y,z
1/2-x,-y,1/2+z
x,-y,-z
1/2-x,y,1/2-z
-x,-y,-z
1/2+x,y,1/2-z
-x,y,z
1/2+x,-y,1/2+z
loop_
_atom_site_type_symbol
_atom_site_label
_atom_site_fract_x
_atom_site_fract_y
_atom_site_fract_z
Si Si1 0.308650 0.784025 0.306921
Si Si2 0.692202 0.528550 0.941944
Si Si3 0.188454 0.277105 0.091896
Si Si4 0.812066 0.982924 0.165942
Si Si5 0.814376 0.965952 0.444993
Si Si6 0.693529 0.823314 0.695004
Si Si7 0.693109 0.652171 0.103326
Si Si8 0.315528 0.227111 0.987828
O O1 0.250000 0.757939 0.250000
O O2 0.500000 0.787185 0.308206
O O3 0.246038 0.885549 0.317977
O O4 0.253989 0.712766 0.349830
O O5 0.500000 0.529219 0.944180
O O6 0.746002 0.625621 0.923357
O O7 0.740120 0.451289 0.901104
O O8 0.746871 0.500000 0.000000
O O9 0.249808 0.232988 0.145063
O O10 0.227676 0.216313 0.041962
O O11 0.000000 0.284771 0.097148
O O12 0.783817 0.992808 0.104715
O O13 0.000000 0.980495 0.177237
O O14 0.746157 0.073891 0.190520
O O15 0.812081 0.859674 0.451906
O O16 0.000000 0.995227 0.439362
O O17 0.753521 0.000000 0.500000
O O18 0.750000 0.786242 0.750000
O O19 0.500000 0.825237 0.693704
O O20 0.500000 0.657665 0.103904
O O21 0.748122 0.694911 0.048725
O O22 0.500000 0.246168 0.000859
#
# Coordination Sequence:
#
# PCOD9416159 Si02
#       8
#     8   8   8   8   8   8   8   8
#     4  11  23  38  59  86 116 153 197 240 286 339
#     4  10  20  38  62  87 116 152 191 230 284 351
#     4  11  23  37  58  89 120 149 190 243 294 344
#     4  10  21  37  57  83 115 151 193 238 285 338
#     4  10  20  32  50  80 115 153 195 235 279 337
#     4  10  23  42  60  83 115 153 197 242 287 338
#     4  10  20  37  60  84 116 153 189 235 285 339
#     4  10  19  34  55  81 117 155 190 229 281 346
#
# _framework density 19.737594000000001
#
# number of rings (size 3 to 8) (size 9 to 14) (size 15 to 20)
#    0.000    1.750    2.500    1.875    0.000    4.000 
#    0.000    0.625    0.000    1.500    0.000    0.000 
#    0.000    0.000    0.000    0.000    0.000    0.000 
#
# Total GULP energy -357175.346119 kJ/mol
# GULP energy per Si atom -5580.864783 kJ/mol
# Density = 1.969267 g / cm^3
# Si number density = 19.737594 Si / 1000 Ang^3
#
#
#
# Elastic Constant Matrix: (Units=GPa)
#
#
# Indices 1 2 3 4 5 6 
#
# 1 12.2800 16.2550 10.7748 0.0000 0.0000 0.0000
# 2 16.2550 80.3847 53.0249 0.0000 0.0000 0.0000
# 3 10.7748 53.0249 132.4523 0.0000 0.0000 0.0000
# 4 0.0000 0.0000 0.0000 14.0283 0.0000 0.0000
# 5 0.0000 0.0000 0.0000 0.0000 24.3600 0.0000
# 6 0.0000 0.0000 0.0000 0.0000 0.0000 22.1247
#
#
#
# Elastic Compliance Matrix: (Units=1/GPa)
#
#
# Indices 1 2 3 4 5 6 
#
# 1 0.111198 -0.022447 -0.000060 0.000000 0.000000 0.000000
# 2 -0.022447 0.021435 -0.006755 0.000000 0.000000 0.000000
# 3 -0.000060 -0.006755 0.010259 0.000000 0.000000 0.000000
# 4 0.000000 0.000000 0.000000 0.071284 0.000000 0.000000
# 5 0.000000 0.000000 0.000000 0.000000 0.041051 0.000000
# 6 0.000000 0.000000 0.000000 0.000000 0.000000 0.045198
#
#
# Mechanical properties :
#
#
# Convention : Reuss Voigt Hill
#
# Bulk Modulus (GPa) = 11.85268 42.80294 27.32781
# Shear Modulus (GPa) = 12.91751 21.77344 17.34547
#
# Velocity S-wave (km/s) = 2.56102 3.32497 2.96768
# Velocity P-wave (km/s) = 3.84230 6.03934 5.06147
#
# Compressibility (1/GPa) = 0.08436910
#
# Stress axis : x y z
#
# Youngs Moduli (GPa) = 8.99299 46.65215 97.47462
#
# Poissons Ratio (x) = 1.04718 0.00582
# Poissons Ratio (y) = 0.20186 0.65846
# Poissons Ratio (z) = 0.00054 0.31515
#
# Static dielectric constant tensor:
#      x y z
#    x 1.696430 0.000000 0.000000 
#    y 0.000000 1.744330 0.000000 
#    z 0.000000 0.000000 1.679610 
# 
# From -- ./inp_files/34232.got.cif
#   From: 2010.05.17/outbox.cif.g08.bks.cpg/sg53_18_cif.got.tgz:34232.got - 2010.06.03 12:45:16.
