data_PCOD9416222
_publ_section_title
;
Structure prediction by ZEFSAII (Michael W. Deem and Ramdas Pophale) SiO2 
 PCOD9416222
Probable space group: P M N A
;
_chemical_formula_sum "Si O2"
_cell_formula_units_Z 48
_cell_length_a 8.559035
_cell_length_b 13.056535
_cell_length_c 24.222643
_cell_angle_alpha 90.000000
_cell_angle_beta 90.000000
_cell_angle_gamma 90.000000
_cell_volume 2706.912815
_symmetry_space_group_name_H-M "P M N A"
_symmetry_group_IT_number 53
_symmetry_cell_setting 'orthorhombic'
loop_
_space_group_symop_operation_xyz
x,y,z
1/2-x,-y,1/2+z
x,-y,-z
1/2-x,y,1/2-z
-x,-y,-z
1/2+x,y,1/2-z
-x,y,z
1/2+x,-y,1/2+z
loop_
_atom_site_type_symbol
_atom_site_label
_atom_site_fract_x
_atom_site_fract_y
_atom_site_fract_z
Si Si1 0.812073 0.892361 0.688667
Si Si2 0.687572 0.502254 0.188135
Si Si3 0.309793 0.697435 0.880176
Si Si4 0.312751 0.689887 0.384503
Si Si5 0.689009 0.619956 0.999474
Si Si6 0.812390 0.881907 0.188785
O O1 0.750000 0.867358 0.750000
O O2 0.759912 0.805131 0.645849
O O3 0.000000 0.894328 0.690484
O O4 0.751102 0.005513 0.674627
O O5 0.750000 0.509251 0.250000
O O6 0.500000 0.504715 0.188709
O O7 0.738292 0.396187 0.159330
O O8 0.748033 0.596099 0.151610
O O9 0.500000 0.697738 0.880821
O O10 0.258933 0.672426 0.942397
O O11 0.500000 0.685875 0.384265
O O12 0.252241 0.675778 0.446472
O O13 0.264179 0.795510 0.354896
O O14 0.500000 0.621542 0.001250
O O15 0.736294 0.500000 0.000000
O O16 0.750000 0.855587 0.250000
O O17 0.000000 0.885776 0.191270
#
# Coordination Sequence:
#
# PCOD9416222 Si02
#       6
#     8   8   8   8   8   8
#     4  10  19  34  57  82 110 141 180 223 269 327
#     4  11  21  35  54  80 113 144 177 222 275 330
#     4   9  19  35  55  81 110 142 181 222 270 327
#     4  11  23  37  54  81 111 143 184 229 273 324
#     4  10  19  37  60  79 106 149 187 223 272 324
#     4  10  21  37  56  79 110 143 181 224 274 325
#
# _framework density 17.732378000000001
#
# number of rings (size 3 to 8) (size 9 to 14) (size 15 to 20)
#    0.000    1.833    1.667    4.000    0.000    4.333 
#    0.000    5.000    0.000    5.000    0.000    0.000 
#    0.000    0.000    0.000    0.000    0.000    0.000 
#
# Total GULP energy -268067.292446 kJ/mol
# GULP energy per Si atom -5584.735259 kJ/mol
# Density = 1.769202 g / cm^3
# Si number density = 17.732378 Si / 1000 Ang^3
#
#
#
# Elastic Constant Matrix: (Units=GPa)
#
#
# Indices 1 2 3 4 5 6 
#
# 1 33.0822 27.5587 20.9974 0.0000 0.0000 0.0000
# 2 27.5587 126.9721 75.8939 0.0000 0.0000 0.0000
# 3 20.9974 75.8939 118.7032 0.0000 0.0000 0.0000
# 4 0.0000 0.0000 0.0000 85.2952 0.0000 0.0000
# 5 0.0000 0.0000 0.0000 0.0000 30.0155 0.0000
# 6 0.0000 0.0000 0.0000 0.0000 0.0000 63.3332
#
#
#
# Elastic Compliance Matrix: (Units=1/GPa)
#
#
# Indices 1 2 3 4 5 6 
#
# 1 0.037283 -0.006717 -0.002300 0.000000 0.000000 0.000000
# 2 -0.006717 0.013957 -0.007736 0.000000 0.000000 0.000000
# 3 -0.002300 -0.007736 0.013777 0.000000 0.000000 0.000000
# 4 0.000000 0.000000 0.000000 0.011724 0.000000 0.000000
# 5 0.000000 0.000000 0.000000 0.000000 0.033316 0.000000
# 6 0.000000 0.000000 0.000000 0.000000 0.000000 0.015790
#
#
# Mechanical properties :
#
#
# Convention : Reuss Voigt Hill
#
# Bulk Modulus (GPa) = 31.73430 58.62860 45.18145
# Shear Modulus (GPa) = 29.43639 46.01594 37.72616
#
# Velocity S-wave (km/s) = 4.07877 5.09966 4.61752
# Velocity P-wave (km/s) = 6.33380 8.23470 7.34599
#
# Compressibility (1/GPa) = 0.03151165
#
# Stress axis : x y z
#
# Youngs Moduli (GPa) = 26.82156 71.64655 72.58426
#
# Poissons Ratio (x) = 0.48127 0.16697
# Poissons Ratio (y) = 0.18017 0.56148
# Poissons Ratio (z) = 0.06170 0.55423
#
# Static dielectric constant tensor:
#      x y z
#    x 1.606040 0.000000 0.000000 
#    y 0.000000 1.594040 0.000000 
#    z 0.000000 0.000000 1.579580 
# 
# From -- ./inp_files/36172.got.cif
#   From: 2010.05.17/outbox.cif.g08.bks.cpg/sg53_19_cif.got.tgz:36172.got - 2010.06.03 12:45:16.
