data_PCOD9416607
_publ_section_title
;
Structure prediction by ZEFSAII (Michael W. Deem and Ramdas Pophale) SiO2 
 PCOD9416607
Probable space group: P M N A
;
_chemical_formula_sum "Si O2"
_cell_formula_units_Z 64
_cell_length_a 8.679672
_cell_length_b 24.965564
_cell_length_c 15.513712
_cell_angle_alpha 90.000000
_cell_angle_beta 90.000000
_cell_angle_gamma 90.000000
_cell_volume 3361.711349
_symmetry_space_group_name_H-M "P M N A"
_symmetry_group_IT_number 53
_symmetry_cell_setting 'orthorhombic'
loop_
_space_group_symop_operation_xyz
x,y,z
1/2-x,-y,1/2+z
x,-y,-z
1/2-x,y,1/2-z
-x,-y,-z
1/2+x,y,1/2-z
-x,y,z
1/2+x,-y,1/2+z
loop_
_atom_site_type_symbol
_atom_site_label
_atom_site_fract_x
_atom_site_fract_y
_atom_site_fract_z
Si Si1 0.185807 0.384508 0.658964
Si Si2 0.817889 0.615133 0.841791
Si Si3 0.314074 0.116991 0.347807
Si Si4 0.182463 0.502554 0.603239
Si Si5 0.314737 0.809725 0.998775
Si Si6 0.185176 0.001212 0.846624
Si Si7 0.314120 0.880515 0.347753
Si Si8 0.686003 0.685416 0.995974
O O1 0.250000 0.366377 0.750000
O O2 0.235973 0.445724 0.640773
O O3 0.236001 0.345893 0.581936
O O4 0.000000 0.384867 0.660317
O O5 0.750000 0.631076 0.750000
O O6 0.769012 0.553930 0.860830
O O7 0.000000 0.618981 0.840528
O O8 0.750429 0.652956 0.915489
O O9 0.250000 0.123098 0.250000
O O10 0.500000 0.120181 0.344805
O O11 0.249008 0.159886 0.414629
O O12 0.269361 0.057049 0.381909
O O13 0.199446 0.500000 0.500000
O O14 0.000000 0.509055 0.621780
O O15 0.500000 0.812715 0.999101
O O16 0.250947 0.837967 0.084853
O O17 0.268269 0.747394 0.996667
O O18 0.250000 0.001152 0.750000
O O19 0.230716 0.059504 0.881697
O O20 0.000000 0.001216 0.844901
O O21 0.250000 0.874285 0.250000
O O22 0.500000 0.877374 0.344708
O O23 0.500000 0.683049 0.992619
#
# Coordination Sequence:
#
# PCOD9416607 Si02
#       8
#     8   8   8   8   8   8   8   8
#     4  10  21  38  62  88 116 152 191 234 286 340
#     4  12  25  40  63  92 122 155 196 241 292 351
#     4  10  20  37  60  86 118 152 192 239 295 355
#     4  10  19  37  64  90 123 160 191 231 288 344
#     4  11  24  40  60  85 114 153 202 248 294 350
#     4   8  16  31  54  83 114 151 188 232 288 349
#     4  10  20  37  60  86 119 154 194 241 292 350
#     4  10  23  45  63  80 113 156 201 247 294 342
#
# _framework density 19.037921000000001
#
# number of rings (size 3 to 8) (size 9 to 14) (size 15 to 20)
#    0.000    1.875    1.250    2.625    0.000    5.750 
#    0.000    3.750    0.000    0.000    0.000    0.000 
#    0.000    0.000    0.000    0.000    0.000    0.000 
#
# Total GULP energy -357350.897544 kJ/mol
# GULP energy per Si atom -5583.607774 kJ/mol
# Density = 1.899459 g / cm^3
# Si number density = 19.037921 Si / 1000 Ang^3
#
#
#
# Elastic Constant Matrix: (Units=GPa)
#
#
# Indices 1 2 3 4 5 6 
#
# 1 32.9282 49.1546 38.1207 0.0000 0.0000 0.0000
# 2 49.1546 178.0736 96.3966 0.0000 0.0000 0.0000
# 3 38.1207 96.3966 142.9104 0.0000 0.0000 0.0000
# 4 0.0000 0.0000 0.0000 10.0272 0.0000 0.0000
# 5 0.0000 0.0000 0.0000 0.0000 32.5512 0.0000
# 6 0.0000 0.0000 0.0000 0.0000 0.0000 25.8009
#
#
#
# Elastic Compliance Matrix: (Units=1/GPa)
#
#
# Indices 1 2 3 4 5 6 
#
# 1 0.055869 -0.011584 -0.007089 0.000000 0.000000 0.000000
# 2 -0.011584 0.011248 -0.004497 0.000000 0.000000 0.000000
# 3 -0.007089 -0.004497 0.011921 0.000000 0.000000 0.000000
# 4 0.000000 0.000000 0.000000 0.099729 0.000000 0.000000
# 5 0.000000 0.000000 0.000000 0.000000 0.030721 0.000000
# 6 0.000000 0.000000 0.000000 0.000000 0.000000 0.038758
#
#
# Mechanical properties :
#
#
# Convention : Reuss Voigt Hill
#
# Bulk Modulus (GPa) = 30.58294 80.13955 55.36124
# Shear Modulus (GPa) = 16.36746 25.02521 20.69634
#
# Velocity S-wave (km/s) = 2.93530 3.62953 3.30071
# Velocity P-wave (km/s) = 5.25234 7.72986 6.60824
#
# Compressibility (1/GPa) = 0.03269797
#
# Stress axis : x y z
#
# Youngs Moduli (GPa) = 17.89915 88.90850 83.88281
#
# Poissons Ratio (x) = 1.02995 0.59463
# Poissons Ratio (y) = 0.20735 0.37719
# Poissons Ratio (z) = 0.12688 0.39979
#
# Static dielectric constant tensor:
#      x y z
#    x 1.645950 0.000000 0.000000 
#    y 0.000000 1.672640 0.000000 
#    z 0.000000 0.000000 1.631310 
# 
# From -- ./inp_files/21018.got.cif
#   From: 2010.05.17/outbox.cif.g08.bks.cpg/sg53_11_cif.got.tgz:21018.got - 2010.06.03 12:45:16.
