data_PCOD9416006
_publ_section_title
;
Structure prediction by ZEFSAII (Michael W. Deem and Ramdas Pophale) SiO2 
 PCOD9416006
Probable space group: P M N A
;
_chemical_formula_sum "Si O2"
_cell_formula_units_Z 40
_cell_length_a 8.266952
_cell_length_b 27.233094
_cell_length_c 9.329998
_cell_angle_alpha 90.000000
_cell_angle_beta 90.000000
_cell_angle_gamma 90.000000
_cell_volume 2100.506123
_symmetry_space_group_name_H-M "P M N A"
_symmetry_group_IT_number 53
_symmetry_cell_setting 'orthorhombic'
loop_
_space_group_symop_operation_xyz
x,y,z
1/2-x,-y,1/2+z
x,-y,-z
1/2-x,y,1/2-z
-x,-y,-z
1/2+x,y,1/2-z
-x,y,z
1/2+x,-y,1/2+z
loop_
_atom_site_type_symbol
_atom_site_label
_atom_site_fract_x
_atom_site_fract_y
_atom_site_fract_z
Si Si1 0.193131 0.452588 0.586857
Si Si2 0.304954 0.250660 0.415481
Si Si3 0.194021 0.357738 0.084895
Si Si4 0.695808 0.143713 0.415187
Si Si5 0.695590 0.951883 0.413499
O O1 0.256581 0.500000 0.500000
O O2 0.250000 0.453824 0.750000
O O3 0.244884 0.402727 0.508673
O O4 0.000000 0.454759 0.585787
O O5 0.250000 0.250519 0.250000
O O6 0.500000 0.250720 0.421472
O O7 0.249765 0.303870 0.471718
O O8 0.249702 0.197501 0.472378
O O9 0.250000 0.362950 0.250000
O O10 0.000000 0.358262 0.084146
O O11 0.750000 0.138570 0.250000
O O12 0.500000 0.143348 0.416040
O O13 0.753341 0.097826 0.508566
O O14 0.750000 0.953895 0.250000
O O15 0.500000 0.951628 0.416966
O O16 0.751285 0.000000 0.500000
#
# Coordination Sequence:
#
# PCOD9416006 Si02
#       5
#     8   8   8   8   8
#     4  11  24  40  58  80 106 137 173 213 259 310
#     4   8  15  28  48  74 103 135 169 207 249 295
#     4  10  19  33  55  81 109 140 175 214 256 303
#     4   9  17  31  51  75 103 133 169 210 251 298
#     4  10  21  35  51  73 100 131 168 210 255 304
#
# _framework density 19.043030000000002
#
# number of rings (size 3 to 8) (size 9 to 14) (size 15 to 20)
#    0.000    2.400    0.000    2.400    0.000    5.200 
#    0.000    1.000    0.000    2.400    0.000    0.000 
#    0.000    0.000    0.000    0.000    0.000    0.000 
#
# Total GULP energy -223034.809321 kJ/mol
# GULP energy per Si atom -5575.870233 kJ/mol
# Density = 1.899969 g / cm^3
# Si number density = 19.043030 Si / 1000 Ang^3
#
#
#
# Elastic Constant Matrix: (Units=GPa)
#
#
# Indices 1 2 3 4 5 6 
#
# 1 19.4723 26.5352 12.5376 0.0000 0.0000 0.0000
# 2 26.5352 252.9769 108.3240 0.0000 0.0000 0.0000
# 3 12.5376 108.3240 113.3545 0.0000 0.0000 0.0000
# 4 0.0000 0.0000 0.0000 33.2474 0.0000 0.0000
# 5 0.0000 0.0000 0.0000 0.0000 28.7779 0.0000
# 6 0.0000 0.0000 0.0000 0.0000 0.0000 25.3884
#
#
#
# Elastic Compliance Matrix: (Units=1/GPa)
#
#
# Indices 1 2 3 4 5 6 
#
# 1 0.059994 -0.005842 -0.001053 0.000000 0.000000 0.000000
# 2 -0.005842 0.007260 -0.006291 0.000000 0.000000 0.000000
# 3 -0.001053 -0.006291 0.014950 0.000000 0.000000 0.000000
# 4 0.000000 0.000000 0.000000 0.030078 0.000000 0.000000
# 5 0.000000 0.000000 0.000000 0.000000 0.034749 0.000000
# 6 0.000000 0.000000 0.000000 0.000000 0.000000 0.039388
#
#
# Mechanical properties :
#
#
# Convention : Reuss Voigt Hill
#
# Bulk Modulus (GPa) = 17.91098 75.62194 46.76646
# Shear Modulus (GPa) = 21.60745 33.37651 27.49198
#
# Velocity S-wave (km/s) = 3.37213 4.19105 3.80370
# Velocity P-wave (km/s) = 4.95859 7.95093 6.62589
#
# Compressibility (1/GPa) = 0.05583166
#
# Stress axis : x y z
#
# Youngs Moduli (GPa) = 16.66834 137.74802 66.88769
#
# Poissons Ratio (x) = 0.80473 0.07042
# Poissons Ratio (y) = 0.09738 0.42081
# Poissons Ratio (z) = 0.01755 0.86661
#
# Static dielectric constant tensor:
#      x y z
#    x 1.656230 0.000000 0.000000 
#    y 0.000000 1.725940 0.000000 
#    z 0.000000 0.000000 1.590800 
# 
# From -- ./inp_files/6285.got.cif
#   From: 2010.05.17/outbox.cif.g08.bks.cpg/sg53_4_cif.got.tgz:6285.got - 2010.06.03 12:45:16.
