data_PCOD9416166
_publ_section_title
;
Structure prediction by ZEFSAII (Michael W. Deem and Ramdas Pophale) SiO2 
 PCOD9416166
Probable space group: P M N A
;
_chemical_formula_sum "Si O2"
_cell_formula_units_Z 48
_cell_length_a 14.722437
_cell_length_b 10.218431
_cell_length_c 17.952639
_cell_angle_alpha 90.000000
_cell_angle_beta 90.000000
_cell_angle_gamma 90.000000
_cell_volume 2700.798721
_symmetry_space_group_name_H-M "P M N A"
_symmetry_group_IT_number 53
_symmetry_cell_setting 'orthorhombic'
loop_
_space_group_symop_operation_xyz
x,y,z
1/2-x,-y,1/2+z
x,-y,-z
1/2-x,y,1/2-z
-x,-y,-z
1/2+x,y,1/2-z
-x,y,z
1/2+x,-y,1/2+z
loop_
_atom_site_type_symbol
_atom_site_label
_atom_site_fract_x
_atom_site_fract_y
_atom_site_fract_z
Si Si1 0.796625 0.877684 0.556513
Si Si2 0.199611 0.362947 0.540829
Si Si3 0.818219 0.981158 0.181259
Si Si4 0.500000 0.602203 0.072144
Si Si5 0.000000 0.920265 0.577591
Si Si6 0.183460 0.680095 0.179399
Si Si7 0.500000 0.956011 0.237607
Si Si8 0.500000 0.637606 0.244147
O O1 0.764233 0.750246 0.512694
O O2 0.901533 0.849606 0.581173
O O3 0.801151 0.000000 0.500000
O O4 0.728393 0.924827 0.621066
O O5 0.193455 0.500000 0.500000
O O6 0.096126 0.323751 0.563825
O O7 0.262601 0.383458 0.612003
O O8 0.750000 0.975441 0.250000
O O9 0.830205 0.831259 0.153790
O O10 0.914086 0.013138 0.218438
O O11 0.500000 0.569290 0.161946
O O12 0.500000 0.500000 0.000000
O O13 0.000000 0.000000 0.500000
O O14 0.000000 0.007990 0.651221
O O15 0.250000 0.683134 0.250000
O O16 0.090870 0.613971 0.207827
O O17 0.500000 0.797095 0.235967
#
# Coordination Sequence:
#
# PCOD9416166 Si02
#       8
#     8   8   8   4   4   8   4   4
#     4  11  21  35  57  84 116 146 186 236 291 337
#     4  11  23  39  58  85 119 154 192 236 289 346
#     4  10  19  34  55  85 118 149 188 238 285 344
#     4  10  21  35  57  87 119 149 185 242 295 341
#     4  10  21  28  53  89 115 145 178 234 295 337
#     4  10  19  34  58  85 114 149 193 235 283 343
#     4  10  20  33  54  89 119 148 191 234 293 345
#     4  10  20  32  60  86 114 147 196 243 276 339
#
# _framework density 17.772518999999999
#
# number of rings (size 3 to 8) (size 9 to 14) (size 15 to 20)
#    0.000    1.667    5.000    0.500    4.667    0.000 
#    0.000    2.500    0.000    0.000    0.000    0.000 
#    0.000    0.000    0.000    0.000    0.000    0.000 
#
# Total GULP energy -267204.735993 kJ/mol
# GULP energy per Si atom -5566.765333 kJ/mol
# Density = 1.773207 g / cm^3
# Si number density = 17.772519 Si / 1000 Ang^3
#
#
#
# Elastic Constant Matrix: (Units=GPa)
#
#
# Indices 1 2 3 4 5 6 
#
# 1 132.3128 9.7367 61.3557 0.0000 0.0000 0.0000
# 2 9.7367 39.5126 26.0941 0.0000 0.0000 0.0000
# 3 61.3557 26.0941 110.6521 0.0000 0.0000 0.0000
# 4 0.0000 0.0000 0.0000 25.0371 0.0000 0.0000
# 5 0.0000 0.0000 0.0000 0.0000 88.4135 0.0000
# 6 0.0000 0.0000 0.0000 0.0000 0.0000 6.3820
#
#
#
# Elastic Compliance Matrix: (Units=1/GPa)
#
#
# Indices 1 2 3 4 5 6 
#
# 1 0.010244 0.001453 -0.006023 0.000000 0.000000 0.000000
# 2 0.001453 0.030183 -0.007924 0.000000 0.000000 0.000000
# 3 -0.006023 -0.007924 0.014245 0.000000 0.000000 0.000000
# 4 0.000000 0.000000 0.000000 0.039941 0.000000 0.000000
# 5 0.000000 0.000000 0.000000 0.000000 0.011310 0.000000
# 6 0.000000 0.000000 0.000000 0.000000 0.000000 0.156690
#
#
# Mechanical properties :
#
#
# Convention : Reuss Voigt Hill
#
# Bulk Modulus (GPa) = 33.68604 52.98340 43.33472
# Shear Modulus (GPa) = 16.80697 36.31924 26.56311
#
# Velocity S-wave (km/s) = 3.07851 4.52548 3.87022
# Velocity P-wave (km/s) = 5.62419 7.56197 6.66389
#
# Compressibility (1/GPa) = 0.02968589
#
# Stress axis : x y z
#
# Youngs Moduli (GPa) = 97.62019 33.13124 70.19781
#
# Poissons Ratio (x) = -0.04815 0.42279
# Poissons Ratio (y) = -0.14186 0.55622
# Poissons Ratio (z) = 0.58795 0.26252
#
# Static dielectric constant tensor:
#      x y z
#    x 1.636620 0.000000 0.000000 
#    y 0.000000 1.626250 0.000000 
#    z 0.000000 0.000000 1.606280 
# 
# From -- ./inp_files/22741.got.cif
#   From: 2010.05.17/outbox.cif.g08.bks.cpg/sg53_12_cif.got.tgz:22741.got - 2010.06.03 12:45:16.
