data_PCOD9416002
_publ_section_title
;
Structure prediction by ZEFSAII (Michael W. Deem and Ramdas Pophale) SiO2 
 PCOD9416002
Probable space group: P M N A
;
_chemical_formula_sum "Si O2"
_cell_formula_units_Z 64
_cell_length_a 8.936423
_cell_length_b 12.387855
_cell_length_c 31.906052
_cell_angle_alpha 90.000000
_cell_angle_beta 90.000000
_cell_angle_gamma 90.000000
_cell_volume 3532.099259
_symmetry_space_group_name_H-M "P M N A"
_symmetry_group_IT_number 53
_symmetry_cell_setting 'orthorhombic'
loop_
_space_group_symop_operation_xyz
x,y,z
1/2-x,-y,1/2+z
x,-y,-z
1/2-x,y,1/2-z
-x,-y,-z
1/2+x,y,1/2-z
-x,y,z
1/2+x,-y,1/2+z
loop_
_atom_site_type_symbol
_atom_site_label
_atom_site_fract_x
_atom_site_fract_y
_atom_site_fract_z
Si Si1 0.179849 0.491676 0.795051
Si Si2 0.820947 0.100972 0.632050
Si Si3 0.178976 0.240643 0.794864
Si Si4 0.826769 0.884452 0.977785
Si Si5 0.176763 0.243897 0.938806
Si Si6 0.819263 0.364800 0.125434
Si Si7 0.677183 0.139067 0.110074
Si Si8 0.817751 0.512479 0.048243
O O1 0.250000 0.520336 0.750000
O O2 0.216640 0.366210 0.804222
O O3 0.227543 0.565393 0.834084
O O4 0.000000 0.499012 0.791480
O O5 0.745816 0.163201 0.670256
O O6 0.767489 0.163151 0.590400
O O7 0.000000 0.105769 0.635040
O O8 0.775312 0.975547 0.629684
O O9 0.250000 0.215081 0.750000
O O10 0.000000 0.231535 0.793406
O O11 0.719431 0.868876 0.938880
O O12 0.000000 0.880922 0.962962
O O13 0.808427 0.793702 0.013157
O O14 0.804187 0.000000 0.000000
O O15 0.222806 0.368383 0.935153
O O16 0.000000 0.235105 0.927858
O O17 0.758150 0.244174 0.127753
O O18 0.769669 0.422769 0.081972
O O19 0.000000 0.363019 0.124668
O O20 0.500000 0.150258 0.115245
O O21 0.000000 0.509152 0.047013
O O22 0.766553 0.500000 0.000000
#
# Coordination Sequence:
#
# PCOD9416002 Si02
#       8
#     8   8   8   8   8   8   8   8
#     4   9  19  36  60  89 115 142 178 226 280 335
#     4  11  23  37  53  78 111 145 183 225 271 323
#     4  10  20  37  62  89 116 142 173 217 273 333
#     4  10  19  33  55  81 106 141 190 233 273 328
#     4  10  19  33  56  82 107 139 182 230 278 328
#     4  10  20  36  57  80 109 146 190 232 276 333
#     4  11  24  38  53  76 111 152 189 230 279 326
#     4   9  17  31  53  80 109 141 179 228 281 333
#
# _framework density 18.119534999999999
#
# number of rings (size 3 to 8) (size 9 to 14) (size 15 to 20)
#    0.000    2.000    1.250    2.625    0.000    7.250 
#    0.000    2.500    0.000    3.000    0.000    0.000 
#    0.000    0.000    0.000    0.000    0.000    0.000 
#
# Total GULP energy -357352.115488 kJ/mol
# GULP energy per Si atom -5583.626805 kJ/mol
# Density = 1.807829 g / cm^3
# Si number density = 18.119535 Si / 1000 Ang^3
#
#
#
# Elastic Constant Matrix: (Units=GPa)
#
#
# Indices 1 2 3 4 5 6 
#
# 1 26.2721 35.8231 35.4885 0.0000 0.0000 0.0000
# 2 35.8231 122.0605 70.6658 0.0000 0.0000 0.0000
# 3 35.4885 70.6658 110.8102 0.0000 0.0000 0.0000
# 4 0.0000 0.0000 0.0000 24.6482 0.0000 0.0000
# 5 0.0000 0.0000 0.0000 0.0000 26.7262 0.0000
# 6 0.0000 0.0000 0.0000 0.0000 0.0000 29.4121
#
#
#
# Elastic Compliance Matrix: (Units=1/GPa)
#
#
# Indices 1 2 3 4 5 6 
#
# 1 0.079074 -0.013548 -0.016685 0.000000 0.000000 0.000000
# 2 -0.013548 0.015309 -0.005424 0.000000 0.000000 0.000000
# 3 -0.016685 -0.005424 0.017827 0.000000 0.000000 0.000000
# 4 0.000000 0.000000 0.000000 0.040571 0.000000 0.000000
# 5 0.000000 0.000000 0.000000 0.000000 0.037416 0.000000
# 6 0.000000 0.000000 0.000000 0.000000 0.000000 0.034000
#
#
# Mechanical properties :
#
#
# Convention : Reuss Voigt Hill
#
# Bulk Modulus (GPa) = 24.45170 60.34417 42.39794
# Shear Modulus (GPa) = 16.17376 23.96834 20.07105
#
# Velocity S-wave (km/s) = 2.99091 3.64096 3.33183
# Velocity P-wave (km/s) = 5.04493 7.14501 6.18476
#
# Compressibility (1/GPa) = 0.04089695
#
# Stress axis : x y z
#
# Youngs Moduli (GPa) = 12.64633 65.32182 56.09460
#
# Poissons Ratio (x) = 0.88495 0.93595
# Poissons Ratio (y) = 0.17133 0.30425
# Poissons Ratio (z) = 0.21101 0.35430
#
# Static dielectric constant tensor:
#      x y z
#    x 1.607940 0.000000 0.000000 
#    y 0.000000 1.624290 0.000000 
#    z 0.000000 0.000000 1.613010 
# 
# From -- ./inp_files/38239.got.cif
#   From: 2010.05.17/outbox.cif.g08.bks.cpg/sg53_20_cif.got.tgz:38239.got - 2010.06.03 12:45:16.
