data_PCOD9416762
_publ_section_title
;
Structure prediction by ZEFSAII (Michael W. Deem and Ramdas Pophale) SiO2 
 PCOD9416762
Probable space group: P M N A
;
_chemical_formula_sum "Si O2"
_cell_formula_units_Z 56
_cell_length_a 8.384464
_cell_length_b 17.319678
_cell_length_c 22.223168
_cell_angle_alpha 90.000000
_cell_angle_beta 90.000000
_cell_angle_gamma 90.000000
_cell_volume 3227.164380
_symmetry_space_group_name_H-M "P M N A"
_symmetry_group_IT_number 53
_symmetry_cell_setting 'orthorhombic'
loop_
_space_group_symop_operation_xyz
x,y,z
1/2-x,-y,1/2+z
x,-y,-z
1/2-x,y,1/2-z
-x,-y,-z
1/2+x,y,1/2-z
-x,y,z
1/2+x,-y,1/2+z
loop_
_atom_site_type_symbol
_atom_site_label
_atom_site_fract_x
_atom_site_fract_y
_atom_site_fract_z
Si Si1 0.190244 0.703285 0.008634
Si Si2 0.307432 0.874621 0.026390
Si Si3 0.189844 0.459594 0.183196
Si Si4 0.305751 0.544325 0.438516
Si Si5 0.807605 0.143754 0.317298
Si Si6 0.306178 0.976829 0.909422
Si Si7 0.309461 0.305031 0.126296
O O1 0.239688 0.788949 0.028440
O O2 0.238919 0.633893 0.052970
O O3 0.000000 0.700321 0.002607
O O4 0.262369 0.685487 0.943107
O O5 0.500000 0.868327 0.027526
O O6 0.253192 0.936157 0.076859
O O7 0.265245 0.919128 0.964402
O O8 0.250000 0.480559 0.250000
O O9 0.250651 0.507859 0.124696
O O10 0.235157 0.371490 0.167368
O O11 0.000000 0.466968 0.184206
O O12 0.254499 0.500000 0.500000
O O13 0.500000 0.538907 0.437812
O O14 0.750000 0.148785 0.250000
O O15 0.750088 0.066037 0.349906
O O16 0.755357 0.220164 0.352976
O O17 0.000000 0.143203 0.318983
O O18 0.500000 0.979978 0.909167
O O19 0.500000 0.309211 0.131912
#
# Coordination Sequence:
#
# PCOD9416762 Si02
#       7
#     8   8   8   8   8   8   8
#     4  11  20  32  53  79 107 136 170 216 268 310
#     4   9  16  31  53  73  96 129 166 207 254 303
#     4  11  22  38  57  77 106 140 180 219 263 320
#     4   9  18  35  55  75 103 143 176 208 265 325
#     4  10  20  33  48  70 101 137 171 201 244 302
#     4   8  15  30  51  70  95 133 169 200 246 304
#     4  11  21  34  52  76 107 141 177 211 256 314
#
# _framework density 17.352696000000002
#
# number of rings (size 3 to 8) (size 9 to 14) (size 15 to 20)
#    0.000    2.143    2.857    2.571    0.000    2.286 
#    0.000    5.714    0.000    0.857    0.000    6.000 
#    0.000    0.000    0.000    0.000    0.000    0.000 
#
# Total GULP energy -312222.062568 kJ/mol
# GULP energy per Si atom -5575.393974 kJ/mol
# Density = 1.731320 g / cm^3
# Si number density = 17.352696 Si / 1000 Ang^3
#
#
#
# Elastic Constant Matrix: (Units=GPa)
#
#
# Indices 1 2 3 4 5 6 
#
# 1 11.0481 11.3865 18.0559 0.0000 0.0000 0.0000
# 2 11.3865 107.0257 54.9397 0.0000 0.0000 0.0000
# 3 18.0559 54.9397 109.9001 0.0000 0.0000 0.0000
# 4 0.0000 0.0000 0.0000 20.5580 0.0000 0.0000
# 5 0.0000 0.0000 0.0000 0.0000 28.9021 0.0000
# 6 0.0000 0.0000 0.0000 0.0000 0.0000 29.0114
#
#
#
# Elastic Compliance Matrix: (Units=1/GPa)
#
#
# Indices 1 2 3 4 5 6 
#
# 1 0.124818 -0.003703 -0.018656 0.000000 0.000000 0.000000
# 2 -0.003703 0.012679 -0.005730 0.000000 0.000000 0.000000
# 3 -0.018656 -0.005730 0.015029 0.000000 0.000000 0.000000
# 4 0.000000 0.000000 0.000000 0.048643 0.000000 0.000000
# 5 0.000000 0.000000 0.000000 0.000000 0.034600 0.000000
# 6 0.000000 0.000000 0.000000 0.000000 0.000000 0.034469
#
#
# Mechanical properties :
#
#
# Convention : Reuss Voigt Hill
#
# Bulk Modulus (GPa) = 10.37896 44.08201 27.23048
# Shear Modulus (GPa) = 13.94581 25.26708 19.60645
#
# Velocity S-wave (km/s) = 2.83798 3.82001 3.36501
# Velocity P-wave (km/s) = 4.09060 6.70189 5.55195
#
# Compressibility (1/GPa) = 0.09634877
#
# Stress axis : x y z
#
# Youngs Moduli (GPa) = 8.01165 78.87172 66.53978
#
# Poissons Ratio (x) = 0.29204 1.24135
# Poissons Ratio (y) = 0.02967 0.38126
# Poissons Ratio (z) = 0.14946 0.45192
#
# Static dielectric constant tensor:
#      x y z
#    x 1.603100 0.000000 0.000000 
#    y 0.000000 1.606150 0.000000 
#    z 0.000000 0.000000 1.586630 
# 
# From -- ./inp_files/31068.got.cif
#   From: 2010.05.17/outbox.cif.g08.bks.cpg/sg53_16_cif.got.tgz:31068.got - 2010.06.03 12:45:16.
