data_PCOD9416214
_publ_section_title
;
Structure prediction by ZEFSAII (Michael W. Deem and Ramdas Pophale) SiO2 
 PCOD9416214
Probable space group: P M N A
;
_chemical_formula_sum "Si O2"
_cell_formula_units_Z 64
_cell_length_a 18.432487
_cell_length_b 17.990954
_cell_length_c 11.250405
_cell_angle_alpha 90.000000
_cell_angle_beta 90.000000
_cell_angle_gamma 90.000000
_cell_volume 3730.837095
_symmetry_space_group_name_H-M "P M N A"
_symmetry_group_IT_number 53
_symmetry_cell_setting 'orthorhombic'
loop_
_space_group_symop_operation_xyz
x,y,z
1/2-x,-y,1/2+z
x,-y,-z
1/2-x,y,1/2-z
-x,-y,-z
1/2+x,y,1/2-z
-x,y,z
1/2+x,-y,1/2+z
loop_
_atom_site_type_symbol
_atom_site_label
_atom_site_fract_x
_atom_site_fract_y
_atom_site_fract_z
Si Si1 0.415073 0.588498 0.518467
Si Si2 0.587354 0.630351 0.255211
Si Si3 0.698699 0.092874 0.864934
Si Si4 0.083687 0.209799 0.343933
Si Si5 0.303179 0.917763 0.861653
Si Si6 0.584341 0.777267 0.122131
Si Si7 0.163953 0.348360 0.243911
Si Si8 0.583831 0.478527 0.136955
O O1 0.406583 0.500000 0.500000
O O2 0.500000 0.600814 0.549155
O O3 0.399547 0.629661 0.395027
O O4 0.363431 0.618200 0.620010
O O5 0.500000 0.628490 0.235735
O O6 0.613404 0.704305 0.189714
O O7 0.613141 0.551224 0.204897
O O8 0.750000 0.107115 0.750000
O O9 0.632189 0.150032 0.854493
O O10 0.679301 0.005509 0.858087
O O11 0.726293 0.100892 0.003723
O O12 0.125615 0.131921 0.343788
O O13 0.085622 0.237184 0.480910
O O14 0.126684 0.269375 0.266433
O O15 0.000000 0.203644 0.307703
O O16 0.250000 0.902405 0.750000
O O17 0.500000 0.789406 0.156044
O O18 0.250000 0.342643 0.250000
O O19 0.132140 0.406997 0.338924
O O20 0.500000 0.463520 0.175752
O O21 0.581883 0.500000 0.000000
#
# Coordination Sequence:
#
# PCOD9416214 Si02
#       8
#     8   8   8   8   8   8   8   8
#     4  10  19  36  59  76  99 139 186 226 265 321
#     4   9  17  32  54  78 101 133 176 223 269 311
#     4   9  18  34  57  84 113 151 181 213 273 336
#     4  10  20  36  57  79 107 142 185 230 270 316
#     4   9  18  35  58  83 114 146 183 223 269 327
#     4   9  18  34  55  82 110 136 179 233 269 310
#     4  12  24  36  51  76 111 143 175 223 276 330
#     4  10  19  34  57  77  98 136 184 227 271 320
#
# _framework density 17.154326000000001
#
# number of rings (size 3 to 8) (size 9 to 14) (size 15 to 20)
#    0.000    2.250    1.250    2.250    0.000    3.000 
#    6.750    3.125    0.000    0.000    0.000    3.500 
#    0.000    0.000    0.000    0.000    0.000    0.000 
#
# Total GULP energy -356691.585783 kJ/mol
# GULP energy per Si atom -5573.306028 kJ/mol
# Density = 1.711528 g / cm^3
# Si number density = 17.154326 Si / 1000 Ang^3
#
#
#
# Elastic Constant Matrix: (Units=GPa)
#
#
# Indices 1 2 3 4 5 6 
#
# 1 94.5320 46.9391 43.2727 0.0000 0.0000 0.0000
# 2 46.9391 60.7623 25.4719 0.0000 0.0000 0.0000
# 3 43.2727 25.4719 67.2972 0.0000 0.0000 0.0000
# 4 0.0000 0.0000 0.0000 27.6224 0.0000 0.0000
# 5 0.0000 0.0000 0.0000 0.0000 17.4684 0.0000
# 6 0.0000 0.0000 0.0000 0.0000 0.0000 129.5093
#
#
#
# Elastic Compliance Matrix: (Units=1/GPa)
#
#
# Indices 1 2 3 4 5 6 
#
# 1 0.020645 -0.012342 -0.008604 0.000000 0.000000 0.000000
# 2 -0.012342 0.026939 -0.002261 0.000000 0.000000 0.000000
# 3 -0.008604 -0.002261 0.021247 0.000000 0.000000 0.000000
# 4 0.000000 0.000000 0.000000 0.036202 0.000000 0.000000
# 5 0.000000 0.000000 0.000000 0.000000 0.057246 0.000000
# 6 0.000000 0.000000 0.000000 0.000000 0.000000 0.007721
#
#
# Mechanical properties :
#
#
# Convention : Reuss Voigt Hill
#
# Bulk Modulus (GPa) = 44.60367 50.43986 47.52176
# Shear Modulus (GPa) = 22.33275 42.04721 32.18998
#
# Velocity S-wave (km/s) = 3.61206 4.95624 4.33655
# Velocity P-wave (km/s) = 6.59195 7.88796 7.26890
#
# Compressibility (1/GPa) = 0.02241968
#
# Stress axis : x y z
#
# Youngs Moduli (GPa) = 48.43819 37.12066 47.06479
#
# Poissons Ratio (x) = 0.45813 0.40492
# Poissons Ratio (y) = 0.59780 0.10640
# Poissons Ratio (z) = 0.41674 0.08392
#
# Static dielectric constant tensor:
#      x y z
#    x 1.566530 0.000000 0.000000 
#    y 0.000000 1.568150 0.000000 
#    z 0.000000 0.000000 1.612160 
# 
# From -- ./inp_files/16256.got.cif
#   From: 2010.05.17/outbox.cif.g08.bks.cpg/sg53_9_cif.got.tgz:16256.got - 2010.06.03 12:45:16.
