data_PCOD9416070
_publ_section_title
;
Structure prediction by ZEFSAII (Michael W. Deem and Ramdas Pophale) SiO2 
 PCOD9416070
Probable space group: P M N A
;
_chemical_formula_sum "Si O2"
_cell_formula_units_Z 56
_cell_length_a 15.933085
_cell_length_b 9.346825
_cell_length_c 19.377648
_cell_angle_alpha 90.000000
_cell_angle_beta 90.000000
_cell_angle_gamma 90.000000
_cell_volume 2885.792146
_symmetry_space_group_name_H-M "P M N A"
_symmetry_group_IT_number 53
_symmetry_cell_setting 'orthorhombic'
loop_
_space_group_symop_operation_xyz
x,y,z
1/2-x,-y,1/2+z
x,-y,-z
1/2-x,y,1/2-z
-x,-y,-z
1/2+x,y,1/2-z
-x,y,z
1/2+x,-y,1/2+z
loop_
_atom_site_type_symbol
_atom_site_label
_atom_site_fract_x
_atom_site_fract_y
_atom_site_fract_z
Si Si1 0.133689 0.070926 0.431914
Si Si2 0.780153 0.646313 0.539084
Si Si3 0.094903 0.681220 0.341607
Si Si4 0.255040 0.177364 0.583140
Si Si5 0.592761 0.862476 0.781240
Si Si6 0.802751 0.412459 0.312771
Si Si7 0.343636 0.137746 0.717854
O O1 0.145657 0.238917 0.447064
O O2 0.093807 0.060009 0.356592
O O3 0.094308 0.000000 0.500000
O O4 0.222857 0.985943 0.425318
O O5 0.802762 0.500000 0.500000
O O6 0.723182 0.738213 0.486574
O O7 0.750573 0.609365 0.616529
O O8 0.168649 0.748446 0.388759
O O9 0.121124 0.516527 0.332832
O O10 0.105059 0.756324 0.267007
O O11 0.000000 0.699343 0.367258
O O12 0.326625 0.186340 0.640253
O O13 0.500000 0.804657 0.769118
O O14 0.660596 0.737509 0.786490
O O15 0.616447 0.981675 0.725710
O O16 0.750000 0.478806 0.250000
O O17 0.250000 0.127249 0.750000
#
# Coordination Sequence:
#
# PCOD9416070 Si02
#       7
#     8   8   8   8   8   8   8
#     4   9  19  32  52  75 112 148 188 224 269 336
#     4  10  20  35  56  83 112 143 196 232 276 338
#     4  11  21  34  53  83 118 151 186 228 278 335
#     4  10  19  36  54  81 112 149 190 234 276 332
#     4  11  21  34  53  82 113 144 184 230 280 331
#     4  11  23  38  59  81 112 150 187 233 280 334
#     4  10  19  33  57  78 108 149 192 232 275 324
#
# _framework density 19.405417
#
# number of rings (size 3 to 8) (size 9 to 14) (size 15 to 20)
#    0.000    1.714    4.286    2.571    2.000    0.286 
#    0.000    7.143    0.000    0.000    0.000    6.000 
#    0.000    0.000    0.000    0.000    0.000    0.000 
#
# Total GULP energy -312097.894129 kJ/mol
# GULP energy per Si atom -5573.176681 kJ/mol
# Density = 1.936125 g / cm^3
# Si number density = 19.405417 Si / 1000 Ang^3
#
#
#
# Elastic Constant Matrix: (Units=GPa)
#
#
# Indices 1 2 3 4 5 6 
#
# 1 27.6217 -2.5710 15.6398 0.0000 0.0000 0.0000
# 2 -2.5710 85.6496 15.9240 0.0000 0.0000 0.0000
# 3 15.6398 15.9240 101.2559 0.0000 0.0000 0.0000
# 4 0.0000 0.0000 0.0000 25.2822 0.0000 0.0000
# 5 0.0000 0.0000 0.0000 0.0000 2.5690 0.0000
# 6 0.0000 0.0000 0.0000 0.0000 0.0000 6.9761
#
#
#
# Elastic Compliance Matrix: (Units=1/GPa)
#
#
# Indices 1 2 3 4 5 6 
#
# 1 0.040158 0.002430 -0.006585 0.000000 0.000000 0.000000
# 2 0.002430 0.012174 -0.002290 0.000000 0.000000 0.000000
# 3 -0.006585 -0.002290 0.011253 0.000000 0.000000 0.000000
# 4 0.000000 0.000000 0.000000 0.039553 0.000000 0.000000
# 5 0.000000 0.000000 0.000000 0.000000 0.389256 0.000000
# 6 0.000000 0.000000 0.000000 0.000000 0.000000 0.143346
#
#
# Mechanical properties :
#
#
# Convention : Reuss Voigt Hill
#
# Bulk Modulus (GPa) = 19.72567 30.27919 25.00243
# Shear Modulus (GPa) = 7.51282 19.33443 13.42362
#
# Velocity S-wave (km/s) = 1.96975 3.15991 2.63296
# Velocity P-wave (km/s) = 3.91922 5.38059 4.70697
#
# Compressibility (1/GPa) = 0.05069537
#
# Stress axis : x y z
#
# Youngs Moduli (GPa) = 24.90162 82.14132 88.86387
#
# Poissons Ratio (x) = -0.19958 0.58515
# Poissons Ratio (y) = -0.06050 0.20349
# Poissons Ratio (z) = 0.16397 0.18809
#
# Static dielectric constant tensor:
#      x y z
#    x 1.645840 0.000000 0.000000 
#    y 0.000000 1.736990 0.000000 
#    z 0.000000 0.000000 1.751400 
# 
# From -- ./inp_files/32792.got.cif
#   From: 2010.05.17/outbox.cif.g08.bks.cpg/sg53_17_cif.got.tgz:32792.got - 2010.06.03 12:45:16.
