data_PCOD9416184
_publ_section_title
;
Structure prediction by ZEFSAII (Michael W. Deem and Ramdas Pophale) SiO2 
 PCOD9416184
Probable space group: P M N A
;
_chemical_formula_sum "Si O2"
_cell_formula_units_Z 64
_cell_length_a 15.701996
_cell_length_b 20.444472
_cell_length_c 9.164472
_cell_angle_alpha 90.000000
_cell_angle_beta 90.000000
_cell_angle_gamma 90.000000
_cell_volume 2941.969798
_symmetry_space_group_name_H-M "P M N A"
_symmetry_group_IT_number 53
_symmetry_cell_setting 'orthorhombic'
loop_
_space_group_symop_operation_xyz
x,y,z
1/2-x,-y,1/2+z
x,-y,-z
1/2-x,y,1/2-z
-x,-y,-z
1/2+x,y,1/2-z
-x,y,z
1/2+x,-y,1/2+z
loop_
_atom_site_type_symbol
_atom_site_label
_atom_site_fract_x
_atom_site_fract_y
_atom_site_fract_z
Si Si1 0.166465 0.976560 0.666324
Si Si2 0.598262 0.841883 0.909515
Si Si3 0.903044 0.601729 0.628315
Si Si4 0.396240 0.760669 0.395314
Si Si5 0.396656 0.353386 0.816481
Si Si6 0.103971 0.487904 0.835772
Si Si7 0.397423 0.116055 0.771986
Si Si8 0.843681 0.722221 0.784304
O O1 0.250000 0.954181 0.750000
O O2 0.133315 0.042168 0.743615
O O3 0.182453 0.000000 0.500000
O O4 0.104786 0.914276 0.659850
O O5 0.500000 0.821376 0.920145
O O6 0.643122 0.786882 0.813984
O O7 0.632192 0.852777 0.073702
O O8 0.863749 0.628479 0.477526
O O9 0.864834 0.540687 0.716485
O O10 0.904651 0.663767 0.734996
O O11 0.000000 0.581431 0.590395
O O12 0.500000 0.757625 0.405960
O O13 0.368865 0.712653 0.263812
O O14 0.372020 0.834626 0.354820
O O15 0.358258 0.739033 0.548134
O O16 0.500000 0.347411 0.827660
O O17 0.376222 0.414950 0.714916
O O18 0.000000 0.493883 0.838494
O O19 0.134521 0.500000 0.000000
O O20 0.500000 0.114277 0.780805
O O21 0.750000 0.696848 0.750000
#
# Coordination Sequence:
#
# PCOD9416184 Si02
#       8
#     8   8   8   8   8   8   8   8
#     4  10  21  36  56  83 116 151 184 222 270 325
#     4  10  20  38  61  82 107 142 185 229 276 329
#     4  10  19  34  56  80 109 146 187 229 276 331
#     4  10  20  36  58  83 111 142 182 231 280 328
#     4   9  17  31  55  86 112 139 183 235 279 324
#     4   9  16  27  50  85 117 142 176 228 282 327
#     4   9  19  36  59  85 110 142 185 230 274 325
#     4  12  25  38  53  78 112 146 183 227 278 336
#
# _framework density 21.754131999999998
#
# number of rings (size 3 to 8) (size 9 to 14) (size 15 to 20)
#    0.000    2.125    0.000    3.750    0.000   10.000 
#    0.000    1.875    0.000    7.500    0.000    0.000 
#    0.000    0.000    0.000    0.000    0.000    0.000 
#
# Total GULP energy -357450.038607 kJ/mol
# GULP energy per Si atom -5585.156853 kJ/mol
# Density = 2.170462 g / cm^3
# Si number density = 21.754132 Si / 1000 Ang^3
#
#
#
# Elastic Constant Matrix: (Units=GPa)
#
#
# Indices 1 2 3 4 5 6 
#
# 1 29.0671 -7.9050 1.8540 0.0000 0.0000 0.0000
# 2 -7.9050 55.2654 -8.9909 0.0000 0.0000 0.0000
# 3 1.8540 -8.9909 37.3815 0.0000 0.0000 0.0000
# 4 0.0000 0.0000 0.0000 30.3582 0.0000 0.0000
# 5 0.0000 0.0000 0.0000 0.0000 6.6193 0.0000
# 6 0.0000 0.0000 0.0000 0.0000 0.0000 7.5265
#
#
#
# Elastic Compliance Matrix: (Units=1/GPa)
#
#
# Indices 1 2 3 4 5 6 
#
# 1 0.035807 0.005030 -0.000566 0.000000 0.000000 0.000000
# 2 0.005030 0.019538 0.004450 0.000000 0.000000 0.000000
# 3 -0.000566 0.004450 0.027849 0.000000 0.000000 0.000000
# 4 0.000000 0.000000 0.000000 0.032940 0.000000 0.000000
# 5 0.000000 0.000000 0.000000 0.000000 0.151072 0.000000
# 6 0.000000 0.000000 0.000000 0.000000 0.000000 0.132864
#
#
# Mechanical properties :
#
#
# Convention : Reuss Voigt Hill
#
# Bulk Modulus (GPa) = 9.89896 10.18115 10.04005
# Shear Modulus (GPa) = 12.02160 18.01788 15.01974
#
# Velocity S-wave (km/s) = 2.35332 2.88106 2.63046
# Velocity P-wave (km/s) = 3.45607 3.96958 3.72169
#
# Compressibility (1/GPa) = 0.10102071
#
# Stress axis : x y z
#
# Youngs Moduli (GPa) = 27.92741 51.18278 35.90732
#
# Poissons Ratio (x) = -0.25743 0.02033
# Poissons Ratio (y) = -0.14046 -0.15978
# Poissons Ratio (z) = 0.01581 -0.22775
#
# Static dielectric constant tensor:
#      x y z
#    x 1.837830 0.000000 0.000000 
#    y 0.000000 1.759750 0.000000 
#    z 0.000000 0.000000 1.784720 
# 
# From -- ./inp_files/10240.got.cif
#   From: 2010.05.17/outbox.cif.g08.bks.cpg/sg53_6_cif.got.tgz:10240.got - 2010.06.03 12:45:16.
