data_PCOD9416410
_publ_section_title
;
Structure prediction by ZEFSAII (Michael W. Deem and Ramdas Pophale) SiO2 
 PCOD9416410
Probable space group: P M N A
;
_chemical_formula_sum "Si O2"
_cell_formula_units_Z 64
_cell_length_a 25.181555
_cell_length_b 14.960328
_cell_length_c 8.779409
_cell_angle_alpha 90.000000
_cell_angle_beta 90.000000
_cell_angle_gamma 90.000000
_cell_volume 3307.416906
_symmetry_space_group_name_H-M "P M N A"
_symmetry_group_IT_number 53
_symmetry_cell_setting 'orthorhombic'
loop_
_space_group_symop_operation_xyz
x,y,z
1/2-x,-y,1/2+z
x,-y,-z
1/2-x,y,1/2-z
-x,-y,-z
1/2+x,y,1/2-z
-x,y,z
1/2+x,-y,1/2+z
loop_
_atom_site_type_symbol
_atom_site_label
_atom_site_fract_x
_atom_site_fract_y
_atom_site_fract_z
Si Si1 0.061641 0.206269 0.321227
Si Si2 0.142343 0.702862 0.334774
Si Si3 0.063973 0.029190 0.165970
Si Si4 0.814861 0.603261 0.053088
Si Si5 0.938522 0.155693 0.677308
Si Si6 0.940681 0.548352 0.338323
Si Si7 0.380128 0.383145 0.283766
Si Si8 0.784493 0.313064 0.390008
O O1 0.063289 0.176506 0.497331
O O2 0.088473 0.300181 0.285967
O O3 0.000000 0.217654 0.281369
O O4 0.085176 0.123842 0.224704
O O5 0.177419 0.641568 0.221663
O O6 0.110324 0.785207 0.259491
O O7 0.094159 0.635051 0.370708
O O8 0.176876 0.732241 0.482933
O O9 0.071617 0.947434 0.282321
O O10 0.000000 0.040218 0.154592
O O11 0.083721 0.000000 0.000000
O O12 0.814830 0.500000 0.000000
O O13 0.865048 0.639332 0.956450
O O14 0.760360 0.641141 0.989409
O O15 0.000000 0.175927 0.728504
O O16 0.944999 0.500000 0.500000
O O17 0.910633 0.476405 0.232820
O O18 0.000000 0.569538 0.282430
O O19 0.324029 0.383514 0.192649
O O20 0.750000 0.268381 0.250000
#
# Coordination Sequence:
#
# PCOD9416410 Si02
#       8
#     8   8   8   8   8   8   8   8
#     4  10  19  35  59  84 117 156 195 238 285 347
#     4  12  22  38  58  86 118 156 195 245 292 357
#     4   9  19  34  55  88 123 155 190 234 286 344
#     4  11  25  38  57  83 115 155 202 252 304 347
#     4  10  20  36  59  88 121 158 198 235 284 352
#     4  11  21  34  55  82 117 159 198 234 282 350
#     4  11  21  38  55  84 115 152 198 239 293 353
#     4  10  23  39  60  82 108 147 194 256 301 339
#
# _framework density 19.350448
#
# number of rings (size 3 to 8) (size 9 to 14) (size 15 to 20)
#    0.000    1.500    3.750    1.500    3.500    4.500 
#    0.000    2.500    0.000    0.000    0.000    8.750 
#    0.000    0.000    0.000    0.000    0.000    0.000 
#
# Total GULP energy -356440.722738 kJ/mol
# GULP energy per Si atom -5569.386293 kJ/mol
# Density = 1.930641 g / cm^3
# Si number density = 19.350448 Si / 1000 Ang^3
#
#
#
# Elastic Constant Matrix: (Units=GPa)
#
#
# Indices 1 2 3 4 5 6 
#
# 1 83.3768 23.1892 16.7197 0.0000 0.0000 0.0000
# 2 23.1892 73.7534 10.6436 0.0000 0.0000 0.0000
# 3 16.7197 10.6436 53.4252 0.0000 0.0000 0.0000
# 4 0.0000 0.0000 0.0000 22.6533 0.0000 0.0000
# 5 0.0000 0.0000 0.0000 0.0000 11.3085 0.0000
# 6 0.0000 0.0000 0.0000 0.0000 0.0000 12.7671
#
#
#
# Elastic Compliance Matrix: (Units=1/GPa)
#
#
# Indices 1 2 3 4 5 6 
#
# 1 0.013767 -0.003816 -0.003548 0.000000 0.000000 0.000000
# 2 -0.003816 0.015018 -0.001798 0.000000 0.000000 0.000000
# 3 -0.003548 -0.001798 0.020186 0.000000 0.000000 0.000000
# 4 0.000000 0.000000 0.000000 0.044144 0.000000 0.000000
# 5 0.000000 0.000000 0.000000 0.000000 0.088429 0.000000
# 6 0.000000 0.000000 0.000000 0.000000 0.000000 0.078326
#
#
# Mechanical properties :
#
#
# Convention : Reuss Voigt Hill
#
# Bulk Modulus (GPa) = 32.62972 34.62893 33.62932
# Shear Modulus (GPa) = 17.33645 20.01264 18.67455
#
# Velocity S-wave (km/s) = 2.99644 3.21942 3.10993
# Velocity P-wave (km/s) = 5.37314 5.63508 5.50567
#
# Compressibility (1/GPa) = 0.03064691
#
# Stress axis : x y z
#
# Youngs Moduli (GPa) = 72.63908 66.58652 49.53863
#
# Poissons Ratio (x) = 0.25412 0.17577
# Poissons Ratio (y) = 0.27722 0.08905
# Poissons Ratio (z) = 0.25773 0.11969
#
# Static dielectric constant tensor:
#      x y z
#    x 1.700980 0.000000 0.000000 
#    y 0.000000 1.685620 0.000000 
#    z 0.000000 0.000000 1.762470 
# 
# From -- ./inp_files/11965.got.cif
#   From: 2010.05.17/outbox.cif.g08.bks.cpg/sg53_6_cif.got.tgz:11965.got - 2010.06.03 12:45:16.
