data_PCOD9416889
_publ_section_title
;
Structure prediction by ZEFSAII (Michael W. Deem and Ramdas Pophale) SiO2 
 PCOD9416889
Probable space group: P M N A
;
_chemical_formula_sum "Si O2"
_cell_formula_units_Z 64
_cell_length_a 7.573805
_cell_length_b 15.580061
_cell_length_c 23.809722
_cell_angle_alpha 90.000000
_cell_angle_beta 90.000000
_cell_angle_gamma 90.000000
_cell_volume 2809.555384
_symmetry_space_group_name_H-M "P M N A"
_symmetry_group_IT_number 53
_symmetry_cell_setting 'orthorhombic'
loop_
_space_group_symop_operation_xyz
x,y,z
1/2-x,-y,1/2+z
x,-y,-z
1/2-x,y,1/2-z
-x,-y,-z
1/2+x,y,1/2-z
-x,y,z
1/2+x,-y,1/2+z
loop_
_atom_site_type_symbol
_atom_site_label
_atom_site_fract_x
_atom_site_fract_y
_atom_site_fract_z
Si Si1 0.213657 0.856831 0.398472
Si Si2 0.705287 0.814101 0.859598
Si Si3 0.294393 0.451567 0.847832
Si Si4 0.292420 0.222597 0.483643
Si Si5 0.712451 0.993692 0.815033
Si Si6 0.288268 0.634497 0.815869
Si Si7 0.713939 0.408643 0.526568
Si Si8 0.288509 0.279184 0.809670
O O1 0.266575 0.838325 0.462336
O O2 0.274720 0.939412 0.362824
O O3 0.277733 0.776355 0.361369
O O4 0.000000 0.858015 0.398216
O O5 0.500000 0.812758 0.842254
O O6 0.784560 0.723200 0.840442
O O7 0.781887 0.898873 0.830682
O O8 0.712566 0.815880 0.926987
O O9 0.500000 0.460313 0.831766
O O10 0.217106 0.546615 0.843113
O O11 0.281575 0.414526 0.910192
O O12 0.213472 0.375488 0.810948
O O13 0.500000 0.230794 0.473288
O O14 0.225248 0.319769 0.497476
O O15 0.750000 0.015579 0.750000
O O16 0.500000 0.993122 0.820000
O O17 0.250000 0.630324 0.750000
O O18 0.500000 0.636175 0.825482
O O19 0.768332 0.500000 0.500000
O O20 0.500000 0.406563 0.527212
O O21 0.250000 0.237208 0.750000
O O22 0.500000 0.283900 0.815493
#
# Coordination Sequence:
#
# PCOD9416889 Si02
#       8
#     8   8   8   8   8   8   8   8
#     4  10  21  39  60  83 116 154 189 232 284 341
#     4  10  22  40  60  84 116 154 193 237 290 346
#     4  10  20  34  52  79 110 146 190 229 278 340
#     4  11  23  38  59  88 117 151 195 240 289 341
#     4  10  22  40  64  91 117 151 194 237 289 346
#     4  10  21  36  56  83 115 151 193 239 288 343
#     4  10  21  36  54  79 112 149 191 238 285 334
#     4  10  20  33  52  78 109 144 182 224 273 328
#
# _framework density 22.779406000000002
#
# number of rings (size 3 to 8) (size 9 to 14) (size 15 to 20)
#    0.000    1.875    1.250    2.250    0.000    4.250 
#    0.000    2.500    0.000    0.000    0.000    0.000 
#    0.000    0.000    0.000    0.000    0.000    0.000 
#
# Total GULP energy -357467.937100 kJ/mol
# GULP energy per Si atom -5585.436517 kJ/mol
# Density = 2.272756 g / cm^3
# Si number density = 22.779406 Si / 1000 Ang^3
#
#
#
# Elastic Constant Matrix: (Units=GPa)
#
#
# Indices 1 2 3 4 5 6 
#
# 1 55.2271 11.5113 -21.8715 0.0000 0.0000 0.0000
# 2 11.5113 125.9022 11.0598 0.0000 0.0000 0.0000
# 3 -21.8715 11.0598 42.1593 0.0000 0.0000 0.0000
# 4 0.0000 0.0000 0.0000 35.8719 0.0000 0.0000
# 5 0.0000 0.0000 0.0000 0.0000 27.5189 0.0000
# 6 0.0000 0.0000 0.0000 0.0000 0.0000 -46.2377
#
#
#
# Elastic Compliance Matrix: (Units=1/GPa)
#
#
# Indices 1 2 3 4 5 6 
#
# 1 0.024119 -0.003382 0.013400 0.000000 0.000000 0.000000
# 2 -0.003382 0.008604 -0.004012 0.000000 0.000000 0.000000
# 3 0.013400 -0.004012 0.031724 0.000000 0.000000 0.000000
# 4 0.000000 0.000000 0.000000 0.027877 0.000000 0.000000
# 5 0.000000 0.000000 0.000000 0.000000 0.036339 0.000000
# 6 0.000000 0.000000 0.000000 0.000000 0.000000 -0.021627
#
#
# Mechanical properties :
#
#
# Convention : Reuss Voigt Hill
#
# Bulk Modulus (GPa) = 13.07917 24.96531 19.02224
# Shear Modulus (GPa) = 41.49045 18.26988 29.88017
#
# Velocity S-wave (km/s) = 4.27242 2.83509 3.62569
# Velocity P-wave (km/s) = 5.48564 4.65837 5.08884
#
# Compressibility (1/GPa) = 0.07645747
#
# Stress axis : x y z
#
# Youngs Moduli (GPa) = 41.46168 116.22051 31.52236
#
# Poissons Ratio (x) = 0.39309 -0.42239
# Poissons Ratio (y) = 0.14023 0.12646
# Poissons Ratio (z) = -0.55557 0.46626
#
# Static dielectric constant tensor:
#      x y z
#    x 1.832190 0.000000 0.000000 
#    y 0.000000 1.901910 0.000000 
#    z 0.000000 0.000000 1.861040 
# 
# From -- ./inp_files/34283.got.cif
#   From: 2010.05.17/outbox.cif.g08.bks.cpg/sg53_18_cif.got.tgz:34283.got - 2010.06.03 12:45:16.
