data_PCOD9416728
_publ_section_title
;
Structure prediction by ZEFSAII (Michael W. Deem and Ramdas Pophale) SiO2 
 PCOD9416728
Probable space group: P M N A
;
_chemical_formula_sum "Si O2"
_cell_formula_units_Z 64
_cell_length_a 7.807621
_cell_length_b 16.013411
_cell_length_c 24.963287
_cell_angle_alpha 90.000000
_cell_angle_beta 90.000000
_cell_angle_gamma 90.000000
_cell_volume 3121.075997
_symmetry_space_group_name_H-M "P M N A"
_symmetry_group_IT_number 53
_symmetry_cell_setting 'orthorhombic'
loop_
_space_group_symop_operation_xyz
x,y,z
1/2-x,-y,1/2+z
x,-y,-z
1/2-x,y,1/2-z
-x,-y,-z
1/2+x,y,1/2-z
-x,y,z
1/2+x,-y,1/2+z
loop_
_atom_site_type_symbol
_atom_site_label
_atom_site_fract_x
_atom_site_fract_y
_atom_site_fract_z
Si Si1 0.703722 0.724024 0.617744
Si Si2 0.706814 0.425260 0.308567
Si Si3 0.303888 0.556892 0.046148
Si Si4 0.293445 0.877332 0.688028
Si Si5 0.793529 0.063862 0.812072
Si Si6 0.193690 0.599299 0.158849
Si Si7 0.704295 0.221545 0.621966
Si Si8 0.308985 0.744709 0.004081
O O1 0.500000 0.720776 0.626322
O O2 0.768806 0.636937 0.644090
O O3 0.773175 0.802515 0.651422
O O4 0.730128 0.742023 0.554989
O O5 0.750000 0.389297 0.250000
O O6 0.500000 0.432274 0.312990
O O7 0.777123 0.520758 0.310836
O O8 0.500000 0.529357 0.058880
O O9 0.192704 0.561973 0.098844
O O10 0.229892 0.500000 0.000000
O O11 0.315223 0.648420 0.021652
O O12 0.250000 0.862583 0.750000
O O13 0.500000 0.878752 0.683223
O O14 0.230683 0.970689 0.673625
O O15 0.750000 0.078608 0.750000
O O16 0.727925 0.139844 0.848133
O O17 0.000000 0.062949 0.817078
O O18 0.273420 0.691461 0.148541
O O19 0.000000 0.611646 0.179462
O O20 0.500000 0.226515 0.629833
O O21 0.730415 0.215436 0.557912
O O22 0.500000 0.778823 0.998474
#
# Coordination Sequence:
#
# PCOD9416728 Si02
#       8
#     8   8   8   8   8   8   8   8
#     4  10  20  34  51  71  98 132 166 201 245 295
#     4  10  21  34  48  70  99 130 165 203 244 293
#     4   9  17  29  45  66  91 119 154 196 237 275
#     4   9  18  33  53  76  99 125 162 205 247 293
#     4   9  18  33  54  78 100 125 160 201 245 292
#     4   9  18  31  46  66  92 123 158 191 227 277
#     4   9  18  34  53  72 100 135 165 198 243 292
#     4  10  20  32  49  74 100 128 166 207 245 289
#
# _framework density 20.505748000000001
#
# number of rings (size 3 to 8) (size 9 to 14) (size 15 to 20)
#    0.000    2.625    0.000    1.500    0.000    3.250 
#    0.000    0.625    0.000    3.750    0.000    0.000 
#    0.000    0.000    0.000    0.000    0.000    0.000 
#
# Total GULP energy -356458.493422 kJ/mol
# GULP energy per Si atom -5569.663960 kJ/mol
# Density = 2.045908 g / cm^3
# Si number density = 20.505748 Si / 1000 Ang^3
#
#
#
# Elastic Constant Matrix: (Units=GPa)
#
#
# Indices 1 2 3 4 5 6 
#
# 1 26.7342 10.9707 -4.9823 0.0000 0.0000 0.0000
# 2 10.9707 112.6375 71.5721 0.0000 0.0000 0.0000
# 3 -4.9823 71.5721 91.9878 0.0000 0.0000 0.0000
# 4 0.0000 0.0000 0.0000 34.6844 0.0000 0.0000
# 5 0.0000 0.0000 0.0000 0.0000 22.3368 0.0000
# 6 0.0000 0.0000 0.0000 0.0000 0.0000 -3.6168
#
#
#
# Elastic Compliance Matrix: (Units=1/GPa)
#
#
# Indices 1 2 3 4 5 6 
#
# 1 0.044260 -0.011539 0.011375 0.000000 0.000000 0.000000
# 2 -0.011539 0.020568 -0.016628 0.000000 0.000000 0.000000
# 3 0.011375 -0.016628 0.024425 0.000000 0.000000 0.000000
# 4 0.000000 0.000000 0.000000 0.028831 0.000000 0.000000
# 5 0.000000 0.000000 0.000000 0.000000 0.044769 0.000000
# 6 0.000000 0.000000 0.000000 0.000000 0.000000 -0.276489
#
#
# Mechanical properties :
#
#
# Convention : Reuss Voigt Hill
#
# Bulk Modulus (GPa) = 17.96316 42.94228 30.45272
# Shear Modulus (GPa) = -81.30515 20.93417 -30.18549
#
# Velocity S-wave (km/s) = -6.30365 3.19861 -3.84089
# Velocity P-wave (km/s) = 6.64848 5.88460 2.18789
#
# Compressibility (1/GPa) = 0.05566948
#
# Stress axis : x y z
#
# Youngs Moduli (GPa) = 22.59359 48.62034 40.94247
#
# Poissons Ratio (x) = 0.56103 -0.46573
# Poissons Ratio (y) = 0.26071 0.68078
# Poissons Ratio (z) = -0.25701 0.80845
#
# Static dielectric constant tensor:
#      x y z
#    x 1.753050 0.000000 0.000000 
#    y 0.000000 1.779040 0.000000 
#    z 0.000000 0.000000 1.845190 
# 
# From -- ./inp_files/34306.got.cif
#   From: 2010.05.17/outbox.cif.g08.bks.cpg/sg53_18_cif.got.tgz:34306.got - 2010.06.03 12:45:16.
