data_PCOD9416821
_publ_section_title
;
Structure prediction by ZEFSAII (Michael W. Deem and Ramdas Pophale) SiO2 
 PCOD9416821
Probable space group: P M N A
;
_chemical_formula_sum "Si O2"
_cell_formula_units_Z 64
_cell_length_a 7.772356
_cell_length_b 21.250827
_cell_length_c 18.655050
_cell_angle_alpha 90.000000
_cell_angle_beta 90.000000
_cell_angle_gamma 90.000000
_cell_volume 3081.235818
_symmetry_space_group_name_H-M "P M N A"
_symmetry_group_IT_number 53
_symmetry_cell_setting 'orthorhombic'
loop_
_space_group_symop_operation_xyz
x,y,z
1/2-x,-y,1/2+z
x,-y,-z
1/2-x,y,1/2-z
-x,-y,-z
1/2+x,y,1/2-z
-x,y,z
1/2+x,-y,1/2+z
loop_
_atom_site_type_symbol
_atom_site_label
_atom_site_fract_x
_atom_site_fract_y
_atom_site_fract_z
Si Si1 0.792069 0.630120 0.166969
Si Si2 0.705307 0.384711 0.166328
Si Si3 0.298762 0.752884 0.410884
Si Si4 0.702790 0.266740 0.073962
Si Si5 0.292040 0.127621 0.402730
Si Si6 0.210674 0.109136 0.932709
Si Si7 0.706774 0.002513 0.330925
Si Si8 0.295062 0.509683 0.419871
O O1 0.750000 0.622083 0.250000
O O2 0.724279 0.696202 0.135721
O O3 0.726074 0.571432 0.120241
O O4 0.000000 0.630897 0.160359
O O5 0.750000 0.382805 0.250000
O O6 0.500000 0.384505 0.161127
O O7 0.770205 0.323437 0.123029
O O8 0.768411 0.448067 0.128186
O O9 0.500000 0.757440 0.392261
O O10 0.285996 0.735860 0.495173
O O11 0.227180 0.823391 0.402895
O O12 0.500000 0.276057 0.062343
O O13 0.728451 0.198323 0.109517
O O14 0.500000 0.130513 0.400669
O O15 0.241726 0.107561 0.483647
O O16 0.230516 0.072584 0.350388
O O17 0.000000 0.109313 0.931231
O O18 0.270445 0.049943 0.886739
O O19 0.750000 0.985424 0.250000
O O20 0.500000 0.004022 0.338231
O O21 0.224062 0.500000 0.500000
O O22 0.500000 0.519192 0.427163
#
# Coordination Sequence:
#
# PCOD9416821 Si02
#       8
#     8   8   8   8   8   8   8   8
#     4  10  21  35  53  80 111 142 176 215 260 310
#     4  11  24  39  56  80 110 143 178 219 268 320
#     4   9  18  35  58  80 104 140 182 216 254 312
#     4  10  21  36  55  81 108 133 170 222 271 313
#     4   9  18  34  56  76  98 136 180 217 255 308
#     4   8  15  31  55  77  97 130 177 218 249 294
#     4  10  20  33  50  75 106 137 172 215 262 311
#     4  10  21  38  60  83 108 141 181 223 265 314
#
# _framework density 20.770885
#
# number of rings (size 3 to 8) (size 9 to 14) (size 15 to 20)
#    0.000    2.375    0.000    3.000    0.000    8.250 
#    0.000    5.000    0.000    3.750    0.000    0.000 
#    0.000    0.000    0.000    0.000    0.000    0.000 
#
# Total GULP energy -357339.033206 kJ/mol
# GULP energy per Si atom -5583.422394 kJ/mol
# Density = 2.072361 g / cm^3
# Si number density = 20.770885 Si / 1000 Ang^3
#
#
#
# Elastic Constant Matrix: (Units=GPa)
#
#
# Indices 1 2 3 4 5 6 
#
# 1 26.5755 -6.5577 -11.9106 0.0000 0.0000 0.0000
# 2 -6.5577 80.0086 19.5080 0.0000 0.0000 0.0000
# 3 -11.9106 19.5080 50.9364 0.0000 0.0000 0.0000
# 4 0.0000 0.0000 0.0000 11.9758 0.0000 0.0000
# 5 0.0000 0.0000 0.0000 0.0000 30.1111 0.0000
# 6 0.0000 0.0000 0.0000 0.0000 0.0000 39.8902
#
#
#
# Elastic Compliance Matrix: (Units=1/GPa)
#
#
# Indices 1 2 3 4 5 6 
#
# 1 0.042131 0.001159 0.009408 0.000000 0.000000 0.000000
# 2 0.001159 0.013818 -0.005021 0.000000 0.000000 0.000000
# 3 0.009408 -0.005021 0.023755 0.000000 0.000000 0.000000
# 4 0.000000 0.000000 0.000000 0.083502 0.000000 0.000000
# 5 0.000000 0.000000 0.000000 0.000000 0.033210 0.000000
# 6 0.000000 0.000000 0.000000 0.000000 0.000000 0.025069
#
#
# Mechanical properties :
#
#
# Convention : Reuss Voigt Hill
#
# Bulk Modulus (GPa) = 11.01371 17.73330 14.37351
# Shear Modulus (GPa) = 20.77635 26.82748 23.80191
#
# Velocity S-wave (km/s) = 3.16612 3.59777 3.38883
# Velocity P-wave (km/s) = 4.32201 5.08082 4.71670
#
# Compressibility (1/GPa) = 0.09079594
#
# Stress axis : x y z
#
# Youngs Moduli (GPa) = 23.73552 72.36978 42.09620
#
# Poissons Ratio (x) = -0.08390 -0.39602
# Poissons Ratio (y) = -0.02752 0.21136
# Poissons Ratio (z) = -0.22329 0.36337
#
# Static dielectric constant tensor:
#      x y z
#    x 1.775340 0.000000 0.000000 
#    y 0.000000 1.752020 0.000000 
#    z 0.000000 0.000000 1.702300 
# 
# From -- ./inp_files/26976.got.cif
#   From: 2010.05.17/outbox.cif.g08.bks.cpg/sg53_14_cif.got.tgz:26976.got - 2010.06.03 12:45:16.
