data_PCOD9416633
_publ_section_title
;
Structure prediction by ZEFSAII (Michael W. Deem and Ramdas Pophale) SiO2 
 PCOD9416633
Probable space group: P M N A
;
_chemical_formula_sum "Si O2"
_cell_formula_units_Z 48
_cell_length_a 8.576433
_cell_length_b 10.032816
_cell_length_c 29.787760
_cell_angle_alpha 90.000000
_cell_angle_beta 90.000000
_cell_angle_gamma 90.000000
_cell_volume 2563.110872
_symmetry_space_group_name_H-M "P M N A"
_symmetry_group_IT_number 53
_symmetry_cell_setting 'orthorhombic'
loop_
_space_group_symop_operation_xyz
x,y,z
1/2-x,-y,1/2+z
x,-y,-z
1/2-x,y,1/2-z
-x,-y,-z
1/2+x,y,1/2-z
-x,y,z
1/2+x,-y,1/2+z
loop_
_atom_site_type_symbol
_atom_site_label
_atom_site_fract_x
_atom_site_fract_y
_atom_site_fract_z
Si Si1 0.818689 0.865959 0.029268
Si Si2 0.687451 0.774764 0.299772
Si Si3 0.684552 0.370561 0.027584
Si Si4 0.186891 0.288637 0.123577
Si Si5 0.689971 0.019830 0.623966
Si Si6 0.185995 0.517285 0.699866
O O1 0.000000 0.821028 0.032335
O O2 0.760257 0.906221 0.078456
O O3 0.720881 0.755349 0.003813
O O4 0.817749 0.000000 0.000000
O O5 0.750000 0.801609 0.250000
O O6 0.500000 0.768555 0.298980
O O7 0.750775 0.629289 0.313333
O O8 0.736646 0.890925 0.333754
O O9 0.500000 0.382833 0.035708
O O10 0.766612 0.348826 0.075357
O O11 0.738451 0.500000 0.000000
O O12 0.240780 0.133983 0.125317
O O13 0.258230 0.374781 0.163811
O O14 0.000000 0.290357 0.127697
O O15 0.500000 0.016687 0.622489
O O16 0.250000 0.545598 0.750000
O O17 0.000000 0.513073 0.701768
#
# Coordination Sequence:
#
# PCOD9416633 Si02
#       6
#     8   8   8   8   8   8
#     4  10  19  38  63  86 113 153 200 243 290 349
#     4  10  20  38  61  88 118 153 193 239 291 349
#     4  11  25  41  56  86 125 158 197 247 296 349
#     4  11  22  41  64  88 118 157 200 245 295 352
#     4   9  20  37  60  89 117 148 195 246 293 351
#     4  11  23  41  62  89 121 156 197 243 293 350
#
# _framework density 18.727242
#
# number of rings (size 3 to 8) (size 9 to 14) (size 15 to 20)
#    0.000    1.667    1.667    4.000    2.333    2.333 
#    0.000    5.833    0.000    0.000    0.000    0.000 
#    0.000    0.000    0.000    0.000    0.000    0.000 
#
# Total GULP energy -268155.057067 kJ/mol
# GULP energy per Si atom -5586.563689 kJ/mol
# Density = 1.868462 g / cm^3
# Si number density = 18.727242 Si / 1000 Ang^3
#
#
#
# Elastic Constant Matrix: (Units=GPa)
#
#
# Indices 1 2 3 4 5 6 
#
# 1 66.7877 29.8396 33.3786 0.0000 0.0000 0.0000
# 2 29.8396 108.1802 83.2763 0.0000 0.0000 0.0000
# 3 33.3786 83.2763 125.8632 0.0000 0.0000 0.0000
# 4 0.0000 0.0000 0.0000 38.7008 0.0000 0.0000
# 5 0.0000 0.0000 0.0000 0.0000 35.0146 0.0000
# 6 0.0000 0.0000 0.0000 0.0000 0.0000 22.0813
#
#
#
# Elastic Compliance Matrix: (Units=1/GPa)
#
#
# Indices 1 2 3 4 5 6 
#
# 1 0.017605 -0.002572 -0.002967 0.000000 0.000000 0.000000
# 2 -0.002572 0.019215 -0.012031 0.000000 0.000000 0.000000
# 3 -0.002967 -0.012031 0.016692 0.000000 0.000000 0.000000
# 4 0.000000 0.000000 0.000000 0.025839 0.000000 0.000000
# 5 0.000000 0.000000 0.000000 0.000000 0.028560 0.000000
# 6 0.000000 0.000000 0.000000 0.000000 0.000000 0.045287
#
#
# Mechanical properties :
#
#
# Convention : Reuss Voigt Hill
#
# Bulk Modulus (GPa) = 54.43223 65.98002 60.20612
# Shear Modulus (GPa) = 25.71192 29.44843 27.58018
#
# Velocity S-wave (km/s) = 3.70938 3.96977 3.84178
# Velocity P-wave (km/s) = 6.89020 7.50471 7.20401
#
# Compressibility (1/GPa) = 0.01837147
#
# Stress axis : x y z
#
# Youngs Moduli (GPa) = 56.80279 52.04310 59.90764
#
# Poissons Ratio (x) = 0.13385 0.17775
# Poissons Ratio (y) = 0.14610 0.72076
# Poissons Ratio (z) = 0.16853 0.62614
#
# Static dielectric constant tensor:
#      x y z
#    x 1.650360 0.000000 0.000000 
#    y 0.000000 1.623600 0.000000 
#    z 0.000000 0.000000 1.621820 
# 
# From -- ./inp_files/37740.got.cif
#   From: 2010.05.17/outbox.cif.g08.bks.cpg/sg53_19_cif.got.tgz:37740.got - 2010.06.03 12:45:16.
