data_PCOD9416949
_publ_section_title
;
Structure prediction by ZEFSAII (Michael W. Deem and Ramdas Pophale) SiO2 
 PCOD9416949
Probable space group: P M N A
;
_chemical_formula_sum "Si O2"
_cell_formula_units_Z 40
_cell_length_a 21.963726
_cell_length_b 10.695059
_cell_length_c 8.361900
_cell_angle_alpha 90.000000
_cell_angle_beta 90.000000
_cell_angle_gamma 90.000000
_cell_volume 1964.238284
_symmetry_space_group_name_H-M "P M N A"
_symmetry_group_IT_number 53
_symmetry_cell_setting 'orthorhombic'
loop_
_space_group_symop_operation_xyz
x,y,z
1/2-x,-y,1/2+z
x,-y,-z
1/2-x,y,1/2-z
-x,-y,-z
1/2+x,y,1/2-z
-x,y,z
1/2+x,-y,1/2+z
loop_
_atom_site_type_symbol
_atom_site_label
_atom_site_fract_x
_atom_site_fract_y
_atom_site_fract_z
Si Si1 0.872119 0.696784 0.233962
Si Si2 0.000000 0.341796 0.868479
Si Si3 0.000000 0.383991 0.245535
Si Si4 0.884353 0.761965 0.608099
Si Si5 0.184237 0.540924 0.685387
Si Si6 0.750000 0.161548 0.750000
Si Si7 0.173469 0.000000 0.500000
O O1 0.936355 0.730415 0.156709
O O2 0.881193 0.729188 0.420269
O O3 0.862440 0.547466 0.220215
O O4 0.807602 0.757896 0.183789
O O5 0.000000 0.462508 0.744231
O O6 0.000000 0.372922 0.054901
O O7 0.943225 0.307798 0.320867
O O8 0.830428 0.686289 0.694427
O O9 0.869655 0.908947 0.606732
O O10 0.181144 0.500000 0.500000
O O11 0.250000 0.513162 0.750000
O O12 0.782257 0.079936 0.613503
#
# Coordination Sequence:
#
# PCOD9416949 Si02
#       7
#     8   4   4   8   8   4   4
#     4  10  20  39  61  89 123 161 199 251 313 382
#     4  11  23  37  60  95 128 152 193 260 333 382
#     4  11  23  38  58  92 128 158 198 257 324 382
#     4  10  22  39  60  86 119 168 211 247 307 374
#     4  10  20  33  56  90 122 155 199 252 315 372
#     4  10  22  42  64  90 124 162 214 258 312 368
#     4  10  24  41  62  89 120 172 220 260 296 362
#
# _framework density 20.364127
#
# number of rings (size 3 to 8) (size 9 to 14) (size 15 to 20)
#    0.000    1.800    3.000    0.600    1.400    4.400 
#    0.000    1.000    0.000    5.400    0.000    0.000 
#    0.000    0.000    0.000    0.000    0.000    0.000 
#
# Total GULP energy -222697.725419 kJ/mol
# GULP energy per Si atom -5567.443135 kJ/mol
# Density = 2.031778 g / cm^3
# Si number density = 20.364127 Si / 1000 Ang^3
#
#
#
# Elastic Constant Matrix: (Units=GPa)
#
#
# Indices 1 2 3 4 5 6 
#
# 1 129.5405 39.1335 4.4877 0.0000 0.0000 0.0000
# 2 39.1335 102.0169 10.4640 0.0000 0.0000 0.0000
# 3 4.4877 10.4640 17.2757 0.0000 0.0000 0.0000
# 4 0.0000 0.0000 0.0000 10.8404 0.0000 0.0000
# 5 0.0000 0.0000 0.0000 0.0000 32.4091 0.0000
# 6 0.0000 0.0000 0.0000 0.0000 0.0000 17.3788
#
#
#
# Elastic Compliance Matrix: (Units=1/GPa)
#
#
# Indices 1 2 3 4 5 6 
#
# 1 0.008732 -0.003324 -0.000255 0.000000 0.000000 0.000000
# 2 -0.003324 0.011717 -0.006233 0.000000 0.000000 0.000000
# 3 -0.000255 -0.006233 0.061727 0.000000 0.000000 0.000000
# 4 0.000000 0.000000 0.000000 0.092248 0.000000 0.000000
# 5 0.000000 0.000000 0.000000 0.000000 0.030856 0.000000
# 6 0.000000 0.000000 0.000000 0.000000 0.000000 0.057541
#
#
# Mechanical properties :
#
#
# Convention : Reuss Voigt Hill
#
# Bulk Modulus (GPa) = 15.98694 39.66704 27.82699
# Shear Modulus (GPa) = 16.48558 25.10885 20.79721
#
# Velocity S-wave (km/s) = 2.84833 3.51521 3.19919
# Velocity P-wave (km/s) = 4.32260 5.99973 5.22885
#
# Compressibility (1/GPa) = 0.06255104
#
# Stress axis : x y z
#
# Youngs Moduli (GPa) = 114.51510 85.34912 16.20046
#
# Poissons Ratio (x) = 0.28366 0.00414
# Poissons Ratio (y) = 0.38060 0.10098
# Poissons Ratio (z) = 0.02924 0.53202
#
# Static dielectric constant tensor:
#      x y z
#    x 1.782410 0.000000 0.000000 
#    y 0.000000 1.796190 0.000000 
#    z 0.000000 0.000000 1.724230 
# 
# From -- ./inp_files/10842.got.cif
#   From: 2010.05.17/outbox.cif.g08.bks.cpg/sg53_6_cif.got.tgz:10842.got - 2010.06.03 12:45:16.
