data_PCOD9416731
_publ_section_title
;
Structure prediction by ZEFSAII (Michael W. Deem and Ramdas Pophale) SiO2 
 PCOD9416731
Probable space group: P M N A
;
_chemical_formula_sum "Si O2"
_cell_formula_units_Z 40
_cell_length_a 8.737280
_cell_length_b 9.385536
_cell_length_c 27.303738
_cell_angle_alpha 90.000000
_cell_angle_beta 90.000000
_cell_angle_gamma 90.000000
_cell_volume 2239.017259
_symmetry_space_group_name_H-M "P M N A"
_symmetry_group_IT_number 53
_symmetry_cell_setting 'orthorhombic'
loop_
_space_group_symop_operation_xyz
x,y,z
1/2-x,-y,1/2+z
x,-y,-z
1/2-x,y,1/2-z
-x,-y,-z
1/2+x,y,1/2-z
-x,y,z
1/2+x,-y,1/2+z
loop_
_atom_site_type_symbol
_atom_site_label
_atom_site_fract_x
_atom_site_fract_y
_atom_site_fract_z
Si Si1 0.683135 0.659515 0.700749
Si Si2 0.683081 0.663516 0.592365
Si Si3 0.684980 0.164008 0.001634
Si Si4 0.317141 0.661792 0.200668
Si Si5 0.684730 0.655533 0.092801
O O1 0.750000 0.729226 0.750000
O O2 0.500000 0.651225 0.704950
O O3 0.722725 0.719851 0.647133
O O4 0.751656 0.499423 0.699562
O O5 0.500000 0.660275 0.588641
O O6 0.752228 0.757211 0.549313
O O7 0.744729 0.501866 0.588170
O O8 0.500000 0.167808 0.003350
O O9 0.733292 0.247049 0.952469
O O10 0.733974 0.000000 0.000000
O O11 0.250000 0.730832 0.250000
O O12 0.500000 0.656749 0.205128
O O13 0.276727 0.718947 0.146584
O O14 0.500000 0.640647 0.091306
#
# Coordination Sequence:
#
# PCOD9416731 Si02
#       5
#     8   8   8   8   8
#     4   9  16  26  42  67  97 124 152 187 230 279
#     4  10  20  32  49  75 102 126 156 197 242 286
#     4  10  21  36  52  69  92 127 168 204 240 285
#     4   9  15  24  41  66  95 122 149 186 232 278
#     4   9  18  32  50  72  97 125 159 198 236 280
#
# _framework density 17.864979999999999
#
# number of rings (size 3 to 8) (size 9 to 14) (size 15 to 20)
#    0.000    2.600    0.000    3.600    0.000    6.800 
#    0.000    0.000    0.000    1.200    0.000    5.600 
#    0.000    0.000    0.000    0.000    0.000    0.000 
#
# Total GULP energy -222823.432970 kJ/mol
# GULP energy per Si atom -5570.585824 kJ/mol
# Density = 1.782432 g / cm^3
# Si number density = 17.864980 Si / 1000 Ang^3
#
#
#
# Elastic Constant Matrix: (Units=GPa)
#
#
# Indices 1 2 3 4 5 6 
#
# 1 35.8587 17.7331 52.6073 0.0000 0.0000 0.0000
# 2 17.7331 58.9405 71.7709 0.0000 0.0000 0.0000
# 3 52.6073 71.7709 233.9697 0.0000 0.0000 0.0000
# 4 0.0000 0.0000 0.0000 -4.3120 0.0000 0.0000
# 5 0.0000 0.0000 0.0000 0.0000 33.3709 0.0000
# 6 0.0000 0.0000 0.0000 0.0000 0.0000 1.9344
#
#
#
# Elastic Compliance Matrix: (Units=1/GPa)
#
#
# Indices 1 2 3 4 5 6 
#
# 1 0.041734 -0.001803 -0.008831 0.000000 0.000000 0.000000
# 2 -0.001803 0.027160 -0.007926 0.000000 0.000000 0.000000
# 3 -0.008831 -0.007926 0.008691 0.000000 0.000000 0.000000
# 4 0.000000 0.000000 0.000000 -0.231910 0.000000 0.000000
# 5 0.000000 0.000000 0.000000 0.000000 0.029966 0.000000
# 6 0.000000 0.000000 0.000000 0.000000 0.000000 0.516956
#
#
# Mechanical properties :
#
#
# Convention : Reuss Voigt Hill
#
# Bulk Modulus (GPa) = 24.71258 68.11017 46.41138
# Shear Modulus (GPa) = 11.28144 18.64250 14.96197
#
# Velocity S-wave (km/s) = 2.51566 3.23386 2.89710
# Velocity P-wave (km/s) = 4.72240 7.22160 6.10134
#
# Compressibility (1/GPa) = 0.04046522
#
# Stress axis : x y z
#
# Youngs Moduli (GPa) = 23.96120 36.81859 115.06299
#
# Poissons Ratio (x) = 0.06640 1.01607
# Poissons Ratio (y) = 0.04321 0.91199
# Poissons Ratio (z) = 0.21159 0.29182
#
# Static dielectric constant tensor:
#      x y z
#    x 1.601310 0.000000 0.000000 
#    y 0.000000 1.557770 0.000000 
#    z 0.000000 0.000000 1.684200 
# 
# From -- ./inp_files/36026.got.cif
#   From: 2010.05.17/outbox.cif.g08.bks.cpg/sg53_19_cif.got.tgz:36026.got - 2010.06.03 12:45:16.
