data_PCOD9416807
_publ_section_title
;
Structure prediction by ZEFSAII (Michael W. Deem and Ramdas Pophale) SiO2 
 PCOD9416807
Probable space group: P M N A
;
_chemical_formula_sum "Si O2"
_cell_formula_units_Z 64
_cell_length_a 15.090119
_cell_length_b 12.816276
_cell_length_c 14.464333
_cell_angle_alpha 90.000000
_cell_angle_beta 90.000000
_cell_angle_gamma 90.000000
_cell_volume 2797.389418
_symmetry_space_group_name_H-M "P M N A"
_symmetry_group_IT_number 53
_symmetry_cell_setting 'orthorhombic'
loop_
_space_group_symop_operation_xyz
x,y,z
1/2-x,-y,1/2+z
x,-y,-z
1/2-x,y,1/2-z
-x,-y,-z
1/2+x,y,1/2-z
-x,y,z
1/2+x,-y,1/2+z
loop_
_atom_site_type_symbol
_atom_site_label
_atom_site_fract_x
_atom_site_fract_y
_atom_site_fract_z
Si Si1 0.102268 0.791200 0.111894
Si Si2 0.108099 0.436505 0.870086
Si Si3 0.399206 0.663945 0.632624
Si Si4 0.608010 0.562958 0.155338
Si Si5 0.243925 0.045796 0.596286
Si Si6 0.748110 0.186236 0.355737
Si Si7 0.398623 0.335824 0.139949
Si Si8 0.398179 0.791169 0.163461
O O1 0.133180 0.673785 0.086120
O O2 0.168869 0.883275 0.085181
O O3 0.101446 0.785766 0.224645
O O4 0.000000 0.809288 0.083586
O O5 0.134144 0.551545 0.902792
O O6 0.136750 0.436461 0.762621
O O7 0.000000 0.436823 0.870998
O O8 0.500000 0.677793 0.602198
O O9 0.337821 0.758719 0.603080
O O10 0.402253 0.660601 0.746361
O O11 0.500000 0.560181 0.154553
O O12 0.635398 0.451954 0.112639
O O13 0.631727 0.678851 0.121948
O O14 0.169424 0.118506 0.638945
O O15 0.210965 0.000000 0.500000
O O16 0.261106 0.937247 0.647124
O O17 0.750000 0.221794 0.250000
O O18 0.836738 0.241362 0.393785
O O19 0.500000 0.322900 0.108213
O O20 0.500000 0.810862 0.134926
#
# Coordination Sequence:
#
# PCOD9416807 Si02
#       8
#     8   8   8   8   8   8   8   8
#     4   9  18  35  60  84 103 129 172 225 270 308
#     4   7  11  23  47  80 108 124 150 201 264 319
#     4   8  14  26  47  77 108 129 150 197 262 315
#     4   7  11  23  47  80 108 124 150 201 264 319
#     4  12  26  39  50  70 106 149 187 222 261 308
#     4  10  20  33  50  73  98 131 178 215 244 300
#     4   8  14  26  47  77 108 129 150 197 262 315
#     4   9  18  35  60  84 103 129 172 225 270 308
#
# _framework density 22.878473
#
# number of rings (size 3 to 8) (size 9 to 14) (size 15 to 20)
#    0.000    3.250    0.000    4.125    0.000    2.500 
#    0.000    6.250    0.000    3.000    0.000    5.250 
#    0.000    0.000    0.000    0.000    0.000    0.000 
#
# Total GULP energy -357022.556304 kJ/mol
# GULP energy per Si atom -5578.477442 kJ/mol
# Density = 2.282640 g / cm^3
# Si number density = 22.878473 Si / 1000 Ang^3
#
#
#
# Elastic Constant Matrix: (Units=GPa)
#
#
# Indices 1 2 3 4 5 6 
#
# 1 92.6284 107.9315 13.0426 0.0000 0.0000 0.0000
# 2 107.9315 230.9863 5.6423 0.0000 0.0000 0.0000
# 3 13.0426 5.6423 24.1657 0.0000 0.0000 0.0000
# 4 0.0000 0.0000 0.0000 26.0540 0.0000 0.0000
# 5 0.0000 0.0000 0.0000 0.0000 166.9330 0.0000
# 6 0.0000 0.0000 0.0000 0.0000 0.0000 29.1263
#
#
#
# Elastic Compliance Matrix: (Units=1/GPa)
#
#
# Indices 1 2 3 4 5 6 
#
# 1 0.026533 -0.012117 -0.011491 0.000000 0.000000 0.000000
# 2 -0.012117 0.009888 0.004231 0.000000 0.000000 0.000000
# 3 -0.011491 0.004231 0.046595 0.000000 0.000000 0.000000
# 4 0.000000 0.000000 0.000000 0.038382 0.000000 0.000000
# 5 0.000000 0.000000 0.000000 0.000000 0.005990 0.000000
# 6 0.000000 0.000000 0.000000 0.000000 0.000000 0.034333
#
#
# Mechanical properties :
#
#
# Convention : Reuss Voigt Hill
#
# Bulk Modulus (GPa) = 22.59298 66.77925 44.68611
# Shear Modulus (GPa) = 23.23109 59.16693 41.19901
#
# Velocity S-wave (km/s) = 3.19001 5.09093 4.24816
# Velocity P-wave (km/s) = 4.84406 7.98804 6.60582
#
# Compressibility (1/GPa) = 0.04426154
#
# Stress axis : x y z
#
# Youngs Moduli (GPa) = 37.68916 101.13472 21.46158
#
# Poissons Ratio (x) = 1.22546 0.24662
# Poissons Ratio (y) = 0.45668 -0.09081
# Poissons Ratio (z) = 0.43309 -0.42792
#
# Static dielectric constant tensor:
#      x y z
#    x 1.840680 0.000000 0.000000 
#    y 0.000000 1.882320 0.000000 
#    z 0.000000 0.000000 1.343190 
# 
# From -- ./inp_files/28528.got.cif
#   From: 2010.05.17/outbox.cif.g08.bks.cpg/sg53_15_cif.got.tgz:28528.got - 2010.06.03 12:45:16.
