data_PCOD9416694
_publ_section_title
;
Structure prediction by ZEFSAII (Michael W. Deem and Ramdas Pophale) SiO2 
 PCOD9416694
Probable space group: P M N A
;
_chemical_formula_sum "Si O2"
_cell_formula_units_Z 64
_cell_length_a 18.866877
_cell_length_b 14.336359
_cell_length_c 14.951349
_cell_angle_alpha 90.000000
_cell_angle_beta 90.000000
_cell_angle_gamma 90.000000
_cell_volume 4044.075593
_symmetry_space_group_name_H-M "P M N A"
_symmetry_group_IT_number 53
_symmetry_cell_setting 'orthorhombic'
loop_
_space_group_symop_operation_xyz
x,y,z
1/2-x,-y,1/2+z
x,-y,-z
1/2-x,y,1/2-z
-x,-y,-z
1/2+x,y,1/2-z
-x,y,z
1/2+x,-y,1/2+z
loop_
_atom_site_type_symbol
_atom_site_label
_atom_site_fract_x
_atom_site_fract_y
_atom_site_fract_z
Si Si1 0.922129 0.867021 0.389342
Si Si2 0.918781 0.051058 0.268888
Si Si3 0.419725 0.681013 0.233261
Si Si4 0.827659 0.984919 0.105250
Si Si5 0.784519 0.136572 0.342248
Si Si6 0.583830 0.597667 0.049343
Si Si7 0.311280 0.240453 0.988597
Si Si8 0.201506 0.226498 0.837511
O O1 0.921134 0.776552 0.325182
O O2 0.856794 0.849609 0.454992
O O3 0.000000 0.871318 0.433997
O O4 0.915082 0.955868 0.326306
O O5 0.886031 0.029993 0.171249
O O6 0.866720 0.120003 0.320944
O O7 0.000000 0.080951 0.263573
O O8 0.500000 0.664680 0.266533
O O9 0.401641 0.604198 0.156829
O O10 0.361722 0.704128 0.308413
O O11 0.754989 0.039856 0.130602
O O12 0.823560 0.875505 0.129389
O O13 0.841020 0.000000 0.000000
O O14 0.750000 0.167922 0.250000
O O15 0.775118 0.210129 0.420431
O O16 0.500000 0.620215 0.040636
O O17 0.632550 0.676476 0.005091
O O18 0.596122 0.500000 0.000000
O O19 0.253058 0.264421 0.914348
O O20 0.250000 0.211780 0.750000
#
# Coordination Sequence:
#
# PCOD9416694 Si02
#       8
#     8   8   8   8   8   8   8   8
#     4   9  16  26  42  68  95 121 156 202 255 304
#     4  10  20  32  45  65  97 132 174 226 264 299
#     4   9  17  29  46  71 106 138 163 203 263 318
#     4  11  20  31  46  68  96 141 183 218 264 306
#     4  10  22  35  47  63  96 137 181 218 252 305
#     4   9  18  33  54  81 109 130 152 199 270 340
#     4  11  19  31  52  72  97 133 171 206 255 315
#     4  12  18  28  49  77 103 133 176 221 261 311
#
# _framework density 15.825619
#
# number of rings (size 3 to 8) (size 9 to 14) (size 15 to 20)
#    0.000    1.875    5.000    3.000    0.000    1.250 
#    0.000    1.250    2.750    0.000    0.000    0.000 
#    0.000    0.500    0.000    0.000    0.000    0.000 
#
# Total GULP energy -356637.184797 kJ/mol
# GULP energy per Si atom -5572.456012 kJ/mol
# Density = 1.578960 g / cm^3
# Si number density = 15.825619 Si / 1000 Ang^3
#
#
#
# Elastic Constant Matrix: (Units=GPa)
#
#
# Indices 1 2 3 4 5 6 
#
# 1 88.2879 30.4227 38.3294 0.0000 0.0000 0.0000
# 2 30.4227 47.6182 35.2192 0.0000 0.0000 0.0000
# 3 38.3294 35.2192 94.2895 0.0000 0.0000 0.0000
# 4 0.0000 0.0000 0.0000 19.4079 0.0000 0.0000
# 5 0.0000 0.0000 0.0000 0.0000 8.1896 0.0000
# 6 0.0000 0.0000 0.0000 0.0000 0.0000 14.1905
#
#
#
# Elastic Compliance Matrix: (Units=1/GPa)
#
#
# Indices 1 2 3 4 5 6 
#
# 1 0.015342 -0.007170 -0.003559 0.000000 0.000000 0.000000
# 2 -0.007170 0.032367 -0.009175 0.000000 0.000000 0.000000
# 3 -0.003559 -0.009175 0.015479 0.000000 0.000000 0.000000
# 4 0.000000 0.000000 0.000000 0.051525 0.000000 0.000000
# 5 0.000000 0.000000 0.000000 0.000000 0.122107 0.000000
# 6 0.000000 0.000000 0.000000 0.000000 0.000000 0.070470
#
#
# Mechanical properties :
#
#
# Convention : Reuss Voigt Hill
#
# Bulk Modulus (GPa) = 42.76920 48.68204 45.72562
# Shear Modulus (GPa) = 14.08878 16.77254 15.43066
#
# Velocity S-wave (km/s) = 2.98695 3.25904 3.12596
# Velocity P-wave (km/s) = 6.24338 6.70747 6.47958
#
# Compressibility (1/GPa) = 0.02338131
#
# Stress axis : x y z
#
# Youngs Moduli (GPa) = 65.17987 30.89527 64.60196
#
# Poissons Ratio (x) = 0.22152 0.22989
# Poissons Ratio (y) = 0.46734 0.59274
# Poissons Ratio (z) = 0.23195 0.28347
#
# Static dielectric constant tensor:
#      x y z
#    x 1.569280 0.000000 0.000000 
#    y 0.000000 1.518630 0.000000 
#    z 0.000000 0.000000 1.541820 
# 
# From -- ./inp_files/23982.got.cif
#   From: 2010.05.17/outbox.cif.g08.bks.cpg/sg53_12_cif.got.tgz:23982.got - 2010.06.03 12:45:16.
