data_PCOD9416773
_publ_section_title
;
Structure prediction by ZEFSAII (Michael W. Deem and Ramdas Pophale) SiO2 
 PCOD9416773
Probable space group: P M N A
;
_chemical_formula_sum "Si O2"
_cell_formula_units_Z 56
_cell_length_a 7.636502
_cell_length_b 18.343036
_cell_length_c 20.025515
_cell_angle_alpha 90.000000
_cell_angle_beta 90.000000
_cell_angle_gamma 90.000000
_cell_volume 2805.106677
_symmetry_space_group_name_H-M "P M N A"
_symmetry_group_IT_number 53
_symmetry_cell_setting 'orthorhombic'
loop_
_space_group_symop_operation_xyz
x,y,z
1/2-x,-y,1/2+z
x,-y,-z
1/2-x,y,1/2-z
-x,-y,-z
1/2+x,y,1/2-z
-x,y,z
1/2+x,-y,1/2+z
loop_
_atom_site_type_symbol
_atom_site_label
_atom_site_fract_x
_atom_site_fract_y
_atom_site_fract_z
Si Si1 0.214206 0.033521 0.071667
Si Si2 0.205435 0.389954 0.574621
Si Si3 0.710847 0.517533 0.828590
Si Si4 0.790266 0.912311 0.173804
Si Si5 0.290035 0.805482 0.551294
Si Si6 0.209726 0.643358 0.575122
Si Si7 0.212106 0.771240 0.099445
O O1 0.274358 0.117117 0.078857
O O2 0.000000 0.034524 0.073405
O O3 0.276704 0.977550 0.127600
O O4 0.262564 0.000000 0.000000
O O5 0.277503 0.451278 0.624422
O O6 0.278176 0.381436 0.498701
O O7 0.222913 0.310690 0.608194
O O8 0.000000 0.406795 0.565936
O O9 0.750000 0.512251 0.750000
O O10 0.500000 0.516457 0.832255
O O11 0.773150 0.591343 0.865508
O O12 0.750000 0.925760 0.250000
O O13 0.726148 0.832888 0.150358
O O14 0.000000 0.910479 0.164612
O O15 0.500000 0.809878 0.549920
O O16 0.245614 0.728905 0.585504
O O17 0.231564 0.796959 0.474431
O O18 0.000000 0.636066 0.571882
O O19 0.000000 0.768071 0.100310
#
# Coordination Sequence:
#
# PCOD9416773 Si02
#       7
#     8   8   8   8   8   8   8
#     4   9  15  29  54  76  95 127 171 210 244 288
#     4   9  18  33  54  76  99 129 167 206 248 298
#     4  10  21  36  53  73  99 134 171 206 248 300
#     4  10  20  33  49  71 102 137 169 203 247 300
#     4   9  16  29  53  80  98 120 165 214 249 288
#     4   9  18  34  54  75 101 131 164 205 254 302
#     4   9  17  30  49  74 100 127 161 204 249 294
#
# _framework density 19.96359
#
# number of rings (size 3 to 8) (size 9 to 14) (size 15 to 20)
#    0.000    2.714    1.429    0.429    0.000    4.000 
#    0.000    4.286    0.000    8.571    0.000    0.000 
#    0.000    0.000    0.000    0.000    0.000    0.000 
#
# Total GULP energy -312265.843230 kJ/mol
# GULP energy per Si atom -5576.175772 kJ/mol
# Density = 1.991815 g / cm^3
# Si number density = 19.963590 Si / 1000 Ang^3
#
#
#
# Elastic Constant Matrix: (Units=GPa)
#
#
# Indices 1 2 3 4 5 6 
#
# 1 34.1043 -1.0986 -3.7630 0.0000 0.0000 0.0000
# 2 -1.0986 139.6928 64.3091 0.0000 0.0000 0.0000
# 3 -3.7630 64.3091 83.3885 0.0000 0.0000 0.0000
# 4 0.0000 0.0000 0.0000 27.1493 0.0000 0.0000
# 5 0.0000 0.0000 0.0000 0.0000 18.0819 0.0000
# 6 0.0000 0.0000 0.0000 0.0000 0.0000 10.6151
#
#
#
# Elastic Compliance Matrix: (Units=1/GPa)
#
#
# Indices 1 2 3 4 5 6 
#
# 1 0.029500 -0.000590 0.001787 0.000000 0.000000 0.000000
# 2 -0.000590 0.011111 -0.008595 0.000000 0.000000 0.000000
# 3 0.001787 -0.008595 0.018701 0.000000 0.000000 0.000000
# 4 0.000000 0.000000 0.000000 0.036833 0.000000 0.000000
# 5 0.000000 0.000000 0.000000 0.000000 0.055304 0.000000
# 6 0.000000 0.000000 0.000000 0.000000 0.000000 0.094206
#
#
# Mechanical properties :
#
#
# Convention : Reuss Voigt Hill
#
# Bulk Modulus (GPa) = 22.46498 41.78672 32.12585
# Shear Modulus (GPa) = 18.16255 24.35179 21.25717
#
# Velocity S-wave (km/s) = 3.01953 3.49637 3.26666
# Velocity P-wave (km/s) = 4.84089 6.10544 5.50956
#
# Compressibility (1/GPa) = 0.04451373
#
# Stress axis : x y z
#
# Youngs Moduli (GPa) = 33.89844 90.00185 53.47190
#
# Poissons Ratio (x) = 0.05314 -0.09553
# Poissons Ratio (y) = 0.02002 0.45961
# Poissons Ratio (z) = -0.06056 0.77360
#
# Static dielectric constant tensor:
#      x y z
#    x 1.766400 0.000000 0.000000 
#    y 0.000000 1.719930 0.000000 
#    z 0.000000 0.000000 1.679060 
# 
# From -- ./inp_files/21860.got.cif
#   From: 2010.05.17/outbox.cif.g08.bks.cpg/sg53_11_cif.got.tgz:21860.got - 2010.06.03 12:45:16.
