data_PCOD9416531
_publ_section_title
;
Structure prediction by ZEFSAII (Michael W. Deem and Ramdas Pophale) SiO2 
 PCOD9416531
Probable space group: P M N A
;
_chemical_formula_sum "Si O2"
_cell_formula_units_Z 48
_cell_length_a 16.517488
_cell_length_b 14.626375
_cell_length_c 9.860858
_cell_angle_alpha 90.000000
_cell_angle_beta 90.000000
_cell_angle_gamma 90.000000
_cell_volume 2382.294284
_symmetry_space_group_name_H-M "P M N A"
_symmetry_group_IT_number 53
_symmetry_cell_setting 'orthorhombic'
loop_
_space_group_symop_operation_xyz
x,y,z
1/2-x,-y,1/2+z
x,-y,-z
1/2-x,y,1/2-z
-x,-y,-z
1/2+x,y,1/2-z
-x,y,z
1/2+x,-y,1/2+z
loop_
_atom_site_type_symbol
_atom_site_label
_atom_site_fract_x
_atom_site_fract_y
_atom_site_fract_z
Si Si1 0.168000 0.104622 0.338822
Si Si2 0.910825 0.708977 0.740249
Si Si3 0.324244 0.395054 0.469463
Si Si4 0.651822 0.713697 0.272154
Si Si5 0.667436 0.099429 0.837922
Si Si6 0.369579 0.603096 0.017386
O O1 0.250000 0.105926 0.250000
O O2 0.116055 0.186463 0.276856
O O3 0.183070 0.119467 0.501404
O O4 0.131042 0.002411 0.328803
O O5 0.850587 0.644892 0.825641
O O6 0.910297 0.668881 0.589644
O O7 0.000000 0.702310 0.801022
O O8 0.349479 0.500000 0.500000
O O9 0.360578 0.323789 0.578152
O O10 0.227117 0.393695 0.486518
O O11 0.750000 0.715295 0.250000
O O12 0.622408 0.814298 0.228978
O O13 0.618115 0.639969 0.167580
O O14 0.750000 0.093017 0.750000
O O15 0.397169 0.500000 0.000000
#
# Coordination Sequence:
#
# PCOD9416531 Si02
#       6
#     8   8   8   8   8   8
#     4  10  20  36  61  87 114 148 193 245 295 345
#     4  12  25  38  54  83 123 163 194 225 285 354
#     4  10  21  38  62  87 113 148 193 246 291 338
#     4   9  17  31  56  87 112 136 181 245 299 338
#     4   9  18  33  58  94 112 138 191 250 305 334
#     4  10  19  36  62  87 110 142 194 248 293 333
#
# _framework density 20.148644000000001
#
# number of rings (size 3 to 8) (size 9 to 14) (size 15 to 20)
#    0.000    2.000    1.667    2.500    4.667    3.333 
#    0.000    2.500    0.000    1.000    0.000    0.000 
#    0.000    0.000    0.000    0.000    0.000    0.000 
#
# Total GULP energy -267684.350824 kJ/mol
# GULP energy per Si atom -5576.757309 kJ/mol
# Density = 2.010279 g / cm^3
# Si number density = 20.148644 Si / 1000 Ang^3
#
#
#
# Elastic Constant Matrix: (Units=GPa)
#
#
# Indices 1 2 3 4 5 6 
#
# 1 24.0099 15.3473 1.6119 0.0000 0.0000 0.0000
# 2 15.3473 140.3103 10.0654 0.0000 0.0000 0.0000
# 3 1.6119 10.0654 66.4864 0.0000 0.0000 0.0000
# 4 0.0000 0.0000 0.0000 35.0443 0.0000 0.0000
# 5 0.0000 0.0000 0.0000 0.0000 170.5105 0.0000
# 6 0.0000 0.0000 0.0000 0.0000 0.0000 -101.6803
#
#
#
# Elastic Compliance Matrix: (Units=1/GPa)
#
#
# Indices 1 2 3 4 5 6 
#
# 1 0.044788 -0.004874 -0.000348 0.000000 0.000000 0.000000
# 2 -0.004874 0.007736 -0.001053 0.000000 0.000000 0.000000
# 3 -0.000348 -0.001053 0.015209 0.000000 0.000000 0.000000
# 4 0.000000 0.000000 0.000000 0.028535 0.000000 0.000000
# 5 0.000000 0.000000 0.000000 0.000000 0.005865 0.000000
# 6 0.000000 0.000000 0.000000 0.000000 0.000000 -0.009835
#
#
# Mechanical properties :
#
#
# Convention : Reuss Voigt Hill
#
# Bulk Modulus (GPa) = 18.12159 31.65062 24.88610
# Shear Modulus (GPa) = 40.57053 34.36035 37.46544
#
# Velocity S-wave (km/s) = 4.49214 4.13406 4.31681
# Velocity P-wave (km/s) = 5.99327 6.20725 6.10120
#
# Compressibility (1/GPa) = 0.05518281
#
# Stress axis : x y z
#
# Youngs Moduli (GPa) = 22.32719 129.27037 65.75260
#
# Poissons Ratio (x) = 0.63007 0.02288
# Poissons Ratio (y) = 0.10882 0.06923
# Poissons Ratio (z) = 0.00777 0.13612
#
# Static dielectric constant tensor:
#      x y z
#    x 1.751830 0.000000 0.000000 
#    y 0.000000 1.737790 0.000000 
#    z 0.000000 0.000000 1.679070 
# 
# From -- ./inp_files/10004.got.cif
#   From: 2010.05.17/outbox.cif.g08.bks.cpg/sg53_6_cif.got.tgz:10004.got - 2010.06.03 12:45:16.
