data_PCOD9416479
_publ_section_title
;
Structure prediction by ZEFSAII (Michael W. Deem and Ramdas Pophale) SiO2 
 PCOD9416479
Probable space group: P M N A
;
_chemical_formula_sum "Si O2"
_cell_formula_units_Z 56
_cell_length_a 7.915161
_cell_length_b 23.576757
_cell_length_c 14.661657
_cell_angle_alpha 90.000000
_cell_angle_beta 90.000000
_cell_angle_gamma 90.000000
_cell_volume 2736.067930
_symmetry_space_group_name_H-M "P M N A"
_symmetry_group_IT_number 53
_symmetry_cell_setting 'orthorhombic'
loop_
_space_group_symop_operation_xyz
x,y,z
1/2-x,-y,1/2+z
x,-y,-z
1/2-x,y,1/2-z
-x,-y,-z
1/2+x,y,1/2-z
-x,y,z
1/2+x,-y,1/2+z
loop_
_atom_site_type_symbol
_atom_site_label
_atom_site_fract_x
_atom_site_fract_y
_atom_site_fract_z
Si Si1 0.306788 0.198939 0.521330
Si Si2 0.691542 0.889592 0.152063
Si Si3 0.296005 0.137371 0.351311
Si Si4 0.296899 0.531676 0.644214
Si Si5 0.795866 0.698618 0.143732
Si Si6 0.293683 0.416098 0.544302
Si Si7 0.197220 0.989607 0.891985
O O1 0.500000 0.216674 0.503605
O O2 0.305224 0.139754 0.576272
O O3 0.227377 0.181767 0.425222
O O4 0.232125 0.246836 0.586940
O O5 0.750000 0.868222 0.250000
O O6 0.500000 0.873213 0.133604
O O7 0.707738 0.957246 0.150622
O O8 0.250000 0.154157 0.250000
O O9 0.500000 0.135066 0.361817
O O10 0.235449 0.072745 0.368537
O O11 0.250000 0.542178 0.750000
O O12 0.500000 0.532114 0.642183
O O13 0.241349 0.469615 0.607164
O O14 0.240526 0.573491 0.561294
O O15 0.750000 0.699769 0.250000
O O16 0.737293 0.641842 0.091760
O O17 0.000000 0.699206 0.141399
O O18 0.500000 0.415977 0.543774
O O19 0.000000 0.992902 0.864117
O O20 0.205604 0.000000 0.000000
#
# Coordination Sequence:
#
# PCOD9416479 Si02
#       7
#     8   8   8   8   8   8   8
#     4  10  21  39  57  75 102 137 174 216 264 312
#     4  12  24  36  54  79 107 136 170 210 258 316
#     4  10  21  37  57  77 101 134 170 209 259 312
#     4   9  16  29  50  75 109 144 180 217 261 311
#     4  10  20  35  57  79 103 135 177 218 263 315
#     4   8  16  31  50  75 106 145 179 214 262 320
#     4  10  19  36  58  78 105 135 165 209 262 316
#
# _framework density 20.467328999999999
#
# number of rings (size 3 to 8) (size 9 to 14) (size 15 to 20)
#    0.000    2.143    1.429    3.429    0.000    4.286 
#    0.000    2.857    0.000    0.000    0.000    0.000 
#    0.000    0.000    0.000    0.000    0.000    0.000 
#
# Total GULP energy -312439.427732 kJ/mol
# GULP energy per Si atom -5579.275495 kJ/mol
# Density = 2.042074 g / cm^3
# Si number density = 20.467329 Si / 1000 Ang^3
#
#
#
# Elastic Constant Matrix: (Units=GPa)
#
#
# Indices 1 2 3 4 5 6 
#
# 1 28.8071 6.5363 3.9669 0.0000 0.0000 0.0000
# 2 6.5363 121.5054 84.7751 0.0000 0.0000 0.0000
# 3 3.9669 84.7751 192.5529 0.0000 0.0000 0.0000
# 4 0.0000 0.0000 0.0000 3.8606 0.0000 0.0000
# 5 0.0000 0.0000 0.0000 0.0000 26.2317 0.0000
# 6 0.0000 0.0000 0.0000 0.0000 0.0000 6.6798
#
#
#
# Elastic Compliance Matrix: (Units=1/GPa)
#
#
# Indices 1 2 3 4 5 6 
#
# 1 0.035146 -0.002000 0.000156 0.000000 0.000000 0.000000
# 2 -0.002000 0.011993 -0.005239 0.000000 0.000000 0.000000
# 3 0.000156 -0.005239 0.007497 0.000000 0.000000 0.000000
# 4 0.000000 0.000000 0.000000 0.259028 0.000000 0.000000
# 5 0.000000 0.000000 0.000000 0.000000 0.038122 0.000000
# 6 0.000000 0.000000 0.000000 0.000000 0.000000 0.149705
#
#
# Mechanical properties :
#
#
# Convention : Reuss Voigt Hill
#
# Bulk Modulus (GPa) = 24.70912 59.26911 41.98911
# Shear Modulus (GPa) = 9.44920 23.86022 16.65471
#
# Velocity S-wave (km/s) = 2.15099 3.41804 2.85568
# Velocity P-wave (km/s) = 4.27407 6.67818 5.60651
#
# Compressibility (1/GPa) = 0.04047089
#
# Stress axis : x y z
#
# Youngs Moduli (GPa) = 28.45282 83.38285 133.39242
#
# Poissons Ratio (x) = 0.16675 -0.02086
# Poissons Ratio (y) = 0.05690 0.69883
# Poissons Ratio (z) = -0.00445 0.43683
#
# Static dielectric constant tensor:
#      x y z
#    x 1.753750 0.000000 0.000000 
#    y 0.000000 1.730670 0.000000 
#    z 0.000000 0.000000 1.734520 
# 
# From -- ./inp_files/20510.got.cif
#   From: 2010.05.17/outbox.cif.g08.bks.cpg/sg53_11_cif.got.tgz:20510.got - 2010.06.03 12:45:16.
