data_PCOD9416858
_publ_section_title
;
Structure prediction by ZEFSAII (Michael W. Deem and Ramdas Pophale) SiO2 
 PCOD9416858
Probable space group: P M N A
;
_chemical_formula_sum "Si O2"
_cell_formula_units_Z 48
_cell_length_a 8.804027
_cell_length_b 31.994241
_cell_length_c 9.172231
_cell_angle_alpha 90.000000
_cell_angle_beta 90.000000
_cell_angle_gamma 90.000000
_cell_volume 2583.617166
_symmetry_space_group_name_H-M "P M N A"
_symmetry_group_IT_number 53
_symmetry_cell_setting 'orthorhombic'
loop_
_space_group_symop_operation_xyz
x,y,z
1/2-x,-y,1/2+z
x,-y,-z
1/2-x,y,1/2-z
-x,-y,-z
1/2+x,y,1/2-z
-x,y,z
1/2+x,-y,1/2+z
loop_
_atom_site_type_symbol
_atom_site_label
_atom_site_fract_x
_atom_site_fract_y
_atom_site_fract_z
Si Si1 0.181858 0.957692 0.411450
Si Si2 0.181870 0.796021 0.089452
Si Si3 0.318451 0.373908 0.086689
Si Si4 0.317836 0.280962 0.086751
Si Si5 0.317987 0.880086 0.588380
Si Si6 0.318249 0.541705 0.587864
O O1 0.250000 0.960019 0.250000
O O2 0.250685 0.918362 0.496555
O O3 0.000000 0.953424 0.402944
O O4 0.217177 0.000000 0.500000
O O5 0.250000 0.800965 0.250000
O O6 0.000000 0.792623 0.098137
O O7 0.249178 0.755069 0.012634
O O8 0.219353 0.836664 0.992522
O O9 0.250000 0.372908 0.250000
O O10 0.500000 0.378470 0.093857
O O11 0.283319 0.327719 0.026625
O O12 0.247184 0.415547 0.018218
O O13 0.250000 0.277559 0.250000
O O14 0.500000 0.276928 0.095762
O O15 0.250000 0.880267 0.750000
O O16 0.500000 0.883967 0.595802
O O17 0.278382 0.500000 0.500000
O O18 0.250000 0.538241 0.750000
O O19 0.500000 0.545099 0.596904
#
# Coordination Sequence:
#
# PCOD9416858 Si02
#       6
#     8   8   8   8   8   8
#     4  11  24  41  63  91 123 159 198 241 289 341
#     4  11  24  40  59  84 115 151 188 230 281 336
#     4   9  17  30  51  77 104 137 176 219 268 321
#     4  10  20  35  57  84 111 142 183 228 275 329
#     4  11  24  41  63  90 119 153 194 239 286 337
#     4  10  20  33  51  76 104 137 177 220 268 322
#
# _framework density 18.578603000000001
#
# number of rings (size 3 to 8) (size 9 to 14) (size 15 to 20)
#    0.000    1.667    0.000    5.500    0.000   11.333 
#    0.000    0.833    0.000    2.000    0.000    0.000 
#    0.000    0.000    0.000    0.000    0.000    0.000 
#
# Total GULP energy -268137.393238 kJ/mol
# GULP energy per Si atom -5586.195692 kJ/mol
# Density = 1.853632 g / cm^3
# Si number density = 18.578603 Si / 1000 Ang^3
#
#
#
# Elastic Constant Matrix: (Units=GPa)
#
#
# Indices 1 2 3 4 5 6 
#
# 1 77.7986 92.2886 55.6531 0.0000 0.0000 0.0000
# 2 92.2886 216.7193 96.8966 0.0000 0.0000 0.0000
# 3 55.6531 96.8966 129.6036 0.0000 0.0000 0.0000
# 4 0.0000 0.0000 0.0000 33.0033 0.0000 0.0000
# 5 0.0000 0.0000 0.0000 0.0000 30.3694 0.0000
# 6 0.0000 0.0000 0.0000 0.0000 0.0000 35.8707
#
#
#
# Elastic Compliance Matrix: (Units=1/GPa)
#
#
# Indices 1 2 3 4 5 6 
#
# 1 0.027702 -0.009731 -0.004620 0.000000 0.000000 0.000000
# 2 -0.009731 0.010349 -0.003559 0.000000 0.000000 0.000000
# 3 -0.004620 -0.003559 0.012361 0.000000 0.000000 0.000000
# 4 0.000000 0.000000 0.000000 0.030300 0.000000 0.000000
# 5 0.000000 0.000000 0.000000 0.000000 0.032928 0.000000
# 6 0.000000 0.000000 0.000000 0.000000 0.000000 0.027878
#
#
# Mechanical properties :
#
#
# Convention : Reuss Voigt Hill
#
# Bulk Modulus (GPa) = 68.53250 101.53313 85.03281
# Shear Modulus (GPa) = 27.44193 31.80090 29.62142
#
# Velocity S-wave (km/s) = 3.84744 4.14175 3.99730
# Velocity P-wave (km/s) = 7.53027 8.81143 8.19592
#
# Compressibility (1/GPa) = 0.01459162
#
# Stress axis : x y z
#
# Youngs Moduli (GPa) = 36.09805 96.62364 80.90151
#
# Poissons Ratio (x) = 0.94025 0.37379
# Poissons Ratio (y) = 0.35127 0.28793
# Poissons Ratio (z) = 0.16679 0.34388
#
# Static dielectric constant tensor:
#      x y z
#    x 1.620270 0.000000 0.000000 
#    y 0.000000 1.661530 0.000000 
#    z 0.000000 0.000000 1.604910 
# 
# From -- ./inp_files/6674.got.cif
#   From: 2010.05.17/outbox.cif.g08.bks.cpg/sg53_4_cif.got.tgz:6674.got - 2010.06.03 12:45:16.
