data_PCOD9416193
_publ_section_title
;
Structure prediction by ZEFSAII (Michael W. Deem and Ramdas Pophale) SiO2 
 PCOD9416193
Probable space group: P M N A
;
_chemical_formula_sum "Si O2"
_cell_formula_units_Z 40
_cell_length_a 15.163023
_cell_length_b 14.715611
_cell_length_c 8.139102
_cell_angle_alpha 90.000000
_cell_angle_beta 90.000000
_cell_angle_gamma 90.000000
_cell_volume 1816.103452
_symmetry_space_group_name_H-M "P M N A"
_symmetry_group_IT_number 53
_symmetry_cell_setting 'orthorhombic'
loop_
_space_group_symop_operation_xyz
x,y,z
1/2-x,-y,1/2+z
x,-y,-z
1/2-x,y,1/2-z
-x,-y,-z
1/2+x,y,1/2-z
-x,y,z
1/2+x,-y,1/2+z
loop_
_atom_site_type_symbol
_atom_site_label
_atom_site_fract_x
_atom_site_fract_y
_atom_site_fract_z
Si Si1 0.848372 0.606170 0.304047
Si Si2 0.894595 0.596183 0.685512
Si Si3 0.899717 0.795994 0.193471
Si Si4 0.608057 0.104926 0.016328
Si Si5 0.891653 0.783654 0.835931
O O1 0.750000 0.625113 0.250000
O O2 0.858379 0.607558 0.500997
O O3 0.872141 0.503946 0.250220
O O4 0.902904 0.688035 0.225935
O O5 0.864711 0.680079 0.796412
O O6 0.000000 0.601260 0.669031
O O7 0.859778 0.841052 0.355537
O O8 0.000000 0.831453 0.184237
O O9 0.858844 0.812795 0.015096
O O10 0.500000 0.110026 0.018702
O O11 0.636339 0.152999 0.185028
O O12 0.632675 0.000000 0.000000
O O13 0.000000 0.784122 0.840991
#
# Coordination Sequence:
#
# PCOD9416193 Si02
#       5
#     8   8   8   8   8
#     4  11  22  34  54  84 113 149 191 241 288 344
#     4  10  20  38  59  78 115 164 200 234 291 362
#     4  10  19  34  56  81 112 149 190 233 286 350
#     4   9  17  31  53  83 115 142 180 240 293 334
#     4   9  18  31  53  83 109 144 188 229 280 340
#
# _framework density 22.025176999999999
#
# number of rings (size 3 to 8) (size 9 to 14) (size 15 to 20)
#    0.000    2.200    2.000    2.400    0.000    4.800 
#    0.000    7.000    0.000    0.000    5.200    0.000 
#    0.000    0.000    0.000    0.000    0.000    0.000 
#
# Total GULP energy -223469.816798 kJ/mol
# GULP energy per Si atom -5586.745420 kJ/mol
# Density = 2.197505 g / cm^3
# Si number density = 22.025177 Si / 1000 Ang^3
#
#
#
# Elastic Constant Matrix: (Units=GPa)
#
#
# Indices 1 2 3 4 5 6 
#
# 1 50.4349 -9.0454 5.1572 0.0000 0.0000 0.0000
# 2 -9.0454 128.9458 86.7581 0.0000 0.0000 0.0000
# 3 5.1572 86.7581 180.9537 0.0000 0.0000 0.0000
# 4 0.0000 0.0000 0.0000 -7.5193 0.0000 0.0000
# 5 0.0000 0.0000 0.0000 0.0000 -78.8549 0.0000
# 6 0.0000 0.0000 0.0000 0.0000 0.0000 19.3324
#
#
#
# Elastic Compliance Matrix: (Units=1/GPa)
#
#
# Indices 1 2 3 4 5 6 
#
# 1 0.020505 0.002704 -0.001881 0.000000 0.000000 0.000000
# 2 0.002704 0.011805 -0.005737 0.000000 0.000000 0.000000
# 3 -0.001881 -0.005737 0.008330 0.000000 0.000000 0.000000
# 4 0.000000 0.000000 0.000000 -0.132990 0.000000 0.000000
# 5 0.000000 0.000000 0.000000 0.000000 -0.012682 0.000000
# 6 0.000000 0.000000 0.000000 0.000000 0.000000 0.051727
#
#
# Mechanical properties :
#
#
# Convention : Reuss Voigt Hill
#
# Bulk Modulus (GPa) = 32.45451 58.45270 45.45361
# Shear Modulus (GPa) = -150.57094 5.08927 -72.74083
#
# Velocity S-wave (km/s) = -8.27717 1.52174 -5.75308
# Velocity P-wave (km/s) = 8.75109 5.44832 4.84238
#
# Compressibility (1/GPa) = 0.03081236
#
# Stress axis : x y z
#
# Youngs Moduli (GPa) = 48.76916 84.71164 120.04230
#
# Poissons Ratio (x) = -0.22904 0.22576
# Poissons Ratio (y) = -0.13186 0.68866
# Poissons Ratio (z) = 0.09172 0.48598
#
# Static dielectric constant tensor:
#      x y z
#    x 1.809550 0.000000 0.000000 
#    y 0.000000 1.585470 0.000000 
#    z 0.000000 0.000000 1.797060 
# 
# From -- ./inp_files/8422.got.cif
#   From: 2010.05.17/outbox.cif.g08.bks.cpg/sg53_5_cif.got.tgz:8422.got - 2010.06.03 12:45:16.
