data_PCOD9416881
_publ_section_title
;
Structure prediction by ZEFSAII (Michael W. Deem and Ramdas Pophale) SiO2 
 PCOD9416881
Probable space group: P M N A
;
_chemical_formula_sum "Si O2"
_cell_formula_units_Z 64
_cell_length_a 8.213781
_cell_length_b 21.489222
_cell_length_c 19.358444
_cell_angle_alpha 90.000000
_cell_angle_beta 90.000000
_cell_angle_gamma 90.000000
_cell_volume 3416.915653
_symmetry_space_group_name_H-M "P M N A"
_symmetry_group_IT_number 53
_symmetry_cell_setting 'orthorhombic'
loop_
_space_group_symop_operation_xyz
x,y,z
1/2-x,-y,1/2+z
x,-y,-z
1/2-x,y,1/2-z
-x,-y,-z
1/2+x,y,1/2-z
-x,y,z
1/2+x,-y,1/2+z
loop_
_atom_site_type_symbol
_atom_site_label
_atom_site_fract_x
_atom_site_fract_y
_atom_site_fract_z
Si Si1 0.303479 0.954861 0.169878
Si Si2 0.195486 0.670579 0.929987
Si Si3 0.801264 0.529304 0.926581
Si Si4 0.194362 0.299924 0.583539
Si Si5 0.694931 0.088829 0.169780
Si Si6 0.195356 0.418644 0.828801
Si Si7 0.194101 0.778005 0.829436
Si Si8 0.802917 0.181309 0.670175
O O1 0.250000 0.955149 0.250000
O O2 0.500000 0.955136 0.166954
O O3 0.248201 0.887166 0.143748
O O4 0.248505 0.021806 0.140074
O O5 0.256903 0.600105 0.919135
O O6 0.259105 0.721358 0.875654
O O7 0.000000 0.668294 0.922251
O O8 0.233246 0.691464 0.007683
O O9 0.750566 0.482244 0.866376
O O10 0.000000 0.530724 0.927117
O O11 0.750838 0.500000 0.000000
O O12 0.237076 0.360031 0.629133
O O13 0.254931 0.238224 0.623201
O O14 0.000000 0.295464 0.577100
O O15 0.750000 0.088865 0.250000
O O16 0.500000 0.090315 0.167765
O O17 0.756803 0.154269 0.141006
O O18 0.250000 0.416471 0.750000
O O19 0.000000 0.415871 0.832299
O O20 0.250000 0.773182 0.750000
O O21 0.000000 0.775684 0.829126
O O22 0.750000 0.188948 0.750000
O O23 0.000000 0.181972 0.669790
#
# Coordination Sequence:
#
# PCOD9416881 Si02
#       8
#     8   8   8   8   8   8   8   8
#     4   8  14  25  42  66  95 129 167 208 251 301
#     4  10  21  38  58  78 101 138 178 211 257 314
#     4   9  17  35  60  78  97 134 175 210 253 306
#     4  11  22  35  53  78 107 140 176 216 260 309
#     4   9  15  25  45  70  98 130 166 207 255 304
#     4  11  22  37  58  82 110 139 174 217 261 312
#     4  10  20  33  52  77 106 134 167 211 261 313
#     4   9  18  31  47  71 103 135 171 213 258 302
#
# _framework density 18.730343000000001
#
# number of rings (size 3 to 8) (size 9 to 14) (size 15 to 20)
#    0.000    2.375    1.250    2.625    0.000    4.000 
#    0.000    1.875    0.000    0.750    0.000    5.250 
#    0.000    0.000    0.000    0.000    0.000    0.000 
#
# Total GULP energy -356740.513805 kJ/mol
# GULP energy per Si atom -5574.070528 kJ/mol
# Density = 1.868771 g / cm^3
# Si number density = 18.730343 Si / 1000 Ang^3
#
#
#
# Elastic Constant Matrix: (Units=GPa)
#
#
# Indices 1 2 3 4 5 6 
#
# 1 12.8857 11.2386 -5.2580 0.0000 0.0000 0.0000
# 2 11.2386 223.4488 68.4586 0.0000 0.0000 0.0000
# 3 -5.2580 68.4586 71.1756 0.0000 0.0000 0.0000
# 4 0.0000 0.0000 0.0000 21.5235 0.0000 0.0000
# 5 0.0000 0.0000 0.0000 0.0000 19.9417 0.0000
# 6 0.0000 0.0000 0.0000 0.0000 0.0000 19.7451
#
#
#
# Elastic Compliance Matrix: (Units=1/GPa)
#
#
# Indices 1 2 3 4 5 6 
#
# 1 0.092487 -0.009563 0.016030 0.000000 0.000000 0.000000
# 2 -0.009563 0.007334 -0.007760 0.000000 0.000000 0.000000
# 3 0.016030 -0.007760 0.022698 0.000000 0.000000 0.000000
# 4 0.000000 0.000000 0.000000 0.046461 0.000000 0.000000
# 5 0.000000 0.000000 0.000000 0.000000 0.050146 0.000000
# 6 0.000000 0.000000 0.000000 0.000000 0.000000 0.050645
#
#
# Mechanical properties :
#
#
# Convention : Reuss Voigt Hill
#
# Bulk Modulus (GPa) = 8.33804 50.70985 29.52394
# Shear Modulus (GPa) = 16.00848 27.78014 21.89431
#
# Velocity S-wave (km/s) = 2.92667 3.85536 3.42266
# Velocity P-wave (km/s) = 3.98520 6.85207 5.60503
#
# Compressibility (1/GPa) = 0.11993233
#
# Stress axis : x y z
#
# Youngs Moduli (GPa) = 10.81237 136.35460 44.05672
#
# Poissons Ratio (x) = 1.30394 -0.70623
# Poissons Ratio (y) = 0.10340 0.34189
# Poissons Ratio (z) = -0.17332 1.05815
#
# Static dielectric constant tensor:
#      x y z
#    x 1.662790 0.000000 0.000000 
#    y 0.000000 1.709650 0.000000 
#    z 0.000000 0.000000 1.558360 
# 
# From -- ./inp_files/26832.got.cif
#   From: 2010.05.17/outbox.cif.g08.bks.cpg/sg53_14_cif.got.tgz:26832.got - 2010.06.03 12:45:16.
