data_PCOD9416451
_publ_section_title
;
Structure prediction by ZEFSAII (Michael W. Deem and Ramdas Pophale) SiO2 
 PCOD9416451
Probable space group: P M N A
;
_chemical_formula_sum "Si O2"
_cell_formula_units_Z 56
_cell_length_a 15.168088
_cell_length_b 15.368910
_cell_length_c 11.538459
_cell_angle_alpha 90.000000
_cell_angle_beta 90.000000
_cell_angle_gamma 90.000000
_cell_volume 2689.810708
_symmetry_space_group_name_H-M "P M N A"
_symmetry_group_IT_number 53
_symmetry_cell_setting 'orthorhombic'
loop_
_space_group_symop_operation_xyz
x,y,z
1/2-x,-y,1/2+z
x,-y,-z
1/2-x,y,1/2-z
-x,-y,-z
1/2+x,y,1/2-z
-x,y,z
1/2+x,-y,1/2+z
loop_
_atom_site_type_symbol
_atom_site_label
_atom_site_fract_x
_atom_site_fract_y
_atom_site_fract_z
Si Si1 0.898428 0.326397 0.223957
Si Si2 0.892454 0.503277 0.638051
Si Si3 0.099313 0.793129 0.552432
Si Si4 0.708459 0.177684 0.406646
Si Si5 0.398270 0.314481 0.826893
Si Si6 0.596777 0.019194 0.361328
Si Si7 0.338641 0.833601 0.324847
O O1 0.865389 0.419523 0.273649
O O2 0.909235 0.273003 0.342303
O O3 0.828961 0.268372 0.148478
O O4 0.000000 0.332543 0.173285
O O5 0.867971 0.500000 0.500000
O O6 0.859686 0.410146 0.685697
O O7 0.000000 0.511885 0.638272
O O8 0.187519 0.844111 0.586415
O O9 0.130468 0.739444 0.439347
O O10 0.000000 0.830931 0.531889
O O11 0.662773 0.097562 0.341361
O O12 0.676483 0.175462 0.539172
O O13 0.500000 0.331217 0.852099
O O14 0.389814 0.250594 0.719514
O O15 0.500000 0.050473 0.327874
O O16 0.597557 0.000000 0.500000
O O17 0.616281 0.926799 0.303157
O O18 0.250000 0.833622 0.250000
#
# Coordination Sequence:
#
# PCOD9416451 Si02
#       7
#     8   8   8   8   8   8   8
#     4  10  20  35  61  94 127 165 213 262 318 386
#     4   9  16  32  60  92 123 165 216 263 315 387
#     4  10  20  36  61  90 121 164 214 258 313 383
#     4  11  22  39  62  91 135 165 207 270 333 386
#     4  10  19  35  62  90 123 166 214 264 319 381
#     4   9  20  39  63  87 115 163 216 257 318 395
#     4  11  22  38  60  89 126 169 218 268 318 388
#
# _framework density 20.819309000000001
#
# number of rings (size 3 to 8) (size 9 to 14) (size 15 to 20)
#    0.000    2.000    2.857    1.286    0.000    2.857 
#    0.000    2.143    3.143    7.286    0.000    0.000 
#    0.000    0.571    0.000    0.000    0.000    0.000 
#
# Total GULP energy -311763.823760 kJ/mol
# GULP energy per Si atom -5567.211139 kJ/mol
# Density = 2.077192 g / cm^3
# Si number density = 20.819309 Si / 1000 Ang^3
#
#
#
# Elastic Constant Matrix: (Units=GPa)
#
#
# Indices 1 2 3 4 5 6 
#
# 1 89.8388 44.0069 3.8853 0.0000 0.0000 0.0000
# 2 44.0069 124.3809 26.0101 0.0000 0.0000 0.0000
# 3 3.8853 26.0101 72.7096 0.0000 0.0000 0.0000
# 4 0.0000 0.0000 0.0000 30.6231 0.0000 0.0000
# 5 0.0000 0.0000 0.0000 0.0000 15.6056 0.0000
# 6 0.0000 0.0000 0.0000 0.0000 0.0000 -35.5768
#
#
#
# Elastic Compliance Matrix: (Units=1/GPa)
#
#
# Indices 1 2 3 4 5 6 
#
# 1 0.013541 -0.005015 0.001070 0.000000 0.000000 0.000000
# 2 -0.005015 0.010547 -0.003505 0.000000 0.000000 0.000000
# 3 0.001070 -0.003505 0.014950 0.000000 0.000000 0.000000
# 4 0.000000 0.000000 0.000000 0.032655 0.000000 0.000000
# 5 0.000000 0.000000 0.000000 0.000000 0.064080 0.000000
# 6 0.000000 0.000000 0.000000 0.000000 0.000000 -0.028108
#
#
# Mechanical properties :
#
#
# Convention : Reuss Voigt Hill
#
# Bulk Modulus (GPa) = 41.42613 48.30376 44.86494
# Shear Modulus (GPa) = 38.28188 16.33219 27.30703
#
# Velocity S-wave (km/s) = 4.29274 2.80388 3.62556
# Velocity P-wave (km/s) = 6.67168 5.80811 6.25481
#
# Compressibility (1/GPa) = 0.02413935
#
# Stress axis : x y z
#
# Youngs Moduli (GPa) = 73.84858 94.81331 66.88972
#
# Poissons Ratio (x) = 0.47547 -0.07160
# Poissons Ratio (y) = 0.37034 0.23445
# Poissons Ratio (z) = -0.07904 0.33232
#
# Static dielectric constant tensor:
#      x y z
#    x 1.824870 0.000000 0.000000 
#    y 0.000000 1.814770 0.000000 
#    z 0.000000 0.000000 1.768010 
# 
# From -- ./inp_files/16061.got.cif
#   From: 2010.05.17/outbox.cif.g08.bks.cpg/sg53_9_cif.got.tgz:16061.got - 2010.06.03 12:45:16.
