data_PCOD9416581
_publ_section_title
;
Structure prediction by ZEFSAII (Michael W. Deem and Ramdas Pophale) SiO2 
 PCOD9416581
Probable space group: P M N A
;
_chemical_formula_sum "Si O2"
_cell_formula_units_Z 48
_cell_length_a 8.744947
_cell_length_b 19.580605
_cell_length_c 15.319310
_cell_angle_alpha 90.000000
_cell_angle_beta 90.000000
_cell_angle_gamma 90.000000
_cell_volume 2623.146178
_symmetry_space_group_name_H-M "P M N A"
_symmetry_group_IT_number 53
_symmetry_cell_setting 'orthorhombic'
loop_
_space_group_symop_operation_xyz
x,y,z
1/2-x,-y,1/2+z
x,-y,-z
1/2-x,y,1/2-z
-x,-y,-z
1/2+x,y,1/2-z
-x,y,z
1/2+x,-y,1/2+z
loop_
_atom_site_type_symbol
_atom_site_label
_atom_site_fract_x
_atom_site_fract_y
_atom_site_fract_z
Si Si1 0.314852 0.501122 0.348798
Si Si2 0.314162 0.395660 0.498897
Si Si3 0.819110 0.852904 0.657187
Si Si4 0.685109 0.761174 0.504362
Si Si5 0.178863 0.996007 0.895207
Si Si6 0.815744 0.853176 0.158622
O O1 0.250000 0.501368 0.250000
O O2 0.500000 0.501223 0.342034
O O3 0.269145 0.436778 0.410896
O O4 0.268796 0.564788 0.411962
O O5 0.500000 0.396891 0.499248
O O6 0.263758 0.317342 0.497383
O O7 0.750000 0.833982 0.750000
O O8 0.749086 0.803365 0.585014
O O9 0.771004 0.930881 0.636970
O O10 0.000000 0.847492 0.657929
O O11 0.500000 0.761931 0.508368
O O12 0.732050 0.802834 0.418363
O O13 0.000000 0.986603 0.870687
O O14 0.234512 0.068792 0.859472
O O15 0.185407 0.000000 0.000000
O O16 0.750000 0.829823 0.250000
O O17 0.000000 0.854335 0.160328
#
# Coordination Sequence:
#
# PCOD9416581 Si02
#       6
#     8   8   8   8   8   8
#     4   9  17  33  56  85 111 142 181 221 264 319
#     4   8  17  34  57  79 109 147 184 217 264 327
#     4  12  25  39  57  82 110 145 186 233 281 334
#     4  10  20  39  59  78 108 150 187 227 276 327
#     4  10  19  37  60  81 106 141 184 233 280 330
#     4  10  21  35  55  79 107 141 181 226 277 328
#
# _framework density 18.298636999999999
#
# number of rings (size 3 to 8) (size 9 to 14) (size 15 to 20)
#    0.000    2.167    1.667    3.000    0.000    4.333 
#    0.000    5.000    0.000    0.000    0.000    0.000 
#    0.000    0.000    0.000    0.000    0.000    0.000 
#
# Total GULP energy -267852.357191 kJ/mol
# GULP energy per Si atom -5580.257441 kJ/mol
# Density = 1.825699 g / cm^3
# Si number density = 18.298637 Si / 1000 Ang^3
#
#
#
# Elastic Constant Matrix: (Units=GPa)
#
#
# Indices 1 2 3 4 5 6 
#
# 1 18.6044 34.3596 36.1426 0.0000 0.0000 0.0000
# 2 34.3596 170.6114 103.3857 0.0000 0.0000 0.0000
# 3 36.1426 103.3857 193.0364 0.0000 0.0000 0.0000
# 4 0.0000 0.0000 0.0000 -174.7359 0.0000 0.0000
# 5 0.0000 0.0000 0.0000 0.0000 32.7667 0.0000
# 6 0.0000 0.0000 0.0000 0.0000 0.0000 5.5571
#
#
#
# Elastic Compliance Matrix: (Units=1/GPa)
#
#
# Indices 1 2 3 4 5 6 
#
# 1 0.101172 -0.013171 -0.011889 0.000000 0.000000 0.000000
# 2 -0.013171 0.010392 -0.003100 0.000000 0.000000 0.000000
# 3 -0.011889 -0.003100 0.009066 0.000000 0.000000 0.000000
# 4 0.000000 0.000000 0.000000 -0.005723 0.000000 0.000000
# 5 0.000000 0.000000 0.000000 0.000000 0.030519 0.000000
# 6 0.000000 0.000000 0.000000 0.000000 0.000000 0.179951
#
#
# Mechanical properties :
#
#
# Convention : Reuss Voigt Hill
#
# Bulk Modulus (GPa) = 15.54928 81.11422 48.33175
# Shear Modulus (GPa) = 12.40286 -13.39148 -0.49431
#
# Velocity S-wave (km/s) = 2.60629 -2.70817 -0.52031
# Velocity P-wave (km/s) = 4.19201 5.88603 5.10971
#
# Compressibility (1/GPa) = 0.06431168
#
# Stress axis : x y z
#
# Youngs Moduli (GPa) = 9.88420 96.22647 110.29676
#
# Poissons Ratio (x) = 1.26739 1.31127
# Poissons Ratio (y) = 0.13018 0.34189
# Poissons Ratio (z) = 0.11751 0.29828
#
# Static dielectric constant tensor:
#      x y z
#    x 1.614630 0.000000 0.000000 
#    y 0.000000 1.632550 0.000000 
#    z 0.000000 0.000000 1.608590 
# 
# From -- ./inp_files/20238.got.cif
#   From: 2010.05.17/outbox.cif.g08.bks.cpg/sg53_11_cif.got.tgz:20238.got - 2010.06.03 12:45:16.
