data_PCOD9416554
_publ_section_title
;
Structure prediction by ZEFSAII (Michael W. Deem and Ramdas Pophale) SiO2 
 PCOD9416554
Probable space group: P M N A
;
_chemical_formula_sum "Si O2"
_cell_formula_units_Z 40
_cell_length_a 15.475997
_cell_length_b 10.083161
_cell_length_c 11.665520
_cell_angle_alpha 90.000000
_cell_angle_beta 90.000000
_cell_angle_gamma 90.000000
_cell_volume 1820.369042
_symmetry_space_group_name_H-M "P M N A"
_symmetry_group_IT_number 53
_symmetry_cell_setting 'orthorhombic'
loop_
_space_group_symop_operation_xyz
x,y,z
1/2-x,-y,1/2+z
x,-y,-z
1/2-x,y,1/2-z
-x,-y,-z
1/2+x,y,1/2-z
-x,y,z
1/2+x,-y,1/2+z
loop_
_atom_site_type_symbol
_atom_site_label
_atom_site_fract_x
_atom_site_fract_y
_atom_site_fract_z
Si Si1 0.098947 0.548708 0.119722
Si Si2 0.395705 0.952415 0.626714
Si Si3 0.394218 0.209483 0.765709
Si Si4 0.395409 0.846056 0.984969
Si Si5 0.653160 0.304363 0.248062
O O1 0.138403 0.676254 0.181552
O O2 0.097253 0.428003 0.209779
O O3 0.000000 0.587999 0.090589
O O4 0.139452 0.500000 0.000000
O O5 0.500000 0.937827 0.632867
O O6 0.355890 0.812798 0.659286
O O7 0.373305 0.000000 0.500000
O O8 0.369851 0.065791 0.716732
O O9 0.500000 0.212997 0.764810
O O10 0.368181 0.224953 0.897312
O O11 0.500000 0.850421 0.979229
O O12 0.367181 0.766484 0.872442
O O13 0.366985 0.000000 0.000000
O O14 0.750000 0.355778 0.250000
#
# Coordination Sequence:
#
# PCOD9416554 Si02
#       5
#     8   8   8   8   8
#     4  10  21  41  65  88 118 157 208 262 302 348
#     4  10  19  36  64  91 115 151 206 260 297 346
#     4   9  18  34  62  94 112 143 199 253 306 346
#     4  10  19  37  65  91 119 151 197 257 303 349
#     4  12  25  39  56  88 128 166 198 239 305 377
#
# _framework density 21.973566999999999
#
# number of rings (size 3 to 8) (size 9 to 14) (size 15 to 20)
#    0.000    1.800    2.000    3.000    0.000    4.800 
#    3.600    4.000    0.000    0.000    0.000    0.000 
#    0.000    0.000    0.000    0.000    0.000    0.000 
#
# Total GULP energy -223476.468817 kJ/mol
# GULP energy per Si atom -5586.911720 kJ/mol
# Density = 2.192355 g / cm^3
# Si number density = 21.973567 Si / 1000 Ang^3
#
#
#
# Elastic Constant Matrix: (Units=GPa)
#
#
# Indices 1 2 3 4 5 6 
#
# 1 28.8312 -6.7389 6.6918 0.0000 0.0000 0.0000
# 2 -6.7389 55.6030 -20.1106 0.0000 0.0000 0.0000
# 3 6.6918 -20.1106 69.4111 0.0000 0.0000 0.0000
# 4 0.0000 0.0000 0.0000 36.1211 0.0000 0.0000
# 5 0.0000 0.0000 0.0000 0.0000 22.6816 0.0000
# 6 0.0000 0.0000 0.0000 0.0000 0.0000 37.0941
#
#
#
# Elastic Compliance Matrix: (Units=1/GPa)
#
#
# Indices 1 2 3 4 5 6 
#
# 1 0.036071 0.003478 -0.002470 0.000000 0.000000 0.000000
# 2 0.003478 0.020425 0.005583 0.000000 0.000000 0.000000
# 3 -0.002470 0.005583 0.016262 0.000000 0.000000 0.000000
# 4 0.000000 0.000000 0.000000 0.027685 0.000000 0.000000
# 5 0.000000 0.000000 0.000000 0.000000 0.044089 0.000000
# 6 0.000000 0.000000 0.000000 0.000000 0.000000 0.026958
#
#
# Mechanical properties :
#
#
# Convention : Reuss Voigt Hill
#
# Bulk Modulus (GPa) = 11.63586 12.61441 12.12514
# Shear Modulus (GPa) = 26.74440 30.77956 28.76198
#
# Velocity S-wave (km/s) = 3.49251 3.74672 3.62185
# Velocity P-wave (km/s) = 4.64439 4.94676 4.79796
#
# Compressibility (1/GPa) = 0.08594122
#
# Stress axis : x y z
#
# Youngs Moduli (GPa) = 27.72316 48.95884 61.49137
#
# Poissons Ratio (x) = -0.17030 0.15186
# Poissons Ratio (y) = -0.09643 -0.34328
# Poissons Ratio (z) = 0.06847 -0.27331
#
# Static dielectric constant tensor:
#      x y z
#    x 2.029930 0.000000 0.000000 
#    y 0.000000 1.790740 0.000000 
#    z 0.000000 0.000000 1.817880 
# 
# From -- ./inp_files/16671.got.cif
#   From: 2010.05.17/outbox.cif.g08.bks.cpg/sg53_9_cif.got.tgz:16671.got - 2010.06.03 12:45:16.
