data_PCOD9416719
_publ_section_title
;
Structure prediction by ZEFSAII (Michael W. Deem and Ramdas Pophale) SiO2 
 PCOD9416719
Probable space group: P M N A
;
_chemical_formula_sum "Si O2"
_cell_formula_units_Z 32
_cell_length_a 14.223237
_cell_length_b 12.591819
_cell_length_c 6.998485
_cell_angle_alpha 90.000000
_cell_angle_beta 90.000000
_cell_angle_gamma 90.000000
_cell_volume 1253.403650
_symmetry_space_group_name_H-M "P M N A"
_symmetry_group_IT_number 53
_symmetry_cell_setting 'orthorhombic'
loop_
_space_group_symop_operation_xyz
x,y,z
1/2-x,-y,1/2+z
x,-y,-z
1/2-x,y,1/2-z
-x,-y,-z
1/2+x,y,1/2-z
-x,y,z
1/2+x,-y,1/2+z
loop_
_atom_site_type_symbol
_atom_site_label
_atom_site_fract_x
_atom_site_fract_y
_atom_site_fract_z
Si Si1 0.276091 0.616522 0.471660
Si Si2 0.391332 0.741154 0.899888
Si Si3 0.386008 0.028956 0.216865
Si Si4 0.392045 0.190192 0.649997
O O1 0.317822 0.500000 0.500000
O O2 0.250000 0.612502 0.250000
O O3 0.183454 0.645088 0.597620
O O4 0.343009 0.718364 0.470979
O O5 0.500000 0.712755 0.855949
O O6 0.362646 0.846406 0.779750
O O7 0.390498 0.776846 0.124946
O O8 0.500000 0.024722 0.231173
O O9 0.352205 0.930007 0.346486
O O10 0.361238 0.000000 0.000000
O O11 0.500000 0.184250 0.590286
#
# Coordination Sequence:
#
# PCOD9416719 Si02
#       4
#     8   8   8   8
#     4  10  20  32  48  72 106 143 178 214 253 306
#     4   8  14  26  46  72  99 129 171 221 262 295
#     4   7  10  20  42  69  93 117 155 211 262 300
#     4   8  14  26  46  73 102 133 170 211 259 312
#
# _framework density 25.530481000000002
#
# number of rings (size 3 to 8) (size 9 to 14) (size 15 to 20)
#    0.000    3.750    0.000    3.000    0.000    1.000 
#    0.000    0.000    0.000   13.500    0.000    1.750 
#    0.000   20.000    0.000    0.000    0.000    1.500 
#
# Total GULP energy -178702.765664 kJ/mol
# GULP energy per Si atom -5584.461427 kJ/mol
# Density = 2.547237 g / cm^3
# Si number density = 25.530481 Si / 1000 Ang^3
#
#
#
# Elastic Constant Matrix: (Units=GPa)
#
#
# Indices 1 2 3 4 5 6 
#
# 1 101.5903 62.4745 32.5388 0.0000 0.0000 0.0000
# 2 62.4745 207.7860 91.8575 0.0000 0.0000 0.0000
# 3 32.5388 91.8575 54.5089 0.0000 0.0000 0.0000
# 4 0.0000 0.0000 0.0000 52.2893 0.0000 0.0000
# 5 0.0000 0.0000 0.0000 0.0000 23.6152 0.0000
# 6 0.0000 0.0000 0.0000 0.0000 0.0000 31.3259
#
#
#
# Elastic Compliance Matrix: (Units=1/GPa)
#
#
# Indices 1 2 3 4 5 6 
#
# 1 0.012336 -0.001779 -0.004366 0.000000 0.000000 0.000000
# 2 -0.001779 0.019128 -0.031173 0.000000 0.000000 0.000000
# 3 -0.004366 -0.031173 0.073483 0.000000 0.000000 0.000000
# 4 0.000000 0.000000 0.000000 0.019124 0.000000 0.000000
# 5 0.000000 0.000000 0.000000 0.000000 0.042346 0.000000
# 6 0.000000 0.000000 0.000000 0.000000 0.000000 0.031922
#
#
# Mechanical properties :
#
#
# Convention : Reuss Voigt Hill
#
# Bulk Modulus (GPa) = 32.99000 81.95852 57.47426
# Shear Modulus (GPa) = 17.66291 33.24705 25.45498
#
# Velocity S-wave (km/s) = 2.63313 3.61258 3.16102
# Velocity P-wave (km/s) = 4.71109 7.04080 5.99030
#
# Compressibility (1/GPa) = 0.03031222
#
# Stress axis : x y z
#
# Youngs Moduli (GPa) = 81.06468 52.27906 13.60851
#
# Poissons Ratio (x) = 0.09299 0.05942
# Poissons Ratio (y) = 0.14419 0.42421
# Poissons Ratio (z) = 0.35395 1.62967
#
# Static dielectric constant tensor:
#      x y z
#    x 2.004980 0.000000 0.000000 
#    y 0.000000 2.051420 0.000000 
#    z 0.000000 0.000000 2.122790 
# 
# From -- ./inp_files/8135.got.cif
#   From: 2010.05.17/outbox.cif.g08.bks.cpg/sg53_5_cif.got.tgz:8135.got - 2010.06.03 12:45:16.
