data_PCOD9416011
_publ_section_title
;
Structure prediction by ZEFSAII (Michael W. Deem and Ramdas Pophale) SiO2 
 PCOD9416011
Probable space group: P M N A
;
_chemical_formula_sum "Si O2"
_cell_formula_units_Z 64
_cell_length_a 9.004981
_cell_length_b 10.829872
_cell_length_c 34.227819
_cell_angle_alpha 90.000000
_cell_angle_beta 90.000000
_cell_angle_gamma 90.000000
_cell_volume 3337.992459
_symmetry_space_group_name_H-M "P M N A"
_symmetry_group_IT_number 53
_symmetry_cell_setting 'orthorhombic'
loop_
_space_group_symop_operation_xyz
x,y,z
1/2-x,-y,1/2+z
x,-y,-z
1/2-x,y,1/2-z
-x,-y,-z
1/2+x,y,1/2-z
-x,y,z
1/2+x,-y,1/2+z
loop_
_atom_site_type_symbol
_atom_site_label
_atom_site_fract_x
_atom_site_fract_y
_atom_site_fract_z
Si Si1 0.329044 0.313906 0.011341
Si Si2 0.328130 0.944946 0.941669
Si Si3 0.678106 0.812832 0.628702
Si Si4 0.178432 0.778365 0.208319
Si Si5 0.176609 0.423654 0.408687
Si Si6 0.323948 0.309244 0.870059
Si Si7 0.175360 0.808023 0.057212
Si Si8 0.322840 0.068459 0.290536
O O1 0.500000 0.337381 0.999325
O O2 0.323476 0.181145 0.033481
O O3 0.284798 0.410305 0.045215
O O4 0.229119 0.294992 0.973562
O O5 0.500000 0.983019 0.939222
O O6 0.259121 0.907776 0.900161
O O7 0.234136 0.059393 0.957183
O O8 0.500000 0.823483 0.624416
O O9 0.732654 0.678697 0.615135
O O10 0.719904 0.848045 0.672753
O O11 0.250000 0.742948 0.250000
O O12 0.246988 0.705399 0.171875
O O13 0.000000 0.765164 0.209585
O O14 0.214550 0.924189 0.202148
O O15 0.198578 0.556132 0.389371
O O16 0.000000 0.393010 0.406894
O O17 0.500000 0.287415 0.866588
O O18 0.251298 0.216383 0.901114
O O19 0.000000 0.807758 0.060996
O O20 0.250000 0.106979 0.250000
O O21 0.500000 0.074393 0.286453
#
# Coordination Sequence:
#
# PCOD9416011 Si02
#       8
#     8   8   8   8   8   8   8   8
#     4   9  19  37  57  78 107 144 184 227 277 333
#     4  10  20  35  56  80 108 145 185 224 273 334
#     4  10  19  33  55  82 111 141 176 223 278 328
#     4  10  20  37  60  87 118 147 179 222 273 330
#     4   9  21  40  59  78 104 144 191 232 272 326
#     4  11  23  40  60  81 108 147 193 235 277 327
#     4  12  24  35  52  82 115 145 182 231 283 333
#     4   9  19  33  52  81 113 142 171 210 264 325
#
# _framework density 19.173200000000001
#
# number of rings (size 3 to 8) (size 9 to 14) (size 15 to 20)
#    0.000    2.000    0.000    4.500    0.000    8.000 
#    0.000    3.125    0.000    1.500    0.000    0.000 
#    0.000    0.000    0.000    0.000    0.000    0.000 
#
# Total GULP energy -357543.241625 kJ/mol
# GULP energy per Si atom -5586.613150 kJ/mol
# Density = 1.912956 g / cm^3
# Si number density = 19.173200 Si / 1000 Ang^3
#
#
#
# Elastic Constant Matrix: (Units=GPa)
#
#
# Indices 1 2 3 4 5 6 
#
# 1 78.1895 31.1747 44.3555 0.0000 0.0000 0.0000
# 2 31.1747 51.6797 16.1170 0.0000 0.0000 0.0000
# 3 44.3555 16.1170 98.7847 0.0000 0.0000 0.0000
# 4 0.0000 0.0000 0.0000 24.3569 0.0000 0.0000
# 5 0.0000 0.0000 0.0000 0.0000 32.3691 0.0000
# 6 0.0000 0.0000 0.0000 0.0000 0.0000 272.6909
#
#
#
# Elastic Compliance Matrix: (Units=1/GPa)
#
#
# Indices 1 2 3 4 5 6 
#
# 1 0.021463 -0.010475 -0.007928 0.000000 0.000000 0.000000
# 2 -0.010475 0.025499 0.000543 0.000000 0.000000 0.000000
# 3 -0.007928 0.000543 0.013594 0.000000 0.000000 0.000000
# 4 0.000000 0.000000 0.000000 0.041056 0.000000 0.000000
# 5 0.000000 0.000000 0.000000 0.000000 0.030894 0.000000
# 6 0.000000 0.000000 0.000000 0.000000 0.000000 0.003667
#
#
# Mechanical properties :
#
#
# Convention : Reuss Voigt Hill
#
# Bulk Modulus (GPa) = 40.26277 45.77205 43.01741
# Shear Modulus (GPa) = 27.75104 75.01714 51.38409
#
# Velocity S-wave (km/s) = 3.80858 6.26187 5.18248
# Velocity P-wave (km/s) = 6.35496 8.72961 7.63517
#
# Compressibility (1/GPa) = 0.02483684
#
# Stress axis : x y z
#
# Youngs Moduli (GPa) = 46.59082 39.21672 73.55995
#
# Poissons Ratio (x) = 0.41079 0.58321
# Poissons Ratio (y) = 0.48803 -0.03995
# Poissons Ratio (z) = 0.36939 -0.02130
#
# Static dielectric constant tensor:
#      x y z
#    x 1.637140 0.000000 0.000000 
#    y 0.000000 1.692970 0.000000 
#    z 0.000000 0.000000 1.667230 
# 
# From -- ./inp_files/38206.got.cif
#   From: 2010.05.17/outbox.cif.g08.bks.cpg/sg53_20_cif.got.tgz:38206.got - 2010.06.03 12:45:16.
