data_PCOD9416815
_publ_section_title
;
Structure prediction by ZEFSAII (Michael W. Deem and Ramdas Pophale) SiO2 
 PCOD9416815
Probable space group: P M N A
;
_chemical_formula_sum "Si O2"
_cell_formula_units_Z 48
_cell_length_a 8.943556
_cell_length_b 18.901036
_cell_length_c 16.815921
_cell_angle_alpha 90.000000
_cell_angle_beta 90.000000
_cell_angle_gamma 90.000000
_cell_volume 2842.604887
_symmetry_space_group_name_H-M "P M N A"
_symmetry_group_IT_number 53
_symmetry_cell_setting 'orthorhombic'
loop_
_space_group_symop_operation_xyz
x,y,z
1/2-x,-y,1/2+z
x,-y,-z
1/2-x,y,1/2-z
-x,-y,-z
1/2+x,y,1/2-z
-x,y,z
1/2+x,-y,1/2+z
loop_
_atom_site_type_symbol
_atom_site_label
_atom_site_fract_x
_atom_site_fract_y
_atom_site_fract_z
Si Si1 0.180969 0.593262 0.167037
Si Si2 0.821324 0.830353 0.509413
Si Si3 0.821884 0.919957 0.667517
Si Si4 0.327307 0.457004 0.416412
Si Si5 0.828309 0.046108 0.918529
Si Si6 0.181476 0.323542 0.994049
O O1 0.250000 0.616647 0.250000
O O2 0.237535 0.513631 0.145266
O O3 0.218578 0.643628 0.092516
O O4 0.000000 0.591105 0.171598
O O5 0.786379 0.867359 0.594340
O O6 0.753098 0.881437 0.441778
O O7 0.751142 0.752963 0.505090
O O8 0.000000 0.827755 0.501407
O O9 0.750000 0.896087 0.750000
O O10 0.000000 0.924315 0.674626
O O11 0.756218 0.996706 0.644138
O O12 0.330242 0.500000 0.500000
O O13 0.500000 0.445323 0.392955
O O14 0.264009 0.380550 0.439682
O O15 0.000000 0.058147 0.895071
O O16 0.828326 0.000000 0.000000
O O17 0.000000 0.320262 0.998619
#
# Coordination Sequence:
#
# PCOD9416815 Si02
#       6
#     8   8   8   8   8   8
#     4   9  17  30  49  72  96 124 160 203 249 294
#     4  10  20  33  50  74 103 131 162 203 247 290
#     4  10  20  34  52  74 100 129 162 203 248 291
#     4   7  12  26  47  67  87 117 158 196 230 278
#     4   9  17  31  52  74  95 124 162 198 236 288
#     4   9  17  31  51  71  94 129 169 202 239 295
#
# _framework density 16.885921
#
# number of rings (size 3 to 8) (size 9 to 14) (size 15 to 20)
#    0.000    3.000    0.000    3.500    0.000    4.667 
#    0.000    2.500    0.000    9.000    0.000    0.000 
#    0.000    0.000    0.000    0.000    0.000    0.000 
#
# Total GULP energy -267244.957629 kJ/mol
# GULP energy per Si atom -5567.603284 kJ/mol
# Density = 1.684749 g / cm^3
# Si number density = 16.885921 Si / 1000 Ang^3
#
#
#
# Elastic Constant Matrix: (Units=GPa)
#
#
# Indices 1 2 3 4 5 6 
#
# 1 45.7917 48.9944 37.4554 0.0000 0.0000 0.0000
# 2 48.9944 145.4354 38.1581 0.0000 0.0000 0.0000
# 3 37.4554 38.1581 70.1048 0.0000 0.0000 0.0000
# 4 0.0000 0.0000 0.0000 14.5154 0.0000 0.0000
# 5 0.0000 0.0000 0.0000 0.0000 23.6385 0.0000
# 6 0.0000 0.0000 0.0000 0.0000 0.0000 10.0317
#
#
#
# Elastic Compliance Matrix: (Units=1/GPa)
#
#
# Indices 1 2 3 4 5 6 
#
# 1 0.052041 -0.011942 -0.021304 0.000000 0.000000 0.000000
# 2 -0.011942 0.010762 0.000523 0.000000 0.000000 0.000000
# 3 -0.021304 0.000523 0.025362 0.000000 0.000000 0.000000
# 4 0.000000 0.000000 0.000000 0.068893 0.000000 0.000000
# 5 0.000000 0.000000 0.000000 0.000000 0.042304 0.000000
# 6 0.000000 0.000000 0.000000 0.000000 0.000000 0.099684
#
#
# Mechanical properties :
#
#
# Convention : Reuss Voigt Hill
#
# Bulk Modulus (GPa) = 44.01817 56.72753 50.37285
# Shear Modulus (GPa) = 13.43846 18.75204 16.09525
#
# Velocity S-wave (km/s) = 2.82412 3.33605 3.09070
# Velocity P-wave (km/s) = 6.06290 6.96466 6.52937
#
# Compressibility (1/GPa) = 0.02271789
#
# Stress axis : x y z
#
# Youngs Moduli (GPa) = 19.21548 92.92117 39.42850
#
# Poissons Ratio (x) = 1.10967 0.84000
# Poissons Ratio (y) = 0.22947 -0.02061
# Poissons Ratio (z) = 0.40938 -0.04857
#
# Static dielectric constant tensor:
#      x y z
#    x 1.566760 0.000000 0.000000 
#    y 0.000000 1.573030 0.000000 
#    z 0.000000 0.000000 1.576030 
# 
# From -- ./inp_files/26393.got.cif
#   From: 2010.05.17/outbox.cif.g08.bks.cpg/sg53_14_cif.got.tgz:26393.got - 2010.06.03 12:45:16.
