data_PCOD9416046
_publ_section_title
;
Structure prediction by ZEFSAII (Michael W. Deem and Ramdas Pophale) SiO2 
 PCOD9416046
Probable space group: P M N A
;
_chemical_formula_sum "Si O2"
_cell_formula_units_Z 40
_cell_length_a 26.460041
_cell_length_b 8.455601
_cell_length_c 8.295931
_cell_angle_alpha 90.000000
_cell_angle_beta 90.000000
_cell_angle_gamma 90.000000
_cell_volume 1856.094678
_symmetry_space_group_name_H-M "P M N A"
_symmetry_group_IT_number 53
_symmetry_cell_setting 'orthorhombic'
loop_
_space_group_symop_operation_xyz
x,y,z
1/2-x,-y,1/2+z
x,-y,-z
1/2-x,y,1/2-z
-x,-y,-z
1/2+x,y,1/2-z
-x,y,z
1/2+x,-y,1/2+z
loop_
_atom_site_type_symbol
_atom_site_label
_atom_site_fract_x
_atom_site_fract_y
_atom_site_fract_z
Si Si1 0.889861 0.191020 0.032281
Si Si2 0.290513 0.120534 0.866997
Si Si3 0.279961 0.666288 0.580285
Si Si4 0.940191 0.823478 0.644166
Si Si5 0.901132 0.185394 0.691305
O O1 0.832178 0.235409 0.080647
O O2 0.921978 0.245339 0.186262
O O3 0.914880 0.255325 0.865605
O O4 0.890624 0.000000 0.000000
O O5 0.250000 0.038696 0.750000
O O6 0.340610 0.181834 0.786026
O O7 0.258892 0.253152 0.956523
O O8 0.309421 0.000000 0.000000
O O9 0.293380 0.500000 0.500000
O O10 0.250000 0.651791 0.750000
O O11 0.914824 0.746708 0.484637
O O12 0.000000 0.818000 0.623490
O O13 0.923289 0.007849 0.668241
#
# Coordination Sequence:
#
# PCOD9416046 Si02
#       5
#     8   8   8   8   8
#     4  10  22  39  60  89 119 158 202 248 301 365
#     4  12  22  35  61  88 123 162 203 240 298 369
#     4  12  26  40  57  84 125 164 206 251 303 365
#     4  10  20  35  56  91 124 154 195 255 312 358
#     4  10  19  33  56  83 124 153 196 236 303 355
#
# _framework density 21.550623999999999
#
# number of rings (size 3 to 8) (size 9 to 14) (size 15 to 20)
#    0.000    1.200    4.000    4.200    5.600    4.400 
#    0.000    0.000    0.000    0.600    0.000    1.400 
#    0.000    0.000    0.000    0.000    0.000    0.000 
#
# Total GULP energy -223030.988133 kJ/mol
# GULP energy per Si atom -5575.774703 kJ/mol
# Density = 2.150157 g / cm^3
# Si number density = 21.550624 Si / 1000 Ang^3
#
#
#
# Elastic Constant Matrix: (Units=GPa)
#
#
# Indices 1 2 3 4 5 6 
#
# 1 108.6885 -10.1363 39.6825 0.0000 0.0000 0.0000
# 2 -10.1363 13.7408 -8.1951 0.0000 0.0000 0.0000
# 3 39.6825 -8.1951 204.6966 0.0000 0.0000 0.0000
# 4 0.0000 0.0000 0.0000 12.0675 0.0000 0.0000
# 5 0.0000 0.0000 0.0000 0.0000 20.6889 0.0000
# 6 0.0000 0.0000 0.0000 0.0000 0.0000 -2.0969
#
#
#
# Elastic Compliance Matrix: (Units=1/GPa)
#
#
# Indices 1 2 3 4 5 6 
#
# 1 0.010466 0.006670 -0.001762 0.000000 0.000000 0.000000
# 2 0.006670 0.078807 0.001862 0.000000 0.000000 0.000000
# 3 -0.001762 0.001862 0.005301 0.000000 0.000000 0.000000
# 4 0.000000 0.000000 0.000000 0.082867 0.000000 0.000000
# 5 0.000000 0.000000 0.000000 0.000000 0.048335 0.000000
# 6 0.000000 0.000000 0.000000 0.000000 0.000000 -0.476898
#
#
# Mechanical properties :
#
#
# Convention : Reuss Voigt Hill
#
# Bulk Modulus (GPa) = 9.24952 41.09201 25.17076
# Shear Modulus (GPa) = -21.87006 26.51689 2.32341
#
# Velocity S-wave (km/s) = -3.18908 3.51158 1.03945
# Velocity P-wave (km/s) = 3.04287 5.96243 3.62571
#
# Compressibility (1/GPa) = 0.10811376
#
# Stress axis : x y z
#
# Youngs Moduli (GPa) = 95.54845 12.68927 188.62977
#
# Poissons Ratio (x) = -0.08463 0.33235
# Poissons Ratio (y) = -0.63728 -0.35124
# Poissons Ratio (z) = 0.16835 -0.02363
#
# Static dielectric constant tensor:
#      x y z
#    x 1.766950 0.000000 0.000000 
#    y 0.000000 1.804710 0.000000 
#    z 0.000000 0.000000 1.989830 
# 
# From -- ./inp_files/11541.got.cif
#   From: 2010.05.17/outbox.cif.g08.bks.cpg/sg53_6_cif.got.tgz:11541.got - 2010.06.03 12:45:16.
