data_PCOD9416993
_publ_section_title
;
Structure prediction by ZEFSAII (Michael W. Deem and Ramdas Pophale) SiO2 
 PCOD9416993
Probable space group: P M N A
;
_chemical_formula_sum "Si O2"
_cell_formula_units_Z 32
_cell_length_a 8.553005
_cell_length_b 20.177878
_cell_length_c 10.497860
_cell_angle_alpha 90.000000
_cell_angle_beta 90.000000
_cell_angle_gamma 90.000000
_cell_volume 1811.736336
_symmetry_space_group_name_H-M "P M N A"
_symmetry_group_IT_number 53
_symmetry_cell_setting 'orthorhombic'
loop_
_space_group_symop_operation_xyz
x,y,z
1/2-x,-y,1/2+z
x,-y,-z
1/2-x,y,1/2-z
-x,-y,-z
1/2+x,y,1/2-z
-x,y,z
1/2+x,-y,1/2+z
loop_
_atom_site_type_symbol
_atom_site_label
_atom_site_fract_x
_atom_site_fract_y
_atom_site_fract_z
Si Si1 0.188646 0.798203 0.889076
Si Si2 0.311124 0.049274 0.389077
Si Si3 0.312224 0.550602 0.110898
Si Si4 0.187950 0.698631 0.110738
O O1 0.250000 0.778301 0.750000
O O2 0.238352 0.874449 0.912389
O O3 0.000000 0.797243 0.886062
O O4 0.240201 0.749068 0.000803
O O5 0.250000 0.029554 0.250000
O O6 0.500000 0.048102 0.386652
O O7 0.257504 0.000000 0.500000
O O8 0.250000 0.530084 0.250000
O O9 0.500000 0.553218 0.115591
O O10 0.248489 0.624363 0.085533
O O11 0.264479 0.500000 0.000000
O O12 0.250000 0.718503 0.250000
O O13 0.000000 0.697494 0.114326
#
# Coordination Sequence:
#
# PCOD9416993 Si02
#       4
#     8   8   8   8
#     4   9  19  34  51  73 100 131 166 204 246 291
#     4   9  18  33  51  72 100 131 165 205 246 291
#     4  10  21  36  54  76 101 130 165 203 244 292
#     4  10  20  34  52  74 101 131 164 203 246 292
#
# _framework density 17.662613
#
# number of rings (size 3 to 8) (size 9 to 14) (size 15 to 20)
#    0.000    2.500    0.000    3.000    0.000    6.500 
#    0.000    5.000    0.000    0.000    0.000    0.000 
#    0.000    0.000    0.000    0.000    0.000    0.000 
#
# Total GULP energy -178528.895504 kJ/mol
# GULP energy per Si atom -5579.027984 kJ/mol
# Density = 1.762241 g / cm^3
# Si number density = 17.662613 Si / 1000 Ang^3
#
#
#
# Elastic Constant Matrix: (Units=GPa)
#
#
# Indices 1 2 3 4 5 6 
#
# 1 26.5884 26.8905 35.3739 0.0000 0.0000 0.0000
# 2 26.8905 103.4269 134.2547 0.0000 0.0000 0.0000
# 3 35.3739 134.2547 205.1451 0.0000 0.0000 0.0000
# 4 0.0000 0.0000 0.0000 45.0608 0.0000 0.0000
# 5 0.0000 0.0000 0.0000 0.0000 29.1715 0.0000
# 6 0.0000 0.0000 0.0000 0.0000 0.0000 -7.0970
#
#
#
# Elastic Compliance Matrix: (Units=1/GPa)
#
#
# Indices 1 2 3 4 5 6 
#
# 1 0.051047 -0.012267 -0.000774 0.000000 0.000000 0.000000
# 2 -0.012267 0.067192 -0.041858 0.000000 0.000000 0.000000
# 3 -0.000774 -0.041858 0.032402 0.000000 0.000000 0.000000
# 4 0.000000 0.000000 0.000000 0.022192 0.000000 0.000000
# 5 0.000000 0.000000 0.000000 0.000000 0.034280 0.000000
# 6 0.000000 0.000000 0.000000 0.000000 0.000000 -0.140905
#
#
# Mechanical properties :
#
#
# Convention : Reuss Voigt Hill
#
# Bulk Modulus (GPa) = 24.48437 80.91096 52.69767
# Shear Modulus (GPa) = 26.36841 22.66980 24.51911
#
# Velocity S-wave (km/s) = 3.86799 3.58647 3.72989
# Velocity P-wave (km/s) = 5.81729 7.94097 6.96060
#
# Compressibility (1/GPa) = 0.04084239
#
# Stress axis : x y z
#
# Youngs Moduli (GPa) = 19.58987 14.88264 30.86270
#
# Poissons Ratio (x) = 0.18256 0.02389
# Poissons Ratio (y) = 0.24031 1.29185
# Poissons Ratio (z) = 0.01517 0.62296
#
# Static dielectric constant tensor:
#      x y z
#    x 1.601750 0.000000 0.000000 
#    y 0.000000 1.593880 0.000000 
#    z 0.000000 0.000000 1.579210 
# 
# From -- ./inp_files/6014.got.cif
#   From: 2010.05.17/outbox.cif.g08.bks.cpg/sg53_4_cif.got.tgz:6014.got - 2010.06.03 12:45:16.
