data_PCOD9416368
_publ_section_title
;
Structure prediction by ZEFSAII (Michael W. Deem and Ramdas Pophale) SiO2 
 PCOD9416368
Probable space group: P M N A
;
_chemical_formula_sum "Si O2"
_cell_formula_units_Z 48
_cell_length_a 8.355948
_cell_length_b 10.283637
_cell_length_c 28.742153
_cell_angle_alpha 90.000000
_cell_angle_beta 90.000000
_cell_angle_gamma 90.000000
_cell_volume 2469.799872
_symmetry_space_group_name_H-M "P M N A"
_symmetry_group_IT_number 53
_symmetry_cell_setting 'orthorhombic'
loop_
_space_group_symop_operation_xyz
x,y,z
1/2-x,-y,1/2+z
x,-y,-z
1/2-x,y,1/2-z
-x,-y,-z
1/2+x,y,1/2-z
-x,y,z
1/2+x,-y,1/2+z
loop_
_atom_site_type_symbol
_atom_site_label
_atom_site_fract_x
_atom_site_fract_y
_atom_site_fract_z
Si Si1 0.694861 0.379273 0.061227
Si Si2 0.307311 0.585560 0.199192
Si Si3 0.188955 0.968174 0.800844
Si Si4 0.806092 0.694631 0.663277
Si Si5 0.306619 0.186026 0.869597
Si Si6 0.804912 0.322801 0.540550
O O1 0.500000 0.377645 0.061541
O O2 0.746623 0.314155 0.109264
O O3 0.739469 0.532056 0.058275
O O4 0.748207 0.313066 0.013009
O O5 0.250000 0.624244 0.250000
O O6 0.500000 0.584330 0.198173
O O7 0.252655 0.439858 0.187092
O O8 0.254389 0.689811 0.161065
O O9 0.250000 0.010934 0.750000
O O10 0.244008 0.821421 0.811033
O O11 0.000000 0.974053 0.799862
O O12 0.250514 0.059230 0.842477
O O13 0.000000 0.698080 0.664129
O O14 0.500000 0.183302 0.870108
O O15 0.251900 0.215289 0.922285
O O16 0.000000 0.320723 0.540016
#
# Coordination Sequence:
#
# PCOD9416368 Si02
#       6
#     8   8   8   8   8   8
#     4   8  13  25  51  86 117 142 173 219 271 319
#     4  10  20  32  51  79 107 135 174 224 275 324
#     4  12  26  42  57  76 105 147 190 229 275 328
#     4  10  19  35  57  83 112 143 180 224 273 325
#     4  10  19  35  57  83 112 143 180 224 273 325
#     4   8  13  25  51  86 117 142 173 219 271 319
#
# _framework density 19.434771999999999
#
# number of rings (size 3 to 8) (size 9 to 14) (size 15 to 20)
#    0.000    2.333    1.667    3.500    0.000    4.000 
#    0.000    0.833    0.000    6.000    0.000    2.333 
#    0.000    0.000    0.000    0.000    0.000    0.000 
#
# Total GULP energy -267819.394008 kJ/mol
# GULP energy per Si atom -5579.570709 kJ/mol
# Density = 1.939054 g / cm^3
# Si number density = 19.434772 Si / 1000 Ang^3
#
#
#
# Elastic Constant Matrix: (Units=GPa)
#
#
# Indices 1 2 3 4 5 6 
#
# 1 11.9922 2.9448 6.2407 0.0000 0.0000 0.0000
# 2 2.9448 38.7576 -16.7051 0.0000 0.0000 0.0000
# 3 6.2407 -16.7051 77.5573 0.0000 0.0000 0.0000
# 4 0.0000 0.0000 0.0000 28.0722 0.0000 0.0000
# 5 0.0000 0.0000 0.0000 0.0000 10.3896 0.0000
# 6 0.0000 0.0000 0.0000 0.0000 0.0000 -6.2249
#
#
#
# Elastic Compliance Matrix: (Units=1/GPa)
#
#
# Indices 1 2 3 4 5 6 
#
# 1 0.091184 -0.011123 -0.009733 0.000000 0.000000 0.000000
# 2 -0.011123 0.029799 0.007313 0.000000 0.000000 0.000000
# 3 -0.009733 0.007313 0.015252 0.000000 0.000000 0.000000
# 4 0.000000 0.000000 0.000000 0.035622 0.000000 0.000000
# 5 0.000000 0.000000 0.000000 0.000000 0.096250 0.000000
# 6 0.000000 0.000000 0.000000 0.000000 0.000000 -0.160646
#
#
# Mechanical properties :
#
#
# Convention : Reuss Voigt Hill
#
# Bulk Modulus (GPa) = 9.16177 12.58532 10.87354
# Shear Modulus (GPa) = 29.25170 15.50249 22.37709
#
# Velocity S-wave (km/s) = 3.88380 2.82736 3.39690
# Velocity P-wave (km/s) = 4.98359 4.14106 4.58173
#
# Compressibility (1/GPa) = 0.10914923
#
# Stress axis : x y z
#
# Youngs Moduli (GPa) = 10.96682 33.55853 65.56466
#
# Poissons Ratio (x) = 0.37328 0.63814
# Poissons Ratio (y) = 0.12199 -0.47950
# Poissons Ratio (z) = 0.10674 -0.24543
#
# Static dielectric constant tensor:
#      x y z
#    x 1.681320 0.000000 0.000000 
#    y 0.000000 1.663280 0.000000 
#    z 0.000000 0.000000 1.709710 
# 
# From -- ./inp_files/37772.got.cif
#   From: 2010.05.17/outbox.cif.g08.bks.cpg/sg53_19_cif.got.tgz:37772.got - 2010.06.03 12:45:16.
