data_PCOD9416644
_publ_section_title
;
Structure prediction by ZEFSAII (Michael W. Deem and Ramdas Pophale) SiO2 
 PCOD9416644
Probable space group: P M N A
;
_chemical_formula_sum "Si O2"
_cell_formula_units_Z 32
_cell_length_a 8.963310
_cell_length_b 7.790293
_cell_length_c 24.043336
_cell_angle_alpha 90.000000
_cell_angle_beta 90.000000
_cell_angle_gamma 90.000000
_cell_volume 1678.869482
_symmetry_space_group_name_H-M "P M N A"
_symmetry_group_IT_number 53
_symmetry_cell_setting 'orthorhombic'
loop_
_space_group_symop_operation_xyz
x,y,z
1/2-x,-y,1/2+z
x,-y,-z
1/2-x,y,1/2-z
-x,-y,-z
1/2+x,y,1/2-z
-x,y,z
1/2+x,-y,1/2+z
loop_
_atom_site_type_symbol
_atom_site_label
_atom_site_fract_x
_atom_site_fract_y
_atom_site_fract_z
Si Si1 0.823260 0.690906 0.877836
Si Si2 0.821334 0.000640 0.689676
Si Si3 0.175296 0.795169 0.507905
Si Si4 0.178100 0.333708 0.615122
O O1 0.765501 0.500245 0.864890
O O2 0.000000 0.702771 0.872069
O O3 0.744451 0.831645 0.839243
O O4 0.772969 0.731815 0.940975
O O5 0.750000 0.023564 0.750000
O O6 0.787168 0.164666 0.650841
O O7 0.000000 0.985981 0.693589
O O8 0.212158 0.705366 0.449564
O O9 0.000000 0.761404 0.520562
O O10 0.191083 0.000000 0.500000
O O11 0.000000 0.364251 0.618896
#
# Coordination Sequence:
#
# PCOD9416644 Si02
#       4
#     8   8   8   8
#     4  12  25  39  61  95 132 166 202 253 309 368
#     4  11  24  45  68  91 120 161 211 260 310 364
#     4  10  19  38  65  92 123 166 209 250 309 371
#     4  10  22  41  66  91 123 166 209 255 307 370
#
# _framework density 19.060445000000001
#
# number of rings (size 3 to 8) (size 9 to 14) (size 15 to 20)
#    0.000    1.250    2.500    3.750    0.000    7.500 
#    0.000    2.500    0.000    0.000    0.000    0.000 
#    0.000    0.000    0.000    0.000    0.000    0.000 
#
# Total GULP energy -179024.217099 kJ/mol
# GULP energy per Si atom -5594.506784 kJ/mol
# Density = 1.901706 g / cm^3
# Si number density = 19.060445 Si / 1000 Ang^3
#
#
#
# Elastic Constant Matrix: (Units=GPa)
#
#
# Indices 1 2 3 4 5 6 
#
# 1 52.3054 27.6445 17.3786 0.0000 0.0000 0.0000
# 2 27.6445 68.3937 -10.8884 0.0000 0.0000 0.0000
# 3 17.3786 -10.8884 56.4767 0.0000 0.0000 0.0000
# 4 0.0000 0.0000 0.0000 -2.5672 0.0000 0.0000
# 5 0.0000 0.0000 0.0000 0.0000 23.6220 0.0000
# 6 0.0000 0.0000 0.0000 0.0000 0.0000 73.3626
#
#
#
# Elastic Compliance Matrix: (Units=1/GPa)
#
#
# Indices 1 2 3 4 5 6 
#
# 1 0.030801 -0.014401 -0.012254 0.000000 0.000000 0.000000
# 2 -0.014401 0.021817 0.008637 0.000000 0.000000 0.000000
# 3 -0.012254 0.008637 0.023142 0.000000 0.000000 0.000000
# 4 0.000000 0.000000 0.000000 -0.389529 0.000000 0.000000
# 5 0.000000 0.000000 0.000000 0.000000 0.042333 0.000000
# 6 0.000000 0.000000 0.000000 0.000000 0.000000 0.013631
#
#
# Mechanical properties :
#
#
# Convention : Reuss Voigt Hill
#
# Bulk Modulus (GPa) = 25.17261 27.27170 26.22215
# Shear Modulus (GPa) = -23.97770 28.41953 2.22092
#
# Velocity S-wave (km/s) = -3.55065 3.86556 1.08061
# Velocity P-wave (km/s) = 1.89053 5.85342 3.91717
#
# Compressibility (1/GPa) = 0.03972573
#
# Stress axis : x y z
#
# Youngs Moduli (GPa) = 32.46647 45.83582 43.21072
#
# Poissons Ratio (x) = 0.66006 0.52951
# Poissons Ratio (y) = 0.46754 -0.37323
# Poissons Ratio (z) = 0.39785 -0.39590
#
# Static dielectric constant tensor:
#      x y z
#    x 1.630180 0.000000 0.000000 
#    y 0.000000 1.654030 0.000000 
#    z 0.000000 0.000000 1.639160 
# 
# From -- ./inp_files/30012.got.cif
#   From: 2010.05.17/outbox.cif.g08.bks.cpg/sg53_16_cif.got.tgz:30012.got - 2010.06.03 12:45:16.
