data_PCOD9416209
_publ_section_title
;
Structure prediction by ZEFSAII (Michael W. Deem and Ramdas Pophale) SiO2 
 PCOD9416209
Probable space group: P M N A
;
_chemical_formula_sum "Si O2"
_cell_formula_units_Z 46
_cell_length_a 23.307409
_cell_length_b 11.324347
_cell_length_c 8.321674
_cell_angle_alpha 90.000000
_cell_angle_beta 90.000000
_cell_angle_gamma 90.000000
_cell_volume 2196.432515
_symmetry_space_group_name_H-M "P M N A"
_symmetry_group_IT_number 53
_symmetry_cell_setting 'orthorhombic'
loop_
_space_group_symop_operation_xyz
x,y,z
1/2-x,-y,1/2+z
x,-y,-z
1/2-x,y,1/2-z
-x,-y,-z
1/2+x,y,1/2-z
-x,y,z
1/2+x,-y,1/2+z
loop_
_atom_site_type_symbol
_atom_site_label
_atom_site_fract_x
_atom_site_fract_y
_atom_site_fract_z
Si Si1 0.108001 0.000000 0.500000
Si Si2 0.848282 0.609245 0.412171
Si Si3 0.000000 0.000000 0.000000
Si Si4 0.096369 0.800335 0.992697
Si Si5 0.932411 0.243949 0.358287
Si Si6 0.938082 0.429593 0.834798
Si Si7 0.814830 0.850956 0.254472
O O1 0.072718 0.108393 0.422478
O O2 0.146492 0.061948 0.637281
O O3 0.816961 0.500000 0.500000
O O4 0.897532 0.672729 0.520126
O O5 0.884018 0.544425 0.273023
O O6 0.814457 0.720372 0.338016
O O7 0.050184 0.901691 0.975222
O O8 0.099271 0.747998 0.813886
O O9 0.069230 0.706340 0.115779
O O10 0.154882 0.839499 0.080264
O O11 0.000000 0.273241 0.343651
O O12 0.000000 0.448884 0.755854
O O13 0.937083 0.500000 0.000000
O O14 0.750000 0.894681 0.250000
#
# Coordination Sequence:
#
# PCOD9416209 Si02
#       7
#     4   8   2   8   8   8   8
#     4  10  23  39  58  88 121 163 206 256 314 374
#     4  10  22  39  60  89 126 165 213 265 322 379
#     4  12  20  34  58  94 126 148 198 254 326 384
#     4  11  22  36  59  90 123 160 203 256 313 381
#     4  11  21  37  58  92 132 164 202 251 322 394
#     4  10  19  34  56  85 124 165 207 253 310 384
#     4  10  24  45  65  87 123 165 219 266 312 372
#
# _framework density 20.943051000000001
#
# number of rings (size 3 to 8) (size 9 to 14) (size 15 to 20)
#    0.000    1.565    1.739    2.870    0.000    4.870 
#    4.696    7.826    0.000    0.000    0.000    0.000 
#    0.000    0.000    0.000    0.000    0.000    0.000 
#
# Total GULP energy -256269.559320 kJ/mol
# GULP energy per Si atom -5571.077377 kJ/mol
# Density = 2.089538 g / cm^3
# Si number density = 20.943051 Si / 1000 Ang^3
#
#
#
# Elastic Constant Matrix: (Units=GPa)
#
#
# Indices 1 2 3 4 5 6 
#
# 1 72.0397 -23.7255 27.2041 0.0000 0.0000 0.0000
# 2 -23.7255 40.2693 -2.7001 0.0000 0.0000 0.0000
# 3 27.2041 -2.7001 73.9122 0.0000 0.0000 0.0000
# 4 0.0000 0.0000 0.0000 -3.5112 0.0000 0.0000
# 5 0.0000 0.0000 0.0000 0.0000 4.8884 0.0000
# 6 0.0000 0.0000 0.0000 0.0000 0.0000 -103.2305
#
#
#
# Elastic Compliance Matrix: (Units=1/GPa)
#
#
# Indices 1 2 3 4 5 6 
#
# 1 0.020340 0.011510 -0.007066 0.000000 0.000000 0.000000
# 2 0.011510 0.031407 -0.003089 0.000000 0.000000 0.000000
# 3 -0.007066 -0.003089 0.016017 0.000000 0.000000 0.000000
# 4 0.000000 0.000000 0.000000 -0.284801 0.000000 0.000000
# 5 0.000000 0.000000 0.000000 0.000000 0.204565 0.000000
# 6 0.000000 0.000000 0.000000 0.000000 0.000000 -0.009687
#
#
# Mechanical properties :
#
#
# Convention : Reuss Voigt Hill
#
# Bulk Modulus (GPa) = 14.18945 20.86425 17.52685
# Shear Modulus (GPa) = -3629.71856 -8.00781 -1818.86319
#
# Velocity S-wave (km/s) = -41.67613 -1.95753 -29.50196
# Velocity P-wave (km/s) = 48.05285 2.20789 33.94261
#
# Compressibility (1/GPa) = 0.07047488
#
# Stress axis : x y z
#
# Youngs Moduli (GPa) = 49.16364 31.83995 62.43205
#
# Poissons Ratio (x) = -0.36648 0.44114
# Poissons Ratio (y) = -0.56588 0.19286
# Poissons Ratio (z) = 0.34739 0.09836
#
# Static dielectric constant tensor:
#      x y z
#    x 1.688100 0.000000 0.000000 
#    y 0.000000 1.793870 0.000000 
#    z 0.000000 0.000000 1.825160 
# 
# From -- ./inp_files/11802.got.cif
#   From: 2010.05.17/outbox.cif.g08.bks.cpg/sg53_6_cif.got.tgz:11802.got - 2010.06.03 12:45:16.
