data_PCOD9416241
_publ_section_title
;
Structure prediction by ZEFSAII (Michael W. Deem and Ramdas Pophale) SiO2 
 PCOD9416241
Probable space group: P M N A
;
_chemical_formula_sum "Si O2"
_cell_formula_units_Z 64
_cell_length_a 8.183465
_cell_length_b 14.665311
_cell_length_c 26.041094
_cell_angle_alpha 90.000000
_cell_angle_beta 90.000000
_cell_angle_gamma 90.000000
_cell_volume 3125.271358
_symmetry_space_group_name_H-M "P M N A"
_symmetry_group_IT_number 53
_symmetry_cell_setting 'orthorhombic'
loop_
_space_group_symop_operation_xyz
x,y,z
1/2-x,-y,1/2+z
x,-y,-z
1/2-x,y,1/2-z
-x,-y,-z
1/2+x,y,1/2-z
-x,y,z
1/2+x,-y,1/2+z
loop_
_atom_site_type_symbol
_atom_site_label
_atom_site_fract_x
_atom_site_fract_y
_atom_site_fract_z
Si Si1 0.192634 0.533216 0.556215
Si Si2 0.803667 0.008727 0.664861
Si Si3 0.194917 0.645116 0.104405
Si Si4 0.304699 0.732017 0.588846
Si Si5 0.194138 0.185604 0.195682
Si Si6 0.304368 0.213532 0.692778
Si Si7 0.310141 0.026336 0.946144
Si Si8 0.304508 0.790972 0.479503
O O1 0.256219 0.500000 0.500000
O O2 0.223088 0.452460 0.597012
O O3 0.270156 0.626673 0.576370
O O4 0.000000 0.549748 0.550393
O O5 0.752708 0.109347 0.682907
O O6 0.736956 0.993637 0.606915
O O7 0.000000 0.007947 0.664139
O O8 0.743539 0.920704 0.694762
O O9 0.252300 0.713296 0.149782
O O10 0.219926 0.696830 0.050225
O O11 0.000000 0.632172 0.111137
O O12 0.500000 0.744348 0.589315
O O13 0.239294 0.766961 0.643586
O O14 0.245760 0.786815 0.538273
O O15 0.250000 0.226259 0.250000
O O16 0.000000 0.191549 0.194077
O O17 0.250000 0.240042 0.750000
O O18 0.500000 0.211843 0.689902
O O19 0.500000 0.997980 0.947244
O O20 0.293534 0.134800 0.947344
O O21 0.229472 0.000000 0.000000
O O22 0.500000 0.810606 0.477465
#
# Coordination Sequence:
#
# PCOD9416241 Si02
#       8
#     8   8   8   8   8   8   8   8
#     4  11  23  37  60  94 125 154 190 236 292 353
#     4  11  22  37  59  86 119 159 200 245 293 345
#     4  10  21  38  61  86 118 155 193 238 289 348
#     4  10  22  40  63  89 118 155 197 240 293 354
#     4  11  24  42  63  87 116 155 202 249 294 343
#     4  11  23  40  61  87 118 156 202 247 292 345
#     4  10  21  34  50  79 119 159 194 235 293 351
#     4  10  19  34  57  85 115 150 190 237 289 344
#
# _framework density 20.478223
#
# number of rings (size 3 to 8) (size 9 to 14) (size 15 to 20)
#    0.000    1.500    2.500    2.625    0.000    4.250 
#    0.000    0.625    0.000    0.000    0.000    0.000 
#    0.000    0.000    0.000    0.000    0.000    0.000 
#
# Total GULP energy -357307.709581 kJ/mol
# GULP energy per Si atom -5582.932962 kJ/mol
# Density = 2.043161 g / cm^3
# Si number density = 20.478223 Si / 1000 Ang^3
#
#
#
# Elastic Constant Matrix: (Units=GPa)
#
#
# Indices 1 2 3 4 5 6 
#
# 1 17.4427 -7.4485 13.2614 0.0000 0.0000 0.0000
# 2 -7.4485 59.0016 36.5036 0.0000 0.0000 0.0000
# 3 13.2614 36.5036 165.5498 0.0000 0.0000 0.0000
# 4 0.0000 0.0000 0.0000 18.3303 0.0000 0.0000
# 5 0.0000 0.0000 0.0000 0.0000 20.7617 0.0000
# 6 0.0000 0.0000 0.0000 0.0000 0.0000 3.8199
#
#
#
# Elastic Compliance Matrix: (Units=1/GPa)
#
#
# Indices 1 2 3 4 5 6 
#
# 1 0.070083 0.014267 -0.008760 0.000000 0.000000 0.000000
# 2 0.014267 0.022531 -0.006111 0.000000 0.000000 0.000000
# 3 -0.008760 -0.006111 0.008090 0.000000 0.000000 0.000000
# 4 0.000000 0.000000 0.000000 0.054555 0.000000 0.000000
# 5 0.000000 0.000000 0.000000 0.000000 0.048166 0.000000
# 6 0.000000 0.000000 0.000000 0.000000 0.000000 0.261784
#
#
# Mechanical properties :
#
#
# Convention : Reuss Voigt Hill
#
# Bulk Modulus (GPa) = 10.05068 36.29191 23.17129
# Shear Modulus (GPa) = 10.00840 21.89422 15.95131
#
# Velocity S-wave (km/s) = 2.21313 3.27333 2.79398
# Velocity P-wave (km/s) = 3.38367 5.66100 4.66348
#
# Compressibility (1/GPa) = 0.09949580
#
# Stress axis : x y z
#
# Youngs Moduli (GPa) = 14.26881 44.38425 123.61510
#
# Poissons Ratio (x) = -0.63323 1.08286
# Poissons Ratio (y) = -0.20357 0.75539
# Poissons Ratio (z) = 0.12499 0.27122
#
# Static dielectric constant tensor:
#      x y z
#    x 1.717340 0.000000 0.000000 
#    y 0.000000 1.744490 0.000000 
#    z 0.000000 0.000000 1.782190 
# 
# From -- ./inp_files/34190.got.cif
#   From: 2010.05.17/outbox.cif.g08.bks.cpg/sg53_18_cif.got.tgz:34190.got - 2010.06.03 12:45:16.
