data_PCOD9416465
_publ_section_title
;
Structure prediction by ZEFSAII (Michael W. Deem and Ramdas Pophale) SiO2 
 PCOD9416465
Probable space group: P M N A
;
_chemical_formula_sum "Si O2"
_cell_formula_units_Z 40
_cell_length_a 20.456406
_cell_length_b 20.393888
_cell_length_c 5.247639
_cell_angle_alpha 90.000000
_cell_angle_beta 90.000000
_cell_angle_gamma 90.000000
_cell_volume 2189.239702
_symmetry_space_group_name_H-M "P M N A"
_symmetry_group_IT_number 53
_symmetry_cell_setting 'orthorhombic'
loop_
_space_group_symop_operation_xyz
x,y,z
1/2-x,-y,1/2+z
x,-y,-z
1/2-x,y,1/2-z
-x,-y,-z
1/2+x,y,1/2-z
-x,y,z
1/2+x,-y,1/2+z
loop_
_atom_site_type_symbol
_atom_site_label
_atom_site_fract_x
_atom_site_fract_y
_atom_site_fract_z
Si Si1 0.250000 0.758216 0.250000
Si Si2 0.575033 0.756901 0.688365
Si Si3 0.204394 0.000000 0.000000
Si Si4 0.819493 0.141401 0.107115
Si Si5 0.875407 0.314125 0.671376
Si Si6 0.076755 0.543253 0.245780
O O1 0.298193 0.808725 0.387768
O O2 0.198567 0.710590 0.388864
O O3 0.500000 0.776946 0.660924
O O4 0.621927 0.819701 0.740890
O O5 0.597708 0.720386 0.429307
O O6 0.583200 0.708255 0.926986
O O7 0.164246 0.067343 0.028625
O O8 0.250000 0.991282 0.250000
O O9 0.750000 0.135321 0.250000
O O10 0.881648 0.391127 0.719996
O O11 0.081643 0.500000 0.500000
O O12 0.000000 0.562424 0.213374
O O13 0.095013 0.500000 0.000000
#
# Coordination Sequence:
#
# PCOD9416465 Si02
#       6
#     4   8   4   8   8   8
#     4  10  20  36  56  84 108 150 180 238 274 340
#     4  11  22  35  57  84 115 147 187 235 285 334
#     4  10  20  32  57  82 111 148 194 234 274 332
#     4  10  19  36  55  84 112 149 190 235 278 335
#     4  11  22  37  58  82 114 143 189 228 288 328
#     4  10  20  35  54  76 105 142 183 225 272 332
#
# _framework density 18.271183000000001
#
# number of rings (size 3 to 8) (size 9 to 14) (size 15 to 20)
#    0.000    1.600    3.000    3.000    0.000    1.600 
#    0.000    1.500    0.000    0.000    0.000    7.700 
#    0.000    0.000    0.000    0.000    0.000    0.000 
#
# Total GULP energy -222803.834594 kJ/mol
# GULP energy per Si atom -5570.095865 kJ/mol
# Density = 1.822960 g / cm^3
# Si number density = 18.271183 Si / 1000 Ang^3
#
#
#
# Elastic Constant Matrix: (Units=GPa)
#
#
# Indices 1 2 3 4 5 6 
#
# 1 51.5234 36.4591 1.4966 0.0000 0.0000 0.0000
# 2 36.4591 139.0837 22.8511 0.0000 0.0000 0.0000
# 3 1.4966 22.8511 92.5624 0.0000 0.0000 0.0000
# 4 0.0000 0.0000 0.0000 22.9225 0.0000 0.0000
# 5 0.0000 0.0000 0.0000 0.0000 -44.3358 0.0000
# 6 0.0000 0.0000 0.0000 0.0000 0.0000 -0.9471
#
#
#
# Elastic Compliance Matrix: (Units=1/GPa)
#
#
# Indices 1 2 3 4 5 6 
#
# 1 0.023959 -0.006480 0.001212 0.000000 0.000000 0.000000
# 2 -0.006480 0.009246 -0.002178 0.000000 0.000000 0.000000
# 3 0.001212 -0.002178 0.011322 0.000000 0.000000 0.000000
# 4 0.000000 0.000000 0.000000 0.043625 0.000000 0.000000
# 5 0.000000 0.000000 0.000000 0.000000 -0.022555 0.000000
# 6 0.000000 0.000000 0.000000 0.000000 0.000000 -1.055827
#
#
# Mechanical properties :
#
#
# Convention : Reuss Voigt Hill
#
# Bulk Modulus (GPa) = 33.74279 44.97590 39.35934
# Shear Modulus (GPa) = -5.17887 10.35209 2.58661
#
# Velocity S-wave (km/s) = -1.68541 2.38288 1.19111
# Velocity P-wave (km/s) = 3.83672 5.67803 4.84564
#
# Compressibility (1/GPa) = 0.02963596
#
# Stress axis : x y z
#
# Youngs Moduli (GPa) = 41.73872 108.15142 88.32683
#
# Poissons Ratio (x) = 0.70078 -0.10708
# Poissons Ratio (y) = 0.27045 0.19237
# Poissons Ratio (z) = -0.05060 0.23554
#
# Static dielectric constant tensor:
#      x y z
#    x 1.655460 0.000000 0.000000 
#    y 0.000000 1.675000 0.000000 
#    z 0.000000 0.000000 1.635900 
# 
# From -- ./inp_files/2896.got.cif
#   From: 2010.05.17/outbox.cif.g08.bks.cpg/sg53_2_cif.got.tgz:2896.got - 2010.06.03 12:45:16.
