data_PCOD9416544
_publ_section_title
;
Structure prediction by ZEFSAII (Michael W. Deem and Ramdas Pophale) SiO2 
 PCOD9416544
Probable space group: P M N A
;
_chemical_formula_sum "Si O2"
_cell_formula_units_Z 48
_cell_length_a 14.790763
_cell_length_b 9.879796
_cell_length_c 15.441800
_cell_angle_alpha 90.000000
_cell_angle_beta 90.000000
_cell_angle_gamma 90.000000
_cell_volume 2256.505928
_symmetry_space_group_name_H-M "P M N A"
_symmetry_group_IT_number 53
_symmetry_cell_setting 'orthorhombic'
loop_
_space_group_symop_operation_xyz
x,y,z
1/2-x,-y,1/2+z
x,-y,-z
1/2-x,y,1/2-z
-x,-y,-z
1/2+x,y,1/2-z
-x,y,z
1/2+x,-y,1/2+z
loop_
_atom_site_type_symbol
_atom_site_label
_atom_site_fract_x
_atom_site_fract_y
_atom_site_fract_z
Si Si1 0.598134 0.422214 0.591127
Si Si2 0.606780 0.783891 0.929402
Si Si3 0.211015 0.481604 0.394628
Si Si4 0.604863 0.256905 0.862980
Si Si5 0.598561 0.900369 0.417632
Si Si6 0.284681 0.991994 0.165495
O O1 0.592748 0.500000 0.500000
O O2 0.500000 0.438758 0.635528
O O3 0.686784 0.486125 0.635363
O O4 0.609116 0.262107 0.569884
O O5 0.500000 0.773221 0.909086
O O6 0.665350 0.664164 0.886031
O O7 0.650762 0.920633 0.894783
O O8 0.614458 0.775845 0.033833
O O9 0.212005 0.500000 0.500000
O O10 0.147624 0.595840 0.353806
O O11 0.500000 0.254750 0.840765
O O12 0.659677 0.143445 0.811586
O O13 0.500000 0.916948 0.372054
O O14 0.592263 0.000000 0.500000
O O15 0.691902 0.946687 0.377231
O O16 0.250000 0.070017 0.250000
#
# Coordination Sequence:
#
# PCOD9416544 Si02
#       6
#     8   8   8   8   8   8
#     4   9  17  30  53  87 119 146 179 231 293 342
#     4  10  21  38  63  90 117 148 192 243 292 344
#     4   9  17  31  57  92 117 143 180 245 300 343
#     4  10  19  36  63  90 114 145 193 244 295 344
#     4  10  21  37  59  85 113 148 195 242 283 335
#     4  12  25  38  54  82 117 163 193 234 283 344
#
# _framework density 21.271823999999999
#
# number of rings (size 3 to 8) (size 9 to 14) (size 15 to 20)
#    0.000    2.000    1.667    2.500    4.667    4.667 
#    0.000    0.833    0.000    0.000    0.000    0.000 
#    0.000    0.000    0.000    0.000    0.000    0.000 
#
# Total GULP energy -267735.535019 kJ/mol
# GULP energy per Si atom -5577.823646 kJ/mol
# Density = 2.122341 g / cm^3
# Si number density = 21.271824 Si / 1000 Ang^3
#
#
#
# Elastic Constant Matrix: (Units=GPa)
#
#
# Indices 1 2 3 4 5 6 
#
# 1 186.6164 54.5635 26.6582 0.0000 0.0000 0.0000
# 2 54.5635 104.3228 7.6432 0.0000 0.0000 0.0000
# 3 26.6582 7.6432 21.9858 0.0000 0.0000 0.0000
# 4 0.0000 0.0000 0.0000 7.1768 0.0000 0.0000
# 5 0.0000 0.0000 0.0000 0.0000 -4.5037 0.0000
# 6 0.0000 0.0000 0.0000 0.0000 0.0000 42.9078
#
#
#
# Elastic Compliance Matrix: (Units=1/GPa)
#
#
# Indices 1 2 3 4 5 6 
#
# 1 0.007456 -0.003322 -0.007886 0.000000 0.000000 0.000000
# 2 -0.003322 0.011316 0.000094 0.000000 0.000000 0.000000
# 3 -0.007886 0.000094 0.055013 0.000000 0.000000 0.000000
# 4 0.000000 0.000000 0.000000 0.139338 0.000000 0.000000
# 5 0.000000 0.000000 0.000000 0.000000 -0.222040 0.000000
# 6 0.000000 0.000000 0.000000 0.000000 0.000000 0.023306
#
#
# Mechanical properties :
#
#
# Convention : Reuss Voigt Hill
#
# Bulk Modulus (GPa) = 19.39577 54.51720 36.95649
# Shear Modulus (GPa) = 92.92911 24.05352 58.49132
#
# Velocity S-wave (km/s) = 6.61675 3.36634 5.24946
# Velocity P-wave (km/s) = 8.21663 6.38703 7.35891
#
# Compressibility (1/GPa) = 0.05155763
#
# Stress axis : x y z
#
# Youngs Moduli (GPa) = 134.11179 88.36808 18.17745
#
# Poissons Ratio (x) = 0.29357 0.14335
# Poissons Ratio (y) = 0.44554 -0.00171
# Poissons Ratio (z) = 1.05763 -0.00832
#
# Static dielectric constant tensor:
#      x y z
#    x 1.781810 0.000000 0.000000 
#    y 0.000000 1.747250 0.000000 
#    z 0.000000 0.000000 1.842040 
# 
# From -- ./inp_files/28245.got.cif
#   From: 2010.05.17/outbox.cif.g08.bks.cpg/sg53_15_cif.got.tgz:28245.got - 2010.06.03 12:45:16.
