data_PCOD9416134
_publ_section_title
;
Structure prediction by ZEFSAII (Michael W. Deem and Ramdas Pophale) SiO2 
 PCOD9416134
Probable space group: P M N A
;
_chemical_formula_sum "Si O2"
_cell_formula_units_Z 52
_cell_length_a 18.061896
_cell_length_b 9.723851
_cell_length_c 17.078253
_cell_angle_alpha 90.000000
_cell_angle_beta 90.000000
_cell_angle_gamma 90.000000
_cell_volume 2999.473820
_symmetry_space_group_name_H-M "P M N A"
_symmetry_group_IT_number 53
_symmetry_cell_setting 'orthorhombic'
loop_
_space_group_symop_operation_xyz
x,y,z
1/2-x,-y,1/2+z
x,-y,-z
1/2-x,y,1/2-z
-x,-y,-z
1/2+x,y,1/2-z
-x,y,z
1/2+x,-y,1/2+z
loop_
_atom_site_type_symbol
_atom_site_label
_atom_site_fract_x
_atom_site_fract_y
_atom_site_fract_z
Si Si1 0.415827 0.937102 0.267365
Si Si2 0.132121 0.630797 0.246601
Si Si3 0.192806 0.876075 0.678741
Si Si4 0.744101 0.324618 0.621600
Si Si5 0.167531 0.500000 0.500000
Si Si6 0.414524 0.620757 0.850140
Si Si7 0.185646 0.019226 0.911697
O O1 0.500000 0.983131 0.257014
O O2 0.413060 0.771055 0.266873
O O3 0.379782 0.992670 0.348048
O O4 0.361251 0.997782 0.201303
O O5 0.192573 0.673121 0.312212
O O6 0.175731 0.599670 0.165719
O O7 0.092579 0.499716 0.284797
O O8 0.250000 0.855721 0.750000
O O9 0.140994 0.744617 0.669465
O O10 0.246585 0.915647 0.607277
O O11 0.778775 0.395154 0.545728
O O12 0.717920 0.171463 0.602921
O O13 0.115338 0.436286 0.433022
O O14 0.500000 0.663702 0.855506
O O15 0.160116 0.000000 0.000000
#
# Coordination Sequence:
#
# PCOD9416134 Si02
#       7
#     8   8   8   8   4   8   8
#     4  10  19  35  56  79 105 137 176 219 266 314
#     4   9  18  33  57  77 100 138 184 216 253 305
#     4  10  21  35  56  79 104 139 181 219 259 308
#     4   9  17  33  54  79 102 137 181 221 248 306
#     4  10  21  32  54  78 109 142 172 212 267 318
#     4  11  22  35  52  79 112 140 171 219 271 317
#     4  10  19  34  54  79 107 137 175 220 262 311
#
# _framework density 17.336373999999999
#
# number of rings (size 3 to 8) (size 9 to 14) (size 15 to 20)
#    0.000    2.154    1.538    2.077    4.308    0.308 
#    0.000    0.000    0.000    1.846    0.000    2.692 
#    0.000    0.000    0.000    0.000    0.000    0.000 
#
# Total GULP energy -289764.478383 kJ/mol
# GULP energy per Si atom -5572.393815 kJ/mol
# Density = 1.729692 g / cm^3
# Si number density = 17.336374 Si / 1000 Ang^3
#
#
#
# Elastic Constant Matrix: (Units=GPa)
#
#
# Indices 1 2 3 4 5 6 
#
# 1 100.6137 31.1545 19.0298 0.0000 0.0000 0.0000
# 2 31.1545 61.5636 9.6758 0.0000 0.0000 0.0000
# 3 19.0298 9.6758 49.4272 0.0000 0.0000 0.0000
# 4 0.0000 0.0000 0.0000 18.5348 0.0000 0.0000
# 5 0.0000 0.0000 0.0000 0.0000 6.9765 0.0000
# 6 0.0000 0.0000 0.0000 0.0000 0.0000 16.4447
#
#
#
# Elastic Compliance Matrix: (Units=1/GPa)
#
#
# Indices 1 2 3 4 5 6 
#
# 1 0.012395 -0.005698 -0.003657 0.000000 0.000000 0.000000
# 2 -0.005698 0.019378 -0.001600 0.000000 0.000000 0.000000
# 3 -0.003657 -0.001600 0.021953 0.000000 0.000000 0.000000
# 4 0.000000 0.000000 0.000000 0.053953 0.000000 0.000000
# 5 0.000000 0.000000 0.000000 0.000000 0.143338 0.000000
# 6 0.000000 0.000000 0.000000 0.000000 0.000000 0.060810
#
#
# Mechanical properties :
#
#
# Convention : Reuss Voigt Hill
#
# Bulk Modulus (GPa) = 31.42939 36.81385 34.12162
# Shear Modulus (GPa) = 14.52050 18.50749 16.51399
#
# Velocity S-wave (km/s) = 2.89723 3.27089 3.08971
# Velocity P-wave (km/s) = 5.41853 5.96205 5.69677
#
# Compressibility (1/GPa) = 0.03181735
#
# Stress axis : x y z
#
# Youngs Moduli (GPa) = 80.67826 51.60450 45.55226
#
# Poissons Ratio (x) = 0.29403 0.16657
# Poissons Ratio (y) = 0.45969 0.07287
# Poissons Ratio (z) = 0.29502 0.08255
#
# Static dielectric constant tensor:
#      x y z
#    x 1.581790 0.000000 0.000000 
#    y 0.000000 1.599090 0.000000 
#    z 0.000000 0.000000 1.584300 
# 
# From -- ./inp_files/28960.got.cif
#   From: 2010.05.17/outbox.cif.g08.bks.cpg/sg53_15_cif.got.tgz:28960.got - 2010.06.03 12:45:16.
