data_PCOD9416452
_publ_section_title
;
Structure prediction by ZEFSAII (Michael W. Deem and Ramdas Pophale) SiO2 
 PCOD9416452
Probable space group: P M N A
;
_chemical_formula_sum "Si O2"
_cell_formula_units_Z 44
_cell_length_a 26.611197
_cell_length_b 16.494472
_cell_length_c 5.150528
_cell_angle_alpha 90.000000
_cell_angle_beta 90.000000
_cell_angle_gamma 90.000000
_cell_volume 2260.760625
_symmetry_space_group_name_H-M "P M N A"
_symmetry_group_IT_number 53
_symmetry_cell_setting 'orthorhombic'
loop_
_space_group_symop_operation_xyz
x,y,z
1/2-x,-y,1/2+z
x,-y,-z
1/2-x,y,1/2-z
-x,-y,-z
1/2+x,y,1/2-z
-x,y,z
1/2+x,-y,1/2+z
loop_
_atom_site_type_symbol
_atom_site_label
_atom_site_fract_x
_atom_site_fract_y
_atom_site_fract_z
Si Si1 0.659565 0.181667 0.316158
Si Si2 0.655927 0.553106 0.256561
Si Si3 0.442997 0.348007 0.676249
Si Si4 0.057214 0.233925 0.324119
Si Si5 0.193356 0.268665 0.686324
Si Si6 0.750000 0.055735 0.250000
O O1 0.601701 0.170073 0.230063
O O2 0.661225 0.217593 0.605693
O O3 0.699911 0.109902 0.290946
O O4 0.679336 0.248017 0.108134
O O5 0.672336 0.500000 0.500000
O O6 0.598552 0.583135 0.296791
O O7 0.686027 0.636691 0.234974
O O8 0.660172 0.500000 0.000000
O O9 0.500000 0.379122 0.699077
O O10 0.438124 0.301425 0.402954
O O11 0.435730 0.282045 0.906129
O O12 0.000000 0.201982 0.316307
O O13 0.250000 0.244118 0.750000
O O14 0.757301 0.000000 0.500000
#
# Coordination Sequence:
#
# PCOD9416452 Si02
#       6
#     8   8   8   8   8   4
#     4  12  21  41  68  90 123 163 193 246 294 360
#     4  12  24  36  54  79 120 159 206 264 314 353
#     4  10  20  35  55  81 115 152 206 263 304 353
#     4  10  19  35  62  91 114 152 209 254 287 348
#     4  12  23  40  62  87 112 162 218 244 300 366
#     4  12  26  42  66 104 132 150 188 236 304 362
#
# _framework density 19.462475999999999
#
# number of rings (size 3 to 8) (size 9 to 14) (size 15 to 20)
#    0.000    0.727    5.455    3.273    0.000    1.455 
#    0.000    0.000    0.000    1.091    0.000    0.000 
#    0.000    0.000    0.000    0.000    0.000    0.000 
#
# Total GULP energy -245908.008244 kJ/mol
# GULP energy per Si atom -5588.818369 kJ/mol
# Density = 1.941818 g / cm^3
# Si number density = 19.462476 Si / 1000 Ang^3
#
#
#
# Elastic Constant Matrix: (Units=GPa)
#
#
# Indices 1 2 3 4 5 6 
#
# 1 68.6339 18.5838 -0.4039 0.0000 0.0000 0.0000
# 2 18.5838 74.5253 27.9568 0.0000 0.0000 0.0000
# 3 -0.4039 27.9568 115.6189 0.0000 0.0000 0.0000
# 4 0.0000 0.0000 0.0000 27.7532 0.0000 0.0000
# 5 0.0000 0.0000 0.0000 0.0000 28.5233 0.0000
# 6 0.0000 0.0000 0.0000 0.0000 0.0000 22.9105
#
#
#
# Elastic Compliance Matrix: (Units=1/GPa)
#
#
# Indices 1 2 3 4 5 6 
#
# 1 0.015752 -0.004343 0.001105 0.000000 0.000000 0.000000
# 2 -0.004343 0.015954 -0.003873 0.000000 0.000000 0.000000
# 3 0.001105 -0.003873 0.009589 0.000000 0.000000 0.000000
# 4 0.000000 0.000000 0.000000 0.036032 0.000000 0.000000
# 5 0.000000 0.000000 0.000000 0.000000 0.035059 0.000000
# 6 0.000000 0.000000 0.000000 0.000000 0.000000 0.043648
#
#
# Mechanical properties :
#
#
# Convention : Reuss Voigt Hill
#
# Bulk Modulus (GPa) = 36.93439 39.00571 37.97005
# Shear Modulus (GPa) = 27.88927 30.01352 28.95139
#
# Velocity S-wave (km/s) = 3.78957 3.93125 3.86106
# Velocity P-wave (km/s) = 6.17788 6.37897 6.27923
#
# Compressibility (1/GPa) = 0.02707504
#
# Stress axis : x y z
#
# Youngs Moduli (GPa) = 63.48241 62.68038 104.28157
#
# Poissons Ratio (x) = 0.27220 -0.11524
# Poissons Ratio (y) = 0.27568 0.40387
# Poissons Ratio (z) = -0.07015 0.24275
#
# Static dielectric constant tensor:
#      x y z
#    x 1.738640 0.000000 0.000000 
#    y 0.000000 1.633660 0.000000 
#    z 0.000000 0.000000 1.663170 
# 
# From -- ./inp_files/4409.got.cif
#   From: 2010.05.17/outbox.cif.g08.bks.cpg/sg53_3_cif.got.tgz:4409.got - 2010.06.03 12:45:16.
