data_PCOD9416383
_publ_section_title
;
Structure prediction by ZEFSAII (Michael W. Deem and Ramdas Pophale) SiO2 
 PCOD9416383
Probable space group: P M N A
;
_chemical_formula_sum "Si O2"
_cell_formula_units_Z 48
_cell_length_a 8.781595
_cell_length_b 16.789752
_cell_length_c 18.370433
_cell_angle_alpha 90.000000
_cell_angle_beta 90.000000
_cell_angle_gamma 90.000000
_cell_volume 2708.551379
_symmetry_space_group_name_H-M "P M N A"
_symmetry_group_IT_number 53
_symmetry_cell_setting 'orthorhombic'
loop_
_space_group_symop_operation_xyz
x,y,z
1/2-x,-y,1/2+z
x,-y,-z
1/2-x,y,1/2-z
-x,-y,-z
1/2+x,y,1/2-z
-x,y,z
1/2+x,-y,1/2+z
loop_
_atom_site_type_symbol
_atom_site_label
_atom_site_fract_x
_atom_site_fract_y
_atom_site_fract_z
Si Si1 0.318217 0.148719 0.169446
Si Si2 0.818481 0.335375 0.671867
Si Si3 0.181962 0.996957 0.086577
Si Si4 0.182673 0.828646 0.404529
Si Si5 0.182332 0.251847 0.047663
Si Si6 0.682882 0.585097 0.469499
O O1 0.250000 0.149621 0.250000
O O2 0.500000 0.149803 0.171749
O O3 0.255383 0.222449 0.122210
O O4 0.260750 0.069692 0.127743
O O5 0.750000 0.354972 0.750000
O O6 0.778804 0.244176 0.649434
O O7 0.755753 0.390512 0.607184
O O8 0.000000 0.341187 0.674002
O O9 0.243002 0.912526 0.115382
O O10 0.000000 0.002648 0.095203
O O11 0.216157 0.000000 0.000000
O O12 0.248608 0.801614 0.482673
O O13 0.000000 0.836080 0.408854
O O14 0.216113 0.342843 0.025432
O O15 0.000000 0.240670 0.049496
O O16 0.733815 0.500000 0.500000
O O17 0.500000 0.582756 0.460151
#
# Coordination Sequence:
#
# PCOD9416383 Si02
#       6
#     8   8   8   8   8   8
#     4  12  25  40  58  80 112 149 191 238 285 333
#     4  10  21  36  56  84 117 151 187 231 283 335
#     4  11  22  36  57  83 113 150 193 236 282 333
#     4  10  20  34  55  82 110 147 191 231 277 332
#     4  10  19  35  58  83 111 143 183 228 276 334
#     4   9  19  37  62  89 116 148 185 227 278 338
#
# _framework density 17.72165
#
# number of rings (size 3 to 8) (size 9 to 14) (size 15 to 20)
#    0.000    1.667    1.667    3.500    0.000    4.333 
#    0.000    2.500    0.000    0.000    0.000    0.000 
#    0.000    0.000    0.000    0.000    0.000    0.000 
#
# Total GULP energy -268172.675817 kJ/mol
# GULP energy per Si atom -5586.930746 kJ/mol
# Density = 1.768131 g / cm^3
# Si number density = 17.721650 Si / 1000 Ang^3
#
#
#
# Elastic Constant Matrix: (Units=GPa)
#
#
# Indices 1 2 3 4 5 6 
#
# 1 76.0036 50.7660 63.5522 0.0000 0.0000 0.0000
# 2 50.7660 127.9997 74.6818 0.0000 0.0000 0.0000
# 3 63.5522 74.6818 145.5438 0.0000 0.0000 0.0000
# 4 0.0000 0.0000 0.0000 17.1203 0.0000 0.0000
# 5 0.0000 0.0000 0.0000 0.0000 30.6873 0.0000
# 6 0.0000 0.0000 0.0000 0.0000 0.0000 24.9559
#
#
#
# Elastic Compliance Matrix: (Units=1/GPa)
#
#
# Indices 1 2 3 4 5 6 
#
# 1 0.022433 -0.004542 -0.007465 0.000000 0.000000 0.000000
# 2 -0.004542 0.012070 -0.004210 0.000000 0.000000 0.000000
# 3 -0.007465 -0.004210 0.012291 0.000000 0.000000 0.000000
# 4 0.000000 0.000000 0.000000 0.058410 0.000000 0.000000
# 5 0.000000 0.000000 0.000000 0.000000 0.032587 0.000000
# 6 0.000000 0.000000 0.000000 0.000000 0.000000 0.040071
#
#
# Mechanical properties :
#
#
# Convention : Reuss Voigt Hill
#
# Bulk Modulus (GPa) = 69.63806 80.83857 75.23832
# Shear Modulus (GPa) = 23.24689 25.25584 24.25136
#
# Velocity S-wave (km/s) = 3.62578 3.77920 3.70328
# Velocity P-wave (km/s) = 7.54381 8.04723 7.79958
#
# Compressibility (1/GPa) = 0.01435996
#
# Stress axis : x y z
#
# Youngs Moduli (GPa) = 44.57753 82.84738 81.36131
#
# Poissons Ratio (x) = 0.37626 0.60736
# Poissons Ratio (y) = 0.20246 0.34257
# Poissons Ratio (z) = 0.33277 0.34883
#
# Static dielectric constant tensor:
#      x y z
#    x 1.587670 0.000000 0.000000 
#    y 0.000000 1.603960 0.000000 
#    z 0.000000 0.000000 1.584780 
# 
# From -- ./inp_files/20228.got.cif
#   From: 2010.05.17/outbox.cif.g08.bks.cpg/sg53_11_cif.got.tgz:20228.got - 2010.06.03 12:45:16.
