data_PCOD9416432
_publ_section_title
;
Structure prediction by ZEFSAII (Michael W. Deem and Ramdas Pophale) SiO2 
 PCOD9416432
Probable space group: P M N A
;
_chemical_formula_sum "Si O2"
_cell_formula_units_Z 64
_cell_length_a 7.582684
_cell_length_b 13.118229
_cell_length_c 29.463554
_cell_angle_alpha 90.000000
_cell_angle_beta 90.000000
_cell_angle_gamma 90.000000
_cell_volume 2930.780528
_symmetry_space_group_name_H-M "P M N A"
_symmetry_group_IT_number 53
_symmetry_cell_setting 'orthorhombic'
loop_
_space_group_symop_operation_xyz
x,y,z
1/2-x,-y,1/2+z
x,-y,-z
1/2-x,y,1/2-z
-x,-y,-z
1/2+x,y,1/2-z
-x,y,z
1/2+x,-y,1/2+z
loop_
_atom_site_type_symbol
_atom_site_label
_atom_site_fract_x
_atom_site_fract_y
_atom_site_fract_z
Si Si1 0.288343 0.004728 0.801837
Si Si2 0.211554 0.419878 0.303062
Si Si3 0.284689 0.601703 0.134389
Si Si4 0.704374 0.099490 0.975560
Si Si5 0.707121 0.205300 0.159699
Si Si6 0.286529 0.467314 0.049587
Si Si7 0.716619 0.167305 0.876532
Si Si8 0.703941 0.767568 0.558536
O O1 0.250000 0.031983 0.750000
O O2 0.500000 0.000922 0.806901
O O3 0.217858 0.891914 0.813893
O O4 0.225467 0.086821 0.838574
O O5 0.250000 0.417663 0.250000
O O6 0.276311 0.523575 0.326698
O O7 0.281352 0.315697 0.326112
O O8 0.000000 0.420196 0.309755
O O9 0.500000 0.604199 0.135524
O O10 0.232079 0.548372 0.087282
O O11 0.225501 0.718222 0.135669
O O12 0.500000 0.073585 0.966018
O O13 0.777112 0.134269 0.926962
O O14 0.710078 0.188463 0.013022
O O15 0.784373 0.000000 0.000000
O O16 0.500000 0.210028 0.170884
O O17 0.722918 0.189045 0.105757
O O18 0.500000 0.464674 0.049662
O O19 0.225991 0.353805 0.060691
O O20 0.225708 0.500000 0.000000
O O21 0.500000 0.168858 0.877096
O O22 0.500000 0.794441 0.556093
#
# Coordination Sequence:
#
# PCOD9416432 Si02
#       8
#     8   8   8   8   8   8   8   8
#     4  10  21  37  60  87 114 146 186 240 294 346
#     4  10  20  34  54  78 107 143 185 237 286 338
#     4   9  17  32  53  79 109 142 185 236 278 327
#     4  10  20  37  61  85 111 152 205 248 283 338
#     4  10  20  38  59  80 111 151 198 240 278 341
#     4  10  19  35  60  83 107 150 201 239 278 338
#     4   9  18  34  57  84 111 145 194 239 280 336
#     4  12  24  35  54  86 124 155 184 239 305 359
#
# _framework density 21.837184000000001
#
# number of rings (size 3 to 8) (size 9 to 14) (size 15 to 20)
#    0.000    2.000    1.250    3.000    0.000    6.000 
#    0.000    0.625    0.000    1.500    0.000    0.000 
#    0.000    0.000    0.000    0.000    0.000    0.000 
#
# Total GULP energy -357622.802941 kJ/mol
# GULP energy per Si atom -5587.856296 kJ/mol
# Density = 2.178748 g / cm^3
# Si number density = 21.837184 Si / 1000 Ang^3
#
#
#
# Elastic Constant Matrix: (Units=GPa)
#
#
# Indices 1 2 3 4 5 6 
#
# 1 43.5122 13.9822 -9.1859 0.0000 0.0000 0.0000
# 2 13.9822 166.9876 93.7464 0.0000 0.0000 0.0000
# 3 -9.1859 93.7464 176.2286 0.0000 0.0000 0.0000
# 4 0.0000 0.0000 0.0000 34.8673 0.0000 0.0000
# 5 0.0000 0.0000 0.0000 0.0000 20.0120 0.0000
# 6 0.0000 0.0000 0.0000 0.0000 0.0000 1.0985
#
#
#
# Elastic Compliance Matrix: (Units=1/GPa)
#
#
# Indices 1 2 3 4 5 6 
#
# 1 0.025004 -0.004028 0.003446 0.000000 0.000000 0.000000
# 2 -0.004028 0.009187 -0.005097 0.000000 0.000000 0.000000
# 3 0.003446 -0.005097 0.008566 0.000000 0.000000 0.000000
# 4 0.000000 0.000000 0.000000 0.028680 0.000000 0.000000
# 5 0.000000 0.000000 0.000000 0.000000 0.049970 0.000000
# 6 0.000000 0.000000 0.000000 0.000000 0.000000 0.910338
#
#
# Mechanical properties :
#
#
# Convention : Reuss Voigt Hill
#
# Bulk Modulus (GPa) = 31.84888 64.86821 48.35855
# Shear Modulus (GPa) = 4.74577 30.40794 17.57686
#
# Velocity S-wave (km/s) = 1.47579 3.73565 2.84016
# Velocity P-wave (km/s) = 4.18573 6.95533 5.74008
#
# Compressibility (1/GPa) = 0.03139828
#
# Stress axis : x y z
#
# Youngs Moduli (GPa) = 39.99353 108.84506 116.74564
#
# Poissons Ratio (x) = 0.43847 -0.40234
# Poissons Ratio (y) = 0.16111 0.59509
# Poissons Ratio (z) = -0.13783 0.55481
#
# Static dielectric constant tensor:
#      x y z
#    x 1.821870 0.000000 0.000000 
#    y 0.000000 1.786570 0.000000 
#    z 0.000000 0.000000 1.758470 
# 
# From -- ./inp_files/38219.got.cif
#   From: 2010.05.17/outbox.cif.g08.bks.cpg/sg53_20_cif.got.tgz:38219.got - 2010.06.03 12:45:16.
