data_PCOD9416605
_publ_section_title
;
Structure prediction by ZEFSAII (Michael W. Deem and Ramdas Pophale) SiO2 
 PCOD9416605
Probable space group: P M N A
;
_chemical_formula_sum "Si O2"
_cell_formula_units_Z 64
_cell_length_a 22.715994
_cell_length_b 14.666444
_cell_length_c 8.297934
_cell_angle_alpha 90.000000
_cell_angle_beta 90.000000
_cell_angle_gamma 90.000000
_cell_volume 2764.563373
_symmetry_space_group_name_H-M "P M N A"
_symmetry_group_IT_number 53
_symmetry_cell_setting 'orthorhombic'
loop_
_space_group_symop_operation_xyz
x,y,z
1/2-x,-y,1/2+z
x,-y,-z
1/2-x,y,1/2-z
-x,-y,-z
1/2+x,y,1/2-z
-x,y,z
1/2+x,-y,1/2+z
loop_
_atom_site_type_symbol
_atom_site_label
_atom_site_fract_x
_atom_site_fract_y
_atom_site_fract_z
Si Si1 0.294741 0.428041 0.123417
Si Si2 0.064667 0.094891 0.963339
Si Si3 0.740998 0.737025 0.438974
Si Si4 0.432530 0.457880 0.670774
Si Si5 0.200784 0.090974 0.394934
Si Si6 0.089337 0.650707 0.744305
Si Si7 0.107503 0.278416 0.911493
Si Si8 0.565452 0.152692 0.166078
O O1 0.250000 0.473245 0.250000
O O2 0.341975 0.368360 0.218372
O O3 0.321731 0.500000 0.000000
O O4 0.258979 0.357121 0.017897
O O5 0.061316 0.136441 0.141689
O O6 0.000000 0.068685 0.900100
O O7 0.083729 0.180586 0.854754
O O8 0.098616 0.000000 0.000000
O O9 0.750000 0.734097 0.250000
O O10 0.777830 0.819404 0.511466
O O11 0.672144 0.748381 0.468208
O O12 0.409611 0.500000 0.500000
O O13 0.500000 0.428414 0.652653
O O14 0.433870 0.547995 0.781754
O O15 0.395807 0.366000 0.706749
O O16 0.250000 0.083673 0.250000
O O17 0.129602 0.107073 0.370110
O O18 0.206824 0.000000 0.500000
O O19 0.070657 0.737677 0.639598
O O20 0.076052 0.681537 0.928039
O O21 0.500000 0.122866 0.101375
#
# Coordination Sequence:
#
# PCOD9416605 Si02
#       8
#     8   8   8   8   8   8   8   8
#     4  12  25  40  65  95 134 179 229 289 350 419
#     4   9  18  33  58  93 129 169 221 280 340 408
#     4  12  26  43  64  96 134 178 228 288 347 417
#     4   9  18  31  54  90 127 167 221 278 336 406
#     4  12  26  47  74 105 143 185 235 293 359 426
#     4  10  19  37  63  91 127 175 222 279 340 419
#     4  10  20  34  60  87 130 173 226 278 345 406
#     4  10  21  40  69 100 134 181 232 283 353 434
#
# _framework density 23.150129
#
# number of rings (size 3 to 8) (size 9 to 14) (size 15 to 20)
#    0.000    1.500    2.500    3.375    3.500    6.250 
#    0.000    0.000    0.000    4.500    0.000    0.000 
#    0.000    0.000    0.000    0.000    0.000    0.000 
#
# Total GULP energy -356345.147046 kJ/mol
# GULP energy per Si atom -5567.892923 kJ/mol
# Density = 2.309744 g / cm^3
# Si number density = 23.150129 Si / 1000 Ang^3
#
#
#
# Elastic Constant Matrix: (Units=GPa)
#
#
# Indices 1 2 3 4 5 6 
#
# 1 118.8397 23.9531 22.8093 0.0000 0.0000 0.0000
# 2 23.9531 152.9273 19.0824 0.0000 0.0000 0.0000
# 3 22.8093 19.0824 48.5603 0.0000 0.0000 0.0000
# 4 0.0000 0.0000 0.0000 -5.5504 0.0000 0.0000
# 5 0.0000 0.0000 0.0000 0.0000 -33.6189 0.0000
# 6 0.0000 0.0000 0.0000 0.0000 0.0000 18.4511
#
#
#
# Elastic Compliance Matrix: (Units=1/GPa)
#
#
# Indices 1 2 3 4 5 6 
#
# 1 0.009383 -0.000967 -0.004027 0.000000 0.000000 0.000000
# 2 -0.000967 0.006976 -0.002287 0.000000 0.000000 0.000000
# 3 -0.004027 -0.002287 0.023383 0.000000 0.000000 0.000000
# 4 0.000000 0.000000 0.000000 -0.180167 0.000000 0.000000
# 5 0.000000 0.000000 0.000000 0.000000 -0.029745 0.000000
# 6 0.000000 0.000000 0.000000 0.000000 0.000000 0.054197
#
#
# Mechanical properties :
#
#
# Convention : Reuss Voigt Hill
#
# Bulk Modulus (GPa) = 39.71510 50.22412 44.96961
# Shear Modulus (GPa) = -53.75298 12.82186 -20.46556
#
# Velocity S-wave (km/s) = -4.82387 2.35597 -2.97650
# Velocity P-wave (km/s) = 3.71935 5.39841 2.76670
#
# Compressibility (1/GPa) = 0.02517934
#
# Stress axis : x y z
#
# Youngs Moduli (GPa) = 106.58081 143.35051 42.76568
#
# Poissons Ratio (x) = 0.13863 0.17222
# Poissons Ratio (y) = 0.10307 0.09781
# Poissons Ratio (z) = 0.42921 0.32785
#
# Static dielectric constant tensor:
#      x y z
#    x 2.163130 0.000000 0.000000 
#    y 0.000000 1.957170 0.000000 
#    z 0.000000 0.000000 1.894610 
# 
# From -- ./inp_files/11933.got.cif
#   From: 2010.05.17/outbox.cif.g08.bks.cpg/sg53_6_cif.got.tgz:11933.got - 2010.06.03 12:45:16.
