data_PCOD9416092
_publ_section_title
;
Structure prediction by ZEFSAII (Michael W. Deem and Ramdas Pophale) SiO2 
 PCOD9416092
Probable space group: P M N A
;
_chemical_formula_sum "Si O2"
_cell_formula_units_Z 64
_cell_length_a 27.682119
_cell_length_b 12.622941
_cell_length_c 9.923806
_cell_angle_alpha 90.000000
_cell_angle_beta 90.000000
_cell_angle_gamma 90.000000
_cell_volume 3467.673098
_symmetry_space_group_name_H-M "P M N A"
_symmetry_group_IT_number 53
_symmetry_cell_setting 'orthorhombic'
loop_
_space_group_symop_operation_xyz
x,y,z
1/2-x,-y,1/2+z
x,-y,-z
1/2-x,y,1/2-z
-x,-y,-z
1/2+x,y,1/2-z
-x,y,z
1/2+x,-y,1/2+z
loop_
_atom_site_type_symbol
_atom_site_label
_atom_site_fract_x
_atom_site_fract_y
_atom_site_fract_z
Si Si1 0.636244 0.145744 0.261845
Si Si2 0.943782 0.707123 0.671429
Si Si3 0.196624 0.125348 0.979818
Si Si4 0.861027 0.104187 0.712457
Si Si5 0.697203 0.788712 0.988149
Si Si6 0.557036 0.730240 0.153751
Si Si7 0.106137 0.490268 0.662598
Si Si8 0.288797 0.432764 0.869373
O O1 0.585113 0.200319 0.243178
O O2 0.657381 0.157544 0.410200
O O3 0.673432 0.202969 0.158515
O O4 0.632009 0.020859 0.230922
O O5 0.938370 0.725683 0.509780
O O6 0.919936 0.595659 0.712346
O O7 0.000000 0.705772 0.701747
O O8 0.174287 0.142106 0.832770
O O9 0.246516 0.183975 0.007917
O O10 0.206055 0.000000 0.000000
O O11 0.832345 0.126962 0.575910
O O12 0.909929 0.173349 0.706701
O O13 0.692429 0.676874 0.064346
O O14 0.500000 0.739331 0.185258
O O15 0.579369 0.618253 0.202844
O O16 0.102848 0.500000 0.500000
O O17 0.163080 0.486396 0.692060
O O18 0.250000 0.418645 0.750000
O O19 0.271113 0.500000 0.000000
#
# Coordination Sequence:
#
# PCOD9416092 Si02
#       8
#     8   8   8   8   8   8   8   8
#     4  11  22  37  57  86 118 154 196 245 294 348
#     4  10  20  35  58  86 113 150 197 247 296 349
#     4  10  23  38  57  82 116 162 200 232 288 362
#     4  11  21  37  57  86 119 150 197 247 294 351
#     4  12  21  37  60  86 120 154 195 244 288 348
#     4  10  19  33  58  86 112 149 194 248 302 344
#     4   9  17  35  56  81 116 149 191 239 286 349
#     4  11  23  37  57  87 122 160 197 240 296 351
#
# _framework density 18.456178999999999
#
# number of rings (size 3 to 8) (size 9 to 14) (size 15 to 20)
#    0.000    1.500    2.500    4.500    0.000    6.000 
#    0.000    1.875    0.000    2.250    0.000    1.750 
#    0.000    0.000    0.000    0.000    0.000    0.000 
#
# Total GULP energy -357334.716556 kJ/mol
# GULP energy per Si atom -5583.354946 kJ/mol
# Density = 1.841417 g / cm^3
# Si number density = 18.456179 Si / 1000 Ang^3
#
#
#
# Elastic Constant Matrix: (Units=GPa)
#
#
# Indices 1 2 3 4 5 6 
#
# 1 71.0027 28.4681 -9.8232 0.0000 0.0000 0.0000
# 2 28.4681 63.4995 -4.0756 0.0000 0.0000 0.0000
# 3 -9.8232 -4.0756 24.0061 0.0000 0.0000 0.0000
# 4 0.0000 0.0000 0.0000 7.9529 0.0000 0.0000
# 5 0.0000 0.0000 0.0000 0.0000 6.9280 0.0000
# 6 0.0000 0.0000 0.0000 0.0000 0.0000 2.0126
#
#
#
# Elastic Compliance Matrix: (Units=1/GPa)
#
#
# Indices 1 2 3 4 5 6 
#
# 1 0.018003 -0.007682 0.006062 0.000000 0.000000 0.000000
# 2 -0.007682 0.019200 0.000116 0.000000 0.000000 0.000000
# 3 0.006062 0.000116 0.044157 0.000000 0.000000 0.000000
# 4 0.000000 0.000000 0.000000 0.125741 0.000000 0.000000
# 5 0.000000 0.000000 0.000000 0.000000 0.144341 0.000000
# 6 0.000000 0.000000 0.000000 0.000000 0.000000 0.496864
#
#
# Mechanical properties :
#
#
# Convention : Reuss Voigt Hill
#
# Bulk Modulus (GPa) = 12.76286 20.84966 16.80626
# Shear Modulus (GPa) = 5.69847 12.97464 9.33656
#
# Velocity S-wave (km/s) = 1.75905 2.65429 2.25161
# Velocity P-wave (km/s) = 3.32505 4.55137 3.98566
#
# Compressibility (1/GPa) = 0.07835231
#
# Stress axis : x y z
#
# Youngs Moduli (GPa) = 55.54729 52.08456 22.64672
#
# Poissons Ratio (x) = 0.40011 -0.13729
# Poissons Ratio (y) = 0.42671 -0.00263
# Poissons Ratio (z) = -0.33675 -0.00605
#
# Static dielectric constant tensor:
#      x y z
#    x 1.620540 0.000000 0.000000 
#    y 0.000000 1.665530 0.000000 
#    z 0.000000 0.000000 1.614790 
# 
# From -- ./inp_files/13267.got.cif
#   From: 2010.05.17/outbox.cif.g08.bks.cpg/sg53_7_cif.got.tgz:13267.got - 2010.06.03 12:45:16.
