data_PCOD9416088
_publ_section_title
;
Structure prediction by ZEFSAII (Michael W. Deem and Ramdas Pophale) SiO2 
 PCOD9416088
Probable space group: P M N A
;
_chemical_formula_sum "Si O2"
_cell_formula_units_Z 64
_cell_length_a 8.816603
_cell_length_b 19.821910
_cell_length_c 19.498750
_cell_angle_alpha 90.000000
_cell_angle_beta 90.000000
_cell_angle_gamma 90.000000
_cell_volume 3407.638815
_symmetry_space_group_name_H-M "P M N A"
_symmetry_group_IT_number 53
_symmetry_cell_setting 'orthorhombic'
loop_
_space_group_symop_operation_xyz
x,y,z
1/2-x,-y,1/2+z
x,-y,-z
1/2-x,y,1/2-z
-x,-y,-z
1/2+x,y,1/2-z
-x,y,z
1/2+x,-y,1/2+z
loop_
_atom_site_type_symbol
_atom_site_label
_atom_site_fract_x
_atom_site_fract_y
_atom_site_fract_z
Si Si1 0.323736 0.970888 0.070470
Si Si2 0.180842 0.686289 0.954639
Si Si3 0.676216 0.542324 0.929902
Si Si4 0.182677 0.286958 0.601793
Si Si5 0.674218 0.085216 0.183492
Si Si6 0.316466 0.426764 0.825579
Si Si7 0.181111 0.769414 0.821914
Si Si8 0.815815 0.146169 0.673632
O O1 0.500000 0.952316 0.054127
O O2 0.263459 0.908057 0.115633
O O3 0.322843 0.033971 0.121501
O O4 0.253563 0.000000 0.000000
O O5 0.228817 0.609420 0.941083
O O6 0.232489 0.728413 0.888349
O O7 0.000000 0.691464 0.960145
O O8 0.252680 0.712976 0.025081
O O9 0.500000 0.560920 0.916699
O O10 0.729688 0.491650 0.870462
O O11 0.679037 0.500000 0.000000
O O12 0.231196 0.356786 0.638078
O O13 0.224718 0.220890 0.645772
O O14 0.000000 0.287831 0.597269
O O15 0.750000 0.052034 0.250000
O O16 0.500000 0.102842 0.198864
O O17 0.764671 0.153621 0.169935
O O18 0.250000 0.429991 0.750000
O O19 0.500000 0.426562 0.823472
O O20 0.250000 0.744314 0.750000
O O21 0.000000 0.766206 0.817781
O O22 0.750000 0.134960 0.750000
O O23 0.000000 0.140952 0.678054
#
# Coordination Sequence:
#
# PCOD9416088 Si02
#       8
#     8   8   8   8   8   8   8   8
#     4   9  19  34  53  84 116 146 191 237 278 334
#     4  11  24  38  58  87 118 148 186 241 290 333
#     4  10  20  39  61  81 112 151 191 229 271 337
#     4  10  21  38  60  85 114 155 198 231 281 347
#     4  10  19  33  58  82 108 147 186 229 277 329
#     4  10  21  37  58  86 116 148 189 235 280 334
#     4  10  22  39  57  82 115 147 188 234 282 339
#     4  10  21  37  60  85 116 155 194 239 287 344
#
# _framework density 18.781334000000001
#
# number of rings (size 3 to 8) (size 9 to 14) (size 15 to 20)
#    0.000    2.000    1.250    2.625    1.750    4.250 
#    0.000    3.125    0.000    1.875    0.000    0.000 
#    0.000    0.000    0.000    0.000    0.000    0.000 
#
# Total GULP energy -357119.269625 kJ/mol
# GULP energy per Si atom -5579.988588 kJ/mol
# Density = 1.873859 g / cm^3
# Si number density = 18.781334 Si / 1000 Ang^3
#
#
#
# Elastic Constant Matrix: (Units=GPa)
#
#
# Indices 1 2 3 4 5 6 
#
# 1 18.6570 12.3979 24.0883 0.0000 0.0000 0.0000
# 2 12.3979 70.6247 53.0243 0.0000 0.0000 0.0000
# 3 24.0883 53.0243 139.2109 0.0000 0.0000 0.0000
# 4 0.0000 0.0000 0.0000 32.6680 0.0000 0.0000
# 5 0.0000 0.0000 0.0000 0.0000 13.2968 0.0000
# 6 0.0000 0.0000 0.0000 0.0000 0.0000 8.7836
#
#
#
# Elastic Compliance Matrix: (Units=1/GPa)
#
#
# Indices 1 2 3 4 5 6 
#
# 1 0.070014 -0.004474 -0.010411 0.000000 0.000000 0.000000
# 2 -0.004474 0.020116 -0.006888 0.000000 0.000000 0.000000
# 3 -0.010411 -0.006888 0.011608 0.000000 0.000000 0.000000
# 4 0.000000 0.000000 0.000000 0.030611 0.000000 0.000000
# 5 0.000000 0.000000 0.000000 0.000000 0.075206 0.000000
# 6 0.000000 0.000000 0.000000 0.000000 0.000000 0.113849
#
#
# Mechanical properties :
#
#
# Convention : Reuss Voigt Hill
#
# Bulk Modulus (GPa) = 17.18433 45.27929 31.23181
# Shear Modulus (GPa) = 13.00906 20.21514 16.61210
#
# Velocity S-wave (km/s) = 2.63470 3.28432 2.97728
# Velocity P-wave (km/s) = 4.29244 6.20833 5.33706
#
# Compressibility (1/GPa) = 0.05819255
#
# Stress axis : x y z
#
# Youngs Moduli (GPa) = 14.28288 49.71132 86.14560
#
# Poissons Ratio (x) = 0.22243 0.89682
# Poissons Ratio (y) = 0.06391 0.59336
# Poissons Ratio (z) = 0.14869 0.34240
#
# Static dielectric constant tensor:
#      x y z
#    x 1.652570 0.000000 0.000000 
#    y 0.000000 1.641740 0.000000 
#    z 0.000000 0.000000 1.656560 
# 
# From -- ./inp_files/26831.got.cif
#   From: 2010.05.17/outbox.cif.g08.bks.cpg/sg53_14_cif.got.tgz:26831.got - 2010.06.03 12:45:16.
