data_PCOD9416439
_publ_section_title
;
Structure prediction by ZEFSAII (Michael W. Deem and Ramdas Pophale) SiO2 
 PCOD9416439
Probable space group: P M N A
;
_chemical_formula_sum "Si O2"
_cell_formula_units_Z 64
_cell_length_a 8.321474
_cell_length_b 12.264210
_cell_length_c 31.866762
_cell_angle_alpha 90.000000
_cell_angle_beta 90.000000
_cell_angle_gamma 90.000000
_cell_volume 3252.203971
_symmetry_space_group_name_H-M "P M N A"
_symmetry_group_IT_number 53
_symmetry_cell_setting 'orthorhombic'
loop_
_space_group_symop_operation_xyz
x,y,z
1/2-x,-y,1/2+z
x,-y,-z
1/2-x,y,1/2-z
-x,-y,-z
1/2+x,y,1/2-z
-x,y,z
1/2+x,-y,1/2+z
loop_
_atom_site_type_symbol
_atom_site_label
_atom_site_fract_x
_atom_site_fract_y
_atom_site_fract_z
Si Si1 0.804094 0.522393 0.047008
Si Si2 0.694365 0.248767 0.588003
Si Si3 0.193974 0.018756 0.952484
Si Si4 0.309626 0.509975 0.294901
Si Si5 0.194495 0.624983 0.875553
Si Si6 0.692269 0.126932 0.124334
Si Si7 0.810239 0.747110 0.317223
Si Si8 0.694169 0.012293 0.794953
O O1 0.760966 0.642836 0.062730
O O2 0.750547 0.435270 0.081893
O O3 0.000000 0.517969 0.046123
O O4 0.746459 0.500000 0.000000
O O5 0.500000 0.250100 0.593993
O O6 0.775927 0.250069 0.633214
O O7 0.738356 0.139138 0.563528
O O8 0.254387 0.932427 0.918351
O O9 0.000000 0.012308 0.952909
O O10 0.251292 0.000000 0.000000
O O11 0.250000 0.469008 0.250000
O O12 0.500000 0.500616 0.295636
O O13 0.246191 0.442671 0.334957
O O14 0.266573 0.637240 0.299638
O O15 0.246048 0.749885 0.873968
O O16 0.000000 0.620549 0.875452
O O17 0.500000 0.127738 0.125661
O O18 0.749884 0.057550 0.164901
O O19 0.000000 0.741203 0.309177
O O20 0.747918 0.862381 0.299528
O O21 0.750000 0.968437 0.750000
O O22 0.500000 0.013963 0.795928
#
# Coordination Sequence:
#
# PCOD9416439 Si02
#       8
#     8   8   8   8   8   8   8   8
#     4   9  18  34  60  89 117 150 190 241 292 341
#     4  10  19  35  60  90 120 154 194 243 296 344
#     4  10  22  38  62  93 121 155 203 248 290 352
#     4  11  23  40  61  89 121 155 198 245 297 352
#     4  10  22  40  61  85 116 153 199 245 289 348
#     4  11  24  42  60  84 121 158 197 244 302 358
#     4  11  21  37  60  88 123 157 192 239 294 354
#     4  10  23  40  59  85 116 152 193 240 292 350
#
# _framework density 19.678961999999999
#
# number of rings (size 3 to 8) (size 9 to 14) (size 15 to 20)
#    0.000    1.750    2.500    1.500    1.750    4.750 
#    0.000    2.500    0.000    0.750    0.000    0.000 
#    0.000    0.000    0.000    0.000    0.000    0.000 
#
# Total GULP energy -357566.964384 kJ/mol
# GULP energy per Si atom -5586.983819 kJ/mol
# Density = 1.963417 g / cm^3
# Si number density = 19.678962 Si / 1000 Ang^3
#
#
#
# Elastic Constant Matrix: (Units=GPa)
#
#
# Indices 1 2 3 4 5 6 
#
# 1 8.9875 13.0021 16.2858 0.0000 0.0000 0.0000
# 2 13.0021 145.1419 81.3076 0.0000 0.0000 0.0000
# 3 16.2858 81.3076 190.1565 0.0000 0.0000 0.0000
# 4 0.0000 0.0000 0.0000 41.0537 0.0000 0.0000
# 5 0.0000 0.0000 0.0000 0.0000 29.0270 0.0000
# 6 0.0000 0.0000 0.0000 0.0000 0.0000 30.8663
#
#
#
# Elastic Compliance Matrix: (Units=1/GPa)
#
#
# Indices 1 2 3 4 5 6 
#
# 1 0.137697 -0.007533 -0.008572 0.000000 0.000000 0.000000
# 2 -0.007533 0.009472 -0.003405 0.000000 0.000000 0.000000
# 3 -0.008572 -0.003405 0.007449 0.000000 0.000000 0.000000
# 4 0.000000 0.000000 0.000000 0.024358 0.000000 0.000000
# 5 0.000000 0.000000 0.000000 0.000000 0.034451 0.000000
# 6 0.000000 0.000000 0.000000 0.000000 0.000000 0.032398
#
#
# Mechanical properties :
#
#
# Convention : Reuss Voigt Hill
#
# Bulk Modulus (GPa) = 8.65070 62.83075 35.74072
# Shear Modulus (GPa) = 15.46183 35.76875 25.61529
#
# Velocity S-wave (km/s) = 2.80608 4.26797 3.61176
# Velocity P-wave (km/s) = 3.86060 7.50231 5.96611
#
# Compressibility (1/GPa) = 0.11559762
#
# Stress axis : x y z
#
# Youngs Moduli (GPa) = 7.26234 105.57364 134.24923
#
# Poissons Ratio (x) = 0.79531 1.15076
# Poissons Ratio (y) = 0.05471 0.45711
# Poissons Ratio (z) = 0.06225 0.35947
#
# Static dielectric constant tensor:
#      x y z
#    x 1.688500 0.000000 0.000000 
#    y 0.000000 1.665420 0.000000 
#    z 0.000000 0.000000 1.685050 
# 
# From -- ./inp_files/38248.got.cif
#   From: 2010.05.17/outbox.cif.g08.bks.cpg/sg53_20_cif.got.tgz:38248.got - 2010.06.03 12:45:16.
