data_PCOD9416574
_publ_section_title
;
Structure prediction by ZEFSAII (Michael W. Deem and Ramdas Pophale) SiO2 
 PCOD9416574
Probable space group: P M N A
;
_chemical_formula_sum "Si O2"
_cell_formula_units_Z 48
_cell_length_a 19.171267
_cell_length_b 10.881770
_cell_length_c 12.182860
_cell_angle_alpha 90.000000
_cell_angle_beta 90.000000
_cell_angle_gamma 90.000000
_cell_volume 2541.555580
_symmetry_space_group_name_H-M "P M N A"
_symmetry_group_IT_number 53
_symmetry_cell_setting 'orthorhombic'
loop_
_space_group_symop_operation_xyz
x,y,z
1/2-x,-y,1/2+z
x,-y,-z
1/2-x,y,1/2-z
-x,-y,-z
1/2+x,y,1/2-z
-x,y,z
1/2+x,-y,1/2+z
loop_
_atom_site_type_symbol
_atom_site_label
_atom_site_fract_x
_atom_site_fract_y
_atom_site_fract_z
Si Si1 0.420487 0.373101 0.547863
Si Si2 0.189019 0.819623 0.050361
Si Si3 0.307000 0.365061 0.963316
Si Si4 0.669094 0.294793 0.209004
Si Si5 0.418568 0.462269 0.790124
Si Si6 0.185969 0.946074 0.826985
O O1 0.392917 0.500000 0.500000
O O2 0.500000 0.360830 0.511331
O O3 0.374432 0.262315 0.509803
O O4 0.417659 0.382698 0.679332
O O5 0.248873 0.724693 0.089252
O O6 0.158855 0.921473 0.133734
O O7 0.213928 0.886536 0.939801
O O8 0.371098 0.397907 0.883073
O O9 0.278146 0.500000 0.000000
O O10 0.330571 0.300743 0.076600
O O11 0.750000 0.315141 0.250000
O O12 0.618800 0.408096 0.239246
O O13 0.647288 0.163563 0.261371
O O14 0.500000 0.479590 0.822260
O O15 0.250000 0.978167 0.750000
#
# Coordination Sequence:
#
# PCOD9416574 Si02
#       6
#     8   8   8   8   8   8
#     4  10  22  38  58  85 124 160 195 250 312 369
#     4  11  21  35  59  89 115 155 206 248 299 359
#     4  10  21  34  60  90 117 155 194 257 307 364
#     4  10  19  37  58  83 121 154 199 242 297 365
#     4  10  23  38  58  91 124 156 197 250 316 374
#     4  10  21  37  55  84 119 155 201 253 295 357
#
# _framework density 18.886071999999999
#
# number of rings (size 3 to 8) (size 9 to 14) (size 15 to 20)
#    0.000    1.833    3.333    1.500    7.000    3.000 
#    0.000    2.500    0.000    0.000    0.000    4.667 
#    0.000    0.000    0.000    0.000    0.000    0.000 
#
# Total GULP energy -267260.336730 kJ/mol
# GULP energy per Si atom -5567.923682 kJ/mol
# Density = 1.884309 g / cm^3
# Si number density = 18.886072 Si / 1000 Ang^3
#
#
#
# Elastic Constant Matrix: (Units=GPa)
#
#
# Indices 1 2 3 4 5 6 
#
# 1 71.4165 33.2782 13.6796 0.0000 0.0000 0.0000
# 2 33.2782 115.6982 32.8872 0.0000 0.0000 0.0000
# 3 13.6796 32.8872 71.5214 0.0000 0.0000 0.0000
# 4 0.0000 0.0000 0.0000 38.5599 0.0000 0.0000
# 5 0.0000 0.0000 0.0000 0.0000 -12.2805 0.0000
# 6 0.0000 0.0000 0.0000 0.0000 0.0000 -59.4085
#
#
#
# Elastic Compliance Matrix: (Units=1/GPa)
#
#
# Indices 1 2 3 4 5 6 
#
# 1 0.016245 -0.004359 -0.001103 0.000000 0.000000 0.000000
# 2 -0.004359 0.011112 -0.004276 0.000000 0.000000 0.000000
# 3 -0.001103 -0.004276 0.016159 0.000000 0.000000 0.000000
# 4 0.000000 0.000000 0.000000 0.025934 0.000000 0.000000
# 5 0.000000 0.000000 0.000000 0.000000 -0.081430 0.000000
# 6 0.000000 0.000000 0.000000 0.000000 0.000000 -0.016833
#
#
# Mechanical properties :
#
#
# Convention : Reuss Voigt Hill
#
# Bulk Modulus (GPa) = 41.59616 46.48066 44.03841
# Shear Modulus (GPa) = -3777.37480 5.29360 -1886.04060
#
# Velocity S-wave (km/s) = -44.77083 1.67601 -31.63556
# Velocity P-wave (km/s) = 51.48297 5.33009 36.20833
#
# Compressibility (1/GPa) = 0.02404068
#
# Stress axis : x y z
#
# Youngs Moduli (GPa) = 61.55820 89.98943 61.88525
#
# Poissons Ratio (x) = 0.39227 0.06824
# Poissons Ratio (y) = 0.26833 0.26462
# Poissons Ratio (z) = 0.06788 0.38480
#
# Static dielectric constant tensor:
#      x y z
#    x 1.645870 0.000000 0.000000 
#    y 0.000000 1.693330 0.000000 
#    z 0.000000 0.000000 1.693250 
# 
# From -- ./inp_files/17788.got.cif
#   From: 2010.05.17/outbox.cif.g08.bks.cpg/sg53_9_cif.got.tgz:17788.got - 2010.06.03 12:45:16.
