data_PCOD9416464
_publ_section_title
;
Structure prediction by ZEFSAII (Michael W. Deem and Ramdas Pophale) SiO2 
 PCOD9416464
Probable space group: P M N A
;
_chemical_formula_sum "Si O2"
_cell_formula_units_Z 56
_cell_length_a 16.699589
_cell_length_b 20.697498
_cell_length_c 7.304013
_cell_angle_alpha 90.000000
_cell_angle_beta 90.000000
_cell_angle_gamma 90.000000
_cell_volume 2524.556935
_symmetry_space_group_name_H-M "P M N A"
_symmetry_group_IT_number 53
_symmetry_cell_setting 'orthorhombic'
loop_
_space_group_symop_operation_xyz
x,y,z
1/2-x,-y,1/2+z
x,-y,-z
1/2-x,y,1/2-z
-x,-y,-z
1/2+x,y,1/2-z
-x,y,z
1/2+x,-y,1/2+z
loop_
_atom_site_type_symbol
_atom_site_label
_atom_site_fract_x
_atom_site_fract_y
_atom_site_fract_z
Si Si1 0.255154 0.792400 0.470271
Si Si2 0.589320 0.860766 0.474171
Si Si3 0.590289 0.975080 0.739522
Si Si4 0.365258 0.902346 0.085485
Si Si5 0.587359 0.423618 0.965576
Si Si6 0.252823 0.352514 0.974656
Si Si7 0.090473 0.423349 0.970601
O O1 0.250000 0.787516 0.250000
O O2 0.343982 0.810391 0.533287
O O3 0.202243 0.856399 0.499871
O O4 0.233974 0.721378 0.535904
O O5 0.500000 0.844282 0.531863
O O6 0.608371 0.930642 0.565056
O O7 0.594248 0.864000 0.253014
O O8 0.500000 0.003510 0.719080
O O9 0.651910 0.030168 0.806000
O O10 0.586191 0.926491 0.911576
O O11 0.500000 0.400263 0.034541
O O12 0.669184 0.392302 0.035052
O O13 0.587043 0.412935 0.747571
O O14 0.590743 0.500000 0.000000
O O15 0.250000 0.354132 0.750000
O O16 0.167637 0.382737 0.035809
O O17 0.000000 0.408495 0.041120
O O18 0.104345 0.500000 0.000000
#
# Coordination Sequence:
#
# PCOD9416464 Si02
#       7
#     8   8   8   8   8   8   8
#     4   9  20  36  51  79 109 139 184 224 270 334
#     4  10  20  36  57  79 108 140 178 227 277 331
#     4  10  20  35  58  83 106 136 178 226 283 335
#     4  10  19  36  55  79 110 138 177 227 275 329
#     4   9  17  30  51  77 106 138 178 224 267 313
#     4   9  17  32  52  74 108 140 181 224 261 323
#     4   9  17  29  50  80 108 139 178 222 270 316
#
# _framework density 22.182112
#
# number of rings (size 3 to 8) (size 9 to 14) (size 15 to 20)
#    0.000    2.571    0.000    2.571    0.000    2.286 
#   15.429    8.571    6.286    0.000    0.000    0.000 
#    0.000    0.000    0.000    0.000    0.000    0.000 
#
# Total GULP energy -312039.743497 kJ/mol
# GULP energy per Si atom -5572.138277 kJ/mol
# Density = 2.213162 g / cm^3
# Si number density = 22.182112 Si / 1000 Ang^3
#
#
#
# Elastic Constant Matrix: (Units=GPa)
#
#
# Indices 1 2 3 4 5 6 
#
# 1 176.0917 97.4520 11.0606 0.0000 0.0000 0.0000
# 2 97.4520 106.0199 -3.2919 0.0000 0.0000 0.0000
# 3 11.0606 -3.2919 88.3758 0.0000 0.0000 0.0000
# 4 0.0000 0.0000 0.0000 11.3687 0.0000 0.0000
# 5 0.0000 0.0000 0.0000 0.0000 0.1677 0.0000
# 6 0.0000 0.0000 0.0000 0.0000 0.0000 -5.1430
#
#
#
# Elastic Compliance Matrix: (Units=1/GPa)
#
#
# Indices 1 2 3 4 5 6 
#
# 1 0.011867 -0.010967 -0.001894 0.000000 0.000000 0.000000
# 2 -0.010967 0.019578 0.002102 0.000000 0.000000 0.000000
# 3 -0.001894 0.002102 0.011631 0.000000 0.000000 0.000000
# 4 0.000000 0.000000 0.000000 0.087961 0.000000 0.000000
# 5 0.000000 0.000000 0.000000 0.000000 5.963024 0.000000
# 6 0.000000 0.000000 0.000000 0.000000 0.000000 -0.194438
#
#
# Mechanical properties :
#
#
# Convention : Reuss Voigt Hill
#
# Bulk Modulus (GPa) = 46.38608 64.54766 55.46687
# Shear Modulus (GPa) = 0.84341 18.96311 9.90326
#
# Velocity S-wave (km/s) = 0.61729 2.92701 2.11523
# Velocity P-wave (km/s) = 4.63303 6.37066 5.57002
#
# Compressibility (1/GPa) = 0.02155819
#
# Stress axis : x y z
#
# Youngs Moduli (GPa) = 84.26725 51.07778 85.98003
#
# Poissons Ratio (x) = 0.56016 0.16282
# Poissons Ratio (y) = 0.92414 -0.18071
# Poissons Ratio (z) = 0.15958 -0.10735
#
# Static dielectric constant tensor:
#      x y z
#    x 1.842100 0.000000 0.000000 
#    y 0.000000 1.813090 0.000000 
#    z 0.000000 0.000000 1.878690 
# 
# From -- ./inp_files/8837.got.cif
#   From: 2010.05.17/outbox.cif.g08.bks.cpg/sg53_5_cif.got.tgz:8837.got - 2010.06.03 12:45:16.
