data_PCOD9416804
_publ_section_title
;
Structure prediction by ZEFSAII (Michael W. Deem and Ramdas Pophale) SiO2 
 PCOD9416804
Probable space group: P M N A
;
_chemical_formula_sum "Si O2"
_cell_formula_units_Z 64
_cell_length_a 9.156443
_cell_length_b 15.677882
_cell_length_c 23.441962
_cell_angle_alpha 90.000000
_cell_angle_beta 90.000000
_cell_angle_gamma 90.000000
_cell_volume 3365.178807
_symmetry_space_group_name_H-M "P M N A"
_symmetry_group_IT_number 53
_symmetry_cell_setting 'orthorhombic'
loop_
_space_group_symop_operation_xyz
x,y,z
1/2-x,-y,1/2+z
x,-y,-z
1/2-x,y,1/2-z
-x,-y,-z
1/2+x,y,1/2-z
-x,y,z
1/2+x,-y,1/2+z
loop_
_atom_site_type_symbol
_atom_site_label
_atom_site_fract_x
_atom_site_fract_y
_atom_site_fract_z
Si Si1 0.823023 0.879385 0.893887
Si Si2 0.326110 0.787897 0.367081
Si Si3 0.676395 0.969496 0.311356
Si Si4 0.673364 0.538660 0.688852
Si Si5 0.165525 0.597564 0.496643
Si Si6 0.163285 0.381019 0.638760
Si Si7 0.175436 0.228449 0.001393
Si Si8 0.674568 0.726091 0.688892
O O1 0.782049 0.801278 0.852753
O O2 0.000000 0.885407 0.896686
O O3 0.774855 0.964567 0.861039
O O4 0.775439 0.848023 0.956586
O O5 0.500000 0.772230 0.362127
O O6 0.291063 0.874531 0.333942
O O7 0.237478 0.707383 0.343598
O O8 0.293828 0.793636 0.435150
O O9 0.750000 0.986152 0.250000
O O10 0.500000 0.977440 0.305142
O O11 0.750000 0.536852 0.750000
O O12 0.500000 0.530847 0.694489
O O13 0.738500 0.460872 0.654670
O O14 0.707275 0.632310 0.664115
O O15 0.225107 0.500000 0.500000
O O16 0.154487 0.617311 0.429492
O O17 0.255491 0.679684 0.518287
O O18 0.000000 0.595680 0.521115
O O19 0.000000 0.389586 0.662640
O O20 0.000000 0.237204 0.006758
O O21 0.750000 0.734583 0.750000
O O22 0.500000 0.730808 0.697061
#
# Coordination Sequence:
#
# PCOD9416804 Si02
#       8
#     8   8   8   8   8   8   8   8
#     4   9  18  33  54  81 109 136 172 222 269 319
#     4   9  19  36  55  78 107 140 179 224 269 320
#     4  10  21  37  58  82 109 139 177 222 271 325
#     4  10  20  33  50  73 103 137 176 218 262 317
#     4   9  19  34  50  73 107 143 178 218 261 310
#     4  10  20  34  53  75 103 139 175 218 267 313
#     4   9  18  33  54  79 107 140 180 220 268 321
#     4   9  18  32  49  71 102 137 172 213 263 315
#
# _framework density 19.018307
#
# number of rings (size 3 to 8) (size 9 to 14) (size 15 to 20)
#    0.000    2.625    0.000    1.125    1.750    2.750 
#    0.000    5.000    0.000    0.000    0.000    4.375 
#    0.000    0.000    0.000    0.000    0.000    0.000 
#
# Total GULP energy -356669.275357 kJ/mol
# GULP energy per Si atom -5572.957427 kJ/mol
# Density = 1.897502 g / cm^3
# Si number density = 19.018307 Si / 1000 Ang^3
#
#
#
# Elastic Constant Matrix: (Units=GPa)
#
#
# Indices 1 2 3 4 5 6 
#
# 1 28.1066 22.9921 6.6565 0.0000 0.0000 0.0000
# 2 22.9921 72.7667 -4.5558 0.0000 0.0000 0.0000
# 3 6.6565 -4.5558 17.4680 0.0000 0.0000 0.0000
# 4 0.0000 0.0000 0.0000 23.9766 0.0000 0.0000
# 5 0.0000 0.0000 0.0000 0.0000 20.3168 0.0000
# 6 0.0000 0.0000 0.0000 0.0000 0.0000 40.6780
#
#
#
# Elastic Compliance Matrix: (Units=1/GPa)
#
#
# Indices 1 2 3 4 5 6 
#
# 1 0.058730 -0.020289 -0.027672 0.000000 0.000000 0.000000
# 2 -0.020289 0.020980 0.013203 0.000000 0.000000 0.000000
# 3 -0.027672 0.013203 0.071236 0.000000 0.000000 0.000000
# 4 0.000000 0.000000 0.000000 0.041707 0.000000 0.000000
# 5 0.000000 0.000000 0.000000 0.000000 0.049220 0.000000
# 6 0.000000 0.000000 0.000000 0.000000 0.000000 0.024583
#
#
# Mechanical properties :
#
#
# Convention : Reuss Voigt Hill
#
# Bulk Modulus (GPa) = 12.28045 18.72523 15.50284
# Shear Modulus (GPa) = 13.76973 23.21084 18.49029
#
# Velocity S-wave (km/s) = 2.69369 3.49728 3.12145
# Velocity P-wave (km/s) = 4.01819 5.11617 4.60006
#
# Compressibility (1/GPa) = 0.08143025
#
# Stress axis : x y z
#
# Youngs Moduli (GPa) = 17.02716 47.66436 14.03788
#
# Poissons Ratio (x) = 0.96708 0.38845
# Poissons Ratio (y) = 0.34547 -0.18535
# Poissons Ratio (z) = 0.47117 -0.62933
#
# Static dielectric constant tensor:
#      x y z
#    x 1.662500 0.000000 0.000000 
#    y 0.000000 1.670710 0.000000 
#    z 0.000000 0.000000 1.681110 
# 
# From -- ./inp_files/34209.got.cif
#   From: 2010.05.17/outbox.cif.g08.bks.cpg/sg53_18_cif.got.tgz:34209.got - 2010.06.03 12:45:16.
