data_PCOD9416861
_publ_section_title
;
Structure prediction by ZEFSAII (Michael W. Deem and Ramdas Pophale) SiO2 
 PCOD9416861
Probable space group: P M N A
;
_chemical_formula_sum "Si O2"
_cell_formula_units_Z 48
_cell_length_a 8.676071
_cell_length_b 31.979711
_cell_length_c 9.152810
_cell_angle_alpha 90.000000
_cell_angle_beta 90.000000
_cell_angle_gamma 90.000000
_cell_volume 2539.522583
_symmetry_space_group_name_H-M "P M N A"
_symmetry_group_IT_number 53
_symmetry_cell_setting 'orthorhombic'
loop_
_space_group_symop_operation_xyz
x,y,z
1/2-x,-y,1/2+z
x,-y,-z
1/2-x,y,1/2-z
-x,-y,-z
1/2+x,y,1/2-z
-x,y,z
1/2+x,-y,1/2+z
loop_
_atom_site_type_symbol
_atom_site_label
_atom_site_fract_x
_atom_site_fract_y
_atom_site_fract_z
Si Si1 0.315674 0.957178 0.412964
Si Si2 0.184417 0.798761 0.086795
Si Si3 0.315923 0.373047 0.085126
Si Si4 0.314588 0.280053 0.084638
Si Si5 0.315637 0.878126 0.913336
Si Si6 0.315443 0.541578 0.586107
O O1 0.250000 0.960100 0.250000
O O2 0.500000 0.950957 0.407988
O O3 0.238870 0.918498 0.496393
O O4 0.284238 0.000000 0.500000
O O5 0.250000 0.802031 0.250000
O O6 0.000000 0.800369 0.089426
O O7 0.241137 0.755842 0.013203
O O8 0.249326 0.837038 0.991659
O O9 0.250000 0.372213 0.250000
O O10 0.500000 0.377188 0.090575
O O11 0.278503 0.326879 0.025653
O O12 0.245810 0.415030 0.017024
O O13 0.250000 0.276703 0.250000
O O14 0.500000 0.275582 0.089246
O O15 0.250000 0.880786 0.750000
O O16 0.500000 0.876100 0.909428
O O17 0.268507 0.500000 0.500000
O O18 0.250000 0.538864 0.750000
O O19 0.500000 0.543482 0.592237
#
# Coordination Sequence:
#
# PCOD9416861 Si02
#       6
#     8   8   8   8   8   8
#     4  11  24  42  65  94 128 165 205 249 298 351
#     4  12  25  42  62  86 118 155 193 236 289 345
#     4   9  17  30  52  78 106 140 179 224 273 328
#     4  10  20  36  58  86 114 145 187 232 281 336
#     4  12  25  43  66  92 123 158 200 247 294 346
#     4  10  20  33  51  76 105 139 180 225 274 329
#
# _framework density 18.901192000000002
#
# number of rings (size 3 to 8) (size 9 to 14) (size 15 to 20)
#    0.000    1.333    0.000    7.500    0.000    6.000 
#    0.000    0.833    0.000    2.000    0.000    0.000 
#    0.000    0.000    0.000    0.000    0.000    0.000 
#
# Total GULP energy -268281.363417 kJ/mol
# GULP energy per Si atom -5589.195071 kJ/mol
# Density = 1.885817 g / cm^3
# Si number density = 18.901192 Si / 1000 Ang^3
#
#
#
# Elastic Constant Matrix: (Units=GPa)
#
#
# Indices 1 2 3 4 5 6 
#
# 1 140.0279 97.4419 61.1833 0.0000 0.0000 0.0000
# 2 97.4419 194.8851 84.8903 0.0000 0.0000 0.0000
# 3 61.1833 84.8903 124.2033 0.0000 0.0000 0.0000
# 4 0.0000 0.0000 0.0000 30.6035 0.0000 0.0000
# 5 0.0000 0.0000 0.0000 0.0000 27.5653 0.0000
# 6 0.0000 0.0000 0.0000 0.0000 0.0000 36.9503
#
#
#
# Elastic Compliance Matrix: (Units=1/GPa)
#
#
# Indices 1 2 3 4 5 6 
#
# 1 0.011457 -0.004656 -0.002461 0.000000 0.000000 0.000000
# 2 -0.004656 0.009199 -0.003994 0.000000 0.000000 0.000000
# 3 -0.002461 -0.003994 0.011993 0.000000 0.000000 0.000000
# 4 0.000000 0.000000 0.000000 0.032676 0.000000 0.000000
# 5 0.000000 0.000000 0.000000 0.000000 0.036277 0.000000
# 6 0.000000 0.000000 0.000000 0.000000 0.000000 0.027063
#
#
# Mechanical properties :
#
#
# Convention : Reuss Voigt Hill
#
# Bulk Modulus (GPa) = 95.90583 105.12750 100.51666
# Shear Modulus (GPa) = 32.39089 33.39719 32.89404
#
# Velocity S-wave (km/s) = 4.14417 4.20805 4.17624
# Velocity P-wave (km/s) = 8.58776 8.90789 8.74929
#
# Compressibility (1/GPa) = 0.01042689
#
# Stress axis : x y z
#
# Youngs Moduli (GPa) = 87.28178 108.70789 83.38020
#
# Poissons Ratio (x) = 0.50619 0.20522
# Poissons Ratio (y) = 0.40642 0.33298
# Poissons Ratio (z) = 0.21483 0.43413
#
# Static dielectric constant tensor:
#      x y z
#    x 1.631090 0.000000 0.000000 
#    y 0.000000 1.674660 0.000000 
#    z 0.000000 0.000000 1.615810 
# 
# From -- ./inp_files/6675.got.cif
#   From: 2010.05.17/outbox.cif.g08.bks.cpg/sg53_4_cif.got.tgz:6675.got - 2010.06.03 12:45:16.
