data_PCOD9416309
_publ_section_title
;
Structure prediction by ZEFSAII (Michael W. Deem and Ramdas Pophale) SiO2 
 PCOD9416309
Probable space group: P M N A
;
_chemical_formula_sum "Si O2"
_cell_formula_units_Z 60
_cell_length_a 13.435964
_cell_length_b 11.685435
_cell_length_c 19.355978
_cell_angle_alpha 90.000000
_cell_angle_beta 90.000000
_cell_angle_gamma 90.000000
_cell_volume 3038.986951
_symmetry_space_group_name_H-M "P M N A"
_symmetry_group_IT_number 53
_symmetry_cell_setting 'orthorhombic'
loop_
_space_group_symop_operation_xyz
x,y,z
1/2-x,-y,1/2+z
x,-y,-z
1/2-x,y,1/2-z
-x,-y,-z
1/2+x,y,1/2-z
-x,y,z
1/2+x,-y,1/2+z
loop_
_atom_site_type_symbol
_atom_site_label
_atom_site_fract_x
_atom_site_fract_y
_atom_site_fract_z
Si Si1 0.750000 0.397932 0.250000
Si Si2 0.886253 0.774736 0.221054
Si Si3 0.380680 0.976681 0.781392
Si Si4 0.243745 0.263630 0.591774
Si Si5 0.617002 0.863906 0.515095
Si Si6 0.619391 0.959419 0.075423
Si Si7 0.616071 0.573759 0.164759
Si Si8 0.381464 0.216863 0.327718
O O1 0.673063 0.473564 0.205223
O O2 0.813907 0.322485 0.196000
O O3 0.813398 0.743938 0.159204
O O4 0.884063 0.679635 0.280709
O O5 0.000000 0.782816 0.195325
O O6 0.858953 0.897699 0.252304
O O7 0.500000 0.970739 0.786040
O O8 0.353730 0.882444 0.726257
O O9 0.343943 0.964685 0.859995
O O10 0.315139 0.222708 0.529451
O O11 0.159814 0.165924 0.590408
O O12 0.182663 0.381840 0.600117
O O13 0.500000 0.846131 0.498345
O O14 0.631864 0.831741 0.595242
O O15 0.635478 0.000000 0.500000
O O16 0.500000 0.957763 0.075587
O O17 0.650782 0.000000 0.000000
O O18 0.500000 0.548393 0.148444
O O19 0.500000 0.243624 0.320237
#
# Coordination Sequence:
#
# PCOD9416309 Si02
#       8
#     4   8   8   8   8   8   8   8
#     4  12  24  44  66  92 120 174 228 276 318 384
#     4  10  19  34  60  94 126 154 200 263 326 387
#     4   9  18  35  58  86 121 160 202 258 325 391
#     4  12  20  34  58  93 124 162 210 260 321 379
#     4  10  22  41  63  96 141 178 209 259 329 401
#     4  10  21  34  51  83 130 171 203 250 322 394
#     4  11  23  41  64  92 125 162 213 279 331 377
#     4  10  23  42  64  91 128 172 217 266 321 394
#
# _framework density 19.743421999999999
#
# number of rings (size 3 to 8) (size 9 to 14) (size 15 to 20)
#    0.000    1.600    2.667    2.400    0.000    5.333 
#    0.000    0.667    0.000    4.800    0.000    0.000 
#    0.000    0.000    0.000    0.000    0.000    0.000 
#
# Total GULP energy -334930.828335 kJ/mol
# GULP energy per Si atom -5582.180472 kJ/mol
# Density = 1.969849 g / cm^3
# Si number density = 19.743422 Si / 1000 Ang^3
#
#
#
# Elastic Constant Matrix: (Units=GPa)
#
#
# Indices 1 2 3 4 5 6 
#
# 1 147.3166 51.7913 62.6645 0.0000 0.0000 0.0000
# 2 51.7913 96.2638 39.3584 0.0000 0.0000 0.0000
# 3 62.6645 39.3584 106.1038 0.0000 0.0000 0.0000
# 4 0.0000 0.0000 0.0000 27.7637 0.0000 0.0000
# 5 0.0000 0.0000 0.0000 0.0000 26.9967 0.0000
# 6 0.0000 0.0000 0.0000 0.0000 0.0000 10.3596
#
#
#
# Elastic Compliance Matrix: (Units=1/GPa)
#
#
# Indices 1 2 3 4 5 6 
#
# 1 0.009967 -0.003484 -0.004594 0.000000 0.000000 0.000000
# 2 -0.003484 0.013463 -0.002936 0.000000 0.000000 0.000000
# 3 -0.004594 -0.002936 0.013227 0.000000 0.000000 0.000000
# 4 0.000000 0.000000 0.000000 0.036018 0.000000 0.000000
# 5 0.000000 0.000000 0.000000 0.000000 0.037042 0.000000
# 6 0.000000 0.000000 0.000000 0.000000 0.000000 0.096529
#
#
# Mechanical properties :
#
#
# Convention : Reuss Voigt Hill
#
# Bulk Modulus (GPa) = 68.36053 73.03473 70.69763
# Shear Modulus (GPa) = 21.44522 26.08200 23.76361
#
# Velocity S-wave (km/s) = 3.29932 3.63856 3.47309
# Velocity P-wave (km/s) = 7.01525 7.39760 7.20896
#
# Compressibility (1/GPa) = 0.01462832
#
# Stress axis : x y z
#
# Youngs Moduli (GPa) = 100.32854 74.27657 75.60140
#
# Poissons Ratio (x) = 0.25879 0.34733
# Poissons Ratio (y) = 0.34956 0.22199
# Poissons Ratio (z) = 0.46093 0.21810
#
# Static dielectric constant tensor:
#      x y z
#    x 1.743970 0.000000 0.000000 
#    y 0.000000 1.665870 0.000000 
#    z 0.000000 0.000000 1.725040 
# 
# From -- ./inp_files/28465.got.cif
#   From: 2010.05.17/outbox.cif.g08.bks.cpg/sg53_15_cif.got.tgz:28465.got - 2010.06.03 12:45:16.
