data_PCOD9416816
_publ_section_title
;
Structure prediction by ZEFSAII (Michael W. Deem and Ramdas Pophale) SiO2 
 PCOD9416816
Probable space group: P M N A
;
_chemical_formula_sum "Si O2"
_cell_formula_units_Z 64
_cell_length_a 7.665629
_cell_length_b 11.086028
_cell_length_c 34.538883
_cell_angle_alpha 90.000000
_cell_angle_beta 90.000000
_cell_angle_gamma 90.000000
_cell_volume 2935.161863
_symmetry_space_group_name_H-M "P M N A"
_symmetry_group_IT_number 53
_symmetry_cell_setting 'orthorhombic'
loop_
_space_group_symop_operation_xyz
x,y,z
1/2-x,-y,1/2+z
x,-y,-z
1/2-x,y,1/2-z
-x,-y,-z
1/2+x,y,1/2-z
-x,y,z
1/2+x,-y,1/2+z
loop_
_atom_site_type_symbol
_atom_site_label
_atom_site_fract_x
_atom_site_fract_y
_atom_site_fract_z
Si Si1 0.701480 0.317913 0.438692
Si Si2 0.288468 0.307967 0.871716
Si Si3 0.198094 0.821459 0.489405
Si Si4 0.299355 0.171946 0.131464
Si Si5 0.786307 0.060182 0.586606
Si Si6 0.290885 0.423003 0.793140
Si Si7 0.201813 0.579095 0.051125
Si Si8 0.289919 0.699062 0.793398
O O1 0.500000 0.338866 0.429176
O O2 0.714263 0.212091 0.470282
O O3 0.795964 0.279731 0.399652
O O4 0.767041 0.444104 0.456687
O O5 0.500000 0.314299 0.873241
O O6 0.238853 0.176156 0.887462
O O7 0.229397 0.341341 0.828674
O O8 0.215021 0.402468 0.902743
O O9 0.272519 0.914216 0.457636
O O10 0.199921 0.693207 0.466592
O O11 0.000000 0.855618 0.498683
O O12 0.500000 0.137911 0.139515
O O13 0.221696 0.217961 0.171773
O O14 0.221417 0.058497 0.108424
O O15 0.000000 0.056064 0.583993
O O16 0.250000 0.378766 0.750000
O O17 0.500000 0.428679 0.796125
O O18 0.224212 0.560930 0.796717
O O19 0.000000 0.590409 0.038185
O O20 0.250000 0.741992 0.750000
O O21 0.500000 0.694176 0.797492
#
# Coordination Sequence:
#
# PCOD9416816 Si02
#       8
#     8   8   8   8   8   8   8   8
#     4  11  23  35  49  75 108 136 165 209 260 301
#     4   9  17  32  53  74  98 130 169 208 249 302
#     4  10  20  35  55  76 100 134 173 210 252 303
#     4  10  20  36  56  75  98 133 177 213 246 296
#     4   8  17  34  54  74  96 128 171 217 254 286
#     4   9  17  29  47  73 102 129 160 200 248 303
#     4  10  20  33  50  74 104 133 163 206 259 308
#     4   9  18  32  52  76 101 131 164 202 249 299
#
# _framework density 21.804587999999999
#
# number of rings (size 3 to 8) (size 9 to 14) (size 15 to 20)
#    0.000    2.500    0.000    3.000    0.000    6.000 
#    0.000    8.750    0.000    0.000    0.000    0.000 
#    0.000    0.000    0.000    0.000    0.000    0.000 
#
# Total GULP energy -357325.140776 kJ/mol
# GULP energy per Si atom -5583.205325 kJ/mol
# Density = 2.175496 g / cm^3
# Si number density = 21.804588 Si / 1000 Ang^3
#
#
#
# Elastic Constant Matrix: (Units=GPa)
#
#
# Indices 1 2 3 4 5 6 
#
# 1 41.6247 2.7892 -5.4928 0.0000 0.0000 0.0000
# 2 2.7892 75.1615 25.6928 0.0000 0.0000 0.0000
# 3 -5.4928 25.6928 130.8015 0.0000 0.0000 0.0000
# 4 0.0000 0.0000 0.0000 32.4653 0.0000 0.0000
# 5 0.0000 0.0000 0.0000 0.0000 63.9633 0.0000
# 6 0.0000 0.0000 0.0000 0.0000 0.0000 42.4775
#
#
#
# Elastic Compliance Matrix: (Units=1/GPa)
#
#
# Indices 1 2 3 4 5 6 
#
# 1 0.024283 -0.001340 0.001283 0.000000 0.000000 0.000000
# 2 -0.001340 0.014336 -0.002872 0.000000 0.000000 0.000000
# 3 0.001283 -0.002872 0.008263 0.000000 0.000000 0.000000
# 4 0.000000 0.000000 0.000000 0.030802 0.000000 0.000000
# 5 0.000000 0.000000 0.000000 0.000000 0.015634 0.000000
# 6 0.000000 0.000000 0.000000 0.000000 0.000000 0.023542
#
#
# Mechanical properties :
#
#
# Convention : Reuss Voigt Hill
#
# Bulk Modulus (GPa) = 24.37561 32.61846 28.49703
# Shear Modulus (GPa) = 36.65858 42.75445 39.70652
#
# Velocity S-wave (km/s) = 4.10473 4.43290 4.27197
# Velocity P-wave (km/s) = 5.80246 6.41815 6.11805
#
# Compressibility (1/GPa) = 0.04102462
#
# Stress axis : x y z
#
# Youngs Moduli (GPa) = 41.18062 69.75332 121.01798
#
# Poissons Ratio (x) = 0.09345 -0.15525
# Poissons Ratio (y) = 0.05517 0.34760
# Poissons Ratio (z) = -0.05283 0.20035
#
# Static dielectric constant tensor:
#      x y z
#    x 1.809860 0.000000 0.000000 
#    y 0.000000 1.815740 0.000000 
#    z 0.000000 0.000000 1.797850 
# 
# From -- ./inp_files/38160.got.cif
#   From: 2010.05.17/outbox.cif.g08.bks.cpg/sg53_20_cif.got.tgz:38160.got - 2010.06.03 12:45:16.
