data_PCOD9416791
_publ_section_title
;
Structure prediction by ZEFSAII (Michael W. Deem and Ramdas Pophale) SiO2 
 PCOD9416791
Probable space group: P M N A
;
_chemical_formula_sum "Si O2"
_cell_formula_units_Z 64
_cell_length_a 8.940749
_cell_length_b 23.316193
_cell_length_c 17.758125
_cell_angle_alpha 90.000000
_cell_angle_beta 90.000000
_cell_angle_gamma 90.000000
_cell_volume 3701.933841
_symmetry_space_group_name_H-M "P M N A"
_symmetry_group_IT_number 53
_symmetry_cell_setting 'orthorhombic'
loop_
_space_group_symop_operation_xyz
x,y,z
1/2-x,-y,1/2+z
x,-y,-z
1/2-x,y,1/2-z
-x,-y,-z
1/2+x,y,1/2-z
-x,y,z
1/2+x,-y,1/2+z
loop_
_atom_site_type_symbol
_atom_site_label
_atom_site_fract_x
_atom_site_fract_y
_atom_site_fract_z
Si Si1 0.320750 0.371350 0.446116
Si Si2 0.821415 0.452544 0.331377
Si Si3 0.676519 0.131448 0.972491
Si Si4 0.321210 0.426523 0.906761
Si Si5 0.680477 0.935301 0.331862
Si Si6 0.669938 0.042074 0.427448
Si Si7 0.176113 0.746790 0.020583
Si Si8 0.823676 0.322281 0.825043
O O1 0.500000 0.376273 0.444885
O O2 0.248473 0.397482 0.371950
O O3 0.256980 0.408353 0.515790
O O4 0.283905 0.305065 0.464091
O O5 0.750000 0.460676 0.250000
O O6 0.787805 0.508991 0.381269
O O7 0.000000 0.447429 0.326021
O O8 0.500000 0.126824 0.961689
O O9 0.757396 0.106388 0.897467
O O10 0.727828 0.196358 0.985603
O O11 0.727143 0.093398 0.044206
O O12 0.500000 0.420481 0.914286
O O13 0.259099 0.381504 0.845681
O O14 0.750000 0.923717 0.250000
O O15 0.500000 0.930791 0.330020
O O16 0.718387 0.000252 0.359818
O O17 0.500000 0.062326 0.413662
O O18 0.664341 0.000000 0.500000
O O19 0.194580 0.719357 0.103669
O O20 0.000000 0.760442 0.010978
O O21 0.750000 0.297831 0.750000
O O22 0.000000 0.332677 0.814794
#
# Coordination Sequence:
#
# PCOD9416791 Si02
#       8
#     8   8   8   8   8   8   8   8
#     4  10  21  37  57  78 102 135 173 216 263 310
#     4  11  23  36  53  78 106 135 168 210 262 317
#     4  11  21  32  52  79 104 135 175 215 251 295
#     4  10  20  34  53  77 105 136 170 209 255 312
#     4  10  20  34  53  78 110 143 171 206 253 300
#     4   8  16  32  52  73 101 137 170 203 246 291
#     4   9  20  37  53  71  99 136 176 214 255 303
#     4  10  20  33  50  72 100 136 173 212 258 307
#
# _framework density 17.288262
#
# number of rings (size 3 to 8) (size 9 to 14) (size 15 to 20)
#    0.000    2.125    0.000    5.250    0.000   10.750 
#    0.000    1.250    0.000    0.750    0.000    3.500 
#    0.000    0.000    0.000    0.000    0.000    0.000 
#
# Total GULP energy -357155.061970 kJ/mol
# GULP energy per Si atom -5580.547843 kJ/mol
# Density = 1.724891 g / cm^3
# Si number density = 17.288262 Si / 1000 Ang^3
#
#
#
# Elastic Constant Matrix: (Units=GPa)
#
#
# Indices 1 2 3 4 5 6 
#
# 1 78.1377 63.4271 23.7061 0.0000 0.0000 0.0000
# 2 63.4271 100.9276 31.6309 0.0000 0.0000 0.0000
# 3 23.7061 31.6309 35.5135 0.0000 0.0000 0.0000
# 4 0.0000 0.0000 0.0000 4.8989 0.0000 0.0000
# 5 0.0000 0.0000 0.0000 0.0000 10.8138 0.0000
# 6 0.0000 0.0000 0.0000 0.0000 0.0000 25.9720
#
#
#
# Elastic Compliance Matrix: (Units=1/GPa)
#
#
# Indices 1 2 3 4 5 6 
#
# 1 0.026522 -0.015424 -0.003966 0.000000 0.000000 0.000000
# 2 -0.015424 0.022715 -0.009936 0.000000 0.000000 0.000000
# 3 -0.003966 -0.009936 0.039655 0.000000 0.000000 0.000000
# 4 0.000000 0.000000 0.000000 0.204127 0.000000 0.000000
# 5 0.000000 0.000000 0.000000 0.000000 0.092475 0.000000
# 6 0.000000 0.000000 0.000000 0.000000 0.000000 0.038503
#
#
# Mechanical properties :
#
#
# Convention : Reuss Voigt Hill
#
# Bulk Modulus (GPa) = 33.06859 50.23411 41.65135
# Shear Modulus (GPa) = 10.14759 14.72459 12.43609
#
# Velocity S-wave (km/s) = 2.42536 2.92157 2.68496
# Velocity P-wave (km/s) = 5.19735 6.36401 5.81004
#
# Compressibility (1/GPa) = 0.03024018
#
# Stress axis : x y z
#
# Youngs Moduli (GPa) = 37.70512 44.02320 25.21754
#
# Poissons Ratio (x) = 0.67903 0.10001
# Poissons Ratio (y) = 0.58158 0.25055
# Poissons Ratio (z) = 0.14953 0.43740
#
# Static dielectric constant tensor:
#      x y z
#    x 1.577090 0.000000 0.000000 
#    y 0.000000 1.584290 0.000000 
#    z 0.000000 0.000000 1.595840 
# 
# From -- ./inp_files/26995.got.cif
#   From: 2010.05.17/outbox.cif.g08.bks.cpg/sg53_14_cif.got.tgz:26995.got - 2010.06.03 12:45:16.
