data_PCOD9416414
_publ_section_title
;
Structure prediction by ZEFSAII (Michael W. Deem and Ramdas Pophale) SiO2 
 PCOD9416414
Probable space group: P M N A
;
_chemical_formula_sum "Si O2"
_cell_formula_units_Z 48
_cell_length_a 8.641145
_cell_length_b 10.584162
_cell_length_c 29.087614
_cell_angle_alpha 90.000000
_cell_angle_beta 90.000000
_cell_angle_gamma 90.000000
_cell_volume 2660.332191
_symmetry_space_group_name_H-M "P M N A"
_symmetry_group_IT_number 53
_symmetry_cell_setting 'orthorhombic'
loop_
_space_group_symop_operation_xyz
x,y,z
1/2-x,-y,1/2+z
x,-y,-z
1/2-x,y,1/2-z
-x,-y,-z
1/2+x,y,1/2-z
-x,y,z
1/2+x,-y,1/2+z
loop_
_atom_site_type_symbol
_atom_site_label
_atom_site_fract_x
_atom_site_fract_y
_atom_site_fract_z
Si Si1 0.687395 0.259805 0.557342
Si Si2 0.315891 0.491891 0.106367
Si Si3 0.314567 0.399112 0.299514
Si Si4 0.686159 0.103140 0.299177
Si Si5 0.688656 0.001399 0.396106
Si Si6 0.312705 0.254147 0.450056
O O1 0.500000 0.265159 0.559349
O O2 0.754006 0.381600 0.582573
O O3 0.730687 0.258214 0.503591
O O4 0.738822 0.130368 0.581903
O O5 0.500000 0.491999 0.107029
O O6 0.252003 0.476377 0.157946
O O7 0.255950 0.371717 0.077444
O O8 0.250000 0.439288 0.250000
O O9 0.500000 0.406010 0.299649
O O10 0.269974 0.250841 0.305781
O O11 0.750000 0.060680 0.250000
O O12 0.500000 0.098773 0.297556
O O13 0.739091 0.025249 0.343644
O O14 0.500000 0.000607 0.396095
O O15 0.734911 0.122192 0.426614
O O16 0.500000 0.261927 0.447009
#
# Coordination Sequence:
#
# PCOD9416414 Si02
#       6
#     8   8   8   8   8   8
#     4  10  21  36  58  82 110 148 189 234 285 337
#     4  12  24  37  54  80 116 154 190 228 275 332
#     4  10  19  35  59  86 113 141 182 232 279 329
#     4   9  17  31  54  82 111 137 172 222 272 325
#     4   9  17  34  58  85 110 139 182 234 284 334
#     4  10  19  36  60  84 107 141 192 241 283 332
#
# _framework density 18.042860000000001
#
# number of rings (size 3 to 8) (size 9 to 14) (size 15 to 20)
#    0.000    2.000    1.667    3.000    0.000    5.333 
#    0.000    2.500    0.000    4.000    0.000    0.000 
#    0.000    0.000    0.000    0.000    0.000    0.000 
#
# Total GULP energy -268029.458545 kJ/mol
# GULP energy per Si atom -5583.947053 kJ/mol
# Density = 1.800179 g / cm^3
# Si number density = 18.042860 Si / 1000 Ang^3
#
#
#
# Elastic Constant Matrix: (Units=GPa)
#
#
# Indices 1 2 3 4 5 6 
#
# 1 25.2748 28.9537 42.2392 0.0000 0.0000 0.0000
# 2 28.9537 135.3505 89.6672 0.0000 0.0000 0.0000
# 3 42.2392 89.6672 193.2434 0.0000 0.0000 0.0000
# 4 0.0000 0.0000 0.0000 -0.5416 0.0000 0.0000
# 5 0.0000 0.0000 0.0000 0.0000 28.6535 0.0000
# 6 0.0000 0.0000 0.0000 0.0000 0.0000 -15.5348
#
#
#
# Elastic Compliance Matrix: (Units=1/GPa)
#
#
# Indices 1 2 3 4 5 6 
#
# 1 0.066187 -0.006604 -0.011403 0.000000 0.000000 0.000000
# 2 -0.006604 0.011326 -0.003812 0.000000 0.000000 0.000000
# 3 -0.011403 -0.003812 0.009436 0.000000 0.000000 0.000000
# 4 0.000000 0.000000 0.000000 -1.846227 0.000000 0.000000
# 5 0.000000 0.000000 0.000000 0.000000 0.034900 0.000000
# 6 0.000000 0.000000 0.000000 0.000000 0.000000 -0.064372
#
#
# Mechanical properties :
#
#
# Convention : Reuss Voigt Hill
#
# Bulk Modulus (GPa) = 23.08864 75.06542 49.07703
# Shear Modulus (GPa) = -2.88905 15.38264 6.24680
#
# Velocity S-wave (km/s) = -1.26676 2.92303 1.86272
# Velocity P-wave (km/s) = 3.26875 7.28604 5.64673
#
# Compressibility (1/GPa) = 0.04331134
#
# Stress axis : x y z
#
# Youngs Moduli (GPa) = 15.10868 88.28940 105.97697
#
# Poissons Ratio (x) = 0.58310 1.20842
# Poissons Ratio (y) = 0.09978 0.40398
# Poissons Ratio (z) = 0.17228 0.33656
#
# Static dielectric constant tensor:
#      x y z
#    x 1.612500 0.000000 0.000000 
#    y 0.000000 1.589620 0.000000 
#    z 0.000000 0.000000 1.609640 
# 
# From -- ./inp_files/37743.got.cif
#   From: 2010.05.17/outbox.cif.g08.bks.cpg/sg53_19_cif.got.tgz:37743.got - 2010.06.03 12:45:16.
