data_PCOD9416545
_publ_section_title
;
Structure prediction by ZEFSAII (Michael W. Deem and Ramdas Pophale) SiO2 
 PCOD9416545
Probable space group: P M N A
;
_chemical_formula_sum "Si O2"
_cell_formula_units_Z 48
_cell_length_a 15.546523
_cell_length_b 9.848006
_cell_length_c 13.612222
_cell_angle_alpha 90.000000
_cell_angle_beta 90.000000
_cell_angle_gamma 90.000000
_cell_volume 2084.061840
_symmetry_space_group_name_H-M "P M N A"
_symmetry_group_IT_number 53
_symmetry_cell_setting 'orthorhombic'
loop_
_space_group_symop_operation_xyz
x,y,z
1/2-x,-y,1/2+z
x,-y,-z
1/2-x,y,1/2-z
-x,-y,-z
1/2+x,y,1/2-z
-x,y,z
1/2+x,-y,1/2+z
loop_
_atom_site_type_symbol
_atom_site_label
_atom_site_fract_x
_atom_site_fract_y
_atom_site_fract_z
Si Si1 0.776077 0.500799 0.381333
Si Si2 0.592389 0.607610 0.413526
Si Si3 0.632243 0.864441 0.550031
Si Si4 0.900557 0.257557 0.643187
Si Si5 0.854394 0.979224 0.741539
Si Si6 0.171183 0.207728 0.426430
O O1 0.780725 0.500000 0.500000
O O2 0.679186 0.553997 0.360431
O O3 0.841172 0.611644 0.340753
O O4 0.805636 0.345582 0.364233
O O5 0.584426 0.500000 0.500000
O O6 0.500000 0.612138 0.359387
O O7 0.603559 0.744279 0.477709
O O8 0.735346 0.851133 0.547336
O O9 0.601843 0.000000 0.500000
O O10 0.611785 0.893389 0.664766
O O11 0.882388 0.134406 0.719769
O O12 0.876810 0.221214 0.529892
O O13 0.000000 0.291505 0.646111
O O14 0.750000 0.982566 0.750000
O O15 0.876933 0.894751 0.644793
#
# Coordination Sequence:
#
# PCOD9416545 Si02
#       6
#     8   8   8   8   8   8
#     4   9  18  36  63  93 128 166 208 266 321 389
#     4  10  19  36  63  90 119 164 218 269 320 379
#     4  11  21  39  65  90 125 169 220 267 326 381
#     4  11  22  39  66  98 133 170 212 265 328 394
#     4  10  23  38  61  93 125 171 217 264 314 392
#     4  10  19  38  62  95 127 168 214 261 330 385
#
# _framework density 23.031946000000001
#
# number of rings (size 3 to 8) (size 9 to 14) (size 15 to 20)
#    0.000    1.833    5.000    2.500    0.000    5.333 
#    0.000    4.167    0.000    2.000    0.000    0.000 
#    0.000    0.000    0.000    0.000    0.000    0.000 
#
# Total GULP energy -267664.650801 kJ/mol
# GULP energy per Si atom -5576.346892 kJ/mol
# Density = 2.297952 g / cm^3
# Si number density = 23.031946 Si / 1000 Ang^3
#
#
#
# Elastic Constant Matrix: (Units=GPa)
#
#
# Indices 1 2 3 4 5 6 
#
# 1 126.5467 11.1689 10.5622 0.0000 0.0000 0.0000
# 2 11.1689 116.8344 -5.5373 0.0000 0.0000 0.0000
# 3 10.5622 -5.5373 93.4740 0.0000 0.0000 0.0000
# 4 0.0000 0.0000 0.0000 -45.5469 0.0000 0.0000
# 5 0.0000 0.0000 0.0000 0.0000 -32.8857 0.0000
# 6 0.0000 0.0000 0.0000 0.0000 0.0000 -22.4847
#
#
#
# Elastic Compliance Matrix: (Units=1/GPa)
#
#
# Indices 1 2 3 4 5 6 
#
# 1 0.008054 -0.000815 -0.000958 0.000000 0.000000 0.000000
# 2 -0.000815 0.008666 0.000605 0.000000 0.000000 0.000000
# 3 -0.000958 0.000605 0.010842 0.000000 0.000000 0.000000
# 4 0.000000 0.000000 0.000000 -0.021955 0.000000 0.000000
# 5 0.000000 0.000000 0.000000 0.000000 -0.030408 0.000000
# 6 0.000000 0.000000 0.000000 0.000000 0.000000 -0.044475
#
#
# Mechanical properties :
#
#
# Convention : Reuss Voigt Hill
#
# Bulk Modulus (GPa) = 39.64208 41.02696 40.33452
# Shear Modulus (GPa) = -85.42463 1.19397 -42.11533
#
# Velocity S-wave (km/s) = -6.09673 0.72078 -4.28081
# Velocity P-wave (km/s) = 5.68428 4.30633 2.62361
#
# Compressibility (1/GPa) = 0.02522572
#
# Stress axis : x y z
#
# Youngs Moduli (GPa) = 124.15915 115.39663 92.23112
#
# Poissons Ratio (x) = 0.09409 0.08839
# Poissons Ratio (y) = 0.10124 -0.05584
# Poissons Ratio (z) = 0.11899 -0.06987
#
# Static dielectric constant tensor:
#      x y z
#    x 1.856970 0.000000 0.000000 
#    y 0.000000 1.874400 0.000000 
#    z 0.000000 0.000000 1.893070 
# 
# From -- ./inp_files/23623.got.cif
#   From: 2010.05.17/outbox.cif.g08.bks.cpg/sg53_12_cif.got.tgz:23623.got - 2010.06.03 12:45:16.
