data_PCOD9416963
_publ_section_title
;
Structure prediction by ZEFSAII (Michael W. Deem and Ramdas Pophale) SiO2 
 PCOD9416963
Probable space group: P M N A
;
_chemical_formula_sum "Si O2"
_cell_formula_units_Z 48
_cell_length_a 9.349720
_cell_length_b 15.415008
_cell_length_c 20.932187
_cell_angle_alpha 90.000000
_cell_angle_beta 90.000000
_cell_angle_gamma 90.000000
_cell_volume 3016.872564
_symmetry_space_group_name_H-M "P M N A"
_symmetry_group_IT_number 53
_symmetry_cell_setting 'orthorhombic'
loop_
_space_group_symop_operation_xyz
x,y,z
1/2-x,-y,1/2+z
x,-y,-z
1/2-x,y,1/2-z
-x,-y,-z
1/2+x,y,1/2-z
-x,y,z
1/2+x,-y,1/2+z
loop_
_atom_site_type_symbol
_atom_site_label
_atom_site_fract_x
_atom_site_fract_y
_atom_site_fract_z
Si Si1 0.674524 0.419085 0.456803
Si Si2 0.663277 0.816076 0.655433
Si Si3 0.828371 0.071770 0.552798
Si Si4 0.829884 0.014371 0.312141
Si Si5 0.333733 0.227780 0.493688
Si Si6 0.669762 0.614798 0.686652
O O1 0.719302 0.500000 0.500000
O O2 0.500000 0.416884 0.455370
O O3 0.718534 0.327053 0.487542
O O4 0.718807 0.422437 0.382228
O O5 0.500000 0.841369 0.672804
O O6 0.774268 0.887303 0.678536
O O7 0.670993 0.808460 0.578763
O O8 0.689241 0.719070 0.680687
O O9 0.756034 0.162981 0.536871
O O10 0.000000 0.079963 0.548208
O O11 0.783562 0.000000 0.500000
O O12 0.792539 0.036494 0.622995
O O13 0.750000 0.978628 0.250000
O O14 0.000000 0.012776 0.304167
O O15 0.500000 0.228593 0.513721
O O16 0.750000 0.583732 0.750000
O O17 0.500000 0.599014 0.692683
#
# Coordination Sequence:
#
# PCOD9416963 Si02
#       6
#     8   8   8   8   8   8
#     4   8  15  30  51  73  97 124 158 198 240 284
#     4   9  17  29  44  67  97 124 154 190 232 282
#     4  10  20  34  49  68  96 129 162 194 238 288
#     4  11  22  33  46  65  93 128 164 199 238 283
#     4   9  17  29  50  76  95 120 161 203 235 275
#     4   9  17  28  44  68  96 125 154 187 232 286
#
# _framework density 15.910515
#
# number of rings (size 3 to 8) (size 9 to 14) (size 15 to 20)
#    0.000    2.667    1.667    3.000    0.000    3.667 
#    0.000    2.500    0.000    3.000    0.000    4.667 
#    0.000    0.000    0.000    0.000    0.000    0.000 
#
# Total GULP energy -267491.869015 kJ/mol
# GULP energy per Si atom -5572.747271 kJ/mol
# Density = 1.587430 g / cm^3
# Si number density = 15.910515 Si / 1000 Ang^3
#
#
#
# Elastic Constant Matrix: (Units=GPa)
#
#
# Indices 1 2 3 4 5 6 
#
# 1 32.2144 30.8473 50.0824 0.0000 0.0000 0.0000
# 2 30.8473 84.4512 67.3161 0.0000 0.0000 0.0000
# 3 50.0824 67.3161 133.9377 0.0000 0.0000 0.0000
# 4 0.0000 0.0000 0.0000 19.0788 0.0000 0.0000
# 5 0.0000 0.0000 0.0000 0.0000 26.5056 0.0000
# 6 0.0000 0.0000 0.0000 0.0000 0.0000 7.9868
#
#
#
# Elastic Compliance Matrix: (Units=1/GPa)
#
#
# Indices 1 2 3 4 5 6 
#
# 1 0.077815 -0.008726 -0.024711 0.000000 0.000000 0.000000
# 2 -0.008726 0.020734 -0.007158 0.000000 0.000000 0.000000
# 3 -0.024711 -0.007158 0.020304 0.000000 0.000000 0.000000
# 4 0.000000 0.000000 0.000000 0.052414 0.000000 0.000000
# 5 0.000000 0.000000 0.000000 0.000000 0.037728 0.000000
# 6 0.000000 0.000000 0.000000 0.000000 0.000000 0.125207
#
#
# Mechanical properties :
#
#
# Convention : Reuss Voigt Hill
#
# Bulk Modulus (GPa) = 26.55147 60.78831 43.66989
# Shear Modulus (GPa) = 11.68368 17.53807 14.61087
#
# Velocity S-wave (km/s) = 2.71281 3.32368 3.03366
# Velocity P-wave (km/s) = 5.15137 7.28138 6.30695
#
# Compressibility (1/GPa) = 0.03766270
#
# Stress axis : x y z
#
# Youngs Moduli (GPa) = 12.85094 48.22981 49.25182
#
# Poissons Ratio (x) = 0.42085 1.21708
# Poissons Ratio (y) = 0.11214 0.35254
# Poissons Ratio (z) = 0.31756 0.34523
#
# Static dielectric constant tensor:
#      x y z
#    x 1.534090 0.000000 0.000000 
#    y 0.000000 1.515950 0.000000 
#    z 0.000000 0.000000 1.552450 
# 
# From -- ./inp_files/26411.got.cif
#   From: 2010.05.17/outbox.cif.g08.bks.cpg/sg53_14_cif.got.tgz:26411.got - 2010.06.03 12:45:16.
