data_PCOD9416665
_publ_section_title
;
Structure prediction by ZEFSAII (Michael W. Deem and Ramdas Pophale) SiO2 
 PCOD9416665
Probable space group: P M N A
;
_chemical_formula_sum "Si O2"
_cell_formula_units_Z 36
_cell_length_a 14.086596
_cell_length_b 9.043164
_cell_length_c 14.463662
_cell_angle_alpha 90.000000
_cell_angle_beta 90.000000
_cell_angle_gamma 90.000000
_cell_volume 1842.488265
_symmetry_space_group_name_H-M "P M N A"
_symmetry_group_IT_number 53
_symmetry_cell_setting 'orthorhombic'
loop_
_space_group_symop_operation_xyz
x,y,z
1/2-x,-y,1/2+z
x,-y,-z
1/2-x,y,1/2-z
-x,-y,-z
1/2+x,y,1/2-z
-x,y,z
1/2+x,-y,1/2+z
loop_
_atom_site_type_symbol
_atom_site_label
_atom_site_fract_x
_atom_site_fract_y
_atom_site_fract_z
Si Si1 0.167422 0.654419 0.454193
Si Si2 0.500000 0.746586 0.748410
Si Si3 0.500000 0.998120 0.389697
Si Si4 0.500000 0.161495 0.047453
Si Si5 0.638692 0.519779 0.239234
Si Si6 0.822657 0.799570 0.162703
O O1 0.200005 0.500000 0.500000
O O2 0.119238 0.596547 0.359284
O O3 0.253524 0.760103 0.422707
O O4 0.091707 0.744200 0.514580
O O5 0.586845 0.633188 0.751285
O O6 0.500000 0.842382 0.657119
O O7 0.500000 0.845558 0.841242
O O8 0.597208 0.919565 0.355510
O O9 0.500000 0.000000 0.500000
O O10 0.500000 0.000000 0.000000
O O11 0.750000 0.491735 0.250000
O O12 0.621202 0.648115 0.313354
O O13 0.750000 0.829908 0.250000
#
# Coordination Sequence:
#
# PCOD9416665 Si02
#       6
#     8   4   4   4   8   8
#     4  10  19  40  66 100 133 161 223 279 329 390
#     4  12  24  41  66  94 137 166 220 273 319 400
#     4  12  29  47  60  96 141 184 216 264 341 408
#     4  12  26  35  62 109 137 171 205 275 354 398
#     4   9  20  39  65  96 121 168 216 272 324 380
#     4   9  23  44  71  89 127 180 218 267 331 391
#
# _framework density 19.538792999999998
#
# number of rings (size 3 to 8) (size 9 to 14) (size 15 to 20)
#    0.000    2.222    2.222    1.667    6.222    5.333 
#    0.000    1.667    0.000    0.000    0.000    0.000 
#    0.000    0.000    0.000    0.000    0.000    0.000 
#
# Total GULP energy -200770.477137 kJ/mol
# GULP energy per Si atom -5576.957698 kJ/mol
# Density = 1.949432 g / cm^3
# Si number density = 19.538793 Si / 1000 Ang^3
#
#
#
# Elastic Constant Matrix: (Units=GPa)
#
#
# Indices 1 2 3 4 5 6 
#
# 1 78.8650 22.9304 16.2208 0.0000 0.0000 0.0000
# 2 22.9304 80.5253 16.5412 0.0000 0.0000 0.0000
# 3 16.2208 16.5412 77.4953 0.0000 0.0000 0.0000
# 4 0.0000 0.0000 0.0000 27.8944 0.0000 0.0000
# 5 0.0000 0.0000 0.0000 0.0000 5.6261 0.0000
# 6 0.0000 0.0000 0.0000 0.0000 0.0000 45.3940
#
#
#
# Elastic Compliance Matrix: (Units=1/GPa)
#
#
# Indices 1 2 3 4 5 6 
#
# 1 0.014175 -0.003584 -0.002202 0.000000 0.000000 0.000000
# 2 -0.003584 0.013894 -0.002215 0.000000 0.000000 0.000000
# 3 -0.002202 -0.002215 0.013838 0.000000 0.000000 0.000000
# 4 0.000000 0.000000 0.000000 0.035849 0.000000 0.000000
# 5 0.000000 0.000000 0.000000 0.000000 0.177744 0.000000
# 6 0.000000 0.000000 0.000000 0.000000 0.000000 0.022029
#
#
# Mechanical properties :
#
#
# Convention : Reuss Voigt Hill
#
# Bulk Modulus (GPa) = 38.60449 38.69671 38.65060
# Shear Modulus (GPa) = 16.54710 27.86244 22.20477
#
# Velocity S-wave (km/s) = 2.91329 3.78035 3.37478
# Velocity P-wave (km/s) = 5.57827 6.23721 5.91692
#
# Compressibility (1/GPa) = 0.02590372
#
# Stress axis : x y z
#
# Youngs Moduli (GPa) = 70.54726 71.97272 72.26584
#
# Poissons Ratio (x) = 0.25796 0.15913
# Poissons Ratio (y) = 0.25285 0.16010
# Poissons Ratio (z) = 0.15534 0.15945
#
# Static dielectric constant tensor:
#      x y z
#    x 1.647400 0.000000 0.000000 
#    y 0.000000 1.661930 0.000000 
#    z 0.000000 0.000000 1.721080 
# 
# From -- ./inp_files/22358.got.cif
#   From: 2010.05.17/outbox.cif.g08.bks.cpg/sg53_12_cif.got.tgz:22358.got - 2010.06.03 12:45:16.
