data_PCOD9416847
_publ_section_title
;
Structure prediction by ZEFSAII (Michael W. Deem and Ramdas Pophale) SiO2 
 PCOD9416847
Probable space group: P M N A
;
_chemical_formula_sum "Si O2"
_cell_formula_units_Z 40
_cell_length_a 8.705679
_cell_length_b 26.825996
_cell_length_c 9.637751
_cell_angle_alpha 90.000000
_cell_angle_beta 90.000000
_cell_angle_gamma 90.000000
_cell_volume 2250.786009
_symmetry_space_group_name_H-M "P M N A"
_symmetry_group_IT_number 53
_symmetry_cell_setting 'orthorhombic'
loop_
_space_group_symop_operation_xyz
x,y,z
1/2-x,-y,1/2+z
x,-y,-z
1/2-x,y,1/2-z
-x,-y,-z
1/2+x,y,1/2-z
-x,y,z
1/2+x,-y,1/2+z
loop_
_atom_site_type_symbol
_atom_site_label
_atom_site_fract_x
_atom_site_fract_y
_atom_site_fract_z
Si Si1 0.183661 0.649387 0.906161
Si Si2 0.315991 0.453033 0.094200
Si Si3 0.683527 0.152594 0.905185
Si Si4 0.315470 0.240035 0.406162
Si Si5 0.315842 0.047006 0.596015
O O1 0.250000 0.650501 0.750000
O O2 0.254771 0.599208 0.968383
O O3 0.221047 0.704282 0.963946
O O4 0.000000 0.644394 0.901300
O O5 0.250000 0.458372 0.250000
O O6 0.500000 0.450702 0.102995
O O7 0.271480 0.500000 0.000000
O O8 0.750000 0.158655 0.750000
O O9 0.744429 0.098890 0.956701
O O10 0.000000 0.152222 0.599820
O O11 0.743888 0.196970 0.000843
O O12 0.250000 0.236731 0.250000
O O13 0.500000 0.235341 0.401363
O O14 0.250000 0.038959 0.750000
O O15 0.500000 0.052290 0.603215
O O16 0.278260 0.000000 0.500000
#
# Coordination Sequence:
#
# PCOD9416847 Si02
#       5
#     8   8   8   8   8
#     4   9  17  30  51  75 101 134 169 210 257 305
#     4  10  20  33  51  75 102 134 171 211 256 307
#     4  11  22  37  57  79 108 144 177 215 264 315
#     4  10  20  35  55  81 108 136 176 219 261 310
#     4  10  21  37  57  80 107 139 176 217 260 310
#
# _framework density 17.771569
#
# number of rings (size 3 to 8) (size 9 to 14) (size 15 to 20)
#    0.000    2.000    0.000    6.600    0.000    6.400 
#    0.000    3.000    0.000    2.400    0.000    0.000 
#    0.000    0.000    0.000    0.000    0.000    0.000 
#
# Total GULP energy -223175.495128 kJ/mol
# GULP energy per Si atom -5579.387378 kJ/mol
# Density = 1.773112 g / cm^3
# Si number density = 17.771569 Si / 1000 Ang^3
#
#
#
# Elastic Constant Matrix: (Units=GPa)
#
#
# Indices 1 2 3 4 5 6 
#
# 1 99.5310 85.4984 34.5480 0.0000 0.0000 0.0000
# 2 85.4984 222.5705 77.6302 0.0000 0.0000 0.0000
# 3 34.5480 77.6302 47.7877 0.0000 0.0000 0.0000
# 4 0.0000 0.0000 0.0000 35.5530 0.0000 0.0000
# 5 0.0000 0.0000 0.0000 0.0000 26.3022 0.0000
# 6 0.0000 0.0000 0.0000 0.0000 0.0000 58.0475
#
#
#
# Elastic Compliance Matrix: (Units=1/GPa)
#
#
# Indices 1 2 3 4 5 6 
#
# 1 0.015242 -0.004642 -0.003479 0.000000 0.000000 0.000000
# 2 -0.004642 0.011780 -0.015781 0.000000 0.000000 0.000000
# 3 -0.003479 -0.015781 0.049077 0.000000 0.000000 0.000000
# 4 0.000000 0.000000 0.000000 0.028127 0.000000 0.000000
# 5 0.000000 0.000000 0.000000 0.000000 0.038020 0.000000
# 6 0.000000 0.000000 0.000000 0.000000 0.000000 0.017227
#
#
# Mechanical properties :
#
#
# Convention : Reuss Voigt Hill
#
# Bulk Modulus (GPa) = 35.34070 85.02693 60.18382
# Shear Modulus (GPa) = 23.07245 35.46139 29.26692
#
# Velocity S-wave (km/s) = 3.60707 4.47184 4.06253
# Velocity P-wave (km/s) = 6.10551 8.63778 7.47959
#
# Compressibility (1/GPa) = 0.02829599
#
# Stress axis : x y z
#
# Youngs Moduli (GPa) = 65.60867 84.88726 20.37608
#
# Poissons Ratio (x) = 0.39402 0.07088
# Poissons Ratio (y) = 0.30453 0.32156
# Poissons Ratio (z) = 0.22824 1.33963
#
# Static dielectric constant tensor:
#      x y z
#    x 1.592360 0.000000 0.000000 
#    y 0.000000 1.642020 0.000000 
#    z 0.000000 0.000000 1.570210 
# 
# From -- ./inp_files/6423.got.cif
#   From: 2010.05.17/outbox.cif.g08.bks.cpg/sg53_4_cif.got.tgz:6423.got - 2010.06.03 12:45:16.
