data_PCOD9416724
_publ_section_title
;
Structure prediction by ZEFSAII (Michael W. Deem and Ramdas Pophale) SiO2 
 PCOD9416724
Probable space group: P M N A
;
_chemical_formula_sum "Si O2"
_cell_formula_units_Z 64
_cell_length_a 8.878790
_cell_length_b 16.507671
_cell_length_c 23.352378
_cell_angle_alpha 90.000000
_cell_angle_beta 90.000000
_cell_angle_gamma 90.000000
_cell_volume 3422.714706
_symmetry_space_group_name_H-M "P M N A"
_symmetry_group_IT_number 53
_symmetry_cell_setting 'orthorhombic'
loop_
_space_group_symop_operation_xyz
x,y,z
1/2-x,-y,1/2+z
x,-y,-z
1/2-x,y,1/2-z
-x,-y,-z
1/2+x,y,1/2-z
-x,y,z
1/2+x,-y,1/2+z
loop_
_atom_site_type_symbol
_atom_site_label
_atom_site_fract_x
_atom_site_fract_y
_atom_site_fract_z
Si Si1 0.328060 0.517266 0.912814
Si Si2 0.817901 0.022047 0.812673
Si Si3 0.818627 0.680326 0.190044
Si Si4 0.179198 0.174291 0.631050
Si Si5 0.819542 0.043812 0.060342
Si Si6 0.321775 0.809205 0.487219
Si Si7 0.326547 0.363023 0.980048
Si Si8 0.324783 0.491255 0.305597
O O1 0.500000 0.504800 0.892973
O O2 0.270125 0.429814 0.934591
O O3 0.226608 0.550822 0.862834
O O4 0.331963 0.581153 0.963674
O O5 0.750000 0.996291 0.750000
O O6 0.760047 0.113224 0.825236
O O7 0.000000 0.018793 0.808896
O O8 0.770177 0.978512 0.874102
O O9 0.750000 0.710471 0.250000
O O10 0.740779 0.735440 0.142595
O O11 0.776443 0.585565 0.187798
O O12 0.000000 0.687797 0.188036
O O13 0.233337 0.153769 0.567025
O O14 0.000000 0.170114 0.636779
O O15 0.791539 0.137806 0.043843
O O16 0.000000 0.028866 0.061680
O O17 0.767621 0.000000 0.000000
O O18 0.500000 0.814406 0.475162
O O19 0.270028 0.716394 0.490393
O O20 0.500000 0.339834 0.965746
O O21 0.250000 0.455406 0.250000
O O22 0.500000 0.491648 0.297968
#
# Coordination Sequence:
#
# PCOD9416724 Si02
#       8
#     8   8   8   8   8   8   8   8
#     4   9  18  34  54  74 107 146 180 217 269 330
#     4  11  22  39  60  82 111 145 185 228 277 336
#     4  10  20  33  47  68 100 140 181 223 269 324
#     4  12  23  34  50  76 109 144 180 222 272 328
#     4   9  18  37  61  82 109 148 186 226 276 331
#     4  11  21  35  57  83 108 141 184 229 277 327
#     4   9  19  35  54  80 110 144 178 220 276 329
#     4  10  20  32  49  72  99 134 179 224 269 321
#
# _framework density 18.698608
#
# number of rings (size 3 to 8) (size 9 to 14) (size 15 to 20)
#    0.000    1.875    1.250    4.500    0.000    4.500 
#    0.000    4.375    0.000    0.750    0.000    3.500 
#    0.000    0.000    0.000    0.000    0.000    0.000 
#
# Total GULP energy -356599.437278 kJ/mol
# GULP energy per Si atom -5571.866207 kJ/mol
# Density = 1.865605 g / cm^3
# Si number density = 18.698608 Si / 1000 Ang^3
#
#
#
# Elastic Constant Matrix: (Units=GPa)
#
#
# Indices 1 2 3 4 5 6 
#
# 1 39.0894 12.4437 24.7995 0.0000 0.0000 0.0000
# 2 12.4437 43.4028 17.9120 0.0000 0.0000 0.0000
# 3 24.7995 17.9120 114.4401 0.0000 0.0000 0.0000
# 4 0.0000 0.0000 0.0000 32.5032 0.0000 0.0000
# 5 0.0000 0.0000 0.0000 0.0000 31.9884 0.0000
# 6 0.0000 0.0000 0.0000 0.0000 0.0000 51.2004
#
#
#
# Elastic Compliance Matrix: (Units=1/GPa)
#
#
# Indices 1 2 3 4 5 6 
#
# 1 0.031339 -0.006609 -0.005757 0.000000 0.000000 0.000000
# 2 -0.006609 0.026025 -0.002641 0.000000 0.000000 0.000000
# 3 -0.005757 -0.002641 0.010399 0.000000 0.000000 0.000000
# 4 0.000000 0.000000 0.000000 0.030766 0.000000 0.000000
# 5 0.000000 0.000000 0.000000 0.000000 0.031261 0.000000
# 6 0.000000 0.000000 0.000000 0.000000 0.000000 0.019531
#
#
# Mechanical properties :
#
#
# Convention : Reuss Voigt Hill
#
# Bulk Modulus (GPa) = 26.49112 34.13810 30.31461
# Shear Modulus (GPa) = 26.05282 32.59022 29.32152
#
# Velocity S-wave (km/s) = 3.73675 4.17936 3.96424
# Velocity P-wave (km/s) = 5.72851 6.44873 6.09926
#
# Compressibility (1/GPa) = 0.03774849
#
# Stress axis : x y z
#
# Youngs Moduli (GPa) = 31.90960 38.42485 96.16236
#
# Poissons Ratio (x) = 0.25395 0.55358
# Poissons Ratio (y) = 0.21089 0.25398
# Poissons Ratio (z) = 0.18369 0.10149
#
# Static dielectric constant tensor:
#      x y z
#    x 1.639310 0.000000 0.000000 
#    y 0.000000 1.667550 0.000000 
#    z 0.000000 0.000000 1.688270 
# 
# From -- ./inp_files/31257.got.cif
#   From: 2010.05.17/outbox.cif.g08.bks.cpg/sg53_16_cif.got.tgz:31257.got - 2010.06.03 12:45:16.
