data_PCOD9416940
_publ_section_title
;
Structure prediction by ZEFSAII (Michael W. Deem and Ramdas Pophale) SiO2 
 PCOD9416940
Probable space group: P M N A
;
_chemical_formula_sum "Si O2"
_cell_formula_units_Z 40
_cell_length_a 8.608524
_cell_length_b 10.157228
_cell_length_c 23.176196
_cell_angle_alpha 90.000000
_cell_angle_beta 90.000000
_cell_angle_gamma 90.000000
_cell_volume 2026.497400
_symmetry_space_group_name_H-M "P M N A"
_symmetry_group_IT_number 53
_symmetry_cell_setting 'orthorhombic'
loop_
_space_group_symop_operation_xyz
x,y,z
1/2-x,-y,1/2+z
x,-y,-z
1/2-x,y,1/2-z
-x,-y,-z
1/2+x,y,1/2-z
-x,y,z
1/2+x,-y,1/2+z
loop_
_atom_site_type_symbol
_atom_site_label
_atom_site_fract_x
_atom_site_fract_y
_atom_site_fract_z
Si Si1 0.184386 0.501401 0.312982
Si Si2 0.188470 0.775619 0.855681
Si Si3 0.686021 0.055242 0.689857
Si Si4 0.189324 0.150171 0.014348
Si Si5 0.687532 0.719002 0.398469
O O1 0.250000 0.539625 0.250000
O O2 0.241529 0.355107 0.328693
O O3 0.242813 0.597491 0.363679
O O4 0.000000 0.505503 0.309971
O O5 0.234478 0.800526 0.922332
O O6 0.000000 0.766675 0.853592
O O7 0.238905 0.906581 0.821737
O O8 0.750000 0.106204 0.750000
O O9 0.500000 0.053672 0.692157
O O10 0.729441 0.150348 0.637685
O O11 0.000000 0.145896 0.013814
O O12 0.237315 0.250715 0.963868
O O13 0.239839 0.000000 0.000000
O O14 0.500000 0.705097 0.398067
#
# Coordination Sequence:
#
# PCOD9416940 Si02
#       5
#     8   8   8   8   8
#     4  12  26  43  60  83 119 160 202 248 297 354
#     4  10  20  37  62  90 119 155 196 243 295 349
#     4  10  20  33  55  85 115 148 193 244 293 346
#     4   9  16  33  63  94 122 152 195 244 289 346
#     4  10  20  37  62  90 119 155 196 243 295 349
#
# _framework density 19.738492000000001
#
# number of rings (size 3 to 8) (size 9 to 14) (size 15 to 20)
#    0.000    1.800    2.000    3.000    0.000    5.600 
#    0.000    5.000    0.000    1.200    0.000    0.000 
#    0.000    0.000    0.000    0.000    0.000    0.000 
#
# Total GULP energy -223435.174085 kJ/mol
# GULP energy per Si atom -5585.879352 kJ/mol
# Density = 1.969357 g / cm^3
# Si number density = 19.738492 Si / 1000 Ang^3
#
#
#
# Elastic Constant Matrix: (Units=GPa)
#
#
# Indices 1 2 3 4 5 6 
#
# 1 24.6701 13.6327 10.5869 0.0000 0.0000 0.0000
# 2 13.6327 62.1033 -13.1224 0.0000 0.0000 0.0000
# 3 10.5869 -13.1224 89.6564 0.0000 0.0000 0.0000
# 4 0.0000 0.0000 0.0000 49.1903 0.0000 0.0000
# 5 0.0000 0.0000 0.0000 0.0000 17.3832 0.0000
# 6 0.0000 0.0000 0.0000 0.0000 0.0000 -4.3569
#
#
#
# Elastic Compliance Matrix: (Units=1/GPa)
#
#
# Indices 1 2 3 4 5 6 
#
# 1 0.051047 -0.012877 -0.007913 0.000000 0.000000 0.000000
# 2 -0.012877 0.019865 0.004428 0.000000 0.000000 0.000000
# 3 -0.007913 0.004428 0.012736 0.000000 0.000000 0.000000
# 4 0.000000 0.000000 0.000000 0.020329 0.000000 0.000000
# 5 0.000000 0.000000 0.000000 0.000000 0.057527 0.000000
# 6 0.000000 0.000000 0.000000 0.000000 0.000000 -0.229521
#
#
# Mechanical properties :
#
#
# Convention : Reuss Voigt Hill
#
# Bulk Modulus (GPa) = 19.63730 22.06936 20.85333
# Shear Modulus (GPa) = -272.93712 23.46549 -124.73582
#
# Velocity S-wave (km/s) = -11.77186 3.45167 -7.95810
# Velocity P-wave (km/s) = 13.22115 5.20485 8.59384
#
# Compressibility (1/GPa) = 0.05092349
#
# Stress axis : x y z
#
# Youngs Moduli (GPa) = 19.58996 50.34058 78.51673
#
# Poissons Ratio (x) = 0.64826 0.62127
# Poissons Ratio (y) = 0.25227 -0.34768
# Poissons Ratio (z) = 0.15501 -0.22291
#
# Static dielectric constant tensor:
#      x y z
#    x 1.673070 0.000000 0.000000 
#    y 0.000000 1.681660 0.000000 
#    z 0.000000 0.000000 1.673750 
# 
# From -- ./inp_files/33614.got.cif
#   From: 2010.05.17/outbox.cif.g08.bks.cpg/sg53_17_cif.got.tgz:33614.got - 2010.06.03 12:45:16.
