data_PCOD9416649
_publ_section_title
;
Structure prediction by ZEFSAII (Michael W. Deem and Ramdas Pophale) SiO2 
 PCOD9416649
Probable space group: P M N A
;
_chemical_formula_sum "Si O2"
_cell_formula_units_Z 32
_cell_length_a 22.449975
_cell_length_b 10.030942
_cell_length_c 7.009759
_cell_angle_alpha 90.000000
_cell_angle_beta 90.000000
_cell_angle_gamma 90.000000
_cell_volume 1578.558452
_symmetry_space_group_name_H-M "P M N A"
_symmetry_group_IT_number 53
_symmetry_cell_setting 'orthorhombic'
loop_
_space_group_symop_operation_xyz
x,y,z
1/2-x,-y,1/2+z
x,-y,-z
1/2-x,y,1/2-z
-x,-y,-z
1/2+x,y,1/2-z
-x,y,z
1/2+x,-y,1/2+z
loop_
_atom_site_type_symbol
_atom_site_label
_atom_site_fract_x
_atom_site_fract_y
_atom_site_fract_z
Si Si1 0.285016 0.000000 0.500000
Si Si2 0.127471 0.898731 0.677659
Si Si3 0.000000 0.104349 0.324517
Si Si4 0.000000 0.644720 0.405505
Si Si5 0.132811 0.353149 0.590252
Si Si6 0.250000 0.234449 0.750000
O O1 0.175995 0.052770 0.175075
O O2 0.252001 0.131869 0.572820
O O3 0.062705 0.909128 0.777888
O O4 0.134314 0.753481 0.583652
O O5 0.126911 0.000000 0.500000
O O6 0.000000 0.246906 0.427088
O O7 0.000000 0.000000 0.500000
O O8 0.000000 0.500000 0.500000
O O9 0.066348 0.660300 0.313834
O O10 0.138500 0.500000 0.500000
O O11 0.189007 0.317874 0.725686
#
# Coordination Sequence:
#
# PCOD9416649 Si02
#       6
#     4   8   4   4   8   4
#     4  12  24  39  60  83 126 164 208 248 308 368
#     4  10  19  39  60  88 120 161 200 248 300 364
#     4   8  16  29  58  87 116 148 200 249 294 348
#     4   8  16  34  60  84 114 160 196 240 302 368
#     4  10  21  39  63  90 121 157 204 250 306 360
#     4  12  24  38  58  90 124 162 202 254 304 360
#
# _framework density 20.271660000000001
#
# number of rings (size 3 to 8) (size 9 to 14) (size 15 to 20)
#    0.000    2.000    2.500    1.500    0.000    2.500 
#    0.000    1.250    0.000    0.000    0.000   11.375 
#    0.000    0.000    0.000    0.000    0.000    0.000 
#
# Total GULP energy -178270.616342 kJ/mol
# GULP energy per Si atom -5570.956761 kJ/mol
# Density = 2.022552 g / cm^3
# Si number density = 20.271660 Si / 1000 Ang^3
#
#
#
# Elastic Constant Matrix: (Units=GPa)
#
#
# Indices 1 2 3 4 5 6 
#
# 1 198.6351 36.1974 25.1008 0.0000 0.0000 0.0000
# 2 36.1974 137.2435 21.2860 0.0000 0.0000 0.0000
# 3 25.1008 21.2860 36.1657 0.0000 0.0000 0.0000
# 4 0.0000 0.0000 0.0000 15.8768 0.0000 0.0000
# 5 0.0000 0.0000 0.0000 0.0000 13.1009 0.0000
# 6 0.0000 0.0000 0.0000 0.0000 0.0000 30.8688
#
#
#
# Elastic Compliance Matrix: (Units=1/GPa)
#
#
# Indices 1 2 3 4 5 6 
#
# 1 0.005633 -0.000968 -0.003340 0.000000 0.000000 0.000000
# 2 -0.000968 0.008184 -0.004146 0.000000 0.000000 0.000000
# 3 -0.003340 -0.004146 0.032409 0.000000 0.000000 0.000000
# 4 0.000000 0.000000 0.000000 0.062985 0.000000 0.000000
# 5 0.000000 0.000000 0.000000 0.000000 0.076330 0.000000
# 6 0.000000 0.000000 0.000000 0.000000 0.000000 0.032395
#
#
# Mechanical properties :
#
#
# Convention : Reuss Voigt Hill
#
# Bulk Modulus (GPa) = 34.10690 59.69031 46.89860
# Shear Modulus (GPa) = 20.44024 31.26666 25.85345
#
# Velocity S-wave (km/s) = 3.17884 3.93158 3.57508
# Velocity P-wave (km/s) = 5.50771 7.07947 6.34246
#
# Compressibility (1/GPa) = 0.02931958
#
# Stress axis : x y z
#
# Youngs Moduli (GPa) = 177.53365 122.18242 30.85610
#
# Poissons Ratio (x) = 0.11822 0.10306
# Poissons Ratio (y) = 0.17178 0.12792
# Poissons Ratio (z) = 0.59294 0.50652
#
# Static dielectric constant tensor:
#      x y z
#    x 1.855680 0.000000 0.000000 
#    y 0.000000 1.697180 0.000000 
#    z 0.000000 0.000000 1.700950 
# 
# From -- ./inp_files/11658.got.cif
#   From: 2010.05.17/outbox.cif.g08.bks.cpg/sg53_6_cif.got.tgz:11658.got - 2010.06.03 12:45:16.
