data_PCOD9416509
_publ_section_title
;
Structure prediction by ZEFSAII (Michael W. Deem and Ramdas Pophale) SiO2 
 PCOD9416509
Probable space group: P M N A
;
_chemical_formula_sum "Si O2"
_cell_formula_units_Z 56
_cell_length_a 7.735986
_cell_length_b 15.300999
_cell_length_c 21.351120
_cell_angle_alpha 90.000000
_cell_angle_beta 90.000000
_cell_angle_gamma 90.000000
_cell_volume 2527.296077
_symmetry_space_group_name_H-M "P M N A"
_symmetry_group_IT_number 53
_symmetry_cell_setting 'orthorhombic'
loop_
_space_group_symop_operation_xyz
x,y,z
1/2-x,-y,1/2+z
x,-y,-z
1/2-x,y,1/2-z
-x,-y,-z
1/2+x,y,1/2-z
-x,y,z
1/2+x,-y,1/2+z
loop_
_atom_site_type_symbol
_atom_site_label
_atom_site_fract_x
_atom_site_fract_y
_atom_site_fract_z
Si Si1 0.304156 0.313573 0.382762
Si Si2 0.204814 0.487156 0.321055
Si Si3 0.704690 0.991744 0.072917
Si Si4 0.801174 0.400159 0.506364
Si Si5 0.208481 0.858671 0.320980
Si Si6 0.206362 0.134927 0.177032
Si Si7 0.210208 0.676201 0.370444
O O1 0.500000 0.291187 0.401903
O O2 0.303209 0.403137 0.345032
O O3 0.202443 0.344454 0.443557
O O4 0.236701 0.233532 0.341158
O O5 0.250000 0.492923 0.250000
O O6 0.258803 0.580526 0.347139
O O7 0.000000 0.475384 0.333293
O O8 0.500000 0.975327 0.065410
O O9 0.726002 0.074750 0.119779
O O10 0.773849 0.915326 0.119524
O O11 0.771247 0.000000 0.000000
O O12 0.726284 0.500000 0.500000
O O13 0.729312 0.333597 0.558147
O O14 0.000000 0.416626 0.525367
O O15 0.250000 0.888657 0.250000
O O16 0.273371 0.759643 0.332206
O O17 0.000000 0.861265 0.324282
O O18 0.250000 0.113886 0.250000
O O19 0.000000 0.129658 0.174338
O O20 0.000000 0.683325 0.367240
#
# Coordination Sequence:
#
# PCOD9416509 Si02
#       7
#     8   8   8   8   8   8   8
#     4  11  24  39  57  87 122 159 204 254 307 361
#     4  11  21  36  56  82 116 156 201 247 298 357
#     4  10  23  42  67  98 126 158 202 252 310 373
#     4  10  19  36  60  85 115 161 207 248 303 361
#     4  10  21  39  62  90 123 157 199 247 300 363
#     4  11  25  44  66  92 125 164 208 258 315 374
#     4   9  19  35  57  85 118 155 198 243 294 358
#
# _framework density 22.158068
#
# number of rings (size 3 to 8) (size 9 to 14) (size 15 to 20)
#    0.000    1.714    1.429    2.571    2.000    5.714 
#    0.000    1.429    0.000    0.000    0.000    0.000 
#    0.000    0.000    0.000    0.000    0.000    0.000 
#
# Total GULP energy -311992.820361 kJ/mol
# GULP energy per Si atom -5571.300364 kJ/mol
# Density = 2.210764 g / cm^3
# Si number density = 22.158068 Si / 1000 Ang^3
#
#
#
# Elastic Constant Matrix: (Units=GPa)
#
#
# Indices 1 2 3 4 5 6 
#
# 1 32.9757 -0.4850 -4.9630 0.0000 0.0000 0.0000
# 2 -0.4850 121.4723 56.3732 0.0000 0.0000 0.0000
# 3 -4.9630 56.3732 186.3380 0.0000 0.0000 0.0000
# 4 0.0000 0.0000 0.0000 -26.5462 0.0000 0.0000
# 5 0.0000 0.0000 0.0000 0.0000 29.8462 0.0000
# 6 0.0000 0.0000 0.0000 0.0000 0.0000 38.0636
#
#
#
# Elastic Compliance Matrix: (Units=1/GPa)
#
#
# Indices 1 2 3 4 5 6 
#
# 1 0.030457 -0.000296 0.000901 0.000000 0.000000 0.000000
# 2 -0.000296 0.009580 -0.002906 0.000000 0.000000 0.000000
# 3 0.000901 -0.002906 0.006270 0.000000 0.000000 0.000000
# 4 0.000000 0.000000 0.000000 -0.037670 0.000000 0.000000
# 5 0.000000 0.000000 0.000000 0.000000 0.033505 0.000000
# 6 0.000000 0.000000 0.000000 0.000000 0.000000 0.026272
#
#
# Mechanical properties :
#
#
# Convention : Reuss Voigt Hill
#
# Bulk Modulus (GPa) = 23.97925 49.18186 36.58055
# Shear Modulus (GPa) = 57.52607 27.59679 42.56143
#
# Velocity S-wave (km/s) = 5.10079 3.53292 4.38746
# Velocity P-wave (km/s) = 6.74805 6.23588 6.49701
#
# Compressibility (1/GPa) = 0.04170272
#
# Stress axis : x y z
#
# Youngs Moduli (GPa) = 32.83366 104.38618 159.49543
#
# Poissons Ratio (x) = 0.03095 -0.14369
# Poissons Ratio (y) = 0.00973 0.46351
# Poissons Ratio (z) = -0.02958 0.30336
#
# Static dielectric constant tensor:
#      x y z
#    x 1.802660 0.000000 0.000000 
#    y 0.000000 1.789510 0.000000 
#    z 0.000000 0.000000 1.969620 
# 
# From -- ./inp_files/30760.got.cif
#   From: 2010.05.17/outbox.cif.g08.bks.cpg/sg53_16_cif.got.tgz:30760.got - 2010.06.03 12:45:16.
