data_PCOD9416472
_publ_section_title
;
Structure prediction by ZEFSAII (Michael W. Deem and Ramdas Pophale) SiO2 
 PCOD9416472
Probable space group: P M N A
;
_chemical_formula_sum "Si O2"
_cell_formula_units_Z 32
_cell_length_a 8.637456
_cell_length_b 10.337940
_cell_length_c 20.309641
_cell_angle_alpha 90.000000
_cell_angle_beta 90.000000
_cell_angle_gamma 90.000000
_cell_volume 1813.518967
_symmetry_space_group_name_H-M "P M N A"
_symmetry_group_IT_number 53
_symmetry_cell_setting 'orthorhombic'
loop_
_space_group_symop_operation_xyz
x,y,z
1/2-x,-y,1/2+z
x,-y,-z
1/2-x,y,1/2-z
-x,-y,-z
1/2+x,y,1/2-z
-x,y,z
1/2+x,-y,1/2+z
loop_
_atom_site_type_symbol
_atom_site_label
_atom_site_fract_x
_atom_site_fract_y
_atom_site_fract_z
Si Si1 0.186648 0.164621 0.177080
Si Si2 0.686996 0.053482 0.572478
Si Si3 0.815890 0.330397 0.553739
Si Si4 0.814064 0.403781 0.089209
O O1 0.250000 0.148398 0.250000
O O2 0.233997 0.301248 0.144584
O O3 0.000000 0.163485 0.178790
O O4 0.234816 0.049745 0.127685
O O5 0.500000 0.065530 0.573741
O O6 0.760883 0.193764 0.581855
O O7 0.729405 0.000000 0.500000
O O8 0.758786 0.454299 0.594974
O O9 0.739611 0.348219 0.481530
O O10 0.000000 0.334600 0.546985
O O11 0.000000 0.414001 0.088486
#
# Coordination Sequence:
#
# PCOD9416472 Si02
#       4
#     8   8   8   8
#     4  10  22  38  59  83 111 149 189 232 282 337
#     4  10  19  37  59  81 111 150 193 228 273 342
#     4  11  21  32  53  88 116 139 179 239 287 316
#     4  10  19  36  57  79 109 151 188 222 275 342
#
# _framework density 17.645250999999998
#
# number of rings (size 3 to 8) (size 9 to 14) (size 15 to 20)
#    0.000    1.750    2.500    4.500    0.000    3.500 
#    0.000    1.250    0.000    0.000    0.000    0.000 
#    0.000    0.000    0.000    0.000    0.000    0.000 
#
# Total GULP energy -178691.577706 kJ/mol
# GULP energy per Si atom -5584.111803 kJ/mol
# Density = 1.760509 g / cm^3
# Si number density = 17.645251 Si / 1000 Ang^3
#
#
#
# Elastic Constant Matrix: (Units=GPa)
#
#
# Indices 1 2 3 4 5 6 
#
# 1 31.0884 26.5782 18.1147 0.0000 0.0000 0.0000
# 2 26.5782 164.5839 76.7902 0.0000 0.0000 0.0000
# 3 18.1147 76.7902 115.3249 0.0000 0.0000 0.0000
# 4 0.0000 0.0000 0.0000 25.9024 0.0000 0.0000
# 5 0.0000 0.0000 0.0000 0.0000 24.2053 0.0000
# 6 0.0000 0.0000 0.0000 0.0000 0.0000 -2.5357
#
#
#
# Elastic Compliance Matrix: (Units=1/GPa)
#
#
# Indices 1 2 3 4 5 6 
#
# 1 0.037899 -0.004849 -0.002724 0.000000 0.000000 0.000000
# 2 -0.004849 0.009435 -0.005521 0.000000 0.000000 0.000000
# 3 -0.002724 -0.005521 0.012775 0.000000 0.000000 0.000000
# 4 0.000000 0.000000 0.000000 0.038606 0.000000 0.000000
# 5 0.000000 0.000000 0.000000 0.000000 0.041313 0.000000
# 6 0.000000 0.000000 0.000000 0.000000 0.000000 -0.394366
#
#
# Mechanical properties :
#
#
# Convention : Reuss Voigt Hill
#
# Bulk Modulus (GPa) = 29.48000 61.55146 45.51573
# Shear Modulus (GPa) = -23.05817 22.14869 -0.45474
#
# Velocity S-wave (km/s) = -3.61884 3.54675 -0.50820
# Velocity P-wave (km/s) = 0.84736 7.19243 5.05040
#
# Compressibility (1/GPa) = 0.03392130
#
# Stress axis : x y z
#
# Youngs Moduli (GPa) = 26.38561 105.99135 78.27834
#
# Poissons Ratio (x) = 0.51398 0.21324
# Poissons Ratio (y) = 0.12795 0.43214
# Poissons Ratio (z) = 0.07188 0.58513
#
# Static dielectric constant tensor:
#      x y z
#    x 1.592740 0.000000 0.000000 
#    y 0.000000 1.610080 0.000000 
#    z 0.000000 0.000000 1.573000 
# 
# From -- ./inp_files/19517.got.cif
#   From: 2010.05.17/outbox.cif.g08.bks.cpg/sg53_10_cif.got.tgz:19517.got - 2010.06.03 12:45:16.
