data_PCOD9416566
_publ_section_title
;
Structure prediction by ZEFSAII (Michael W. Deem and Ramdas Pophale) SiO2 
 PCOD9416566
Probable space group: P M N A
;
_chemical_formula_sum "Si O2"
_cell_formula_units_Z 64
_cell_length_a 16.147843
_cell_length_b 15.986284
_cell_length_c 12.168987
_cell_angle_alpha 90.000000
_cell_angle_beta 90.000000
_cell_angle_gamma 90.000000
_cell_volume 3141.351031
_symmetry_space_group_name_H-M "P M N A"
_symmetry_group_IT_number 53
_symmetry_cell_setting 'orthorhombic'
loop_
_space_group_symop_operation_xyz
x,y,z
1/2-x,-y,1/2+z
x,-y,-z
1/2-x,y,1/2-z
-x,-y,-z
1/2+x,y,1/2-z
-x,y,z
1/2+x,-y,1/2+z
loop_
_atom_site_type_symbol
_atom_site_label
_atom_site_fract_x
_atom_site_fract_y
_atom_site_fract_z
Si Si1 0.747613 0.163957 0.382926
Si Si2 0.907643 0.164700 0.512738
Si Si3 0.650372 0.815212 0.261603
Si Si4 0.407591 0.099425 0.513464
Si Si5 0.746516 0.352776 0.378284
Si Si6 0.907974 0.634324 0.507858
Si Si7 0.650678 0.621741 0.240571
Si Si8 0.412168 0.533866 0.620992
O O1 0.750000 0.158569 0.250000
O O2 0.831939 0.129482 0.439387
O O3 0.664169 0.125138 0.429563
O O4 0.742113 0.260025 0.426626
O O5 0.887215 0.159519 0.642907
O O6 0.911427 0.264274 0.484358
O O7 0.000000 0.130343 0.491158
O O8 0.750000 0.822018 0.250000
O O9 0.618293 0.869168 0.364406
O O10 0.630414 0.716353 0.280182
O O11 0.500000 0.866306 0.510442
O O12 0.412064 0.000000 0.500000
O O13 0.750000 0.339374 0.250000
O O14 0.831457 0.395423 0.417778
O O15 0.663890 0.403980 0.392649
O O16 0.881251 0.616056 0.383713
O O17 0.000000 0.602205 0.533570
O O18 0.750000 0.612861 0.250000
O O19 0.610466 0.545909 0.305730
O O20 0.422182 0.500000 0.500000
O O21 0.500000 0.571913 0.659241
#
# Coordination Sequence:
#
# PCOD9416566 Si02
#       8
#     8   8   8   8   8   8   8   8
#     4  10  22  41  63  88 122 169 212 250 304 375
#     4   9  17  33  61  96 125 150 196 260 312 364
#     4  10  19  36  67  97 123 161 204 253 317 373
#     4  11  25  42  63  94 129 163 201 253 315 376
#     4  10  22  39  59  83 116 159 206 248 301 363
#     4   9  18  34  59  88 116 148 196 257 312 360
#     4  10  20  35  61  90 119 156 200 254 314 367
#     4  11  24  37  52  81 122 162 203 251 304 360
#
# _framework density 20.373401000000001
#
# number of rings (size 3 to 8) (size 9 to 14) (size 15 to 20)
#    0.000    2.000    1.250    1.875    3.500    3.500 
#    0.000    2.500    0.000    4.500    0.000    0.000 
#    0.000    0.000    0.000    0.000    0.000    0.000 
#
# Total GULP energy -357034.391117 kJ/mol
# GULP energy per Si atom -5578.662361 kJ/mol
# Density = 2.032703 g / cm^3
# Si number density = 20.373401 Si / 1000 Ang^3
#
#
#
# Elastic Constant Matrix: (Units=GPa)
#
#
# Indices 1 2 3 4 5 6 
#
# 1 209.3584 50.2273 60.1871 0.0000 0.0000 0.0000
# 2 50.2273 36.6531 21.8868 0.0000 0.0000 0.0000
# 3 60.1871 21.8868 74.2254 0.0000 0.0000 0.0000
# 4 0.0000 0.0000 0.0000 14.1777 0.0000 0.0000
# 5 0.0000 0.0000 0.0000 0.0000 27.3516 0.0000
# 6 0.0000 0.0000 0.0000 0.0000 0.0000 21.5227
#
#
#
# Elastic Compliance Matrix: (Units=1/GPa)
#
#
# Indices 1 2 3 4 5 6 
#
# 1 0.007960 -0.008562 -0.003930 0.000000 0.000000 0.000000
# 2 -0.008562 0.042322 -0.005537 0.000000 0.000000 0.000000
# 3 -0.003930 -0.005537 0.018292 0.000000 0.000000 0.000000
# 4 0.000000 0.000000 0.000000 0.070533 0.000000 0.000000
# 5 0.000000 0.000000 0.000000 0.000000 0.036561 0.000000
# 6 0.000000 0.000000 0.000000 0.000000 0.000000 0.046463
#
#
# Mechanical properties :
#
#
# Convention : Reuss Voigt Hill
#
# Bulk Modulus (GPa) = 30.75383 64.98213 47.86798
# Shear Modulus (GPa) = 18.58546 25.13944 21.86245
#
# Velocity S-wave (km/s) = 3.02361 3.51655 3.27936
# Velocity P-wave (km/s) = 5.22661 6.96082 6.15510
#
# Compressibility (1/GPa) = 0.03251627
#
# Stress axis : x y z
#
# Youngs Moduli (GPa) = 125.62175 23.62865 54.66832
#
# Poissons Ratio (x) = 0.20230 0.21486
# Poissons Ratio (y) = 1.07552 0.30270
# Poissons Ratio (z) = 0.49373 0.13083
#
# Static dielectric constant tensor:
#      x y z
#    x 1.788660 0.000000 0.000000 
#    y 0.000000 1.636350 0.000000 
#    z 0.000000 0.000000 1.705960 
# 
# From -- ./inp_files/16251.got.cif
#   From: 2010.05.17/outbox.cif.g08.bks.cpg/sg53_9_cif.got.tgz:16251.got - 2010.06.03 12:45:16.
