data_PCOD9416678
_publ_section_title
;
Structure prediction by ZEFSAII (Michael W. Deem and Ramdas Pophale) SiO2 
 PCOD9416678
Probable space group: P M N A
;
_chemical_formula_sum "Si O2"
_cell_formula_units_Z 64
_cell_length_a 15.602589
_cell_length_b 21.552479
_cell_length_c 9.652232
_cell_angle_alpha 90.000000
_cell_angle_beta 90.000000
_cell_angle_gamma 90.000000
_cell_volume 3245.799217
_symmetry_space_group_name_H-M "P M N A"
_symmetry_group_IT_number 53
_symmetry_cell_setting 'orthorhombic'
loop_
_space_group_symop_operation_xyz
x,y,z
1/2-x,-y,1/2+z
x,-y,-z
1/2-x,y,1/2-z
-x,-y,-z
1/2+x,y,1/2-z
-x,y,z
1/2+x,-y,1/2+z
loop_
_atom_site_type_symbol
_atom_site_label
_atom_site_fract_x
_atom_site_fract_y
_atom_site_fract_z
Si Si1 0.896981 0.862504 0.135367
Si Si2 0.744655 0.563944 0.917288
Si Si3 0.402591 0.348202 0.457286
Si Si4 0.649419 0.271506 0.719210
Si Si5 0.647512 0.740260 0.780415
Si Si6 0.100739 0.996087 0.165759
Si Si7 0.098455 0.659898 0.484107
Si Si8 0.342299 0.131483 0.318601
O O1 0.879594 0.800253 0.220968
O O2 0.868450 0.927303 0.207579
O O3 0.000000 0.866502 0.107842
O O4 0.850639 0.860902 0.984992
O O5 0.750000 0.556461 0.750000
O O6 0.832766 0.597762 0.960895
O O7 0.665648 0.608074 0.964424
O O8 0.736344 0.500000 0.000000
O O9 0.500000 0.368244 0.482276
O O10 0.374036 0.296580 0.567899
O O11 0.395335 0.313353 0.310888
O O12 0.750000 0.273620 0.750000
O O13 0.606772 0.319994 0.824826
O O14 0.750000 0.735729 0.750000
O O15 0.627364 0.722344 0.936373
O O16 0.611477 0.807529 0.740853
O O17 0.000000 0.995968 0.189888
O O18 0.131447 0.061845 0.222212
O O19 0.115817 0.000000 0.000000
O O20 0.000000 0.643432 0.514804
O O21 0.250000 0.137857 0.250000
#
# Coordination Sequence:
#
# PCOD9416678 Si02
#       8
#     8   8   8   8   8   8   8   8
#     4  10  20  37  60  89 122 168 222 270 327 398
#     4  12  28  49  72 101 138 174 212 261 315 383
#     4  12  23  43  72  98 129 173 219 267 315 382
#     4  12  24  40  66  97 134 168 216 276 328 383
#     4  11  20  39  64  95 131 168 215 273 330 377
#     4   8  16  32  52  78 118 161 210 269 321 379
#     4  12  25  44  68  98 135 173 213 269 331 384
#     4  10  20  30  57  88 123 160 218 270 323 383
#
# _framework density 19.717794000000001
#
# number of rings (size 3 to 8) (size 9 to 14) (size 15 to 20)
#    0.000    1.125    5.000    2.625    3.500    2.500 
#    0.000    0.000    0.000    0.000    0.000    2.625 
#    0.000    0.000    0.000    0.000    0.000    0.000 
#
# Total GULP energy -356933.713807 kJ/mol
# GULP energy per Si atom -5577.089278 kJ/mol
# Density = 1.967292 g / cm^3
# Si number density = 19.717794 Si / 1000 Ang^3
#
#
#
# Elastic Constant Matrix: (Units=GPa)
#
#
# Indices 1 2 3 4 5 6 
#
# 1 130.9861 40.6973 11.3851 0.0000 0.0000 0.0000
# 2 40.6973 152.9853 17.9596 0.0000 0.0000 0.0000
# 3 11.3851 17.9596 27.8710 0.0000 0.0000 0.0000
# 4 0.0000 0.0000 0.0000 28.1853 0.0000 0.0000
# 5 0.0000 0.0000 0.0000 0.0000 16.0881 0.0000
# 6 0.0000 0.0000 0.0000 0.0000 0.0000 -195.5062
#
#
#
# Elastic Compliance Matrix: (Units=1/GPa)
#
#
# Indices 1 2 3 4 5 6 
#
# 1 0.008441 -0.001991 -0.002165 0.000000 0.000000 0.000000
# 2 -0.001991 0.007541 -0.004046 0.000000 0.000000 0.000000
# 3 -0.002165 -0.004046 0.039371 0.000000 0.000000 0.000000
# 4 0.000000 0.000000 0.000000 0.035479 0.000000 0.000000
# 5 0.000000 0.000000 0.000000 0.000000 0.062158 0.000000
# 6 0.000000 0.000000 0.000000 0.000000 0.000000 -0.005115
#
#
# Mechanical properties :
#
#
# Convention : Reuss Voigt Hill
#
# Bulk Modulus (GPa) = 25.67463 50.21405 37.94434
# Shear Modulus (GPa) = 28.20656 -14.12652 7.04002
#
# Velocity S-wave (km/s) = 3.78632 -2.67953 1.89160
# Velocity P-wave (km/s) = 5.67135 3.99355 4.90473
#
# Compressibility (1/GPa) = 0.03894896
#
# Stress axis : x y z
#
# Youngs Moduli (GPa) = 118.46509 132.60290 25.39929
#
# Poissons Ratio (x) = 0.26407 0.05499
# Poissons Ratio (y) = 0.23591 0.10277
# Poissons Ratio (z) = 0.25648 0.53651
#
# Static dielectric constant tensor:
#      x y z
#    x 1.749840 0.000000 0.000000 
#    y 0.000000 1.729640 0.000000 
#    z 0.000000 0.000000 1.688400 
# 
# From -- ./inp_files/8969.got.cif
#   From: 2010.05.17/outbox.cif.g08.bks.cpg/sg53_5_cif.got.tgz:8969.got - 2010.06.03 12:45:16.
