data_PCOD9416992
_publ_section_title
;
Structure prediction by ZEFSAII (Michael W. Deem and Ramdas Pophale) SiO2 
 PCOD9416992
Probable space group: P M N A
;
_chemical_formula_sum "Si O2"
_cell_formula_units_Z 48
_cell_length_a 8.436686
_cell_length_b 18.472962
_cell_length_c 14.107130
_cell_angle_alpha 90.000000
_cell_angle_beta 90.000000
_cell_angle_gamma 90.000000
_cell_volume 2198.604391
_symmetry_space_group_name_H-M "P M N A"
_symmetry_group_IT_number 53
_symmetry_cell_setting 'orthorhombic'
loop_
_space_group_symop_operation_xyz
x,y,z
1/2-x,-y,1/2+z
x,-y,-z
1/2-x,y,1/2-z
-x,-y,-z
1/2+x,y,1/2-z
-x,y,z
1/2+x,-y,1/2+z
loop_
_atom_site_type_symbol
_atom_site_label
_atom_site_fract_x
_atom_site_fract_y
_atom_site_fract_z
Si Si1 0.179002 0.975623 0.390069
Si Si2 0.690728 0.869426 0.847624
Si Si3 0.812999 0.173239 0.946256
Si Si4 0.691703 0.674602 0.059444
Si Si5 0.307814 0.633288 0.847482
Si Si6 0.680295 0.521530 0.111076
O O1 0.264149 0.898805 0.388947
O O2 0.000000 0.966227 0.353284
O O3 0.167196 0.000000 0.500000
O O4 0.256034 0.047710 0.347808
O O5 0.750000 0.835053 0.750000
O O6 0.500000 0.871561 0.848292
O O7 0.743113 0.835096 0.947019
O O8 0.748693 0.248237 0.904286
O O9 0.000000 0.176333 0.953371
O O10 0.500000 0.671760 0.061422
O O11 0.739941 0.667468 0.948177
O O12 0.750863 0.602044 0.112976
O O13 0.250000 0.667924 0.750000
O O14 0.500000 0.631588 0.847878
O O15 0.242074 0.550540 0.848058
O O16 0.500000 0.526388 0.148790
O O17 0.667702 0.500000 0.000000
#
# Coordination Sequence:
#
# PCOD9416992 Si02
#       6
#     8   8   8   8   8   8
#     4   8  16  32  51  69  91 122 159 194 231 278
#     4  10  20  34  52  73  97 125 157 193 235 282
#     4  11  21  31  47  72 100 127 158 195 234 278
#     4   9  17  31  49  66  90 124 160 194 228 273
#     4   9  17  29  47  70  93 119 151 189 234 282
#     4   7  12  26  47  66  83 113 158 195 223 266
#
# _framework density 21.832032999999999
#
# number of rings (size 3 to 8) (size 9 to 14) (size 15 to 20)
#    0.000    3.000    0.000    5.000    0.000    5.000 
#    0.000    2.500    0.000    4.000    0.000    2.333 
#    0.000    0.000    0.000    0.000    0.000    0.000 
#
# Total GULP energy -267450.081300 kJ/mol
# GULP energy per Si atom -5571.876694 kJ/mol
# Density = 2.178234 g / cm^3
# Si number density = 21.832033 Si / 1000 Ang^3
#
#
#
# Elastic Constant Matrix: (Units=GPa)
#
#
# Indices 1 2 3 4 5 6 
#
# 1 37.7099 20.1645 -9.9881 0.0000 0.0000 0.0000
# 2 20.1645 170.9455 -8.5925 0.0000 0.0000 0.0000
# 3 -9.9881 -8.5925 20.9855 0.0000 0.0000 0.0000
# 4 0.0000 0.0000 0.0000 1.3839 0.0000 0.0000
# 5 0.0000 0.0000 0.0000 0.0000 11.4552 0.0000
# 6 0.0000 0.0000 0.0000 0.0000 0.0000 -7.9068
#
#
#
# Elastic Compliance Matrix: (Units=1/GPa)
#
#
# Indices 1 2 3 4 5 6 
#
# 1 0.031834 -0.003056 0.013900 0.000000 0.000000 0.000000
# 2 -0.003056 0.006266 0.001111 0.000000 0.000000 0.000000
# 3 0.013900 0.001111 0.054723 0.000000 0.000000 0.000000
# 4 0.000000 0.000000 0.000000 0.722598 0.000000 0.000000
# 5 0.000000 0.000000 0.000000 0.000000 0.087297 0.000000
# 6 0.000000 0.000000 0.000000 0.000000 0.000000 -0.126473
#
#
# Mechanical properties :
#
#
# Convention : Reuss Voigt Hill
#
# Bulk Modulus (GPa) = 8.56660 25.86765 17.21713
# Shear Modulus (GPa) = 6.31914 16.19025 11.25470
#
# Velocity S-wave (km/s) = 1.70315 2.72616 2.27295
# Velocity P-wave (km/s) = 2.79285 4.66727 3.84600
#
# Compressibility (1/GPa) = 0.11673238
#
# Stress axis : x y z
#
# Youngs Moduli (GPa) = 31.41267 159.58647 18.27397
#
# Poissons Ratio (x) = 0.48777 -0.25401
# Poissons Ratio (y) = 0.09601 -0.02030
# Poissons Ratio (z) = -0.43664 -0.17729
#
# Static dielectric constant tensor:
#      x y z
#    x 1.749220 0.000000 0.000000 
#    y 0.000000 1.858960 0.000000 
#    z 0.000000 0.000000 1.822630 
# 
# From -- ./inp_files/26424.got.cif
#   From: 2010.05.17/outbox.cif.g08.bks.cpg/sg53_14_cif.got.tgz:26424.got - 2010.06.03 12:45:16.
