data_PCOD9416706
_publ_section_title
;
Structure prediction by ZEFSAII (Michael W. Deem and Ramdas Pophale) SiO2 
 PCOD9416706
Probable space group: P M N A
;
_chemical_formula_sum "Si O2"
_cell_formula_units_Z 40
_cell_length_a 7.540362
_cell_length_b 15.058629
_cell_length_c 20.369430
_cell_angle_alpha 90.000000
_cell_angle_beta 90.000000
_cell_angle_gamma 90.000000
_cell_volume 2312.898136
_symmetry_space_group_name_H-M "P M N A"
_symmetry_group_IT_number 53
_symmetry_cell_setting 'orthorhombic'
loop_
_space_group_symop_operation_xyz
x,y,z
1/2-x,-y,1/2+z
x,-y,-z
1/2-x,y,1/2-z
-x,-y,-z
1/2+x,y,1/2-z
-x,y,z
1/2+x,-y,1/2+z
loop_
_atom_site_type_symbol
_atom_site_label
_atom_site_fract_x
_atom_site_fract_y
_atom_site_fract_z
Si Si1 0.787964 0.902012 0.673898
Si Si2 0.792488 0.755266 0.449347
Si Si3 0.792117 0.722614 0.605684
Si Si4 0.000000 0.616408 0.067208
Si Si5 0.283354 0.044268 0.931302
Si Si6 0.000000 0.416679 0.090439
O O1 0.750000 0.915173 0.750000
O O2 0.725538 0.806204 0.648012
O O3 0.000000 0.899643 0.664674
O O4 0.722189 0.981897 0.628015
O O5 0.778582 0.750578 0.528882
O O6 0.671603 0.677349 0.420748
O O7 0.730192 0.853057 0.427991
O O8 0.000000 0.744065 0.433034
O O9 0.671890 0.636298 0.615612
O O10 0.000000 0.705877 0.619270
O O11 0.000000 0.521602 0.102614
O O12 0.000000 0.596249 0.988797
O O13 0.500000 0.045397 0.931834
O O14 0.228128 0.000000 0.000000
#
# Coordination Sequence:
#
# PCOD9416706 Si02
#       6
#     8   8   8   4   8   4
#     4  10  20  32  47  72 106 133 166 209 255 307
#     4   9  16  29  49  70  98 133 168 205 247 296
#     4   9  17  30  48  69  95 134 168 199 249 305
#     4   9  18  30  42  75 102 123 162 207 254 298
#     4   9  15  29  51  71  96 136 174 207 244 301
#     4   9  18  30  47  66 103 130 155 207 254 297
#
# _framework density 17.294319000000002
#
# number of rings (size 3 to 8) (size 9 to 14) (size 15 to 20)
#    0.000    2.800    2.000    0.000    1.400    0.800 
#    1.800    4.500    0.000    0.000    0.000    1.400 
#    0.000    0.000    0.000    0.000    0.000    0.000 
#
# Total GULP energy -223000.297177 kJ/mol
# GULP energy per Si atom -5575.007429 kJ/mol
# Density = 1.725496 g / cm^3
# Si number density = 17.294319 Si / 1000 Ang^3
#
#
#
# Elastic Constant Matrix: (Units=GPa)
#
#
# Indices 1 2 3 4 5 6 
#
# 1 74.4366 66.7530 22.5595 0.0000 0.0000 0.0000
# 2 66.7530 200.0449 57.4969 0.0000 0.0000 0.0000
# 3 22.5595 57.4969 60.0539 0.0000 0.0000 0.0000
# 4 0.0000 0.0000 0.0000 15.1981 0.0000 0.0000
# 5 0.0000 0.0000 0.0000 0.0000 15.7469 0.0000
# 6 0.0000 0.0000 0.0000 0.0000 0.0000 21.9053
#
#
#
# Elastic Compliance Matrix: (Units=1/GPa)
#
#
# Indices 1 2 3 4 5 6 
#
# 1 0.019268 -0.006000 -0.001493 0.000000 0.000000 0.000000
# 2 -0.006000 0.008765 -0.006138 0.000000 0.000000 0.000000
# 3 -0.001493 -0.006138 0.023089 0.000000 0.000000 0.000000
# 4 0.000000 0.000000 0.000000 0.065798 0.000000 0.000000
# 5 0.000000 0.000000 0.000000 0.000000 0.063505 0.000000
# 6 0.000000 0.000000 0.000000 0.000000 0.000000 0.045651
#
#
# Mechanical properties :
#
#
# Convention : Reuss Voigt Hill
#
# Bulk Modulus (GPa) = 41.91242 69.79492 55.85367
# Shear Modulus (GPa) = 19.13567 23.08511 21.11039
#
# Velocity S-wave (km/s) = 3.32998 3.65751 3.49758
# Velocity P-wave (km/s) = 6.25079 7.63421 6.97688
#
# Compressibility (1/GPa) = 0.02385928
#
# Stress axis : x y z
#
# Youngs Moduli (GPa) = 51.90038 114.08609 43.30991
#
# Poissons Ratio (x) = 0.68454 0.06467
# Poissons Ratio (y) = 0.31142 0.26584
# Poissons Ratio (z) = 0.07750 0.70027
#
# Static dielectric constant tensor:
#      x y z
#    x 1.633440 0.000000 0.000000 
#    y 0.000000 1.580930 0.000000 
#    z 0.000000 0.000000 1.558920 
# 
# From -- ./inp_files/30383.got.cif
#   From: 2010.05.17/outbox.cif.g08.bks.cpg/sg53_16_cif.got.tgz:30383.got - 2010.06.03 12:45:16.
