data_PCOD9416363
_publ_section_title
;
Structure prediction by ZEFSAII (Michael W. Deem and Ramdas Pophale) SiO2 
 PCOD9416363
Probable space group: P M N A
;
_chemical_formula_sum "Si O2"
_cell_formula_units_Z 48
_cell_length_a 8.917260
_cell_length_b 9.811442
_cell_length_c 31.015159
_cell_angle_alpha 90.000000
_cell_angle_beta 90.000000
_cell_angle_gamma 90.000000
_cell_volume 2713.552837
_symmetry_space_group_name_H-M "P M N A"
_symmetry_group_IT_number 53
_symmetry_cell_setting 'orthorhombic'
loop_
_space_group_symop_operation_xyz
x,y,z
1/2-x,-y,1/2+z
x,-y,-z
1/2-x,y,1/2-z
-x,-y,-z
1/2+x,y,1/2-z
-x,y,z
1/2+x,-y,1/2+z
loop_
_atom_site_type_symbol
_atom_site_label
_atom_site_fract_x
_atom_site_fract_y
_atom_site_fract_z
Si Si1 0.680196 0.196547 0.890810
Si Si2 0.321598 0.688138 0.703581
Si Si3 0.821353 0.844338 0.015326
Si Si4 0.178673 0.697987 0.564933
Si Si5 0.320232 0.482156 0.626593
Si Si6 0.178177 0.095633 0.356055
O O1 0.500000 0.206395 0.891760
O O2 0.741938 0.179140 0.939166
O O3 0.751833 0.332418 0.871570
O O4 0.721399 0.060051 0.864564
O O5 0.250000 0.665674 0.750000
O O6 0.500000 0.692017 0.707411
O O7 0.281761 0.569942 0.669175
O O8 0.263485 0.827650 0.681980
O O9 0.000000 0.824924 0.019448
O O10 0.754670 0.743939 0.979295
O O11 0.794213 0.000000 0.000000
O O12 0.250155 0.563781 0.586161
O O13 0.205640 0.818338 0.600060
O O14 0.000000 0.681961 0.559715
O O15 0.500000 0.477781 0.622345
O O16 0.000000 0.102259 0.347715
#
# Coordination Sequence:
#
# PCOD9416363 Si02
#       6
#     8   8   8   8   8   8
#     4  11  22  37  57  83 114 151 190 232 281 332
#     4  10  21  38  63  88 112 142 181 225 275 337
#     4  11  22  34  53  81 114 152 193 238 283 329
#     4  10  19  35  57  80 109 149 194 237 277 327
#     4  10  22  39  57  83 116 150 187 231 285 338
#     4   9  19  35  57  83 112 143 182 228 276 328
#
# _framework density 17.688984999999999
#
# number of rings (size 3 to 8) (size 9 to 14) (size 15 to 20)
#    0.000    1.833    1.667    2.500    0.000    5.333 
#    0.000    4.167    0.000    2.000    0.000    0.000 
#    0.000    0.000    0.000    0.000    0.000    0.000 
#
# Total GULP energy -268149.662434 kJ/mol
# GULP energy per Si atom -5586.451301 kJ/mol
# Density = 1.764872 g / cm^3
# Si number density = 17.688985 Si / 1000 Ang^3
#
#
#
# Elastic Constant Matrix: (Units=GPa)
#
#
# Indices 1 2 3 4 5 6 
#
# 1 56.3400 53.2797 42.3318 0.0000 0.0000 0.0000
# 2 53.2797 134.6034 43.4048 0.0000 0.0000 0.0000
# 3 42.3318 43.4048 91.9547 0.0000 0.0000 0.0000
# 4 0.0000 0.0000 0.0000 12.9381 0.0000 0.0000
# 5 0.0000 0.0000 0.0000 0.0000 25.8664 0.0000
# 6 0.0000 0.0000 0.0000 0.0000 0.0000 28.6390
#
#
#
# Elastic Compliance Matrix: (Units=1/GPa)
#
#
# Indices 1 2 3 4 5 6 
#
# 1 0.036851 -0.010753 -0.011889 0.000000 0.000000 0.000000
# 2 -0.010753 0.011901 -0.000667 0.000000 0.000000 0.000000
# 3 -0.011889 -0.000667 0.016663 0.000000 0.000000 0.000000
# 4 0.000000 0.000000 0.000000 0.077291 0.000000 0.000000
# 5 0.000000 0.000000 0.000000 0.000000 0.038660 0.000000
# 6 0.000000 0.000000 0.000000 0.000000 0.000000 0.034917
#
#
# Mechanical properties :
#
#
# Convention : Reuss Voigt Hill
#
# Bulk Modulus (GPa) = 53.20115 62.32563 57.76339
# Shear Modulus (GPa) = 18.57579 23.08082 20.82830
#
# Velocity S-wave (km/s) = 3.24409 3.61614 3.43516
# Velocity P-wave (km/s) = 6.64630 7.26264 6.96129
#
# Compressibility (1/GPa) = 0.01879659
#
# Stress axis : x y z
#
# Youngs Moduli (GPa) = 27.13618 84.02877 60.01311
#
# Poissons Ratio (x) = 0.90355 0.71350
# Poissons Ratio (y) = 0.29179 0.04004
# Poissons Ratio (z) = 0.32262 0.05607
#
# Static dielectric constant tensor:
#      x y z
#    x 1.584390 0.000000 0.000000 
#    y 0.000000 1.599700 0.000000 
#    z 0.000000 0.000000 1.573660 
# 
# From -- ./inp_files/37665.got.cif
#   From: 2010.05.17/outbox.cif.g08.bks.cpg/sg53_19_cif.got.tgz:37665.got - 2010.06.03 12:45:16.
