data_PCOD9416353
_publ_section_title
;
Structure prediction by ZEFSAII (Michael W. Deem and Ramdas Pophale) SiO2 
 PCOD9416353
Probable space group: P M N A
;
_chemical_formula_sum "Si O2"
_cell_formula_units_Z 64
_cell_length_a 16.545006
_cell_length_b 14.081410
_cell_length_c 14.603785
_cell_angle_alpha 90.000000
_cell_angle_beta 90.000000
_cell_angle_gamma 90.000000
_cell_volume 3402.346207
_symmetry_space_group_name_H-M "P M N A"
_symmetry_group_IT_number 53
_symmetry_cell_setting 'orthorhombic'
loop_
_space_group_symop_operation_xyz
x,y,z
1/2-x,-y,1/2+z
x,-y,-z
1/2-x,y,1/2-z
-x,-y,-z
1/2+x,y,1/2-z
-x,y,z
1/2+x,-y,1/2+z
loop_
_atom_site_type_symbol
_atom_site_label
_atom_site_fract_x
_atom_site_fract_y
_atom_site_fract_z
Si Si1 0.093903 0.086787 0.717955
Si Si2 0.359553 0.401037 0.046514
Si Si3 0.096458 0.114440 0.366409
Si Si4 0.594749 0.608178 0.406739
Si Si5 0.671455 0.590534 0.601339
Si Si6 0.845934 0.204211 0.548930
Si Si7 0.192808 0.220847 0.833908
Si Si8 0.407727 0.311138 0.233805
O O1 0.105378 0.160898 0.634258
O O2 0.149732 0.125552 0.799095
O O3 0.000000 0.082152 0.744370
O O4 0.119856 0.984274 0.680032
O O5 0.263715 0.406046 0.068834
O O6 0.400399 0.376658 0.143385
O O7 0.384180 0.500000 0.000000
O O8 0.372504 0.310134 0.980627
O O9 0.140506 0.137864 0.461121
O O10 0.109174 0.204415 0.300315
O O11 0.000000 0.109686 0.386223
O O12 0.500000 0.592024 0.394330
O O13 0.616260 0.617774 0.514280
O O14 0.645398 0.516727 0.374180
O O15 0.626165 0.700998 0.355820
O O16 0.652759 0.655699 0.687740
O O17 0.752978 0.207550 0.581184
O O18 0.250000 0.253817 0.750000
O O19 0.500000 0.316650 0.268165
#
# Coordination Sequence:
#
# PCOD9416353 Si02
#       8
#     8   8   8   8   8   8   8   8
#     4  10  20  36  60  85 112 148 191 234 282 337
#     4  11  21  38  58  81 118 156 187 228 285 341
#     4   9  19  37  60  84 111 145 188 237 283 335
#     4  11  21  36  60  84 113 151 195 235 273 333
#     4  11  20  38  57  85 111 150 193 232 275 331
#     4  10  19  35  56  82 113 146 185 229 280 332
#     4  10  21  36  55  82 120 148 182 236 289 336
#     4  10  22  37  57  85 115 147 189 238 285 336
#
# _framework density 18.810548000000001
#
# number of rings (size 3 to 8) (size 9 to 14) (size 15 to 20)
#    0.000    1.750    2.500    3.000    0.000    4.750 
#    0.000   10.000    0.000    0.000    0.000    3.500 
#    0.000    0.000    0.000    0.000    0.000    0.000 
#
# Total GULP energy -357423.898351 kJ/mol
# GULP energy per Si atom -5584.748412 kJ/mol
# Density = 1.876773 g / cm^3
# Si number density = 18.810548 Si / 1000 Ang^3
#
#
#
# Elastic Constant Matrix: (Units=GPa)
#
#
# Indices 1 2 3 4 5 6 
#
# 1 29.2275 9.1841 -0.2497 0.0000 0.0000 0.0000
# 2 9.1841 95.6957 31.0871 0.0000 0.0000 0.0000
# 3 -0.2497 31.0871 42.6141 0.0000 0.0000 0.0000
# 4 0.0000 0.0000 0.0000 22.4479 0.0000 0.0000
# 5 0.0000 0.0000 0.0000 0.0000 22.7120 0.0000
# 6 0.0000 0.0000 0.0000 0.0000 0.0000-3926.2442
#
#
#
# Elastic Compliance Matrix: (Units=1/GPa)
#
#
# Indices 1 2 3 4 5 6 
#
# 1 0.035683 -0.004577 0.003548 0.000000 0.000000 0.000000
# 2 -0.004577 0.014282 -0.010446 0.000000 0.000000 0.000000
# 3 0.003548 -0.010446 0.031107 0.000000 0.000000 0.000000
# 4 0.000000 0.000000 0.000000 0.044548 0.000000 0.000000
# 5 0.000000 0.000000 0.000000 0.000000 0.044030 0.000000
# 6 0.000000 0.000000 0.000000 0.000000 0.000000 -0.000255
#
#
# Mechanical properties :
#
#
# Convention : Reuss Voigt Hill
#
# Bulk Modulus (GPa) = 17.20490 27.50893 22.35691
# Shear Modulus (GPa) = 23.61615 -767.71582 -372.04984
#
# Velocity S-wave (km/s) = 3.54711 -20.22416 -14.07896
# Velocity P-wave (km/s) = 5.09335 23.03691 15.88643
#
# Compressibility (1/GPa) = 0.05812298
#
# Stress axis : x y z
#
# Youngs Moduli (GPa) = 28.02463 70.01603 32.14663
#
# Poissons Ratio (x) = 0.32048 -0.11406
# Poissons Ratio (y) = 0.12827 0.33580
# Poissons Ratio (z) = -0.09944 0.73138
#
# Static dielectric constant tensor:
#      x y z
#    x 1.653790 0.000000 0.000000 
#    y 0.000000 1.648260 0.000000 
#    z 0.000000 0.000000 1.638700 
# 
# From -- ./inp_files/23887.got.cif
#   From: 2010.05.17/outbox.cif.g08.bks.cpg/sg53_12_cif.got.tgz:23887.got - 2010.06.03 12:45:16.
