data_PCOD9416514
_publ_section_title
;
Structure prediction by ZEFSAII (Michael W. Deem and Ramdas Pophale) SiO2 
 PCOD9416514
Probable space group: P M N A
;
_chemical_formula_sum "Si O2"
_cell_formula_units_Z 34
_cell_length_a 7.599806
_cell_length_b 23.399040
_cell_length_c 9.137818
_cell_angle_alpha 90.000000
_cell_angle_beta 90.000000
_cell_angle_gamma 90.000000
_cell_volume 1624.961403
_symmetry_space_group_name_H-M "P M N A"
_symmetry_group_IT_number 53
_symmetry_cell_setting 'orthorhombic'
loop_
_space_group_symop_operation_xyz
x,y,z
1/2-x,-y,1/2+z
x,-y,-z
1/2-x,y,1/2-z
-x,-y,-z
1/2+x,y,1/2-z
-x,y,z
1/2+x,-y,1/2+z
loop_
_atom_site_type_symbol
_atom_site_label
_atom_site_fract_x
_atom_site_fract_y
_atom_site_fract_z
Si Si1 0.200575 0.913628 0.076816
Si Si2 0.211355 0.442775 0.578711
Si Si3 0.289679 0.215073 0.920762
Si Si4 0.288862 0.671348 0.920701
Si Si5 0.500000 0.000000 0.000000
O O1 0.250000 0.918658 0.250000
O O2 0.211980 0.846556 0.039358
O O3 0.000000 0.933120 0.057218
O O4 0.344554 0.950583 0.993665
O O5 0.279158 0.500000 0.500000
O O6 0.250000 0.444117 0.750000
O O7 0.279296 0.384447 0.505571
O O8 0.000000 0.442517 0.560263
O O9 0.250000 0.225720 0.750000
O O10 0.500000 0.210081 0.937091
O O11 0.223001 0.268828 0.013343
O O12 0.250000 0.666557 0.750000
O O13 0.500000 0.672403 0.940201
#
# Coordination Sequence:
#
# PCOD9416514 Si02
#       5
#     8   8   8   8   2
#     4  11  21  39  65  90 123 162 208 258 313 373
#     4  10  21  37  57  86 120 158 207 254 304 363
#     4  10  19  36  60  87 115 152 205 258 306 371
#     4  10  22  37  57  83 121 159 198 253 308 365
#     4  12  22  40  64  92 128 160 204 256 312 384
#
# _framework density 20.923575
#
# number of rings (size 3 to 8) (size 9 to 14) (size 15 to 20)
#    0.000    1.647    2.353    3.882    0.000    3.294 
#    0.000    1.176    0.000    0.000    0.000    0.000 
#    0.000    0.000    0.000    0.000    0.000    0.000 
#
# Total GULP energy -189499.515928 kJ/mol
# GULP energy per Si atom -5573.515174 kJ/mol
# Density = 2.087595 g / cm^3
# Si number density = 20.923575 Si / 1000 Ang^3
#
#
#
# Elastic Constant Matrix: (Units=GPa)
#
#
# Indices 1 2 3 4 5 6 
#
# 1 135.4562 45.0815 4.7731 0.0000 0.0000 0.0000
# 2 45.0815 185.2331 82.4297 0.0000 0.0000 0.0000
# 3 4.7731 82.4297 91.7942 0.0000 0.0000 0.0000
# 4 0.0000 0.0000 0.0000 -26.4913 0.0000 0.0000
# 5 0.0000 0.0000 0.0000 0.0000 23.4147 0.0000
# 6 0.0000 0.0000 0.0000 0.0000 0.0000 -4.5942
#
#
#
# Elastic Compliance Matrix: (Units=1/GPa)
#
#
# Indices 1 2 3 4 5 6 
#
# 1 0.008316 -0.003051 0.002307 0.000000 0.000000 0.000000
# 2 -0.003051 0.010111 -0.008921 0.000000 0.000000 0.000000
# 3 0.002307 -0.008921 0.018785 0.000000 0.000000 0.000000
# 4 0.000000 0.000000 0.000000 -0.037748 0.000000 0.000000
# 5 0.000000 0.000000 0.000000 0.000000 0.042708 0.000000
# 6 0.000000 0.000000 0.000000 0.000000 0.000000 -0.217665
#
#
# Mechanical properties :
#
#
# Convention : Reuss Voigt Hill
#
# Bulk Modulus (GPa) = 55.91853 75.22802 65.57328
# Shear Modulus (GPa) = -33.28833 17.14578 -8.07128
#
# Velocity S-wave (km/s) = -3.99300 2.86571 -1.96618
# Velocity P-wave (km/s) = 2.35042 6.85430 5.12376
#
# Compressibility (1/GPa) = 0.01788316
#
# Stress axis : x y z
#
# Youngs Moduli (GPa) = 120.24330 98.90367 53.23497
#
# Poissons Ratio (x) = 0.30172 -0.12281
# Poissons Ratio (y) = 0.36682 0.47490
# Poissons Ratio (z) = -0.27740 0.88229
#
# Static dielectric constant tensor:
#      x y z
#    x 1.755930 0.000000 0.000000 
#    y 0.000000 1.750290 0.000000 
#    z 0.000000 0.000000 1.710560 
# 
# From -- ./inp_files/6115.got.cif
#   From: 2010.05.17/outbox.cif.g08.bks.cpg/sg53_4_cif.got.tgz:6115.got - 2010.06.03 12:45:16.
