data_PCOD9416996
_publ_section_title
;
Structure prediction by ZEFSAII (Michael W. Deem and Ramdas Pophale) SiO2 
 PCOD9416996
Probable space group: P M N A
;
_chemical_formula_sum "Si O2"
_cell_formula_units_Z 48
_cell_length_a 8.752645
_cell_length_b 12.991135
_cell_length_c 25.610021
_cell_angle_alpha 90.000000
_cell_angle_beta 90.000000
_cell_angle_gamma 90.000000
_cell_volume 2912.033352
_symmetry_space_group_name_H-M "P M N A"
_symmetry_group_IT_number 53
_symmetry_cell_setting 'orthorhombic'
loop_
_space_group_symop_operation_xyz
x,y,z
1/2-x,-y,1/2+z
x,-y,-z
1/2-x,y,1/2-z
-x,-y,-z
1/2+x,y,1/2-z
-x,y,z
1/2+x,-y,1/2+z
loop_
_atom_site_type_symbol
_atom_site_label
_atom_site_fract_x
_atom_site_fract_y
_atom_site_fract_z
Si Si1 0.319074 0.889110 0.111891
Si Si2 0.675098 0.875332 0.496358
Si Si3 0.317405 0.283953 0.191327
Si Si4 0.182845 0.495412 0.191477
Si Si5 0.315713 0.881565 0.612548
Si Si6 0.816983 0.724978 0.191483
O O1 0.500000 0.898644 0.116872
O O2 0.253389 0.811029 0.154465
O O3 0.243734 0.001801 0.118448
O O4 0.275259 0.849867 0.053809
O O5 0.500000 0.841629 0.487432
O O6 0.726808 0.842637 0.554075
O O7 0.672818 0.000000 0.500000
O O8 0.250000 0.274660 0.250000
O O9 0.500000 0.283360 0.194030
O O10 0.258758 0.393304 0.168258
O O11 0.255050 0.191874 0.155960
O O12 0.250000 0.499214 0.250000
O O13 0.216375 0.609387 0.170011
O O14 0.000000 0.481849 0.193203
O O15 0.500000 0.882057 0.615327
O O16 0.750000 0.733195 0.250000
O O17 0.000000 0.735685 0.194185
#
# Coordination Sequence:
#
# PCOD9416996 Si02
#       6
#     8   8   8   8   8   8
#     4  11  21  32  50  76 104 132 164 202 246 294
#     4   8  16  32  52  71  94 128 166 203 242 288
#     4  11  21  33  51  75 103 132 164 202 246 294
#     4   9  17  31  51  72  95 127 166 204 241 286
#     4  10  20  35  53  73 100 132 167 204 245 293
#     4  10  20  34  52  74 101 132 167 204 245 293
#
# _framework density 16.483328
#
# number of rings (size 3 to 8) (size 9 to 14) (size 15 to 20)
#    0.000    2.167    0.000    6.500    0.000    6.333 
#    0.000    3.333    0.000    1.000    0.000    7.000 
#    0.000    0.000    0.000    0.000    0.000    0.000 
#
# Total GULP energy -267574.711062 kJ/mol
# GULP energy per Si atom -5574.473147 kJ/mol
# Density = 1.644581 g / cm^3
# Si number density = 16.483328 Si / 1000 Ang^3
#
#
#
# Elastic Constant Matrix: (Units=GPa)
#
#
# Indices 1 2 3 4 5 6 
#
# 1 112.0583 60.1636 53.9143 0.0000 0.0000 0.0000
# 2 60.1636 110.9700 66.5883 0.0000 0.0000 0.0000
# 3 53.9143 66.5883 95.8564 0.0000 0.0000 0.0000
# 4 0.0000 0.0000 0.0000 -4.5553 0.0000 0.0000
# 5 0.0000 0.0000 0.0000 0.0000 21.9623 0.0000
# 6 0.0000 0.0000 0.0000 0.0000 0.0000 32.0050
#
#
#
# Elastic Compliance Matrix: (Units=1/GPa)
#
#
# Indices 1 2 3 4 5 6 
#
# 1 0.013557 -0.004758 -0.004320 0.000000 0.000000 0.000000
# 2 -0.004758 0.017122 -0.009218 0.000000 0.000000 0.000000
# 3 -0.004320 -0.009218 0.019266 0.000000 0.000000 0.000000
# 4 0.000000 0.000000 0.000000 -0.219526 0.000000 0.000000
# 5 0.000000 0.000000 0.000000 0.000000 0.045533 0.000000
# 6 0.000000 0.000000 0.000000 0.000000 0.000000 0.031245
#
#
# Mechanical properties :
#
#
# Convention : Reuss Voigt Hill
#
# Bulk Modulus (GPa) = 74.89077 75.57965 75.23521
# Shear Modulus (GPa) = -96.60013 19.09698 -38.75158
#
# Velocity S-wave (km/s) = -7.66368 3.40746 -4.85393
# Velocity P-wave (km/s) = 5.72507 7.83791 3.78526
#
# Compressibility (1/GPa) = 0.01335278
#
# Stress axis : x y z
#
# Youngs Moduli (GPa) = 73.76384 58.40270 51.90556
#
# Poissons Ratio (x) = 0.27787 0.22423
# Poissons Ratio (y) = 0.35095 0.47849
# Poissons Ratio (z) = 0.31866 0.53838
#
# Static dielectric constant tensor:
#      x y z
#    x 1.548440 0.000000 0.000000 
#    y 0.000000 1.562770 0.000000 
#    z 0.000000 0.000000 1.543360 
# 
# From -- ./inp_files/33856.got.cif
#   From: 2010.05.17/outbox.cif.g08.bks.cpg/sg53_17_cif.got.tgz:33856.got - 2010.06.03 12:45:16.
