data_PCOD9416295
_publ_section_title
;
Structure prediction by ZEFSAII (Michael W. Deem and Ramdas Pophale) SiO2 
 PCOD9416295
Probable space group: P M N A
;
_chemical_formula_sum "Si O2"
_cell_formula_units_Z 40
_cell_length_a 8.552858
_cell_length_b 8.060039
_cell_length_c 29.346822
_cell_angle_alpha 90.000000
_cell_angle_beta 90.000000
_cell_angle_gamma 90.000000
_cell_volume 2023.063352
_symmetry_space_group_name_H-M "P M N A"
_symmetry_group_IT_number 53
_symmetry_cell_setting 'orthorhombic'
loop_
_space_group_symop_operation_xyz
x,y,z
1/2-x,-y,1/2+z
x,-y,-z
1/2-x,y,1/2-z
-x,-y,-z
1/2+x,y,1/2-z
-x,y,z
1/2+x,-y,1/2+z
loop_
_atom_site_type_symbol
_atom_site_label
_atom_site_fract_x
_atom_site_fract_y
_atom_site_fract_z
Si Si1 0.190146 0.939115 0.450715
Si Si2 0.312125 0.247307 0.698780
Si Si3 0.686370 0.574854 0.643592
Si Si4 0.311361 0.555228 0.050703
Si Si5 0.187433 0.072636 0.354437
O O1 0.232366 0.747599 0.443219
O O2 0.000000 0.946881 0.452046
O O3 0.246746 0.000000 0.500000
O O4 0.240536 0.043902 0.406947
O O5 0.250000 0.254957 0.750000
O O6 0.500000 0.244242 0.698731
O O7 0.259708 0.411729 0.671207
O O8 0.251019 0.080988 0.674562
O O9 0.500000 0.582464 0.646229
O O10 0.738610 0.549283 0.591382
O O11 0.755517 0.747562 0.661362
O O12 0.500000 0.540159 0.053640
O O13 0.265286 0.500000 0.000000
O O14 0.000000 0.067985 0.353488
#
# Coordination Sequence:
#
# PCOD9416295 Si02
#       5
#     8   8   8   8   8
#     4   9  17  31  54  88 124 160 207 257 306 364
#     4  11  25  45  68  93 125 164 210 263 320 378
#     4  11  24  41  62  91 131 169 208 262 318 381
#     4  10  19  34  59  89 124 166 215 263 310 375
#     4  11  22  39  66  94 127 167 210 263 316 373
#
# _framework density 19.771995
#
# number of rings (size 3 to 8) (size 9 to 14) (size 15 to 20)
#    0.000    1.600    2.000    3.000    0.000    6.800 
#    0.000    2.000    0.000    3.000    0.000    0.000 
#    0.000    0.000    0.000    0.000    0.000    0.000 
#
# Total GULP energy -223553.134802 kJ/mol
# GULP energy per Si atom -5588.828370 kJ/mol
# Density = 1.972699 g / cm^3
# Si number density = 19.771995 Si / 1000 Ang^3
#
#
#
# Elastic Constant Matrix: (Units=GPa)
#
#
# Indices 1 2 3 4 5 6 
#
# 1 39.5767 42.2282 31.0216 0.0000 0.0000 0.0000
# 2 42.2282 177.8451 72.8856 0.0000 0.0000 0.0000
# 3 31.0216 72.8856 127.0371 0.0000 0.0000 0.0000
# 4 0.0000 0.0000 0.0000 26.7149 0.0000 0.0000
# 5 0.0000 0.0000 0.0000 0.0000 21.1153 0.0000
# 6 0.0000 0.0000 0.0000 0.0000 0.0000 31.1956
#
#
#
# Elastic Compliance Matrix: (Units=1/GPa)
#
#
# Indices 1 2 3 4 5 6 
#
# 1 0.036214 -0.006504 -0.005112 0.000000 0.000000 0.000000
# 2 -0.006504 0.008519 -0.003300 0.000000 0.000000 0.000000
# 3 -0.005112 -0.003300 0.011013 0.000000 0.000000 0.000000
# 4 0.000000 0.000000 0.000000 0.037432 0.000000 0.000000
# 5 0.000000 0.000000 0.000000 0.000000 0.047359 0.000000
# 6 0.000000 0.000000 0.000000 0.000000 0.000000 0.032056
#
#
# Mechanical properties :
#
#
# Convention : Reuss Voigt Hill
#
# Bulk Modulus (GPa) = 38.58650 70.74775 54.66712
# Shear Modulus (GPa) = 23.68969 29.02673 26.35821
#
# Velocity S-wave (km/s) = 3.46518 3.83570 3.65514
# Velocity P-wave (km/s) = 5.96389 7.44824 6.74701
#
# Compressibility (1/GPa) = 0.02591580
#
# Stress axis : x y z
#
# Youngs Moduli (GPa) = 27.61394 117.37812 90.80065
#
# Poissons Ratio (x) = 0.76340 0.46414
# Poissons Ratio (y) = 0.17960 0.29962
# Poissons Ratio (z) = 0.14115 0.38732
#
# Static dielectric constant tensor:
#      x y z
#    x 1.672620 0.000000 0.000000 
#    y 0.000000 1.693910 0.000000 
#    z 0.000000 0.000000 1.684560 
# 
# From -- ./inp_files/33626.got.cif
#   From: 2010.05.17/outbox.cif.g08.bks.cpg/sg53_17_cif.got.tgz:33626.got - 2010.06.03 12:45:16.
