data_PCOD9416650
_publ_section_title
;
Structure prediction by ZEFSAII (Michael W. Deem and Ramdas Pophale) SiO2 
 PCOD9416650
Probable space group: P M N A
;
_chemical_formula_sum "Si O2"
_cell_formula_units_Z 36
_cell_length_a 13.705345
_cell_length_b 8.917904
_cell_length_c 14.353541
_cell_angle_alpha 90.000000
_cell_angle_beta 90.000000
_cell_angle_gamma 90.000000
_cell_volume 1754.332138
_symmetry_space_group_name_H-M "P M N A"
_symmetry_group_IT_number 53
_symmetry_cell_setting 'orthorhombic'
loop_
_space_group_symop_operation_xyz
x,y,z
1/2-x,-y,1/2+z
x,-y,-z
1/2-x,y,1/2-z
-x,-y,-z
1/2+x,y,1/2-z
-x,y,z
1/2+x,-y,1/2+z
loop_
_atom_site_type_symbol
_atom_site_label
_atom_site_fract_x
_atom_site_fract_y
_atom_site_fract_z
Si Si1 0.895787 0.871043 0.923459
Si Si2 0.250000 0.339571 0.750000
Si Si3 0.889517 0.482463 0.389631
Si Si4 0.609346 0.925429 0.239419
Si Si5 0.704758 0.809553 0.849997
O O1 0.896208 0.957307 0.824550
O O2 0.000000 0.788000 0.932135
O O3 0.792782 0.787565 0.923056
O O4 0.893968 0.000000 0.000000
O O5 0.196082 0.436820 0.670111
O O6 0.335697 0.221534 0.723888
O O7 0.875474 0.500000 0.500000
O O8 0.880745 0.305410 0.369343
O O9 0.000000 0.534083 0.365676
O O10 0.500000 0.891232 0.208173
O O11 0.668384 0.018537 0.160526
O O12 0.750000 0.767818 0.750000
#
# Coordination Sequence:
#
# PCOD9416650 Si02
#       5
#     8   4   8   8   8
#     4   9  18  32  55  88 121 151 197 257 312 367
#     4  12  22  42  62  90 126 162 208 266 322 378
#     4  11  26  44  64  92 130 175 216 259 316 384
#     4  10  20  36  61  89 116 155 205 257 313 367
#     4  10  19  39  61  88 120 167 209 252 308 382
#
# _framework density 20.520631000000002
#
# number of rings (size 3 to 8) (size 9 to 14) (size 15 to 20)
#    0.000    1.778    4.444    1.333    3.111    0.889 
#    0.000    0.000    0.000    8.667    0.000    0.000 
#    0.000    0.000    0.000    0.000    0.000    0.000 
#
# Total GULP energy -200402.483919 kJ/mol
# GULP energy per Si atom -5566.735664 kJ/mol
# Density = 2.047392 g / cm^3
# Si number density = 20.520631 Si / 1000 Ang^3
#
#
#
# Elastic Constant Matrix: (Units=GPa)
#
#
# Indices 1 2 3 4 5 6 
#
# 1 157.6729 39.8021 37.8632 0.0000 0.0000 0.0000
# 2 39.8021 67.6755 16.3206 0.0000 0.0000 0.0000
# 3 37.8632 16.3206 48.8494 0.0000 0.0000 0.0000
# 4 0.0000 0.0000 0.0000 12.2843 0.0000 0.0000
# 5 0.0000 0.0000 0.0000 0.0000 17.8939 0.0000
# 6 0.0000 0.0000 0.0000 0.0000 0.0000 -318.5792
#
#
#
# Elastic Compliance Matrix: (Units=1/GPa)
#
#
# Indices 1 2 3 4 5 6 
#
# 1 0.008585 -0.003746 -0.005403 0.000000 0.000000 0.000000
# 2 -0.003746 0.017706 -0.003012 0.000000 0.000000 0.000000
# 3 -0.005403 -0.003012 0.025665 0.000000 0.000000 0.000000
# 4 0.000000 0.000000 0.000000 0.081404 0.000000 0.000000
# 5 0.000000 0.000000 0.000000 0.000000 0.055885 0.000000
# 6 0.000000 0.000000 0.000000 0.000000 0.000000 -0.003139
#
#
# Mechanical properties :
#
#
# Convention : Reuss Voigt Hill
#
# Bulk Modulus (GPa) = 36.18670 51.35220 43.76945
# Shear Modulus (GPa) = 22.76447 -45.66606 -11.45080
#
# Velocity S-wave (km/s) = 3.33430 -4.72250 -2.36479
# Velocity P-wave (km/s) = 5.70052 2.15802 3.73088
#
# Compressibility (1/GPa) = 0.02763446
#
# Stress axis : x y z
#
# Youngs Moduli (GPa) = 116.47688 56.47774 38.96343
#
# Poissons Ratio (x) = 0.21159 0.21051
# Poissons Ratio (y) = 0.43637 0.11735
# Poissons Ratio (z) = 0.62931 0.17010
#
# Static dielectric constant tensor:
#      x y z
#    x 1.845610 0.000000 0.000000 
#    y 0.000000 1.748990 0.000000 
#    z 0.000000 0.000000 1.854750 
# 
# From -- ./inp_files/22291.got.cif
#   From: 2010.05.17/outbox.cif.g08.bks.cpg/sg53_12_cif.got.tgz:22291.got - 2010.06.03 12:45:16.
