data_PCOD9416729
_publ_section_title
;
Structure prediction by ZEFSAII (Michael W. Deem and Ramdas Pophale) SiO2 
 PCOD9416729
Probable space group: P M N A
;
_chemical_formula_sum "Si O2"
_cell_formula_units_Z 64
_cell_length_a 7.572599
_cell_length_b 11.236361
_cell_length_c 34.942724
_cell_angle_alpha 90.000000
_cell_angle_beta 90.000000
_cell_angle_gamma 90.000000
_cell_volume 2973.222436
_symmetry_space_group_name_H-M "P M N A"
_symmetry_group_IT_number 53
_symmetry_cell_setting 'orthorhombic'
loop_
_space_group_symop_operation_xyz
x,y,z
1/2-x,-y,1/2+z
x,-y,-z
1/2-x,y,1/2-z
-x,-y,-z
1/2+x,y,1/2-z
-x,y,z
1/2+x,-y,1/2+z
loop_
_atom_site_type_symbol
_atom_site_label
_atom_site_fract_x
_atom_site_fract_y
_atom_site_fract_z
Si Si1 0.293255 0.562418 0.055114
Si Si2 0.711492 0.433652 0.707129
Si Si3 0.714059 0.685007 0.369418
Si Si4 0.211101 0.929454 0.091872
Si Si5 0.787754 0.705794 0.793113
Si Si6 0.785665 0.700294 0.558638
Si Si7 0.712401 0.805975 0.016900
Si Si8 0.293175 0.164997 0.367458
O O1 0.500000 0.560713 0.044760
O O2 0.272926 0.585617 0.100251
O O3 0.224186 0.431366 0.046138
O O4 0.219746 0.681769 0.035682
O O5 0.750000 0.391156 0.750000
O O6 0.500000 0.439428 0.703424
O O7 0.775627 0.350517 0.672782
O O8 0.779365 0.569559 0.703476
O O9 0.500000 0.687886 0.369754
O O10 0.777352 0.811513 0.385982
O O11 0.244280 0.909671 0.046717
O O12 0.000000 0.931369 0.095665
O O13 0.283401 0.047646 0.112024
O O14 0.750000 0.747596 0.750000
O O15 0.718427 0.788502 0.827302
O O16 0.000000 0.700135 0.797167
O O17 0.728344 0.797366 0.527016
O O18 0.720948 0.733049 0.600543
O O19 0.000000 0.698235 0.559878
O O20 0.500000 0.802915 0.016093
O O21 0.500000 0.140381 0.360551
#
# Coordination Sequence:
#
# PCOD9416729 Si02
#       8
#     8   8   8   8   8   8   8   8
#     4   9  17  30  49  72  97 125 158 198 245 294
#     4   9  17  29  47  71  97 122 149 187 237 292
#     4   9  17  31  50  70  94 125 160 197 239 286
#     4   9  19  35  52  69  93 129 169 205 240 280
#     4   9  18  33  52  73  97 125 155 191 239 289
#     4  10  20  32  49  74 101 129 162 201 244 290
#     4   9  18  33  51  71  98 130 162 200 246 291
#     4  10  21  36  52  71  98 131 167 205 242 281
#
# _framework density 21.525465000000001
#
# number of rings (size 3 to 8) (size 9 to 14) (size 15 to 20)
#    0.000    2.750    0.000    1.125    0.000    5.500 
#    0.000    5.625    0.000    3.750    0.000    0.000 
#    0.000    0.000    0.000    0.000    0.000    0.000 
#
# Total GULP energy -357078.319499 kJ/mol
# GULP energy per Si atom -5579.348742 kJ/mol
# Density = 2.147647 g / cm^3
# Si number density = 21.525465 Si / 1000 Ang^3
#
#
#
# Elastic Constant Matrix: (Units=GPa)
#
#
# Indices 1 2 3 4 5 6 
#
# 1 48.3412 -4.5224 -10.4042 0.0000 0.0000 0.0000
# 2 -4.5224 45.4476 -1.9013 0.0000 0.0000 0.0000
# 3 -10.4042 -1.9013 98.9952 0.0000 0.0000 0.0000
# 4 0.0000 0.0000 0.0000 22.5171 0.0000 0.0000
# 5 0.0000 0.0000 0.0000 0.0000 -25.8698 0.0000
# 6 0.0000 0.0000 0.0000 0.0000 0.0000 12.0992
#
#
#
# Elastic Compliance Matrix: (Units=1/GPa)
#
#
# Indices 1 2 3 4 5 6 
#
# 1 0.021387 0.002224 0.002290 0.000000 0.000000 0.000000
# 2 0.002224 0.022252 0.000661 0.000000 0.000000 0.000000
# 3 0.002290 0.000661 0.010355 0.000000 0.000000 0.000000
# 4 0.000000 0.000000 0.000000 0.044411 0.000000 0.000000
# 5 0.000000 0.000000 0.000000 0.000000 -0.038655 0.000000
# 6 0.000000 0.000000 0.000000 0.000000 0.000000 0.082650
#
#
# Mechanical properties :
#
#
# Convention : Reuss Voigt Hill
#
# Bulk Modulus (GPa) = 15.54100 17.68089 16.61094
# Shear Modulus (GPa) = 32.57376 15.72344 24.14860
#
# Velocity S-wave (km/s) = 3.89429 2.70563 3.35305
# Velocity P-wave (km/s) = 5.23986 4.24174 4.76700
#
# Compressibility (1/GPa) = 0.06434592
#
# Stress axis : x y z
#
# Youngs Moduli (GPa) = 46.75667 44.93908 96.57241
#
# Poissons Ratio (x) = -0.09995 -0.22120
# Poissons Ratio (y) = -0.10399 -0.06385
# Poissons Ratio (z) = -0.10710 -0.02971
#
# Static dielectric constant tensor:
#      x y z
#    x 1.816700 0.000000 0.000000 
#    y 0.000000 1.801450 0.000000 
#    z 0.000000 0.000000 1.777560 
# 
# From -- ./inp_files/38306.got.cif
#   From: 2010.05.17/outbox.cif.g08.bks.cpg/sg53_20_cif.got.tgz:38306.got - 2010.06.03 12:45:16.
