data_PCOD9416034
_publ_section_title
;
Structure prediction by ZEFSAII (Michael W. Deem and Ramdas Pophale) SiO2 
 PCOD9416034
Probable space group: P M N A
;
_chemical_formula_sum "Si O2"
_cell_formula_units_Z 64
_cell_length_a 17.223000
_cell_length_b 21.669797
_cell_length_c 9.054243
_cell_angle_alpha 90.000000
_cell_angle_beta 90.000000
_cell_angle_gamma 90.000000
_cell_volume 3379.214737
_symmetry_space_group_name_H-M "P M N A"
_symmetry_group_IT_number 53
_symmetry_cell_setting 'orthorhombic'
loop_
_space_group_symop_operation_xyz
x,y,z
1/2-x,-y,1/2+z
x,-y,-z
1/2-x,y,1/2-z
-x,-y,-z
1/2+x,y,1/2-z
-x,y,z
1/2+x,-y,1/2+z
loop_
_atom_site_type_symbol
_atom_site_label
_atom_site_fract_x
_atom_site_fract_y
_atom_site_fract_z
Si Si1 0.907120 0.749993 0.822546
Si Si2 0.907279 0.634512 0.623706
Si Si3 0.907750 0.748701 0.155306
Si Si4 0.835118 0.867785 0.676045
Si Si5 0.833155 0.509182 0.676033
Si Si6 0.159934 0.627844 0.298587
Si Si7 0.335124 0.863621 0.177889
Si Si8 0.335030 0.002171 0.823014
O O1 0.882280 0.689281 0.732870
O O2 0.883878 0.811357 0.737224
O O3 0.000000 0.745975 0.831595
O O4 0.875581 0.753981 0.988832
O O5 0.888617 0.567779 0.693570
O O6 0.858716 0.638397 0.471703
O O7 0.000000 0.639562 0.592726
O O8 0.884271 0.681919 0.215258
O O9 0.877735 0.804333 0.256945
O O10 0.000000 0.753095 0.151508
O O11 0.750000 0.865010 0.750000
O O12 0.829110 0.861217 0.499260
O O13 0.870394 0.935427 0.715224
O O14 0.821534 0.500000 0.500000
O O15 0.750000 0.521454 0.750000
O O16 0.864086 0.443129 0.733525
O O17 0.250000 0.631988 0.250000
O O18 0.250000 0.863130 0.250000
O O19 0.371686 0.931332 0.215035
O O20 0.250000 0.002485 0.750000
O O21 0.325647 0.000000 0.000000
#
# Coordination Sequence:
#
# PCOD9416034 Si02
#       8
#     8   8   8   8   8   8   8   8
#     4  10  23  39  52  74 108 144 182 224 269 319
#     4  10  21  38  60  84 112 149 190 230 278 337
#     4  11  23  38  55  77 109 146 186 229 272 323
#     4  10  19  33  56  82 106 139 178 218 269 324
#     4   9  20  36  57  84 113 143 179 227 278 331
#     4  10  21  37  57  84 112 141 180 225 277 332
#     4  10  19  34  56  81 109 138 175 223 272 325
#     4   8  16  30  50  78 107 134 170 217 267 321
#
# _framework density 18.939311
#
# number of rings (size 3 to 8) (size 9 to 14) (size 15 to 20)
#    0.000    2.250    0.000    2.250    0.000    9.750 
#    0.000    0.625    0.000    6.375    0.000    0.000 
#    0.000    0.000    0.000    0.000    0.000    0.000 
#
# Total GULP energy -356752.150655 kJ/mol
# GULP energy per Si atom -5574.252354 kJ/mol
# Density = 1.889620 g / cm^3
# Si number density = 18.939311 Si / 1000 Ang^3
#
#
#
# Elastic Constant Matrix: (Units=GPa)
#
#
# Indices 1 2 3 4 5 6 
#
# 1 26.9159 33.7037 21.2984 0.0000 0.0000 0.0000
# 2 33.7037 162.6568 72.1953 0.0000 0.0000 0.0000
# 3 21.2984 72.1953 82.2087 0.0000 0.0000 0.0000
# 4 0.0000 0.0000 0.0000 26.3322 0.0000 0.0000
# 5 0.0000 0.0000 0.0000 0.0000 26.8357 0.0000
# 6 0.0000 0.0000 0.0000 0.0000 0.0000 58.1562
#
#
#
# Elastic Compliance Matrix: (Units=1/GPa)
#
#
# Indices 1 2 3 4 5 6 
#
# 1 0.052271 -0.007899 -0.006605 0.000000 0.000000 0.000000
# 2 -0.007899 0.011269 -0.007850 0.000000 0.000000 0.000000
# 3 -0.006605 -0.007850 0.020769 0.000000 0.000000 0.000000
# 4 0.000000 0.000000 0.000000 0.037976 0.000000 0.000000
# 5 0.000000 0.000000 0.000000 0.000000 0.037264 0.000000
# 6 0.000000 0.000000 0.000000 0.000000 0.000000 0.017195
#
#
# Mechanical properties :
#
#
# Convention : Reuss Voigt Hill
#
# Bulk Modulus (GPa) = 25.25230 58.46402 41.85816
# Shear Modulus (GPa) = 21.30822 31.90376 26.60599
#
# Velocity S-wave (km/s) = 3.35786 4.10875 3.75214
# Velocity P-wave (km/s) = 5.32877 7.31063 6.39692
#
# Compressibility (1/GPa) = 0.03960036
#
# Stress axis : x y z
#
# Youngs Moduli (GPa) = 19.13125 88.74085 48.14882
#
# Poissons Ratio (x) = 0.70098 0.31803
# Poissons Ratio (y) = 0.15112 0.37795
# Poissons Ratio (z) = 0.12636 0.69659
#
# Static dielectric constant tensor:
#      x y z
#    x 1.630160 0.000000 0.000000 
#    y 0.000000 1.691650 0.000000 
#    z 0.000000 0.000000 1.656600 
# 
# From -- ./inp_files/8980.got.cif
#   From: 2010.05.17/outbox.cif.g08.bks.cpg/sg53_5_cif.got.tgz:8980.got - 2010.06.03 12:45:16.
