data_PCOD9416779
_publ_section_title
;
Structure prediction by ZEFSAII (Michael W. Deem and Ramdas Pophale) SiO2 
 PCOD9416779
Probable space group: P M N A
;
_chemical_formula_sum "Si O2"
_cell_formula_units_Z 64
_cell_length_a 8.719746
_cell_length_b 14.967851
_cell_length_c 30.864666
_cell_angle_alpha 90.000000
_cell_angle_beta 90.000000
_cell_angle_gamma 90.000000
_cell_volume 4028.328392
_symmetry_space_group_name_H-M "P M N A"
_symmetry_group_IT_number 53
_symmetry_cell_setting 'orthorhombic'
loop_
_space_group_symop_operation_xyz
x,y,z
1/2-x,-y,1/2+z
x,-y,-z
1/2-x,y,1/2-z
-x,-y,-z
1/2+x,y,1/2-z
-x,y,z
1/2+x,-y,1/2+z
loop_
_atom_site_type_symbol
_atom_site_label
_atom_site_fract_x
_atom_site_fract_y
_atom_site_fract_z
Si Si1 0.322510 0.742168 0.472927
Si Si2 0.813999 0.943940 0.043320
Si Si3 0.176680 0.255988 0.076732
Si Si4 0.181459 0.425531 0.379699
Si Si5 0.683625 0.074084 0.112677
Si Si6 0.183414 0.850079 0.703356
Si Si7 0.184520 0.552332 0.456548
Si Si8 0.182208 0.652591 0.796808
O O1 0.500000 0.734994 0.459055
O O2 0.264997 0.840563 0.459905
O O3 0.319707 0.739835 0.525028
O O4 0.234196 0.654980 0.457071
O O5 0.000000 0.946316 0.044566
O O6 0.747116 0.990651 0.085906
O O7 0.768528 0.000000 0.000000
O O8 0.283038 0.332761 0.095908
O O9 0.237120 0.160414 0.091498
O O10 0.000000 0.269269 0.091220
O O11 0.236388 0.501514 0.413060
O O12 0.265327 0.415369 0.333954
O O13 0.000000 0.435049 0.372588
O O14 0.500000 0.079455 0.107759
O O15 0.718430 0.082904 0.163912
O O16 0.250000 0.876874 0.750000
O O17 0.252075 0.751916 0.692848
O O18 0.000000 0.840517 0.706615
O O19 0.240349 0.500000 0.500000
O O20 0.000000 0.547173 0.457353
O O21 0.250000 0.628435 0.750000
O O22 0.000000 0.658313 0.794465
#
# Coordination Sequence:
#
# PCOD9416779 Si02
#       8
#     8   8   8   8   8   8   8   8
#     4  10  21  35  51  72 100 135 175 219 253 295
#     4  10  20  36  52  71 101 135 174 213 252 300
#     4  11  20  31  49  72 101 138 174 211 253 296
#     4  11  21  34  50  73 104 137 175 212 252 303
#     4  11  22  33  49  75 103 135 172 212 252 302
#     4  10  20  33  49  72 103 133 168 208 251 302
#     4  10  21  35  51  73 102 137 172 211 255 300
#     4  11  21  33  51  74 102 135 170 207 256 305
#
# _framework density 15.887483
#
# number of rings (size 3 to 8) (size 9 to 14) (size 15 to 20)
#    0.000    1.500    3.750    3.375    0.000    4.000 
#    0.000    0.000    0.000    0.000    0.000    0.875 
#    0.000    4.000    0.000    0.000    0.000    0.000 
#
# Total GULP energy -357189.532961 kJ/mol
# GULP energy per Si atom -5581.086453 kJ/mol
# Density = 1.585132 g / cm^3
# Si number density = 15.887483 Si / 1000 Ang^3
#
#
#
# Elastic Constant Matrix: (Units=GPa)
#
#
# Indices 1 2 3 4 5 6 
#
# 1 47.7830 19.0689 39.4678 0.0000 0.0000 0.0000
# 2 19.0689 89.7763 56.0045 0.0000 0.0000 0.0000
# 3 39.4678 56.0045 119.8529 0.0000 0.0000 0.0000
# 4 0.0000 0.0000 0.0000 22.9896 0.0000 0.0000
# 5 0.0000 0.0000 0.0000 0.0000 25.2973 0.0000
# 6 0.0000 0.0000 0.0000 0.0000 0.0000 20.4311
#
#
#
# Elastic Compliance Matrix: (Units=1/GPa)
#
#
# Indices 1 2 3 4 5 6 
#
# 1 0.028752 -0.000283 -0.009336 0.000000 0.000000 0.000000
# 2 -0.000283 0.015724 -0.007254 0.000000 0.000000 0.000000
# 3 -0.009336 -0.007254 0.014808 0.000000 0.000000 0.000000
# 4 0.000000 0.000000 0.000000 0.043498 0.000000 0.000000
# 5 0.000000 0.000000 0.000000 0.000000 0.039530 0.000000
# 6 0.000000 0.000000 0.000000 0.000000 0.000000 0.048945
#
#
# Mechanical properties :
#
#
# Convention : Reuss Voigt Hill
#
# Bulk Modulus (GPa) = 39.15824 54.05499 46.60662
# Shear Modulus (GPa) = 21.41177 23.26832 22.34005
#
# Velocity S-wave (km/s) = 3.67510 3.83112 3.75392
# Velocity P-wave (km/s) = 6.53523 7.32581 6.94178
#
# Compressibility (1/GPa) = 0.02553741
#
# Stress axis : x y z
#
# Youngs Moduli (GPa) = 34.78000 63.59543 67.53257
#
# Poissons Ratio (x) = 0.01801 0.63047
# Poissons Ratio (y) = 0.00985 0.48991
# Poissons Ratio (z) = 0.32470 0.46135
#
# Static dielectric constant tensor:
#      x y z
#    x 1.540750 0.000000 0.000000 
#    y 0.000000 1.509130 0.000000 
#    z 0.000000 0.000000 1.546090 
# 
# From -- ./inp_files/38447.got.cif
#   From: 2010.05.17/outbox.cif.g08.bks.cpg/sg53_20_cif.got.tgz:38447.got - 2010.06.03 12:45:16.
