data_PCOD9416867
_publ_section_title
;
Structure prediction by ZEFSAII (Michael W. Deem and Ramdas Pophale) SiO2 
 PCOD9416867
Probable space group: P M N A
;
_chemical_formula_sum "Si O2"
_cell_formula_units_Z 64
_cell_length_a 7.781303
_cell_length_b 15.430754
_cell_length_c 25.791257
_cell_angle_alpha 90.000000
_cell_angle_beta 90.000000
_cell_angle_gamma 90.000000
_cell_volume 3096.791624
_symmetry_space_group_name_H-M "P M N A"
_symmetry_group_IT_number 53
_symmetry_cell_setting 'orthorhombic'
loop_
_space_group_symop_operation_xyz
x,y,z
1/2-x,-y,1/2+z
x,-y,-z
1/2-x,y,1/2-z
-x,-y,-z
1/2+x,y,1/2-z
-x,y,z
1/2+x,-y,1/2+z
loop_
_atom_site_type_symbol
_atom_site_label
_atom_site_fract_x
_atom_site_fract_y
_atom_site_fract_z
Si Si1 0.708232 0.207711 0.385479
Si Si2 0.796040 0.428572 0.693506
Si Si3 0.293285 0.058364 0.308846
Si Si4 0.205361 0.269978 0.493843
Si Si5 0.294458 0.139140 0.691041
Si Si6 0.695183 0.549322 0.545692
Si Si7 0.793503 0.397422 0.150693
Si Si8 0.298885 0.288032 0.887504
O O1 0.500000 0.207904 0.384961
O O2 0.769765 0.127056 0.351096
O O3 0.762887 0.203606 0.446038
O O4 0.766029 0.297937 0.356640
O O5 0.750000 0.390935 0.750000
O O6 0.740957 0.529851 0.693129
O O7 0.723628 0.369273 0.645929
O O8 0.000000 0.426582 0.689500
O O9 0.250000 0.085090 0.250000
O O10 0.500000 0.055964 0.312552
O O11 0.230776 0.959803 0.316591
O O12 0.307551 0.352363 0.472397
O O13 0.262460 0.263264 0.554153
O O14 0.000000 0.285380 0.493606
O O15 0.250000 0.163791 0.750000
O O16 0.500000 0.139935 0.685579
O O17 0.220315 0.205590 0.649738
O O18 0.787191 0.500000 0.500000
O O19 0.500000 0.514485 0.551256
O O20 0.781194 0.552074 0.600769
O O21 0.000000 0.391421 0.146181
O O22 0.500000 0.307740 0.894432
#
# Coordination Sequence:
#
# PCOD9416867 Si02
#       8
#     8   8   8   8   8   8   8   8
#     4   9  19  37  57  79 111 145 177 216 261 315
#     4  11  23  37  52  72 102 139 177 220 268 316
#     4   9  19  36  58  84 110 136 172 217 265 320
#     4  10  20  33  51  77 107 139 179 223 265 311
#     4  10  20  35  58  84 107 136 174 219 271 322
#     4   9  17  30  49  72  98 131 171 212 255 305
#     4   9  18  32  50  73 101 134 170 208 251 300
#     4  10  22  38  54  76 107 142 180 222 267 316
#
# _framework density 20.666549
#
# number of rings (size 3 to 8) (size 9 to 14) (size 15 to 20)
#    0.000    2.375    0.000    3.000    0.000    6.750 
#    0.000    1.875    0.000    3.750    0.000    0.000 
#    0.000    0.000    0.000    0.000    0.000    0.000 
#
# Total GULP energy -356301.182446 kJ/mol
# GULP energy per Si atom -5567.205976 kJ/mol
# Density = 2.061951 g / cm^3
# Si number density = 20.666549 Si / 1000 Ang^3
#
#
#
# Elastic Constant Matrix: (Units=GPa)
#
#
# Indices 1 2 3 4 5 6 
#
# 1 39.9905 -3.3687 -5.4067 0.0000 0.0000 0.0000
# 2 -3.3687 81.3888 68.9158 0.0000 0.0000 0.0000
# 3 -5.4067 68.9158 155.5887 0.0000 0.0000 0.0000
# 4 0.0000 0.0000 0.0000 34.0110 0.0000 0.0000
# 5 0.0000 0.0000 0.0000 0.0000 24.7398 0.0000
# 6 0.0000 0.0000 0.0000 0.0000 0.0000 26.5433
#
#
#
# Elastic Compliance Matrix: (Units=1/GPa)
#
#
# Indices 1 2 3 4 5 6 
#
# 1 0.025136 0.000481 0.000660 0.000000 0.000000 0.000000
# 2 0.000481 0.019670 -0.008696 0.000000 0.000000 0.000000
# 3 0.000660 -0.008696 0.010302 0.000000 0.000000 0.000000
# 4 0.000000 0.000000 0.000000 0.029402 0.000000 0.000000
# 5 0.000000 0.000000 0.000000 0.000000 0.040421 0.000000
# 6 0.000000 0.000000 0.000000 0.000000 0.000000 0.037674
#
#
# Mechanical properties :
#
#
# Convention : Reuss Voigt Hill
#
# Bulk Modulus (GPa) = 25.00062 44.13874 34.56968
# Shear Modulus (GPa) = 26.17174 31.51398 28.84286
#
# Velocity S-wave (km/s) = 3.56249 3.90921 3.73987
# Velocity P-wave (km/s) = 5.38936 6.46373 5.95084
#
# Compressibility (1/GPa) = 0.03999901
#
# Stress axis : x y z
#
# Youngs Moduli (GPa) = 39.78395 50.83962 97.07054
#
# Poissons Ratio (x) = -0.02447 -0.06410
# Poissons Ratio (y) = -0.01915 0.84410
# Poissons Ratio (z) = -0.02627 0.44209
#
# Static dielectric constant tensor:
#      x y z
#    x 1.782280 0.000000 0.000000 
#    y 0.000000 1.783520 0.000000 
#    z 0.000000 0.000000 1.958240 
# 
# From -- ./inp_files/34348.got.cif
#   From: 2010.05.17/outbox.cif.g08.bks.cpg/sg53_18_cif.got.tgz:34348.got - 2010.06.03 12:45:16.
