data_PCOD9416797
_publ_section_title
;
Structure prediction by ZEFSAII (Michael W. Deem and Ramdas Pophale) SiO2 
 PCOD9416797
Probable space group: P M N A
;
_chemical_formula_sum "Si O2"
_cell_formula_units_Z 64
_cell_length_a 8.785845
_cell_length_b 17.720198
_cell_length_c 20.720870
_cell_angle_alpha 90.000000
_cell_angle_beta 90.000000
_cell_angle_gamma 90.000000
_cell_volume 3225.968285
_symmetry_space_group_name_H-M "P M N A"
_symmetry_group_IT_number 53
_symmetry_cell_setting 'orthorhombic'
loop_
_space_group_symop_operation_xyz
x,y,z
1/2-x,-y,1/2+z
x,-y,-z
1/2-x,y,1/2-z
-x,-y,-z
1/2+x,y,1/2-z
-x,y,z
1/2+x,-y,1/2+z
loop_
_atom_site_type_symbol
_atom_site_label
_atom_site_fract_x
_atom_site_fract_y
_atom_site_fract_z
Si Si1 0.825525 0.114945 0.479996
Si Si2 0.683953 0.609115 0.319167
Si Si3 0.679606 0.782321 0.317401
Si Si4 0.827047 0.920771 0.376033
Si Si5 0.314678 0.427262 0.539348
Si Si6 0.682509 0.761801 0.683745
Si Si7 0.315490 0.274276 0.462832
Si Si8 0.677593 0.071150 0.351925
O O1 0.824581 0.069917 0.546744
O O2 0.776160 0.202229 0.489334
O O3 0.706386 0.085090 0.427876
O O4 0.000000 0.111665 0.454402
O O5 0.750000 0.584105 0.250000
O O6 0.500000 0.605711 0.314942
O O7 0.731557 0.696766 0.329521
O O8 0.732912 0.569594 0.385615
O O9 0.750000 0.806652 0.250000
O O10 0.500000 0.779396 0.313333
O O11 0.728985 0.846391 0.365749
O O12 0.000000 0.905962 0.356223
O O13 0.765176 0.993762 0.338842
O O14 0.261439 0.500000 0.500000
O O15 0.500000 0.428186 0.539998
O O16 0.274714 0.349736 0.502184
O O17 0.750000 0.729394 0.750000
O O18 0.500000 0.762047 0.688716
O O19 0.718418 0.723180 0.614561
O O20 0.733717 0.849810 0.678012
O O21 0.500000 0.262497 0.469083
O O22 0.500000 0.062116 0.337557
#
# Coordination Sequence:
#
# PCOD9416797 Si02
#       8
#     8   8   8   8   8   8   8   8
#     4  10  20  33  50  73 100 131 169 214 266 321
#     4   9  18  33  55  81 108 143 182 219 262 313
#     4  10  20  34  51  71  97 131 173 216 259 309
#     4  11  22  33  47  71 102 133 168 215 271 326
#     4   9  17  32  57  86 113 142 178 218 260 311
#     4   9  19  34  52  73  97 130 173 221 268 315
#     4   9  18  34  55  79 104 133 177 225 264 314
#     4  10  21  35  50  70  97 132 175 221 269 318
#
# _framework density 19.839005
#
# number of rings (size 3 to 8) (size 9 to 14) (size 15 to 20)
#    0.000    2.375    0.000    3.375    0.000    8.000 
#    0.000    2.500    0.000    1.500    0.000    0.000 
#    0.000    0.000    0.000    0.000    0.000    0.000 
#
# Total GULP energy -356845.175688 kJ/mol
# GULP energy per Si atom -5575.705870 kJ/mol
# Density = 1.979385 g / cm^3
# Si number density = 19.839005 Si / 1000 Ang^3
#
#
#
# Elastic Constant Matrix: (Units=GPa)
#
#
# Indices 1 2 3 4 5 6 
#
# 1 16.0296 5.3804 13.4372 0.0000 0.0000 0.0000
# 2 5.3804 53.1123 36.5196 0.0000 0.0000 0.0000
# 3 13.4372 36.5196 118.5747 0.0000 0.0000 0.0000
# 4 0.0000 0.0000 0.0000 21.5590 0.0000 0.0000
# 5 0.0000 0.0000 0.0000 0.0000 27.2224 0.0000
# 6 0.0000 0.0000 0.0000 0.0000 0.0000 13.7828
#
#
#
# Elastic Compliance Matrix: (Units=1/GPa)
#
#
# Indices 1 2 3 4 5 6 
#
# 1 0.069108 -0.002050 -0.007200 0.000000 0.000000 0.000000
# 2 -0.002050 0.023947 -0.007143 0.000000 0.000000 0.000000
# 3 -0.007200 -0.007143 0.011449 0.000000 0.000000 0.000000
# 4 0.000000 0.000000 0.000000 0.046384 0.000000 0.000000
# 5 0.000000 0.000000 0.000000 0.000000 0.036734 0.000000
# 6 0.000000 0.000000 0.000000 0.000000 0.000000 0.072554
#
#
# Mechanical properties :
#
#
# Convention : Reuss Voigt Hill
#
# Bulk Modulus (GPa) = 13.94343 33.15453 23.54898
# Shear Modulus (GPa) = 15.77931 21.33815 18.55873
#
# Velocity S-wave (km/s) = 2.82329 3.28314 3.06186
# Velocity P-wave (km/s) = 4.20375 5.57854 4.93921
#
# Compressibility (1/GPa) = 0.07171834
#
# Stress axis : x y z
#
# Youngs Moduli (GPa) = 14.47005 41.75837 87.34044
#
# Poissons Ratio (x) = 0.08561 0.62886
# Poissons Ratio (y) = 0.02966 0.62389
# Poissons Ratio (z) = 0.10419 0.29829
#
# Static dielectric constant tensor:
#      x y z
#    x 1.676380 0.000000 0.000000 
#    y 0.000000 1.707090 0.000000 
#    z 0.000000 0.000000 1.748200 
# 
# From -- ./inp_files/31280.got.cif
#   From: 2010.05.17/outbox.cif.g08.bks.cpg/sg53_16_cif.got.tgz:31280.got - 2010.06.03 12:45:16.
