data_PCOD9416189
_publ_section_title
;
Structure prediction by ZEFSAII (Michael W. Deem and Ramdas Pophale) SiO2 
 PCOD9416189
Probable space group: P M N A
;
_chemical_formula_sum "Si O2"
_cell_formula_units_Z 48
_cell_length_a 8.493325
_cell_length_b 32.464605
_cell_length_c 9.227190
_cell_angle_alpha 90.000000
_cell_angle_beta 90.000000
_cell_angle_gamma 90.000000
_cell_volume 2544.235625
_symmetry_space_group_name_H-M "P M N A"
_symmetry_group_IT_number 53
_symmetry_cell_setting 'orthorhombic'
loop_
_space_group_symop_operation_xyz
x,y,z
1/2-x,-y,1/2+z
x,-y,-z
1/2-x,y,1/2-z
-x,-y,-z
1/2+x,y,1/2-z
-x,y,z
1/2+x,-y,1/2+z
loop_
_atom_site_type_symbol
_atom_site_label
_atom_site_fract_x
_atom_site_fract_y
_atom_site_fract_z
Si Si1 0.187472 0.701568 0.413368
Si Si2 0.690252 0.459243 0.586110
Si Si3 0.690647 0.040084 0.414489
Si Si4 0.689654 0.780385 0.584287
Si Si5 0.189737 0.129334 0.084688
Si Si6 0.689035 0.377502 0.413769
O O1 0.250000 0.698975 0.250000
O O2 0.244118 0.743640 0.488429
O O3 0.250773 0.663143 0.505708
O O4 0.000000 0.700348 0.412145
O O5 0.743011 0.500000 0.500000
O O6 0.750000 0.459381 0.750000
O O7 0.500000 0.459439 0.588717
O O8 0.741449 0.418137 0.501524
O O9 0.750000 0.037921 0.250000
O O10 0.500000 0.039279 0.413691
O O11 0.740362 0.084937 0.477804
O O12 0.747542 0.000000 0.500000
O O13 0.750000 0.776499 0.750000
O O14 0.500000 0.778224 0.585943
O O15 0.739047 0.825905 0.526255
O O16 0.250000 0.129029 0.250000
O O17 0.000000 0.129432 0.085449
O O18 0.750000 0.378875 0.250000
O O19 0.500000 0.376814 0.411927
#
# Coordination Sequence:
#
# PCOD9416189 Si02
#       6
#     8   8   8   8   8   8
#     4  12  25  41  59  81 111 145 182 224 274 328
#     4  10  22  39  60  88 120 154 192 233 278 328
#     4   9  17  30  48  71 100 133 170 212 258 309
#     4  10  19  34  56  81 107 137 177 222 269 320
#     4   8  15  28  48  72  99 132 170 213 258 308
#     4  11  23  40  62  88 117 150 190 232 276 325
#
# _framework density 18.866175999999999
#
# number of rings (size 3 to 8) (size 9 to 14) (size 15 to 20)
#    0.000    2.000    0.000    4.000    0.000    4.000 
#    0.000    0.833    0.000    2.000    0.000    0.000 
#    0.000    0.000    0.000    0.000    0.000    0.000 
#
# Total GULP energy -267865.254031 kJ/mol
# GULP energy per Si atom -5580.526126 kJ/mol
# Density = 1.882324 g / cm^3
# Si number density = 18.866176 Si / 1000 Ang^3
#
#
#
# Elastic Constant Matrix: (Units=GPa)
#
#
# Indices 1 2 3 4 5 6 
#
# 1 50.5992 44.4105 29.1266 0.0000 0.0000 0.0000
# 2 44.4105 240.8546 104.8842 0.0000 0.0000 0.0000
# 3 29.1266 104.8842 129.4955 0.0000 0.0000 0.0000
# 4 0.0000 0.0000 0.0000 34.8381 0.0000 0.0000
# 5 0.0000 0.0000 0.0000 0.0000 31.5986 0.0000
# 6 0.0000 0.0000 0.0000 0.0000 0.0000 65.0031
#
#
#
# Elastic Compliance Matrix: (Units=1/GPa)
#
#
# Indices 1 2 3 4 5 6 
#
# 1 0.024232 -0.003236 -0.002829 0.000000 0.000000 0.000000
# 2 -0.003236 0.006846 -0.004817 0.000000 0.000000 0.000000
# 3 -0.002829 -0.004817 0.012260 0.000000 0.000000 0.000000
# 4 0.000000 0.000000 0.000000 0.028704 0.000000 0.000000
# 5 0.000000 0.000000 0.000000 0.000000 0.031647 0.000000
# 6 0.000000 0.000000 0.000000 0.000000 0.000000 0.015384
#
#
# Mechanical properties :
#
#
# Convention : Reuss Voigt Hill
#
# Bulk Modulus (GPa) = 46.35328 86.42132 66.38730
# Shear Modulus (GPa) = 33.77687 42.45650 38.11668
#
# Velocity S-wave (km/s) = 4.23583 4.74899 4.49973
# Velocity P-wave (km/s) = 6.96749 8.71651 7.89061
#
# Compressibility (1/GPa) = 0.02157345
#
# Stress axis : x y z
#
# Youngs Moduli (GPa) = 41.26769 146.06372 81.56333
#
# Poissons Ratio (x) = 0.47266 0.23077
# Poissons Ratio (y) = 0.13354 0.39291
# Poissons Ratio (z) = 0.11676 0.70363
#
# Static dielectric constant tensor:
#      x y z
#    x 1.634900 0.000000 0.000000 
#    y 0.000000 1.697290 0.000000 
#    z 0.000000 0.000000 1.594410 
# 
# From -- ./inp_files/6664.got.cif
#   From: 2010.05.17/outbox.cif.g08.bks.cpg/sg53_4_cif.got.tgz:6664.got - 2010.06.03 12:45:16.
