data_PCOD9416366
_publ_section_title
;
Structure prediction by ZEFSAII (Michael W. Deem and Ramdas Pophale) SiO2 
 PCOD9416366
Probable space group: P M N A
;
_chemical_formula_sum "Si O2"
_cell_formula_units_Z 64
_cell_length_a 17.973125
_cell_length_b 20.574408
_cell_length_c 9.816767
_cell_angle_alpha 90.000000
_cell_angle_beta 90.000000
_cell_angle_gamma 90.000000
_cell_volume 3630.106995
_symmetry_space_group_name_H-M "P M N A"
_symmetry_group_IT_number 53
_symmetry_cell_setting 'orthorhombic'
loop_
_space_group_symop_operation_xyz
x,y,z
1/2-x,-y,1/2+z
x,-y,-z
1/2-x,y,1/2-z
-x,-y,-z
1/2+x,y,1/2-z
-x,y,z
1/2+x,-y,1/2+z
loop_
_atom_site_type_symbol
_atom_site_label
_atom_site_fract_x
_atom_site_fract_y
_atom_site_fract_z
Si Si1 0.586527 0.379030 0.186539
Si Si2 0.337052 0.745601 0.709852
Si Si3 0.198090 0.184391 0.948105
Si Si4 0.415474 0.847847 0.909799
Si Si5 0.913266 0.359991 0.638188
Si Si6 0.857497 0.217958 0.668464
Si Si7 0.773741 0.936733 0.593817
Si Si8 0.175918 0.509324 0.338754
O O1 0.500000 0.377504 0.225232
O O2 0.634012 0.326859 0.269360
O O3 0.620512 0.450602 0.198767
O O4 0.591374 0.358639 0.027060
O O5 0.250000 0.751152 0.750000
O O6 0.342800 0.770488 0.556363
O O7 0.384410 0.792984 0.807038
O O8 0.276368 0.217036 0.903463
O O9 0.152147 0.178935 0.808970
O O10 0.220991 0.118133 0.024617
O O11 0.500000 0.865419 0.876856
O O12 0.356529 0.906304 0.904853
O O13 0.410681 0.816697 0.060327
O O14 0.882940 0.291569 0.692450
O O15 0.864767 0.421760 0.682018
O O16 0.000000 0.368584 0.673688
O O17 0.750000 0.948476 0.750000
O O18 0.770885 0.000000 0.500000
O O19 0.192466 0.500000 0.500000
O O20 0.250000 0.505463 0.250000
#
# Coordination Sequence:
#
# PCOD9416366 Si02
#       8
#     8   8   8   8   8   8   8   8
#     4  10  20  35  58  86 112 149 197 247 298 354
#     4  12  18  36  61  88 117 152 200 247 295 341
#     4  10  21  37  58  92 120 149 193 249 290 338
#     4  11  21  38  61  89 124 159 195 243 293 344
#     4  10  19  35  57  82 113 152 196 240 293 356
#     4  10  20  34  59  88 120 154 195 245 294 348
#     4  11  23  41  67  93 119 157 200 241 287 350
#     4  10  22  38  57  80 110 152 196 247 296 349
#
# _framework density 17.630334999999999
#
# number of rings (size 3 to 8) (size 9 to 14) (size 15 to 20)
#    0.000    1.500    5.000    1.500    5.250    2.750 
#    0.000    2.500    0.000    1.125    0.000    0.000 
#    0.000    0.000    0.000    0.000    0.000    0.000 
#
# Total GULP energy -357288.769233 kJ/mol
# GULP energy per Si atom -5582.637019 kJ/mol
# Density = 1.759021 g / cm^3
# Si number density = 17.630335 Si / 1000 Ang^3
#
#
#
# Elastic Constant Matrix: (Units=GPa)
#
#
# Indices 1 2 3 4 5 6 
#
# 1 74.7193 38.7094 41.5466 0.0000 0.0000 0.0000
# 2 38.7094 103.1503 42.6936 0.0000 0.0000 0.0000
# 3 41.5466 42.6936 100.2192 0.0000 0.0000 0.0000
# 4 0.0000 0.0000 0.0000 23.2919 0.0000 0.0000
# 5 0.0000 0.0000 0.0000 0.0000 17.7074 0.0000
# 6 0.0000 0.0000 0.0000 0.0000 0.0000 7.1400
#
#
#
# Elastic Compliance Matrix: (Units=1/GPa)
#
#
# Indices 1 2 3 4 5 6 
#
# 1 0.019120 -0.004728 -0.005912 0.000000 0.000000 0.000000
# 2 -0.004728 0.012939 -0.003552 0.000000 0.000000 0.000000
# 3 -0.005912 -0.003552 0.013942 0.000000 0.000000 0.000000
# 4 0.000000 0.000000 0.000000 0.042933 0.000000 0.000000
# 5 0.000000 0.000000 0.000000 0.000000 0.056473 0.000000
# 6 0.000000 0.000000 0.000000 0.000000 0.000000 0.140056
#
#
# Mechanical properties :
#
#
# Convention : Reuss Voigt Hill
#
# Bulk Modulus (GPa) = 56.76401 58.22089 57.49245
# Shear Modulus (GPa) = 15.63859 19.97048 17.80453
#
# Velocity S-wave (km/s) = 2.98153 3.36926 3.18131
# Velocity P-wave (km/s) = 6.64224 6.94483 6.79522
#
# Compressibility (1/GPa) = 0.01761680
#
# Stress axis : x y z
#
# Youngs Moduli (GPa) = 52.30014 77.28496 71.72446
#
# Poissons Ratio (x) = 0.36543 0.42405
# Poissons Ratio (y) = 0.24729 0.25476
# Poissons Ratio (z) = 0.30921 0.27451
#
# Static dielectric constant tensor:
#      x y z
#    x 1.590710 0.000000 0.000000 
#    y 0.000000 1.590160 0.000000 
#    z 0.000000 0.000000 1.606770 
# 
# From -- ./inp_files/10217.got.cif
#   From: 2010.05.17/outbox.cif.g08.bks.cpg/sg53_6_cif.got.tgz:10217.got - 2010.06.03 12:45:16.
