data_PCOD9416933
_publ_section_title
;
Structure prediction by ZEFSAII (Michael W. Deem and Ramdas Pophale) SiO2 
 PCOD9416933
Probable space group: P M N A
;
_chemical_formula_sum "Si O2"
_cell_formula_units_Z 48
_cell_length_a 10.099271
_cell_length_b 13.848503
_cell_length_c 20.231693
_cell_angle_alpha 90.000000
_cell_angle_beta 90.000000
_cell_angle_gamma 90.000000
_cell_volume 2829.600228
_symmetry_space_group_name_H-M "P M N A"
_symmetry_group_IT_number 53
_symmetry_cell_setting 'orthorhombic'
loop_
_space_group_symop_operation_xyz
x,y,z
1/2-x,-y,1/2+z
x,-y,-z
1/2-x,y,1/2-z
-x,-y,-z
1/2+x,y,1/2-z
-x,y,z
1/2+x,-y,1/2+z
loop_
_atom_site_type_symbol
_atom_site_label
_atom_site_fract_x
_atom_site_fract_y
_atom_site_fract_z
Si Si1 0.251953 0.643715 0.652474
Si Si2 0.500000 0.584340 0.056010
Si Si3 0.000000 0.604426 0.034339
Si Si4 0.156995 0.098767 0.039579
Si Si5 0.000000 0.501700 0.837609
Si Si6 0.771181 0.702052 0.505753
Si Si7 0.000000 0.467763 0.307179
Si Si8 0.655882 0.857805 0.690432
O O1 0.370905 0.567233 0.648469
O O2 0.195782 0.664896 0.579369
O O3 0.130319 0.599360 0.692823
O O4 0.309249 0.744795 0.678444
O O5 0.625268 0.653659 0.043557
O O6 0.500000 0.533036 0.127193
O O7 0.500000 0.500000 0.000000
O O8 0.128812 0.659775 0.011624
O O9 0.000000 0.586382 0.112316
O O10 0.000000 0.500000 0.000000
O O11 0.179877 0.092816 0.118815
O O12 0.000000 0.125513 0.032727
O O13 0.250242 0.183212 0.010834
O O14 0.177273 0.000000 0.000000
O O15 0.000000 0.474037 0.760948
O O16 0.750000 0.892161 0.750000
O O17 0.500000 0.866726 0.706617
#
# Coordination Sequence:
#
# PCOD9416933 Si02
#       8
#     8   4   4   8   4   8   4   8
#     4  11  20  33  49  75 110 144 182 220 277 334
#     4  12  22  38  53  76 115 156 187 214 271 335
#     4  12  20  32  57  78 105 140 193 228 259 321
#     4   9  19  38  63  88 111 139 189 244 288 325
#     4  12  22  32  48  74 108 142 187 234 263 317
#     4  11  20  36  57  83 105 146 189 230 277 327
#     4  12  24  34  48  72 112 156 185 220 273 319
#     4  10  20  33  54  83 117 146 174 222 286 351
#
# _framework density 16.963526999999999
#
# number of rings (size 3 to 8) (size 9 to 14) (size 15 to 20)
#    0.000    1.167    5.000    3.000    1.167    0.000 
#    1.500    0.417    0.000    2.000    0.000    0.000 
#    0.000    0.000    0.000    0.000    0.000    0.000 
#
# Total GULP energy -267984.645729 kJ/mol
# GULP energy per Si atom -5583.013453 kJ/mol
# Density = 1.692492 g / cm^3
# Si number density = 16.963527 Si / 1000 Ang^3
#
#
#
# Elastic Constant Matrix: (Units=GPa)
#
#
# Indices 1 2 3 4 5 6 
#
# 1 85.6869 26.9310 10.0203 0.0000 0.0000 0.0000
# 2 26.9310 64.7548 43.2801 0.0000 0.0000 0.0000
# 3 10.0203 43.2801 105.5663 0.0000 0.0000 0.0000
# 4 0.0000 0.0000 0.0000 22.7342 0.0000 0.0000
# 5 0.0000 0.0000 0.0000 0.0000 27.6763 0.0000
# 6 0.0000 0.0000 0.0000 0.0000 0.0000 20.4217
#
#
#
# Elastic Compliance Matrix: (Units=1/GPa)
#
#
# Indices 1 2 3 4 5 6 
#
# 1 0.013577 -0.006591 0.001414 0.000000 0.000000 0.000000
# 2 -0.006591 0.024472 -0.009407 0.000000 0.000000 0.000000
# 3 0.001414 -0.009407 0.013195 0.000000 0.000000 0.000000
# 4 0.000000 0.000000 0.000000 0.043987 0.000000 0.000000
# 5 0.000000 0.000000 0.000000 0.000000 0.036132 0.000000
# 6 0.000000 0.000000 0.000000 0.000000 0.000000 0.048967
#
#
# Mechanical properties :
#
#
# Convention : Reuss Voigt Hill
#
# Bulk Modulus (GPa) = 45.30248 46.27453 45.78850
# Shear Modulus (GPa) = 23.05663 25.88489 24.47076
#
# Velocity S-wave (km/s) = 3.69072 3.91053 3.80221
# Velocity P-wave (km/s) = 6.70266 6.90853 6.80637
#
# Compressibility (1/GPa) = 0.02207385
#
# Stress axis : x y z
#
# Youngs Moduli (GPa) = 73.65567 40.86366 75.78439
#
# Poissons Ratio (x) = 0.26934 -0.10713
# Poissons Ratio (y) = 0.48548 0.71292
# Poissons Ratio (z) = -0.10412 0.38441
#
# Static dielectric constant tensor:
#      x y z
#    x 1.590040 0.000000 0.000000 
#    y 0.000000 1.543650 0.000000 
#    z 0.000000 0.000000 1.610910 
# 
# From -- ./inp_files/26373.got.cif
#   From: 2010.05.17/outbox.cif.g08.bks.cpg/sg53_14_cif.got.tgz:26373.got - 2010.06.03 12:45:16.
