data_PCOD9416761
_publ_section_title
;
Structure prediction by ZEFSAII (Michael W. Deem and Ramdas Pophale) SiO2 
 PCOD9416761
Probable space group: P M N A
;
_chemical_formula_sum "Si O2"
_cell_formula_units_Z 64
_cell_length_a 8.882005
_cell_length_b 23.784975
_cell_length_c 16.950713
_cell_angle_alpha 90.000000
_cell_angle_beta 90.000000
_cell_angle_gamma 90.000000
_cell_volume 3580.978251
_symmetry_space_group_name_H-M "P M N A"
_symmetry_group_IT_number 53
_symmetry_cell_setting 'orthorhombic'
loop_
_space_group_symop_operation_xyz
x,y,z
1/2-x,-y,1/2+z
x,-y,-z
1/2-x,y,1/2-z
-x,-y,-z
1/2+x,y,1/2-z
-x,y,z
1/2+x,-y,1/2+z
loop_
_atom_site_type_symbol
_atom_site_label
_atom_site_fract_x
_atom_site_fract_y
_atom_site_fract_z
Si Si1 0.820596 0.180865 0.330416
Si Si2 0.826622 0.467316 0.915977
Si Si3 0.675594 0.132007 0.572609
Si Si4 0.179830 0.238961 0.496892
Si Si5 0.824383 0.072154 0.097254
Si Si6 0.682526 0.576432 0.666584
Si Si7 0.321255 0.034744 0.834637
Si Si8 0.317124 0.360990 0.495753
O O1 0.750000 0.203797 0.250000
O O2 0.786621 0.218609 0.407125
O O3 0.749031 0.119842 0.347719
O O4 0.000000 0.175794 0.323015
O O5 0.761811 0.513030 0.855537
O O6 0.000000 0.457972 0.891690
O O7 0.830860 0.500000 0.000000
O O8 0.761997 0.406762 0.939439
O O9 0.500000 0.137486 0.593213
O O10 0.748241 0.192122 0.553748
O O11 0.685401 0.096798 0.490836
O O12 0.762742 0.095028 0.636205
O O13 0.249291 0.300062 0.509129
O O14 0.000000 0.239528 0.506125
O O15 0.000000 0.064394 0.117053
O O16 0.738810 0.013832 0.107473
O O17 0.750000 0.594403 0.750000
O O18 0.500000 0.575397 0.670543
O O19 0.722485 0.615693 0.591807
O O20 0.250000 0.021862 0.750000
O O21 0.500000 0.033640 0.831048
O O22 0.500000 0.359505 0.499123
#
# Coordination Sequence:
#
# PCOD9416761 Si02
#       8
#     8   8   8   8   8   8   8   8
#     4  10  20  33  48  68  98 134 169 206 250 300
#     4   7  12  26  47  68  91 124 164 199 232 277
#     4  10  21  38  58  78 102 134 172 212 256 306
#     4  10  21  35  51  73 100 131 169 212 255 298
#     4  10  20  35  55  78 104 133 167 207 253 308
#     4   9  17  29  47  73 104 133 161 198 246 295
#     4  12  24  37  55  79 107 135 166 207 257 310
#     4   9  17  31  51  71  93 128 172 209 240 285
#
# _framework density 17.872212000000001
#
# number of rings (size 3 to 8) (size 9 to 14) (size 15 to 20)
#    0.000    2.375    0.000    4.875    0.000    5.500 
#    0.000    3.125    0.000    3.000    0.000    3.500 
#    0.000    0.000    0.000    0.000    0.000    0.000 
#
# Total GULP energy -356973.821070 kJ/mol
# GULP energy per Si atom -5577.715954 kJ/mol
# Density = 1.783153 g / cm^3
# Si number density = 17.872212 Si / 1000 Ang^3
#
#
#
# Elastic Constant Matrix: (Units=GPa)
#
#
# Indices 1 2 3 4 5 6 
#
# 1 63.3969 38.0758 8.4318 0.0000 0.0000 0.0000
# 2 38.0758 129.5770 6.5721 0.0000 0.0000 0.0000
# 3 8.4318 6.5721 8.6721 0.0000 0.0000 0.0000
# 4 0.0000 0.0000 0.0000 11.7024 0.0000 0.0000
# 5 0.0000 0.0000 0.0000 0.0000 6.7877 0.0000
# 6 0.0000 0.0000 0.0000 0.0000 0.0000 18.3203
#
#
#
# Elastic Compliance Matrix: (Units=1/GPa)
#
#
# Indices 1 2 3 4 5 6 
#
# 1 0.021213 -0.005395 -0.016537 0.000000 0.000000 0.000000
# 2 -0.005395 0.009398 -0.001877 0.000000 0.000000 0.000000
# 3 -0.016537 -0.001877 0.132814 0.000000 0.000000 0.000000
# 4 0.000000 0.000000 0.000000 0.085453 0.000000 0.000000
# 5 0.000000 0.000000 0.000000 0.000000 0.147324 0.000000
# 6 0.000000 0.000000 0.000000 0.000000 0.000000 0.054584
#
#
# Mechanical properties :
#
#
# Convention : Reuss Voigt Hill
#
# Bulk Modulus (GPa) = 8.63502 34.20059 21.41781
# Shear Modulus (GPa) = 9.31089 17.26650 13.28870
#
# Velocity S-wave (km/s) = 2.28495 3.11160 2.72975
# Velocity P-wave (km/s) = 3.43560 5.66455 4.68458
#
# Compressibility (1/GPa) = 0.11580746
#
# Stress axis : x y z
#
# Youngs Moduli (GPa) = 47.14086 106.40777 7.52935
#
# Poissons Ratio (x) = 0.57403 0.12451
# Poissons Ratio (y) = 0.25431 0.01413
# Poissons Ratio (z) = 0.77956 0.19973
#
# Static dielectric constant tensor:
#      x y z
#    x 1.597100 0.000000 0.000000 
#    y 0.000000 1.617510 0.000000 
#    z 0.000000 0.000000 1.578010 
# 
# From -- ./inp_files/26855.got.cif
#   From: 2010.05.17/outbox.cif.g08.bks.cpg/sg53_14_cif.got.tgz:26855.got - 2010.06.03 12:45:16.
