data_PCOD9416634
_publ_section_title
;
Structure prediction by ZEFSAII (Michael W. Deem and Ramdas Pophale) SiO2 
 PCOD9416634
Probable space group: P M N A
;
_chemical_formula_sum "Si O2"
_cell_formula_units_Z 56
_cell_length_a 8.584188
_cell_length_b 21.467349
_cell_length_c 15.725594
_cell_angle_alpha 90.000000
_cell_angle_beta 90.000000
_cell_angle_gamma 90.000000
_cell_volume 2897.908683
_symmetry_space_group_name_H-M "P M N A"
_symmetry_group_IT_number 53
_symmetry_cell_setting 'orthorhombic'
loop_
_space_group_symop_operation_xyz
x,y,z
1/2-x,-y,1/2+z
x,-y,-z
1/2-x,y,1/2-z
-x,-y,-z
1/2+x,y,1/2-z
-x,y,z
1/2+x,-y,1/2+z
loop_
_atom_site_type_symbol
_atom_site_label
_atom_site_fract_x
_atom_site_fract_y
_atom_site_fract_z
Si Si1 0.310856 0.154142 0.019491
Si Si2 0.686998 0.485406 0.599276
Si Si3 0.686596 0.289572 0.489937
Si Si4 0.179364 0.970442 0.595121
Si Si5 0.315436 0.352372 0.843330
Si Si6 0.687736 0.380992 0.339240
Si Si7 0.688331 0.097425 0.838157
O O1 0.500000 0.154603 0.023104
O O2 0.266979 0.134905 0.922853
O O3 0.245079 0.221785 0.037278
O O4 0.253729 0.098471 0.081615
O O5 0.716375 0.500000 0.500000
O O6 0.500000 0.477238 0.608656
O O7 0.766644 0.422834 0.631532
O O8 0.738213 0.547404 0.648540
O O9 0.500000 0.290747 0.493253
O O10 0.750297 0.308399 0.582216
O O11 0.738613 0.340373 0.420054
O O12 0.000000 0.962496 0.623246
O O13 0.173994 0.000000 0.500000
O O14 0.249897 0.026167 0.650373
O O15 0.250000 0.337868 0.750000
O O16 0.500000 0.347351 0.841421
O O17 0.750000 0.356365 0.250000
O O18 0.500000 0.380671 0.338569
O O19 0.750000 0.123897 0.750000
O O20 0.500000 0.095361 0.836968
#
# Coordination Sequence:
#
# PCOD9416634 Si02
#       7
#     8   8   8   8   8   8   8
#     4   9  18  34  55  77 103 142 188 227 271 330
#     4  10  19  38  63  87 118 150 182 232 295 345
#     4  11  23  41  59  81 115 155 194 238 291 341
#     4   7  12  27  50  72  96 130 170 210 253 308
#     4  12  25  40  60  87 117 152 194 238 289 346
#     4  10  22  39  61  84 111 148 188 234 287 341
#     4   9  17  30  51  79 109 139 175 221 275 330
#
# _framework density 19.324280000000002
#
# number of rings (size 3 to 8) (size 9 to 14) (size 15 to 20)
#    0.000    2.286    1.429    3.857    0.000    4.286 
#    0.000    2.857    0.000    6.000    0.000    0.000 
#    0.000    0.000    0.000    0.000    0.000    0.000 
#
# Total GULP energy -312412.764221 kJ/mol
# GULP energy per Si atom -5578.799361 kJ/mol
# Density = 1.928030 g / cm^3
# Si number density = 19.324280 Si / 1000 Ang^3
#
#
#
# Elastic Constant Matrix: (Units=GPa)
#
#
# Indices 1 2 3 4 5 6 
#
# 1 28.1948 11.8353 8.2978 0.0000 0.0000 0.0000
# 2 11.8353 76.8982 -9.3199 0.0000 0.0000 0.0000
# 3 8.2978 -9.3199 52.7292 0.0000 0.0000 0.0000
# 4 0.0000 0.0000 0.0000 10.4709 0.0000 0.0000
# 5 0.0000 0.0000 0.0000 0.0000 2.2256 0.0000
# 6 0.0000 0.0000 0.0000 0.0000 0.0000 19.5311
#
#
#
# Elastic Compliance Matrix: (Units=1/GPa)
#
#
# Indices 1 2 3 4 5 6 
#
# 1 0.040754 -0.007204 -0.007687 0.000000 0.000000 0.000000
# 2 -0.007204 0.014562 0.003708 0.000000 0.000000 0.000000
# 3 -0.007687 0.003708 0.020830 0.000000 0.000000 0.000000
# 4 0.000000 0.000000 0.000000 0.095503 0.000000 0.000000
# 5 0.000000 0.000000 0.000000 0.000000 0.449316 0.000000
# 6 0.000000 0.000000 0.000000 0.000000 0.000000 0.051200
#
#
# Mechanical properties :
#
#
# Convention : Reuss Voigt Hill
#
# Bulk Modulus (GPa) = 18.59433 19.93873 19.26653
# Shear Modulus (GPa) = 7.01796 16.24614 11.63205
#
# Velocity S-wave (km/s) = 1.90776 2.90265 2.45611
# Velocity P-wave (km/s) = 3.80735 4.64480 4.24677
#
# Compressibility (1/GPa) = 0.05377983
#
# Stress axis : x y z
#
# Youngs Moduli (GPa) = 24.53765 68.67049 48.00829
#
# Poissons Ratio (x) = 0.49470 0.36902
# Poissons Ratio (y) = 0.17677 -0.17799
# Poissons Ratio (z) = 0.18861 -0.25460
#
# Static dielectric constant tensor:
#      x y z
#    x 1.660080 0.000000 0.000000 
#    y 0.000000 1.687340 0.000000 
#    z 0.000000 0.000000 1.678330 
# 
# From -- ./inp_files/20650.got.cif
#   From: 2010.05.17/outbox.cif.g08.bks.cpg/sg53_11_cif.got.tgz:20650.got - 2010.06.03 12:45:16.
