data_PCOD9416207
_publ_section_title
;
Structure prediction by ZEFSAII (Michael W. Deem and Ramdas Pophale) SiO2 
 PCOD9416207
Probable space group: P M N A
;
_chemical_formula_sum "Si O2"
_cell_formula_units_Z 64
_cell_length_a 8.636338
_cell_length_b 20.980024
_cell_length_c 19.987391
_cell_angle_alpha 90.000000
_cell_angle_beta 90.000000
_cell_angle_gamma 90.000000
_cell_volume 3621.526938
_symmetry_space_group_name_H-M "P M N A"
_symmetry_group_IT_number 53
_symmetry_cell_setting 'orthorhombic'
loop_
_space_group_symop_operation_xyz
x,y,z
1/2-x,-y,1/2+z
x,-y,-z
1/2-x,y,1/2-z
-x,-y,-z
1/2+x,y,1/2-z
-x,y,z
1/2+x,-y,1/2+z
loop_
_atom_site_type_symbol
_atom_site_label
_atom_site_fract_x
_atom_site_fract_y
_atom_site_fract_z
Si Si1 0.185693 0.366315 0.320723
Si Si2 0.314104 0.685166 0.963375
Si Si3 0.685042 0.989345 0.320976
Si Si4 0.684243 0.180232 0.459790
Si Si5 0.314549 0.563896 0.458881
Si Si6 0.314762 0.133133 0.178371
Si Si7 0.685917 0.484211 0.821718
Si Si8 0.314563 0.937349 0.044250
O O1 0.250000 0.342770 0.250000
O O2 0.236376 0.329295 0.386794
O O3 0.230815 0.440839 0.328708
O O4 0.000000 0.363936 0.317844
O O5 0.500000 0.690822 0.964510
O O6 0.237510 0.750938 0.985583
O O7 0.262406 0.625128 0.007280
O O8 0.750000 0.965283 0.250000
O O9 0.500000 0.994855 0.318245
O O10 0.738052 0.947329 0.383518
O O11 0.757159 0.060080 0.330093
O O12 0.500000 0.175138 0.457614
O O13 0.752019 0.171206 0.385110
O O14 0.752608 0.124066 0.505462
O O15 0.270381 0.500000 0.500000
O O16 0.500000 0.569984 0.461282
O O17 0.257581 0.553546 0.383433
O O18 0.250000 0.155644 0.250000
O O19 0.500000 0.134435 0.179202
O O20 0.750000 0.462710 0.750000
O O21 0.500000 0.480410 0.823168
O O22 0.500000 0.933907 0.050980
O O23 0.277623 0.000000 0.000000
#
# Coordination Sequence:
#
# PCOD9416207 Si02
#       8
#     8   8   8   8   8   8   8   8
#     4   9  19  33  53  79 111 150 191 232 279 336
#     4  11  23  40  58  81 115 156 197 240 290 345
#     4  11  21  35  58  88 120 152 190 239 291 342
#     4  12  25  40  58  84 117 155 196 241 292 348
#     4  11  22  36  58  87 116 150 193 241 289 341
#     4  11  21  36  56  82 115 155 197 238 285 342
#     4  10  19  34  56  85 116 149 188 236 288 341
#     4  11  22  38  62  88 116 152 195 242 290 343
#
# _framework density 17.672103
#
# number of rings (size 3 to 8) (size 9 to 14) (size 15 to 20)
#    0.000    1.250    2.500    5.625    0.000    3.000 
#    0.000    1.250    0.000    0.750    0.000    5.250 
#    0.000    0.000    0.000    0.000    0.000    0.000 
#
# Total GULP energy -357791.426421 kJ/mol
# GULP energy per Si atom -5590.491038 kJ/mol
# Density = 1.763188 g / cm^3
# Si number density = 17.672103 Si / 1000 Ang^3
#
#
#
# Elastic Constant Matrix: (Units=GPa)
#
#
# Indices 1 2 3 4 5 6 
#
# 1 86.1002 31.5473 34.5167 0.0000 0.0000 0.0000
# 2 31.5473 93.3573 47.9155 0.0000 0.0000 0.0000
# 3 34.5167 47.9155 114.0278 0.0000 0.0000 0.0000
# 4 0.0000 0.0000 0.0000 20.2578 0.0000 0.0000
# 5 0.0000 0.0000 0.0000 0.0000 28.9652 0.0000
# 6 0.0000 0.0000 0.0000 0.0000 0.0000 -76.7836
#
#
#
# Elastic Compliance Matrix: (Units=1/GPa)
#
#
# Indices 1 2 3 4 5 6 
#
# 1 0.013950 -0.003247 -0.002858 0.000000 0.000000 0.000000
# 2 -0.003247 0.014413 -0.005073 0.000000 0.000000 0.000000
# 3 -0.002858 -0.005073 0.011767 0.000000 0.000000 0.000000
# 4 0.000000 0.000000 0.000000 0.049364 0.000000 0.000000
# 5 0.000000 0.000000 0.000000 0.000000 0.034524 0.000000
# 6 0.000000 0.000000 0.000000 0.000000 0.000000 -0.013024
#
#
# Mechanical properties :
#
#
# Convention : Reuss Voigt Hill
#
# Bulk Modulus (GPa) = 56.26797 57.93827 57.10312
# Shear Modulus (GPa) = 35.90014 6.45494 21.17754
#
# Velocity S-wave (km/s) = 4.51206 1.91326 3.46549
# Velocity P-wave (km/s) = 7.68466 6.14305 6.95669
#
# Compressibility (1/GPa) = 0.01777210
#
# Stress axis : x y z
#
# Youngs Moduli (GPa) = 71.68498 69.38323 84.98387
#
# Poissons Ratio (x) = 0.22528 0.24291
# Poissons Ratio (y) = 0.23276 0.43116
# Poissons Ratio (z) = 0.20490 0.35201
#
# Static dielectric constant tensor:
#      x y z
#    x 1.587300 0.000000 0.000000 
#    y 0.000000 1.594190 0.000000 
#    z 0.000000 0.000000 1.598070 
# 
# From -- ./inp_files/31152.got.cif
#   From: 2010.05.17/outbox.cif.g08.bks.cpg/sg53_16_cif.got.tgz:31152.got - 2010.06.03 12:45:16.
