data_PCOD9416730
_publ_section_title
;
Structure prediction by ZEFSAII (Michael W. Deem and Ramdas Pophale) SiO2 
 PCOD9416730
Probable space group: P M N A
;
_chemical_formula_sum "Si O2"
_cell_formula_units_Z 56
_cell_length_a 8.918895
_cell_length_b 19.375343
_cell_length_c 17.129636
_cell_angle_alpha 90.000000
_cell_angle_beta 90.000000
_cell_angle_gamma 90.000000
_cell_volume 2960.115010
_symmetry_space_group_name_H-M "P M N A"
_symmetry_group_IT_number 53
_symmetry_cell_setting 'orthorhombic'
loop_
_space_group_symop_operation_xyz
x,y,z
1/2-x,-y,1/2+z
x,-y,-z
1/2-x,y,1/2-z
-x,-y,-z
1/2+x,y,1/2-z
-x,y,z
1/2+x,-y,1/2+z
loop_
_atom_site_type_symbol
_atom_site_label
_atom_site_fract_x
_atom_site_fract_y
_atom_site_fract_z
Si Si1 0.321560 0.330778 0.665435
Si Si2 0.177529 0.147976 0.167871
Si Si3 0.175441 0.724744 0.593153
Si Si4 0.324169 0.789922 0.078004
Si Si5 0.678767 0.587641 0.830556
Si Si6 0.319634 0.920449 0.984114
Si Si7 0.680868 0.456639 0.921276
O O1 0.250000 0.346429 0.750000
O O2 0.500000 0.335655 0.669702
O O3 0.270506 0.254130 0.639003
O O4 0.258866 0.385245 0.601381
O O5 0.250000 0.127532 0.250000
O O6 0.225997 0.226345 0.147625
O O7 0.242420 0.104678 0.095260
O O8 0.000000 0.141989 0.171688
O O9 0.189614 0.750126 0.504826
O O10 0.214698 0.644959 0.604563
O O11 0.000000 0.733983 0.615125
O O12 0.500000 0.789416 0.100743
O O13 0.278146 0.867931 0.054570
O O14 0.750000 0.610029 0.750000
O O15 0.500000 0.585854 0.823431
O O16 0.725867 0.511295 0.854393
O O17 0.500000 0.912902 0.974683
O O18 0.285110 0.000000 0.000000
O O19 0.500000 0.445529 0.922282
O O20 0.716053 0.500000 0.000000
#
# Coordination Sequence:
#
# PCOD9416730 Si02
#       7
#     8   8   8   8   8   8   8
#     4  12  25  40  59  83 113 150 196 245 291 341
#     4  11  21  33  52  80 114 150 188 227 270 324
#     4   9  18  34  55  79 108 143 181 220 269 329
#     4   9  18  36  61  85 110 141 179 223 273 331
#     4  10  20  32  49  74 103 136 173 216 268 324
#     4   9  19  38  63  88 115 147 182 224 279 340
#     4  10  21  39  60  79 104 142 187 235 290 345
#
# _framework density 18.918182999999999
#
# number of rings (size 3 to 8) (size 9 to 14) (size 15 to 20)
#    0.000    2.000    0.000    5.143    0.000    8.571 
#    0.000    2.143    0.000    0.000    0.000    0.000 
#    0.000    0.000    0.000    0.000    0.000    0.000 
#
# Total GULP energy -312544.129520 kJ/mol
# GULP energy per Si atom -5581.145170 kJ/mol
# Density = 1.887512 g / cm^3
# Si number density = 18.918183 Si / 1000 Ang^3
#
#
#
# Elastic Constant Matrix: (Units=GPa)
#
#
# Indices 1 2 3 4 5 6 
#
# 1 68.7636 45.1010 40.4839 0.0000 0.0000 0.0000
# 2 45.1010 124.7296 29.2257 0.0000 0.0000 0.0000
# 3 40.4839 29.2257 64.7601 0.0000 0.0000 0.0000
# 4 0.0000 0.0000 0.0000 22.1649 0.0000 0.0000
# 5 0.0000 0.0000 0.0000 0.0000 20.2021 0.0000
# 6 0.0000 0.0000 0.0000 0.0000 0.0000 31.8986
#
#
#
# Elastic Compliance Matrix: (Units=1/GPa)
#
#
# Indices 1 2 3 4 5 6 
#
# 1 0.027026 -0.006501 -0.013961 0.000000 0.000000 0.000000
# 2 -0.006501 0.010529 -0.000688 0.000000 0.000000 0.000000
# 3 -0.013961 -0.000688 0.024480 0.000000 0.000000 0.000000
# 4 0.000000 0.000000 0.000000 0.045116 0.000000 0.000000
# 5 0.000000 0.000000 0.000000 0.000000 0.049500 0.000000
# 6 0.000000 0.000000 0.000000 0.000000 0.000000 0.031349
#
#
# Mechanical properties :
#
#
# Convention : Reuss Voigt Hill
#
# Bulk Modulus (GPa) = 50.67118 54.20827 52.43973
# Shear Modulus (GPa) = 21.10790 24.41596 22.76193
#
# Velocity S-wave (km/s) = 3.34390 3.59640 3.47245
# Velocity P-wave (km/s) = 6.46154 6.77951 6.62243
#
# Compressibility (1/GPa) = 0.01973508
#
# Stress axis : x y z
#
# Youngs Moduli (GPa) = 37.00146 94.97398 40.85047
#
# Poissons Ratio (x) = 0.61743 0.57032
# Poissons Ratio (y) = 0.24055 0.02809
# Poissons Ratio (z) = 0.51658 0.06531
#
# Static dielectric constant tensor:
#      x y z
#    x 1.628260 0.000000 0.000000 
#    y 0.000000 1.679910 0.000000 
#    z 0.000000 0.000000 1.669500 
# 
# From -- ./inp_files/20529.got.cif
#   From: 2010.05.17/outbox.cif.g08.bks.cpg/sg53_11_cif.got.tgz:20529.got - 2010.06.03 12:45:16.
