data_PCOD9416372
_publ_section_title
;
Structure prediction by ZEFSAII (Michael W. Deem and Ramdas Pophale) SiO2 
 PCOD9416372
Probable space group: P M N A
;
_chemical_formula_sum "Si O2"
_cell_formula_units_Z 64
_cell_length_a 16.615704
_cell_length_b 14.263744
_cell_length_c 11.784553
_cell_angle_alpha 90.000000
_cell_angle_beta 90.000000
_cell_angle_gamma 90.000000
_cell_volume 2792.964377
_symmetry_space_group_name_H-M "P M N A"
_symmetry_group_IT_number 53
_symmetry_cell_setting 'orthorhombic'
loop_
_space_group_symop_operation_xyz
x,y,z
1/2-x,-y,1/2+z
x,-y,-z
1/2-x,y,1/2-z
-x,-y,-z
1/2+x,y,1/2-z
-x,y,z
1/2+x,-y,1/2+z
loop_
_atom_site_type_symbol
_atom_site_label
_atom_site_fract_x
_atom_site_fract_y
_atom_site_fract_z
Si Si1 0.907711 0.245426 0.333067
Si Si2 0.331649 0.850607 0.190992
Si Si3 0.659564 0.267220 0.402446
Si Si4 0.775895 0.535595 0.128686
Si Si5 0.407602 0.697262 0.355365
Si Si6 0.592128 0.035449 0.148368
Si Si7 0.319768 0.681506 0.019503
Si Si8 0.592708 0.071828 0.405094
O O1 0.869939 0.292983 0.222446
O O2 0.873272 0.141075 0.362502
O O3 0.898158 0.307119 0.444490
O O4 0.000000 0.227615 0.302678
O O5 0.250000 0.884978 0.250000
O O6 0.383772 0.792904 0.286418
O O7 0.367856 0.936688 0.117048
O O8 0.310646 0.767333 0.104903
O O9 0.602219 0.289343 0.508926
O O10 0.746113 0.307981 0.431011
O O11 0.655624 0.155100 0.399601
O O12 0.750000 0.487293 0.250000
O O13 0.842266 0.614467 0.164511
O O14 0.804978 0.500000 0.000000
O O15 0.694738 0.587975 0.088002
O O16 0.500000 0.673794 0.327158
O O17 0.500000 0.895599 0.572516
O O18 0.590994 0.022163 0.284583
O O19 0.500000 0.038757 0.108925
O O20 0.616027 0.000000 0.500000
#
# Coordination Sequence:
#
# PCOD9416372 Si02
#       8
#     8   8   8   8   8   8   8   8
#     4  10  22  40  58  86 131 177 230 277 326 388
#     4  12  21  38  58  88 130 172 221 272 315 395
#     4  10  19  35  57  84 121 160 212 274 322 378
#     4  11  24  48  74 104 138 171 217 274 346 422
#     4  11  21  38  68  99 129 167 217 268 329 396
#     4   9  20  34  51  81 122 175 227 274 323 373
#     4  11  23  41  63  90 126 167 218 260 335 402
#     4   9  16  27  45  74 112 155 208 264 326 373
#
# _framework density 22.914719999999999
#
# number of rings (size 3 to 8) (size 9 to 14) (size 15 to 20)
#    0.000    1.625    3.750    3.375    0.000    6.750 
#    0.000    1.250    0.000    1.500    0.000    0.000 
#    0.000    0.000    0.000    0.000    0.000    0.000 
#
# Total GULP energy -356567.268587 kJ/mol
# GULP energy per Si atom -5571.363572 kJ/mol
# Density = 2.286257 g / cm^3
# Si number density = 22.914720 Si / 1000 Ang^3
#
#
#
# Elastic Constant Matrix: (Units=GPa)
#
#
# Indices 1 2 3 4 5 6 
#
# 1 40.7857 10.0304 11.0478 0.0000 0.0000 0.0000
# 2 10.0304 43.5052 16.3032 0.0000 0.0000 0.0000
# 3 11.0478 16.3032 106.3523 0.0000 0.0000 0.0000
# 4 0.0000 0.0000 0.0000 35.1087 0.0000 0.0000
# 5 0.0000 0.0000 0.0000 0.0000 14.3869 0.0000
# 6 0.0000 0.0000 0.0000 0.0000 0.0000 22.7798
#
#
#
# Elastic Compliance Matrix: (Units=1/GPa)
#
#
# Indices 1 2 3 4 5 6 
#
# 1 0.026355 -0.005358 -0.001916 0.000000 0.000000 0.000000
# 2 -0.005358 0.025476 -0.003349 0.000000 0.000000 0.000000
# 3 -0.001916 -0.003349 0.010115 0.000000 0.000000 0.000000
# 4 0.000000 0.000000 0.000000 0.028483 0.000000 0.000000
# 5 0.000000 0.000000 0.000000 0.000000 0.069508 0.000000
# 6 0.000000 0.000000 0.000000 0.000000 0.000000 0.043899
#
#
# Mechanical properties :
#
#
# Convention : Reuss Voigt Hill
#
# Bulk Modulus (GPa) = 24.57016 29.48953 27.02984
# Shear Modulus (GPa) = 20.95130 24.67254 22.81192
#
# Velocity S-wave (km/s) = 3.02705 3.28489 3.15860
# Velocity P-wave (km/s) = 4.79198 5.22346 5.01236
#
# Compressibility (1/GPa) = 0.04069978
#
# Stress axis : x y z
#
# Youngs Moduli (GPa) = 37.94315 39.25257 98.86186
#
# Poissons Ratio (x) = 0.21032 0.18946
# Poissons Ratio (y) = 0.20331 0.33106
# Poissons Ratio (z) = 0.07271 0.13145
#
# Static dielectric constant tensor:
#      x y z
#    x 1.864520 0.000000 0.000000 
#    y 0.000000 1.954240 0.000000 
#    z 0.000000 0.000000 1.921510 
# 
# From -- ./inp_files/17148.got.cif
#   From: 2010.05.17/outbox.cif.g08.bks.cpg/sg53_9_cif.got.tgz:17148.got - 2010.06.03 12:45:16.
