data_PCOD9416327
_publ_section_title
;
Structure prediction by ZEFSAII (Michael W. Deem and Ramdas Pophale) SiO2 
 PCOD9416327
Probable space group: P M N A
;
_chemical_formula_sum "Si O2"
_cell_formula_units_Z 40
_cell_length_a 8.168056
_cell_length_b 7.485766
_cell_length_c 29.542111
_cell_angle_alpha 90.000000
_cell_angle_beta 90.000000
_cell_angle_gamma 90.000000
_cell_volume 1806.327440
_symmetry_space_group_name_H-M "P M N A"
_symmetry_group_IT_number 53
_symmetry_cell_setting 'orthorhombic'
loop_
_space_group_symop_operation_xyz
x,y,z
1/2-x,-y,1/2+z
x,-y,-z
1/2-x,y,1/2-z
-x,-y,-z
1/2+x,y,1/2-z
-x,y,z
1/2+x,-y,1/2+z
loop_
_atom_site_type_symbol
_atom_site_label
_atom_site_fract_x
_atom_site_fract_y
_atom_site_fract_z
Si Si1 0.816737 0.738602 0.602131
Si Si2 0.500000 0.702700 0.444252
Si Si3 0.688347 0.743424 0.298800
Si Si4 0.194227 0.855106 0.703356
Si Si5 0.676782 0.321342 0.894689
Si Si6 0.500000 0.734580 0.549045
O O1 0.778574 0.759274 0.655584
O O2 0.827901 0.528374 0.591584
O O3 0.664180 0.806213 0.572972
O O4 0.000000 0.814015 0.594245
O O5 0.664113 0.760169 0.418212
O O6 0.500000 0.766682 0.495676
O O7 0.500000 0.483581 0.444861
O O8 0.750000 0.680297 0.250000
O O9 0.500000 0.693056 0.305904
O O10 0.795740 0.681745 0.340894
O O11 0.708377 0.958391 0.298424
O O12 0.250000 0.762132 0.750000
O O13 0.000000 0.892594 0.706587
O O14 0.500000 0.239959 0.905606
#
# Coordination Sequence:
#
# PCOD9416327 Si02
#       6
#     8   4   8   8   8   4
#     4   9  20  34  53  80 107 138 175 217 266 313
#     4   9  18  34  51  85 103 143 177 217 266 323
#     4  11  21  34  52  77 105 141 182 214 260 316
#     4  10  20  34  51  76 105 139 180 214 259 316
#     4  10  19  35  54  78 110 138 173 221 264 309
#     4   9  18  32  57  75 113 137 177 219 268 313
#
# _framework density 22.144379000000001
#
# number of rings (size 3 to 8) (size 9 to 14) (size 15 to 20)
#    0.000    2.200    1.000    3.600    2.800    1.600 
#    0.000    6.000    0.000    2.400    0.000    4.200 
#    0.000    0.000    0.000    0.000    0.000    0.000 
#
# Total GULP energy -223382.975940 kJ/mol
# GULP energy per Si atom -5584.574399 kJ/mol
# Density = 2.209398 g / cm^3
# Si number density = 22.144379 Si / 1000 Ang^3
#
#
#
# Elastic Constant Matrix: (Units=GPa)
#
#
# Indices 1 2 3 4 5 6 
#
# 1 189.5481 -0.0128 91.2939 0.0000 0.0000 0.0000
# 2 -0.0128 47.7726 -13.8405 0.0000 0.0000 0.0000
# 3 91.2939 -13.8405 127.7639 0.0000 0.0000 0.0000
# 4 0.0000 0.0000 0.0000 34.5679 0.0000 0.0000
# 5 0.0000 0.0000 0.0000 0.0000 30.3695 0.0000
# 6 0.0000 0.0000 0.0000 0.0000 0.0000 -21.8903
#
#
#
# Elastic Compliance Matrix: (Units=1/GPa)
#
#
# Indices 1 2 3 4 5 6 
#
# 1 0.008183 -0.001747 -0.006036 0.000000 0.000000 0.000000
# 2 -0.001747 0.021984 0.003630 0.000000 0.000000 0.000000
# 3 -0.006036 0.003630 0.012533 0.000000 0.000000 0.000000
# 4 0.000000 0.000000 0.000000 0.028929 0.000000 0.000000
# 5 0.000000 0.000000 0.000000 0.000000 0.032928 0.000000
# 6 0.000000 0.000000 0.000000 0.000000 0.000000 -0.045682
#
#
# Mechanical properties :
#
#
# Convention : Reuss Voigt Hill
#
# Bulk Modulus (GPa) = 29.07572 57.77399 43.42485
# Shear Modulus (GPa) = 63.57685 27.78571 45.68128
#
# Velocity S-wave (km/s) = 5.36400 3.54609 4.54683
# Velocity P-wave (km/s) = 7.17787 6.55078 6.87148
#
# Compressibility (1/GPa) = 0.03439296
#
# Stress axis : x y z
#
# Youngs Moduli (GPa) = 122.20573 45.48852 79.78693
#
# Poissons Ratio (x) = 0.07945 0.48162
# Poissons Ratio (y) = 0.21345 -0.28959
# Poissons Ratio (z) = 0.73767 -0.16510
#
# Static dielectric constant tensor:
#      x y z
#    x 1.823930 0.000000 0.000000 
#    y 0.000000 1.851090 0.000000 
#    z 0.000000 0.000000 1.783140 
# 
# From -- ./inp_files/36061.got.cif
#   From: 2010.05.17/outbox.cif.g08.bks.cpg/sg53_19_cif.got.tgz:36061.got - 2010.06.03 12:45:16.
