data_PCOD9416051
_publ_section_title
;
Structure prediction by ZEFSAII (Michael W. Deem and Ramdas Pophale) SiO2 
 PCOD9416051
Probable space group: P M N A
;
_chemical_formula_sum "Si O2"
_cell_formula_units_Z 64
_cell_length_a 8.714254
_cell_length_b 22.163189
_cell_length_c 18.006883
_cell_angle_alpha 90.000000
_cell_angle_beta 90.000000
_cell_angle_gamma 90.000000
_cell_volume 3477.771204
_symmetry_space_group_name_H-M "P M N A"
_symmetry_group_IT_number 53
_symmetry_cell_setting 'orthorhombic'
loop_
_space_group_symop_operation_xyz
x,y,z
1/2-x,-y,1/2+z
x,-y,-z
1/2-x,y,1/2-z
-x,-y,-z
1/2+x,y,1/2-z
-x,y,z
1/2+x,-y,1/2+z
loop_
_atom_site_type_symbol
_atom_site_label
_atom_site_fract_x
_atom_site_fract_y
_atom_site_fract_z
Si Si1 0.315320 0.119173 0.102514
Si Si2 0.184790 0.308775 0.949706
Si Si3 0.183785 0.372797 0.172902
Si Si4 0.684695 0.102822 0.929547
Si Si5 0.313555 0.566647 0.519067
Si Si6 0.318231 0.999219 0.670666
Si Si7 0.684297 0.779649 0.167327
Si Si8 0.684421 0.255970 0.102001
O O1 0.500000 0.112656 0.108435
O O2 0.236853 0.068005 0.151064
O O3 0.274364 0.187697 0.123126
O O4 0.273259 0.110143 0.015754
O O5 0.251281 0.278332 0.876255
O O6 0.000000 0.305407 0.949742
O O7 0.230901 0.378516 0.964362
O O8 0.248697 0.272044 0.020768
O O9 0.250000 0.395973 0.250000
O O10 0.230468 0.412712 0.101880
O O11 0.249244 0.306189 0.156766
O O12 0.000000 0.370185 0.175393
O O13 0.500000 0.097603 0.926295
O O14 0.728837 0.161662 0.881600
O O15 0.757004 0.044153 0.892441
O O16 0.256451 0.500000 0.500000
O O17 0.500000 0.564910 0.517459
O O18 0.250000 0.018059 0.750000
O O19 0.500000 0.001891 0.674093
O O20 0.750000 0.784249 0.250000
O O21 0.500000 0.777092 0.169704
O O22 0.500000 0.260125 0.098486
#
# Coordination Sequence:
#
# PCOD9416051 Si02
#       8
#     8   8   8   8   8   8   8   8
#     4  10  21  39  61  84 110 145 182 226 281 337
#     4  10  19  33  56  84 114 147 183 227 276 331
#     4  10  20  34  55  84 115 151 190 235 286 334
#     4  10  21  40  62  83 109 144 184 228 282 339
#     4   8  16  33  57  83 112 150 193 232 276 331
#     4  12  26  41  57  80 109 146 186 233 284 334
#     4  11  22  37  57  84 114 149 188 232 285 335
#     4  10  19  35  58  83 111 146 184 226 277 333
#
# _framework density 18.402588999999999
#
# number of rings (size 3 to 8) (size 9 to 14) (size 15 to 20)
#    0.000    1.875    1.250    4.125    0.000    5.500 
#    0.000    0.625    0.000   15.000    0.000    0.000 
#    0.000    0.000    0.000    0.000    0.000    0.000 
#
# Total GULP energy -357478.037262 kJ/mol
# GULP energy per Si atom -5585.594332 kJ/mol
# Density = 1.836070 g / cm^3
# Si number density = 18.402589 Si / 1000 Ang^3
#
#
#
# Elastic Constant Matrix: (Units=GPa)
#
#
# Indices 1 2 3 4 5 6 
#
# 1 37.7842 22.2153 13.3384 0.0000 0.0000 0.0000
# 2 22.2153 104.0463 6.1822 0.0000 0.0000 0.0000
# 3 13.3384 6.1822 44.6866 0.0000 0.0000 0.0000
# 4 0.0000 0.0000 0.0000 14.1832 0.0000 0.0000
# 5 0.0000 0.0000 0.0000 0.0000 27.7831 0.0000
# 6 0.0000 0.0000 0.0000 0.0000 0.0000 32.9755
#
#
#
# Elastic Compliance Matrix: (Units=1/GPa)
#
#
# Indices 1 2 3 4 5 6 
#
# 1 0.033578 -0.006628 -0.009106 0.000000 0.000000 0.000000
# 2 -0.006628 0.010999 0.000457 0.000000 0.000000 0.000000
# 3 -0.009106 0.000457 0.025033 0.000000 0.000000 0.000000
# 4 0.000000 0.000000 0.000000 0.070506 0.000000 0.000000
# 5 0.000000 0.000000 0.000000 0.000000 0.035993 0.000000
# 6 0.000000 0.000000 0.000000 0.000000 0.000000 0.030326
#
#
# Mechanical properties :
#
#
# Convention : Reuss Voigt Hill
#
# Bulk Modulus (GPa) = 25.60456 29.99878 27.80167
# Shear Modulus (GPa) = 19.99948 24.64044 22.31996
#
# Velocity S-wave (km/s) = 3.30020 3.66316 3.48641
# Velocity P-wave (km/s) = 5.33531 5.85051 5.59884
#
# Compressibility (1/GPa) = 0.03905555
#
# Stress axis : x y z
#
# Youngs Moduli (GPa) = 29.78175 90.91579 39.94765
#
# Poissons Ratio (x) = 0.60261 0.36374
# Poissons Ratio (y) = 0.19740 -0.01825
# Poissons Ratio (z) = 0.27118 -0.04153
#
# Static dielectric constant tensor:
#      x y z
#    x 1.617980 0.000000 0.000000 
#    y 0.000000 1.632220 0.000000 
#    z 0.000000 0.000000 1.622490 
# 
# From -- ./inp_files/26986.got.cif
#   From: 2010.05.17/outbox.cif.g08.bks.cpg/sg53_14_cif.got.tgz:26986.got - 2010.06.03 12:45:16.
