data_PCOD9416161
_publ_section_title
;
Structure prediction by ZEFSAII (Michael W. Deem and Ramdas Pophale) SiO2 
 PCOD9416161
Probable space group: P M N A
;
_chemical_formula_sum "Si O2"
_cell_formula_units_Z 56
_cell_length_a 8.536797
_cell_length_b 15.831451
_cell_length_c 23.380815
_cell_angle_alpha 90.000000
_cell_angle_beta 90.000000
_cell_angle_gamma 90.000000
_cell_volume 3159.914421
_symmetry_space_group_name_H-M "P M N A"
_symmetry_group_IT_number 53
_symmetry_cell_setting 'orthorhombic'
loop_
_space_group_symop_operation_xyz
x,y,z
1/2-x,-y,1/2+z
x,-y,-z
1/2-x,y,1/2-z
-x,-y,-z
1/2+x,y,1/2-z
-x,y,z
1/2+x,-y,1/2+z
loop_
_atom_site_type_symbol
_atom_site_label
_atom_site_fract_x
_atom_site_fract_y
_atom_site_fract_z
Si Si1 0.188255 0.989131 0.685279
Si Si2 0.814476 0.491960 0.312640
Si Si3 0.688950 0.803019 0.815295
Si Si4 0.815274 0.656368 0.132208
Si Si5 0.311139 0.174089 0.815360
Si Si6 0.185712 0.652518 0.893508
Si Si7 0.813604 0.597952 0.488359
O O1 0.250000 0.989503 0.750000
O O2 0.235486 0.897041 0.662332
O O3 0.000000 0.989075 0.686256
O O4 0.235815 0.080692 0.661303
O O5 0.750000 0.471171 0.250000
O O6 0.772871 0.588014 0.328325
O O7 0.734203 0.431612 0.359017
O O8 0.000000 0.478928 0.314738
O O9 0.750000 0.794084 0.750000
O O10 0.500000 0.796550 0.814471
O O11 0.758788 0.730895 0.855175
O O12 0.759089 0.749616 0.148598
O O13 0.772965 0.632974 0.067207
O O14 0.000000 0.648118 0.141944
O O15 0.250000 0.180784 0.750000
O O16 0.500000 0.179847 0.814870
O O17 0.000000 0.654298 0.901378
O O18 0.269424 0.648891 0.954769
O O19 0.770429 0.500000 0.500000
O O20 0.000000 0.600799 0.477973
#
# Coordination Sequence:
#
# PCOD9416161 Si02
#       7
#     8   8   8   8   8   8   8
#     4   8  16  30  52  79 110 147 184 224 270 324
#     4  12  24  39  56  79 110 146 182 224 274 326
#     4  10  19  34  55  83 116 149 186 227 275 329
#     4  12  24  38  57  82 111 145 183 227 275 327
#     4  10  19  34  55  83 116 149 186 227 275 329
#     4  12  24  38  57  82 111 145 183 227 275 327
#     4  11  23  41  63  82 104 141 188 232 275 323
#
# _framework density 17.722000000000001
#
# number of rings (size 3 to 8) (size 9 to 14) (size 15 to 20)
#    0.000    1.286    1.429    6.000    0.000    1.714 
#    0.000    0.000    0.000    0.857    0.000    6.000 
#    0.000    0.000    0.000    0.000    0.000    0.000 
#
# Total GULP energy -312776.958140 kJ/mol
# GULP energy per Si atom -5585.302824 kJ/mol
# Density = 1.768166 g / cm^3
# Si number density = 17.722000 Si / 1000 Ang^3
#
#
#
# Elastic Constant Matrix: (Units=GPa)
#
#
# Indices 1 2 3 4 5 6 
#
# 1 37.6691 6.5893 -4.4046 0.0000 0.0000 0.0000
# 2 6.5893 105.7489 4.6385 0.0000 0.0000 0.0000
# 3 -4.4046 4.6385 48.4560 0.0000 0.0000 0.0000
# 4 0.0000 0.0000 0.0000 5.9562 0.0000 0.0000
# 5 0.0000 0.0000 0.0000 0.0000 26.3292 0.0000
# 6 0.0000 0.0000 0.0000 0.0000 0.0000 16.3372
#
#
#
# Elastic Compliance Matrix: (Units=1/GPa)
#
#
# Indices 1 2 3 4 5 6 
#
# 1 0.027172 -0.001809 0.002643 0.000000 0.000000 0.000000
# 2 -0.001809 0.009617 -0.001085 0.000000 0.000000 0.000000
# 3 0.002643 -0.001085 0.020981 0.000000 0.000000 0.000000
# 4 0.000000 0.000000 0.000000 0.167893 0.000000 0.000000
# 5 0.000000 0.000000 0.000000 0.000000 0.037981 0.000000
# 6 0.000000 0.000000 0.000000 0.000000 0.000000 0.061210
#
#
# Mechanical properties :
#
#
# Convention : Reuss Voigt Hill
#
# Bulk Modulus (GPa) = 17.46159 22.83561 20.14860
# Shear Modulus (GPa) = 14.51610 22.06124 18.28867
#
# Velocity S-wave (km/s) = 2.86510 3.53207 3.21592
# Velocity P-wave (km/s) = 4.56284 5.43576 5.01831
#
# Compressibility (1/GPa) = 0.05726856
#
# Stress axis : x y z
#
# Youngs Moduli (GPa) = 36.80196 103.98599 47.66132
#
# Poissons Ratio (x) = 0.18812 -0.12597
# Poissons Ratio (y) = 0.06658 0.05171
# Poissons Ratio (z) = -0.09727 0.11282
#
# Static dielectric constant tensor:
#      x y z
#    x 1.590200 0.000000 0.000000 
#    y 0.000000 1.634790 0.000000 
#    z 0.000000 0.000000 1.566180 
# 
# From -- ./inp_files/30806.got.cif
#   From: 2010.05.17/outbox.cif.g08.bks.cpg/sg53_16_cif.got.tgz:30806.got - 2010.06.03 12:45:16.
