data_PCOD9416810
_publ_section_title
;
Structure prediction by ZEFSAII (Michael W. Deem and Ramdas Pophale) SiO2 
 PCOD9416810
Probable space group: P M N A
;
_chemical_formula_sum "Si O2"
_cell_formula_units_Z 32
_cell_length_a 8.600765
_cell_length_b 21.755520
_cell_length_c 9.359017
_cell_angle_alpha 90.000000
_cell_angle_beta 90.000000
_cell_angle_gamma 90.000000
_cell_volume 1751.204183
_symmetry_space_group_name_H-M "P M N A"
_symmetry_group_IT_number 53
_symmetry_cell_setting 'orthorhombic'
loop_
_space_group_symop_operation_xyz
x,y,z
1/2-x,-y,1/2+z
x,-y,-z
1/2-x,y,1/2-z
-x,-y,-z
1/2+x,y,1/2-z
-x,y,z
1/2+x,-y,1/2+z
loop_
_atom_site_type_symbol
_atom_site_label
_atom_site_fract_x
_atom_site_fract_y
_atom_site_fract_z
Si Si1 0.813710 0.186697 0.587700
Si Si2 0.313791 0.940332 0.411176
Si Si3 0.812010 0.440191 0.410019
Si Si4 0.812318 0.678045 0.411389
O O1 0.750000 0.187561 0.750000
O O2 0.745714 0.124159 0.523276
O O3 0.768849 0.254087 0.529846
O O4 0.000000 0.182108 0.589852
O O5 0.250000 0.945047 0.250000
O O6 0.500000 0.938430 0.405607
O O7 0.264237 0.000000 0.500000
O O8 0.762853 0.500000 0.500000
O O9 0.750000 0.443023 0.250000
O O10 0.759518 0.378217 0.490604
O O11 0.000000 0.439761 0.406089
O O12 0.750000 0.671464 0.250000
O O13 0.000000 0.676433 0.403758
#
# Coordination Sequence:
#
# PCOD9416810 Si02
#       4
#     8   8   8   8
#     4   9  16  28  48  71  97 128 162 201 244 291
#     4  10  20  33  50  73  99 128 165 205 245 293
#     4  10  21  36  53  75 103 133 167 205 244 290
#     4   9  18  32  51  76 101 127 163 204 245 292
#
# _framework density 18.273140999999999
#
# number of rings (size 3 to 8) (size 9 to 14) (size 15 to 20)
#    0.000    2.500    0.000    3.750    0.000    4.500 
#    0.000    1.250    0.000    6.000    0.000    0.000 
#    0.000    0.000    0.000    0.000    0.000    0.000 
#
# Total GULP energy -178381.359658 kJ/mol
# GULP energy per Si atom -5574.417489 kJ/mol
# Density = 1.823155 g / cm^3
# Si number density = 18.273141 Si / 1000 Ang^3
#
#
#
# Elastic Constant Matrix: (Units=GPa)
#
#
# Indices 1 2 3 4 5 6 
#
# 1 24.6418 40.1744 15.2491 0.0000 0.0000 0.0000
# 2 40.1744 236.2270 85.3913 0.0000 0.0000 0.0000
# 3 15.2491 85.3913 80.5390 0.0000 0.0000 0.0000
# 4 0.0000 0.0000 0.0000 34.4121 0.0000 0.0000
# 5 0.0000 0.0000 0.0000 0.0000 19.2040 0.0000
# 6 0.0000 0.0000 0.0000 0.0000 0.0000 130.9265
#
#
#
# Elastic Compliance Matrix: (Units=1/GPa)
#
#
# Indices 1 2 3 4 5 6 
#
# 1 0.056183 -0.009258 -0.000822 0.000000 0.000000 0.000000
# 2 -0.009258 0.008389 -0.007142 0.000000 0.000000 0.000000
# 3 -0.000822 -0.007142 0.020144 0.000000 0.000000 0.000000
# 4 0.000000 0.000000 0.000000 0.029060 0.000000 0.000000
# 5 0.000000 0.000000 0.000000 0.000000 0.052072 0.000000
# 6 0.000000 0.000000 0.000000 0.000000 0.000000 0.007638
#
#
# Mechanical properties :
#
#
# Convention : Reuss Voigt Hill
#
# Bulk Modulus (GPa) = 19.89127 69.22638 44.55883
# Shear Modulus (GPa) = 22.25307 50.28139 36.26723
#
# Velocity S-wave (km/s) = 3.49349 5.25131 4.45986
# Velocity P-wave (km/s) = 5.21361 8.64493 7.13851
#
# Compressibility (1/GPa) = 0.05027330
#
# Stress axis : x y z
#
# Youngs Moduli (GPa) = 17.79885 119.19928 49.64205
#
# Poissons Ratio (x) = 1.10352 0.04081
# Poissons Ratio (y) = 0.16478 0.35454
# Poissons Ratio (z) = 0.01463 0.85131
#
# Static dielectric constant tensor:
#      x y z
#    x 1.617930 0.000000 0.000000 
#    y 0.000000 1.692940 0.000000 
#    z 0.000000 0.000000 1.591890 
# 
# From -- ./inp_files/6016.got.cif
#   From: 2010.05.17/outbox.cif.g08.bks.cpg/sg53_4_cif.got.tgz:6016.got - 2010.06.03 12:45:16.
