data_PCOD9416564
_publ_section_title
;
Structure prediction by ZEFSAII (Michael W. Deem and Ramdas Pophale) SiO2 
 PCOD9416564
Probable space group: P M N A
;
_chemical_formula_sum "Si O2"
_cell_formula_units_Z 64
_cell_length_a 19.115159
_cell_length_b 11.790480
_cell_length_c 14.090394
_cell_angle_alpha 90.000000
_cell_angle_beta 90.000000
_cell_angle_gamma 90.000000
_cell_volume 3175.649318
_symmetry_space_group_name_H-M "P M N A"
_symmetry_group_IT_number 53
_symmetry_cell_setting 'orthorhombic'
loop_
_space_group_symop_operation_xyz
x,y,z
1/2-x,-y,1/2+z
x,-y,-z
1/2-x,y,1/2-z
-x,-y,-z
1/2+x,y,1/2-z
-x,y,z
1/2+x,-y,1/2+z
loop_
_atom_site_type_symbol
_atom_site_label
_atom_site_fract_x
_atom_site_fract_y
_atom_site_fract_z
Si Si1 0.579819 0.953612 0.605748
Si Si2 0.673761 0.983571 0.772171
Si Si3 0.802526 0.119860 0.550479
Si Si4 0.918536 0.179709 0.404820
Si Si5 0.421569 0.578968 0.799388
Si Si6 0.283042 0.664441 0.480886
Si Si7 0.580184 0.317331 0.409368
Si Si8 0.222401 0.481232 0.351877
O O1 0.500000 0.976410 0.637545
O O2 0.635501 0.009881 0.674631
O O3 0.589333 0.817460 0.608911
O O4 0.586962 0.000000 0.500000
O O5 0.750000 0.931382 0.750000
O O6 0.622661 0.899614 0.829925
O O7 0.686129 0.090757 0.839885
O O8 0.873034 0.167161 0.500445
O O9 0.740730 0.207499 0.532782
O O10 0.786748 0.000000 0.500000
O O11 0.918182 0.305599 0.361252
O O12 0.000000 0.145730 0.416174
O O13 0.500000 0.532280 0.806618
O O14 0.409161 0.616737 0.689987
O O15 0.360074 0.500592 0.838381
O O16 0.362776 0.649742 0.512873
O O17 0.262417 0.591709 0.389223
O O18 0.238252 0.612418 0.568295
O O19 0.500000 0.335465 0.439656
O O20 0.250000 0.442630 0.250000
#
# Coordination Sequence:
#
# PCOD9416564 Si02
#       8
#     8   8   8   8   8   8   8   8
#     4  10  22  38  59  87 127 175 220 261 313 380
#     4  11  24  34  54  89 129 170 209 256 315 374
#     4  10  24  39  60  96 129 171 207 260 323 383
#     4  10  20  37  61  91 123 161 208 266 318 376
#     4  10  19  36  65  96 124 158 219 278 325 383
#     4  11  24  41  66  95 131 167 217 269 323 407
#     4  10  21  38  66  96 125 167 216 279 329 377
#     4  11  23  43  66  94 123 172 217 271 335 375
#
# _framework density 20.153358999999998
#
# number of rings (size 3 to 8) (size 9 to 14) (size 15 to 20)
#    0.000    1.625    3.750    0.375    5.250    3.750 
#    0.000    3.750    0.000    0.000    0.000    0.000 
#    0.000    0.000    0.000    0.000    0.000    0.000 
#
# Total GULP energy -357593.723215 kJ/mol
# GULP energy per Si atom -5587.401925 kJ/mol
# Density = 2.010749 g / cm^3
# Si number density = 20.153359 Si / 1000 Ang^3
#
#
#
# Elastic Constant Matrix: (Units=GPa)
#
#
# Indices 1 2 3 4 5 6 
#
# 1 154.6887 25.7393 44.5510 0.0000 0.0000 0.0000
# 2 25.7393 40.0071 6.3798 0.0000 0.0000 0.0000
# 3 44.5510 6.3798 58.5283 0.0000 0.0000 0.0000
# 4 0.0000 0.0000 0.0000 18.1253 0.0000 0.0000
# 5 0.0000 0.0000 0.0000 0.0000 35.1722 0.0000
# 6 0.0000 0.0000 0.0000 0.0000 0.0000 16.5308
#
#
#
# Elastic Compliance Matrix: (Units=1/GPa)
#
#
# Indices 1 2 3 4 5 6 
#
# 1 0.009117 -0.004843 -0.006412 0.000000 0.000000 0.000000
# 2 -0.004843 0.028010 0.000633 0.000000 0.000000 0.000000
# 3 -0.006412 0.000633 0.021897 0.000000 0.000000 0.000000
# 4 0.000000 0.000000 0.000000 0.055172 0.000000 0.000000
# 5 0.000000 0.000000 0.000000 0.000000 0.028432 0.000000
# 6 0.000000 0.000000 0.000000 0.000000 0.000000 0.060493
#
#
# Mechanical properties :
#
#
# Convention : Reuss Voigt Hill
#
# Bulk Modulus (GPa) = 26.46802 45.17381 35.82091
# Shear Modulus (GPa) = 21.10071 25.73591 23.41831
#
# Velocity S-wave (km/s) = 3.23926 3.57740 3.41252
# Velocity P-wave (km/s) = 5.21078 6.28708 5.77406
#
# Compressibility (1/GPa) = 0.03778145
#
# Stress axis : x y z
#
# Youngs Moduli (GPa) = 109.68360 35.70092 45.66754
#
# Poissons Ratio (x) = 0.17291 0.29282
# Poissons Ratio (y) = 0.53122 -0.02892
# Poissons Ratio (z) = 0.70328 -0.02261
#
# Static dielectric constant tensor:
#      x y z
#    x 1.736370 0.000000 0.000000 
#    y 0.000000 1.703530 0.000000 
#    z 0.000000 0.000000 1.717850 
# 
# From -- ./inp_files/23872.got.cif
#   From: 2010.05.17/outbox.cif.g08.bks.cpg/sg53_12_cif.got.tgz:23872.got - 2010.06.03 12:45:16.
