data_PCOD9416388
_publ_section_title
;
Structure prediction by ZEFSAII (Michael W. Deem and Ramdas Pophale) SiO2 
 PCOD9416388
Probable space group: P M N A
;
_chemical_formula_sum "Si O2"
_cell_formula_units_Z 56
_cell_length_a 14.141693
_cell_length_b 8.399855
_cell_length_c 18.429130
_cell_angle_alpha 90.000000
_cell_angle_beta 90.000000
_cell_angle_gamma 90.000000
_cell_volume 2189.162639
_symmetry_space_group_name_H-M "P M N A"
_symmetry_group_IT_number 53
_symmetry_cell_setting 'orthorhombic'
loop_
_space_group_symop_operation_xyz
x,y,z
1/2-x,-y,1/2+z
x,-y,-z
1/2-x,y,1/2-z
-x,-y,-z
1/2+x,y,1/2-z
-x,y,z
1/2+x,-y,1/2+z
loop_
_atom_site_type_symbol
_atom_site_label
_atom_site_fract_x
_atom_site_fract_y
_atom_site_fract_z
Si Si1 0.612072 0.929426 0.793829
Si Si2 0.607840 0.868834 0.064103
Si Si3 0.316713 0.571004 0.599993
Si Si4 0.306956 0.243743 0.526439
Si Si5 0.602497 0.585310 0.866110
Si Si6 0.358520 0.386253 0.732954
Si Si7 0.394085 0.939204 0.349514
O O1 0.500000 0.960647 0.783377
O O2 0.637583 0.050448 0.859140
O O3 0.653688 0.953127 0.713140
O O4 0.617796 0.752246 0.824339
O O5 0.500000 0.805586 0.070570
O O6 0.693726 0.759462 0.038021
O O7 0.603755 0.000000 0.000000
O O8 0.346538 0.406580 0.561478
O O9 0.339123 0.731515 0.556536
O O10 0.202747 0.564242 0.596267
O O11 0.355532 0.540709 0.680099
O O12 0.342880 0.099220 0.575167
O O13 0.500000 0.596611 0.904393
O O14 0.597930 0.442652 0.807913
O O15 0.250000 0.346579 0.750000
O O16 0.398138 0.232024 0.693187
O O17 0.500000 0.993251 0.366345
#
# Coordination Sequence:
#
# PCOD9416388 Si02
#       7
#     8   8   8   8   8   8   8
#     4   9  20  35  54  82 114 147 191 239 284 347
#     4  10  21  37  56  83 119 153 190 236 289 358
#     4   9  20  37  54  81 118 147 193 247 284 352
#     4  10  21  38  58  82 116 157 198 240 293 348
#     4  10  19  35  58  83 116 151 184 236 301 350
#     4   9  19  35  55  83 115 149 194 245 294 350
#     4  10  21  38  59  85 116 152 203 250 289 344
#
# _framework density 25.580556999999999
#
# number of rings (size 3 to 8) (size 9 to 14) (size 15 to 20)
#    0.000    2.429    0.000    1.286    6.000    2.286 
#   10.286    7.857    0.000    0.429    0.000    0.000 
#    0.000    0.000    0.000    0.000    0.000    0.000 
#
# Total GULP energy -312693.178791 kJ/mol
# GULP energy per Si atom -5583.806764 kJ/mol
# Density = 2.552233 g / cm^3
# Si number density = 25.580557 Si / 1000 Ang^3
#
#
#
# Elastic Constant Matrix: (Units=GPa)
#
#
# Indices 1 2 3 4 5 6 
#
# 1 51.1365 -10.5114 -0.4184 0.0000 0.0000 0.0000
# 2 -10.5114 81.6670 9.3423 0.0000 0.0000 0.0000
# 3 -0.4184 9.3423 73.0218 0.0000 0.0000 0.0000
# 4 0.0000 0.0000 0.0000 41.1326 0.0000 0.0000
# 5 0.0000 0.0000 0.0000 0.0000 92.4785 0.0000
# 6 0.0000 0.0000 0.0000 0.0000 0.0000 4.3184
#
#
#
# Elastic Compliance Matrix: (Units=1/GPa)
#
#
# Indices 1 2 3 4 5 6 
#
# 1 0.020090 0.002611 -0.000219 0.000000 0.000000 0.000000
# 2 0.002611 0.012766 -0.001618 0.000000 0.000000 0.000000
# 3 -0.000219 -0.001618 0.013900 0.000000 0.000000 0.000000
# 4 0.000000 0.000000 0.000000 0.024312 0.000000 0.000000
# 5 0.000000 0.000000 0.000000 0.000000 0.010813 0.000000
# 6 0.000000 0.000000 0.000000 0.000000 0.000000 0.231565
#
#
# Mechanical properties :
#
#
# Convention : Reuss Voigt Hill
#
# Bulk Modulus (GPa) = 20.70220 22.51670 21.60945
# Shear Modulus (GPa) = 15.24388 41.41344 28.32866
#
# Velocity S-wave (km/s) = 2.44379 4.02797 3.33142
# Velocity P-wave (km/s) = 4.00915 5.51853 4.82325
#
# Compressibility (1/GPa) = 0.04830405
#
# Stress axis : x y z
#
# Youngs Moduli (GPa) = 49.77506 78.33293 71.94073
#
# Poissons Ratio (x) = -0.20452 0.01575
# Poissons Ratio (y) = -0.12996 0.11642
# Poissons Ratio (z) = 0.01090 0.12677
#
# Static dielectric constant tensor:
#      x y z
#    x 2.054300 0.000000 0.000000 
#    y 0.000000 2.018830 0.000000 
#    z 0.000000 0.000000 2.125270 
# 
# From -- ./inp_files/32408.got.cif
#   From: 2010.05.17/outbox.cif.g08.bks.cpg/sg53_17_cif.got.tgz:32408.got - 2010.06.03 12:45:16.
