data_PCOD9416513
_publ_section_title
;
Structure prediction by ZEFSAII (Michael W. Deem and Ramdas Pophale) SiO2 
 PCOD9416513
Probable space group: P M N A
;
_chemical_formula_sum "Si O2"
_cell_formula_units_Z 52
_cell_length_a 18.202843
_cell_length_b 15.337868
_cell_length_c 8.983844
_cell_angle_alpha 90.000000
_cell_angle_beta 90.000000
_cell_angle_gamma 90.000000
_cell_volume 2508.224590
_symmetry_space_group_name_H-M "P M N A"
_symmetry_group_IT_number 53
_symmetry_cell_setting 'orthorhombic'
loop_
_space_group_symop_operation_xyz
x,y,z
1/2-x,-y,1/2+z
x,-y,-z
1/2-x,y,1/2-z
-x,-y,-z
1/2+x,y,1/2-z
-x,y,z
1/2+x,-y,1/2+z
loop_
_atom_site_type_symbol
_atom_site_label
_atom_site_fract_x
_atom_site_fract_y
_atom_site_fract_z
Si Si1 0.735109 0.114948 0.397525
Si Si2 0.417661 0.161218 0.807859
Si Si3 0.793149 0.414724 0.096130
Si Si4 0.689269 0.732917 0.025862
Si Si5 0.579001 0.119493 0.459404
Si Si6 0.585231 0.705824 0.738060
Si Si7 0.857505 0.000000 0.500000
O O1 0.750000 0.171249 0.250000
O O2 0.755551 0.183851 0.522968
O O3 0.654973 0.076706 0.411854
O O4 0.799455 0.044821 0.389172
O O5 0.500000 0.189465 0.846295
O O6 0.417554 0.133270 0.635851
O O7 0.362097 0.241185 0.835949
O O8 0.399442 0.077409 0.914372
O O9 0.750000 0.434957 0.250000
O O10 0.740377 0.350697 0.998573
O O11 0.866780 0.365508 0.149898
O O12 0.808324 0.500000 0.000000
O O13 0.630113 0.729643 0.888673
O O14 0.500000 0.079377 0.417147
O O15 0.582713 0.210198 0.369652
O O16 0.500000 0.681393 0.768735
#
# Coordination Sequence:
#
# PCOD9416513 Si02
#       7
#     8   8   8   8   8   8   4
#     4  11  20  38  57  83 114 150 198 237 288 348
#     4  10  22  40  59  85 119 153 195 243 296 344
#     4  10  21  37  57  87 120 150 192 238 289 347
#     4  10  19  37  61  84 110 156 198 236 281 352
#     4  10  21  37  59  86 116 147 191 248 292 336
#     4  10  19  36  60  86 116 152 197 240 288 347
#     4  10  25  34  59  82 118 156 194 244 291 348
#
# _framework density 20.731795999999999
#
# number of rings (size 3 to 8) (size 9 to 14) (size 15 to 20)
#    0.000    1.846    3.077    1.154    2.154    3.385 
#    0.000    1.154    0.000   11.538    0.000    0.000 
#    0.000    0.000    0.000    0.000    0.000    0.000 
#
# Total GULP energy -289826.865881 kJ/mol
# GULP energy per Si atom -5573.593575 kJ/mol
# Density = 2.068461 g / cm^3
# Si number density = 20.731796 Si / 1000 Ang^3
#
#
#
# Elastic Constant Matrix: (Units=GPa)
#
#
# Indices 1 2 3 4 5 6 
#
# 1 144.8526 19.8723 24.9501 0.0000 0.0000 0.0000
# 2 19.8723 65.5025 6.9374 0.0000 0.0000 0.0000
# 3 24.9501 6.9374 46.0292 0.0000 0.0000 0.0000
# 4 0.0000 0.0000 0.0000 25.5296 0.0000 0.0000
# 5 0.0000 0.0000 0.0000 0.0000 -211.6783 0.0000
# 6 0.0000 0.0000 0.0000 0.0000 0.0000 30.7639
#
#
#
# Elastic Compliance Matrix: (Units=1/GPa)
#
#
# Indices 1 2 3 4 5 6 
#
# 1 0.007855 -0.001964 -0.003962 0.000000 0.000000 0.000000
# 2 -0.001964 0.016005 -0.001348 0.000000 0.000000 0.000000
# 3 -0.003962 -0.001348 0.024076 0.000000 0.000000 0.000000
# 4 0.000000 0.000000 0.000000 0.039170 0.000000 0.000000
# 5 0.000000 0.000000 0.000000 0.000000 -0.004724 0.000000
# 6 0.000000 0.000000 0.000000 0.000000 0.000000 0.032506
#
#
# Mechanical properties :
#
#
# Convention : Reuss Voigt Hill
#
# Bulk Modulus (GPa) = 29.94950 39.98933 34.96942
# Shear Modulus (GPa) = 35.57069 -17.43533 9.06768
#
# Velocity S-wave (km/s) = 4.14666 -2.90314 2.09363
# Velocity P-wave (km/s) = 6.11588 2.84485 4.76954
#
# Compressibility (1/GPa) = 0.03338954
#
# Stress axis : x y z
#
# Youngs Moduli (GPa) = 127.30095 62.48019 41.53487
#
# Poissons Ratio (x) = 0.12268 0.16456
# Poissons Ratio (y) = 0.24996 0.05598
# Poissons Ratio (z) = 0.50438 0.08422
#
# Static dielectric constant tensor:
#      x y z
#    x 1.783830 0.000000 0.000000 
#    y 0.000000 1.742050 0.000000 
#    z 0.000000 0.000000 1.915150 
# 
# From -- ./inp_files/10129.got.cif
#   From: 2010.05.17/outbox.cif.g08.bks.cpg/sg53_6_cif.got.tgz:10129.got - 2010.06.03 12:45:16.
