data_PCOD9416701
_publ_section_title
;
Structure prediction by ZEFSAII (Michael W. Deem and Ramdas Pophale) SiO2 
 PCOD9416701
Probable space group: P M N A
;
_chemical_formula_sum "Si O2"
_cell_formula_units_Z 56
_cell_length_a 9.039514
_cell_length_b 21.086190
_cell_length_c 17.005464
_cell_angle_alpha 90.000000
_cell_angle_beta 90.000000
_cell_angle_gamma 90.000000
_cell_volume 3241.392952
_symmetry_space_group_name_H-M "P M N A"
_symmetry_group_IT_number 53
_symmetry_cell_setting 'orthorhombic'
loop_
_space_group_symop_operation_xyz
x,y,z
1/2-x,-y,1/2+z
x,-y,-z
1/2-x,y,1/2-z
-x,-y,-z
1/2+x,y,1/2-z
-x,y,z
1/2+x,-y,1/2+z
loop_
_atom_site_type_symbol
_atom_site_label
_atom_site_fract_x
_atom_site_fract_y
_atom_site_fract_z
Si Si1 0.676140 0.933678 0.166244
Si Si2 0.828804 0.406779 0.939911
Si Si3 0.823255 0.714460 0.499284
Si Si4 0.668498 0.041484 0.419522
Si Si5 0.671011 0.460916 0.381606
Si Si6 0.822175 0.848855 0.030221
Si Si7 0.324997 0.661940 0.828007
O O1 0.750000 0.920840 0.250000
O O2 0.500000 0.927861 0.169140
O O3 0.744538 0.885875 0.101791
O O4 0.723922 0.004314 0.138327
O O5 0.781119 0.465562 0.884811
O O6 0.000000 0.391105 0.921642
O O7 0.730311 0.344270 0.945381
O O8 0.828143 0.435842 0.028207
O O9 0.739858 0.778431 0.476433
O O10 0.785296 0.696310 0.589950
O O11 0.000000 0.721844 0.493833
O O12 0.500000 0.041500 0.388397
O O13 0.710407 0.110994 0.450508
O O14 0.666049 0.000000 0.500000
O O15 0.500000 0.457757 0.354664
O O16 0.771319 0.410794 0.336967
O O17 0.000000 0.850293 0.040542
O O18 0.250000 0.689317 0.750000
O O19 0.500000 0.664043 0.819615
#
# Coordination Sequence:
#
# PCOD9416701 Si02
#       7
#     8   8   8   8   8   8   8
#     4  11  21  34  55  81 108 135 167 208 252 299
#     4   8  14  26  45  68  92 120 154 194 241 292
#     4  10  20  32  48  73 102 134 173 213 253 302
#     4   8  16  32  52  75 102 131 165 204 247 293
#     4   8  14  26  45  67  90 117 153 196 242 292
#     4  10  20  35  55  77 104 138 173 209 251 301
#     4  10  20  32  47  68  96 130 169 213 260 309
#
# _framework density 17.276523999999998
#
# number of rings (size 3 to 8) (size 9 to 14) (size 15 to 20)
#    0.000    2.714    0.000    4.286    0.000    5.429 
#    0.000    3.571    0.000    2.571    0.000    2.000 
#    0.000    0.000    0.000    0.000    0.000    0.000 
#
# Total GULP energy -311994.747774 kJ/mol
# GULP energy per Si atom -5571.334782 kJ/mol
# Density = 1.723720 g / cm^3
# Si number density = 17.276524 Si / 1000 Ang^3
#
#
#
# Elastic Constant Matrix: (Units=GPa)
#
#
# Indices 1 2 3 4 5 6 
#
# 1 92.0702 56.7023 45.5980 0.0000 0.0000 0.0000
# 2 56.7023 116.8220 29.4179 0.0000 0.0000 0.0000
# 3 45.5980 29.4179 60.2545 0.0000 0.0000 0.0000
# 4 0.0000 0.0000 0.0000 11.4790 0.0000 0.0000
# 5 0.0000 0.0000 0.0000 0.0000 24.0142 0.0000
# 6 0.0000 0.0000 0.0000 0.0000 0.0000 12.9950
#
#
#
# Elastic Compliance Matrix: (Units=1/GPa)
#
#
# Indices 1 2 3 4 5 6 
#
# 1 0.021745 -0.007309 -0.012887 0.000000 0.000000 0.000000
# 2 -0.007309 0.012217 -0.000433 0.000000 0.000000 0.000000
# 3 -0.012887 -0.000433 0.026560 0.000000 0.000000 0.000000
# 4 0.000000 0.000000 0.000000 0.087116 0.000000 0.000000
# 5 0.000000 0.000000 0.000000 0.000000 0.041642 0.000000
# 6 0.000000 0.000000 0.000000 0.000000 0.000000 0.076953
#
#
# Mechanical properties :
#
#
# Convention : Reuss Voigt Hill
#
# Bulk Modulus (GPa) = 51.91352 59.17591 55.54471
# Shear Modulus (GPa) = 15.92796 18.85953 17.39374
#
# Velocity S-wave (km/s) = 3.03964 3.30756 3.17643
# Velocity P-wave (km/s) = 6.51407 6.99380 6.75819
#
# Compressibility (1/GPa) = 0.01926281
#
# Stress axis : x y z
#
# Youngs Moduli (GPa) = 45.98709 81.85395 37.65021
#
# Poissons Ratio (x) = 0.59830 0.48521
# Poissons Ratio (y) = 0.33613 0.01631
# Poissons Ratio (z) = 0.59265 0.03546
#
# Static dielectric constant tensor:
#      x y z
#    x 1.574030 0.000000 0.000000 
#    y 0.000000 1.597140 0.000000 
#    z 0.000000 0.000000 1.600090 
# 
# From -- ./inp_files/26699.got.cif
#   From: 2010.05.17/outbox.cif.g08.bks.cpg/sg53_14_cif.got.tgz:26699.got - 2010.06.03 12:45:16.
