data_PCOD9416121
_publ_section_title
;
Structure prediction by ZEFSAII (Michael W. Deem and Ramdas Pophale) SiO2 
 PCOD9416121
Probable space group: P M N A
;
_chemical_formula_sum "Si O2"
_cell_formula_units_Z 48
_cell_length_a 27.237119
_cell_length_b 16.009870
_cell_length_c 6.280514
_cell_angle_alpha 90.000000
_cell_angle_beta 90.000000
_cell_angle_gamma 90.000000
_cell_volume 2738.698108
_symmetry_space_group_name_H-M "P M N A"
_symmetry_group_IT_number 53
_symmetry_cell_setting 'orthorhombic'
loop_
_space_group_symop_operation_xyz
x,y,z
1/2-x,-y,1/2+z
x,-y,-z
1/2-x,y,1/2-z
-x,-y,-z
1/2+x,y,1/2-z
-x,y,z
1/2+x,-y,1/2+z
loop_
_atom_site_type_symbol
_atom_site_label
_atom_site_fract_x
_atom_site_fract_y
_atom_site_fract_z
Si Si1 0.444219 0.733389 0.838734
Si Si2 0.327282 0.000000 0.500000
Si Si3 0.369758 0.292652 0.784624
Si Si4 0.289432 0.247237 0.081414
Si Si5 0.250000 0.889426 0.250000
Si Si6 0.130261 0.830181 0.898079
Si Si7 0.056306 0.599247 0.018882
O O1 0.500000 0.747349 0.896176
O O2 0.423323 0.802631 0.678005
O O3 0.439987 0.646392 0.708077
O O4 0.410077 0.733060 0.042675
O O5 0.292742 0.950753 0.333009
O O6 0.360492 0.927740 0.597339
O O7 0.360317 0.216716 0.621402
O O8 0.398085 0.365419 0.656109
O O9 0.318835 0.306250 0.914232
O O10 0.250000 0.283607 0.250000
O O11 0.331151 0.208171 0.231658
O O12 0.265342 0.172154 0.943611
O O13 0.000000 0.618798 0.099272
O O14 0.059546 0.500000 0.000000
#
# Coordination Sequence:
#
# PCOD9416121 Si02
#       7
#     8   4   8   8   4   8   8
#     4   9  19  35  55  78 110 149 185 222 274 338
#     4  12  20  34  51  78 108 142 177 236 288 330
#     4  10  19  34  53  76 115 148 185 224 280 342
#     4  11  19  35  50  78 113 139 184 225 281 337
#     4  12  22  34  54  80 114 138 174 236 302 328
#     4  10  21  34  51  77 109 143 186 228 277 335
#     4   9  18  33  56  88 120 143 179 235 290 343
#
# _framework density 17.526575999999999
#
# number of rings (size 3 to 8) (size 9 to 14) (size 15 to 20)
#    0.000    1.833    3.333    1.500    0.000    1.333 
#    0.000    2.917    0.000    1.000    0.000    0.000 
#  340.000    0.000    0.000    0.000    0.000    0.000 
#
# Total GULP energy -267367.175666 kJ/mol
# GULP energy per Si atom -5570.149493 kJ/mol
# Density = 1.748668 g / cm^3
# Si number density = 17.526576 Si / 1000 Ang^3
#
#
#
# Elastic Constant Matrix: (Units=GPa)
#
#
# Indices 1 2 3 4 5 6 
#
# 1 80.6289 40.4260 40.1747 0.0000 0.0000 0.0000
# 2 40.4260 71.2938 22.0763 0.0000 0.0000 0.0000
# 3 40.1747 22.0763 84.3848 0.0000 0.0000 0.0000
# 4 0.0000 0.0000 0.0000 7.8607 0.0000 0.0000
# 5 0.0000 0.0000 0.0000 0.0000 35.9593 0.0000
# 6 0.0000 0.0000 0.0000 0.0000 0.0000 24.2311
#
#
#
# Elastic Compliance Matrix: (Units=1/GPa)
#
#
# Indices 1 2 3 4 5 6 
#
# 1 0.020902 -0.009544 -0.007454 0.000000 0.000000 0.000000
# 2 -0.009544 0.019621 -0.000589 0.000000 0.000000 0.000000
# 3 -0.007454 -0.000589 0.015554 0.000000 0.000000 0.000000
# 4 0.000000 0.000000 0.000000 0.127214 0.000000 0.000000
# 5 0.000000 0.000000 0.000000 0.000000 0.027809 0.000000
# 6 0.000000 0.000000 0.000000 0.000000 0.000000 0.041269
#
#
# Mechanical properties :
#
#
# Convention : Reuss Voigt Hill
#
# Bulk Modulus (GPa) = 47.84443 49.07351 48.45897
# Shear Modulus (GPa) = 16.97729 22.51894 19.74811
#
# Velocity S-wave (km/s) = 3.11571 3.58836 3.36036
# Velocity P-wave (km/s) = 6.34831 6.72523 6.53948
#
# Compressibility (1/GPa) = 0.02090108
#
# Stress axis : x y z
#
# Youngs Moduli (GPa) = 47.84257 50.96674 64.29385
#
# Poissons Ratio (x) = 0.48642 0.47927
# Poissons Ratio (y) = 0.45660 0.03789
# Poissons Ratio (z) = 0.35664 0.03004
#
# Static dielectric constant tensor:
#      x y z
#    x 1.638590 0.000000 0.000000 
#    y 0.000000 1.563300 0.000000 
#    z 0.000000 0.000000 1.640920 
# 
# From -- ./inp_files/4519.got.cif
#   From: 2010.05.17/outbox.cif.g08.bks.cpg/sg53_3_cif.got.tgz:4519.got - 2010.06.03 12:45:16.
