data_PCOD9416213
_publ_section_title
;
Structure prediction by ZEFSAII (Michael W. Deem and Ramdas Pophale) SiO2 
 PCOD9416213
Probable space group: P M N A
;
_chemical_formula_sum "Si O2"
_cell_formula_units_Z 52
_cell_length_a 13.109416
_cell_length_b 7.429338
_cell_length_c 24.302061
_cell_angle_alpha 90.000000
_cell_angle_beta 90.000000
_cell_angle_gamma 90.000000
_cell_volume 2366.881793
_symmetry_space_group_name_H-M "P M N A"
_symmetry_group_IT_number 53
_symmetry_cell_setting 'orthorhombic'
loop_
_space_group_symop_operation_xyz
x,y,z
1/2-x,-y,1/2+z
x,-y,-z
1/2-x,y,1/2-z
-x,-y,-z
1/2+x,y,1/2-z
-x,y,z
1/2+x,-y,1/2+z
loop_
_atom_site_type_symbol
_atom_site_label
_atom_site_fract_x
_atom_site_fract_y
_atom_site_fract_z
Si Si1 0.381797 0.490352 0.834783
Si Si2 0.226701 0.000000 0.500000
Si Si3 0.618010 0.418063 0.280743
Si Si4 0.786954 0.791057 0.193572
Si Si5 0.614013 0.351008 0.404301
Si Si6 0.175157 0.371482 0.451720
Si Si7 0.613404 0.931714 0.414672
O O1 0.500000 0.441502 0.824844
O O2 0.345904 0.611977 0.782059
O O3 0.308765 0.315565 0.833275
O O4 0.375077 0.589280 0.892865
O O5 0.168571 0.840052 0.532051
O O6 0.299326 0.887152 0.458330
O O7 0.500000 0.365034 0.280108
O O8 0.637384 0.632192 0.286518
O O9 0.651138 0.350088 0.340731
O O10 0.750000 0.885975 0.250000
O O11 0.845621 0.895718 0.146424
O O12 0.500000 0.433176 0.407418
O O13 0.706014 0.426622 0.440029
O O14 0.604642 0.145244 0.421554
O O15 0.135307 0.500000 0.500000
O O16 0.500000 0.854271 0.423415
#
# Coordination Sequence:
#
# PCOD9416213 Si02
#       7
#     8   4   8   8   8   8   8
#     4  10  21  37  59  83 112 152 197 248 295 336
#     4  10  23  38  57  90 122 154 201 244 285 356
#     4   9  17  33  59  88 113 138 182 236 294 365
#     4  10  19  34  56  89 114 150 191 239 297 359
#     4   9  19  35  57  88 118 146 184 234 295 367
#     4  11  22  39  59  83 117 160 205 242 290 344
#     4  10  20  37  57  83 122 155 182 234 302 355
#
# _framework density 21.969833999999999
#
# number of rings (size 3 to 8) (size 9 to 14) (size 15 to 20)
#    0.000    2.154    1.538    1.615    0.000    1.846 
#    5.538    0.385    0.000    5.538    0.000    0.000 
#    0.000    0.000    0.000    0.000    0.000    0.000 
#
# Total GULP energy -289678.379308 kJ/mol
# GULP energy per Si atom -5570.738064 kJ/mol
# Density = 2.191983 g / cm^3
# Si number density = 21.969834 Si / 1000 Ang^3
#
#
#
# Elastic Constant Matrix: (Units=GPa)
#
#
# Indices 1 2 3 4 5 6 
#
# 1 52.7049 5.4102 -0.5948 0.0000 0.0000 0.0000
# 2 5.4102 43.6522 20.6637 0.0000 0.0000 0.0000
# 3 -0.5948 20.6637 129.2437 0.0000 0.0000 0.0000
# 4 0.0000 0.0000 0.0000 31.5803 0.0000 0.0000
# 5 0.0000 0.0000 0.0000 0.0000 22.9411 0.0000
# 6 0.0000 0.0000 0.0000 0.0000 0.0000 10.2606
#
#
#
# Elastic Compliance Matrix: (Units=1/GPa)
#
#
# Indices 1 2 3 4 5 6 
#
# 1 0.019249 -0.002626 0.000509 0.000000 0.000000 0.000000
# 2 -0.002626 0.025142 -0.004032 0.000000 0.000000 0.000000
# 3 0.000509 -0.004032 0.008384 0.000000 0.000000 0.000000
# 4 0.000000 0.000000 0.000000 0.031665 0.000000 0.000000
# 5 0.000000 0.000000 0.000000 0.000000 0.043590 0.000000
# 6 0.000000 0.000000 0.000000 0.000000 0.000000 0.097460
#
#
# Mechanical properties :
#
#
# Convention : Reuss Voigt Hill
#
# Bulk Modulus (GPa) = 24.70594 30.72875 27.71735
# Shear Modulus (GPa) = 19.89789 26.29784 23.09787
#
# Velocity S-wave (km/s) = 3.01274 3.46352 3.24596
# Velocity P-wave (km/s) = 4.83445 5.47830 5.16641
#
# Compressibility (1/GPa) = 0.04047609
#
# Stress axis : x y z
#
# Youngs Moduli (GPa) = 51.95098 39.77334 119.27070
#
# Poissons Ratio (x) = 0.10446 -0.06065
# Poissons Ratio (y) = 0.13644 0.48089
# Poissons Ratio (z) = -0.02642 0.16036
#
# Static dielectric constant tensor:
#      x y z
#    x 1.914250 0.000000 0.000000 
#    y 0.000000 1.793500 0.000000 
#    z 0.000000 0.000000 1.858210 
# 
# From -- ./inp_files/32350.got.cif
#   From: 2010.05.17/outbox.cif.g08.bks.cpg/sg53_17_cif.got.tgz:32350.got - 2010.06.03 12:45:16.
