data_PCOD9416365
_publ_section_title
;
Structure prediction by ZEFSAII (Michael W. Deem and Ramdas Pophale) SiO2 
 PCOD9416365
Probable space group: P M N A
;
_chemical_formula_sum "Si O2"
_cell_formula_units_Z 48
_cell_length_a 8.551135
_cell_length_b 9.313800
_cell_length_c 31.672951
_cell_angle_alpha 90.000000
_cell_angle_beta 90.000000
_cell_angle_gamma 90.000000
_cell_volume 2522.546610
_symmetry_space_group_name_H-M "P M N A"
_symmetry_group_IT_number 53
_symmetry_cell_setting 'orthorhombic'
loop_
_space_group_symop_operation_xyz
x,y,z
1/2-x,-y,1/2+z
x,-y,-z
1/2-x,y,1/2-z
-x,-y,-z
1/2+x,y,1/2-z
-x,y,z
1/2+x,-y,1/2+z
loop_
_atom_site_type_symbol
_atom_site_label
_atom_site_fract_x
_atom_site_fract_y
_atom_site_fract_z
Si Si1 0.812084 0.081177 0.876123
Si Si2 0.686555 0.087951 0.204155
Si Si3 0.311980 0.589313 0.704364
Si Si4 0.810768 0.592161 0.958849
Si Si5 0.312641 0.084804 0.042261
Si Si6 0.309624 0.411404 0.622806
O O1 0.759335 0.246509 0.880458
O O2 0.000000 0.078136 0.874005
O O3 0.745304 0.011682 0.833572
O O4 0.757764 0.990770 0.916514
O O5 0.750000 0.041158 0.250000
O O6 0.500000 0.091518 0.205341
O O7 0.749670 0.249613 0.196959
O O8 0.250000 0.541603 0.750000
O O9 0.500000 0.594599 0.705410
O O10 0.261060 0.486021 0.666444
O O11 0.741664 0.750911 0.960164
O O12 0.759443 0.506671 0.917016
O O13 0.000000 0.603799 0.958016
O O14 0.767591 0.500000 0.000000
O O15 0.500000 0.079002 0.044994
O O16 0.262849 0.000000 0.000000
O O17 0.500000 0.411017 0.622353
#
# Coordination Sequence:
#
# PCOD9416365 Si02
#       6
#     8   8   8   8   8   8
#     4  11  22  39  61  85 115 152 193 238 288 341
#     4  11  22  38  59  86 117 152 194 237 286 342
#     4  10  19  35  57  82 112 148 190 235 284 337
#     4  10  20  37  62  88 112 145 191 237 284 341
#     4  11  24  40  58  85 120 155 192 236 287 342
#     4   9  20  36  56  83 113 144 184 235 286 337
#
# _framework density 19.028390999999999
#
# number of rings (size 3 to 8) (size 9 to 14) (size 15 to 20)
#    0.000    1.667    0.000    6.000    0.000    5.000 
#    0.000    7.500    0.000    0.000    0.000    0.000 
#    0.000    0.000    0.000    0.000    0.000    0.000 
#
# Total GULP energy -268327.876007 kJ/mol
# GULP energy per Si atom -5590.164083 kJ/mol
# Density = 1.898508 g / cm^3
# Si number density = 19.028391 Si / 1000 Ang^3
#
#
#
# Elastic Constant Matrix: (Units=GPa)
#
#
# Indices 1 2 3 4 5 6 
#
# 1 71.3091 44.4425 51.4563 0.0000 0.0000 0.0000
# 2 44.4425 163.7708 121.9749 0.0000 0.0000 0.0000
# 3 51.4563 121.9749 185.2109 0.0000 0.0000 0.0000
# 4 0.0000 0.0000 0.0000 41.9710 0.0000 0.0000
# 5 0.0000 0.0000 0.0000 0.0000 27.2219 0.0000
# 6 0.0000 0.0000 0.0000 0.0000 0.0000 81.0386
#
#
#
# Elastic Compliance Matrix: (Units=1/GPa)
#
#
# Indices 1 2 3 4 5 6 
#
# 1 0.017960 -0.002272 -0.003494 0.000000 0.000000 0.000000
# 2 -0.002272 0.012272 -0.007451 0.000000 0.000000 0.000000
# 3 -0.003494 -0.007451 0.011277 0.000000 0.000000 0.000000
# 4 0.000000 0.000000 0.000000 0.023826 0.000000 0.000000
# 5 0.000000 0.000000 0.000000 0.000000 0.036735 0.000000
# 6 0.000000 0.000000 0.000000 0.000000 0.000000 0.012340
#
#
# Mechanical properties :
#
#
# Convention : Reuss Voigt Hill
#
# Bulk Modulus (GPa) = 66.32865 95.11536 80.72200
# Shear Modulus (GPa) = 34.27761 43.54077 38.90919
#
# Velocity S-wave (km/s) = 4.24889 4.78870 4.52685
# Velocity P-wave (km/s) = 7.68141 8.98165 8.35686
#
# Compressibility (1/GPa) = 0.01507644
#
# Stress axis : x y z
#
# Youngs Moduli (GPa) = 55.67816 81.48741 88.67824
#
# Poissons Ratio (x) = 0.18513 0.30981
# Poissons Ratio (y) = 0.12649 0.66072
# Poissons Ratio (z) = 0.19452 0.60714
#
# Static dielectric constant tensor:
#      x y z
#    x 1.648450 0.000000 0.000000 
#    y 0.000000 1.627130 0.000000 
#    z 0.000000 0.000000 1.640660 
# 
# From -- ./inp_files/37756.got.cif
#   From: 2010.05.17/outbox.cif.g08.bks.cpg/sg53_19_cif.got.tgz:37756.got - 2010.06.03 12:45:16.
