data_PCOD9416871
_publ_section_title
;
Structure prediction by ZEFSAII (Michael W. Deem and Ramdas Pophale) SiO2 
 PCOD9416871
Probable space group: P M N A
;
_chemical_formula_sum "Si O2"
_cell_formula_units_Z 56
_cell_length_a 8.766227
_cell_length_b 20.487282
_cell_length_c 16.127727
_cell_angle_alpha 90.000000
_cell_angle_beta 90.000000
_cell_angle_gamma 90.000000
_cell_volume 2896.477913
_symmetry_space_group_name_H-M "P M N A"
_symmetry_group_IT_number 53
_symmetry_cell_setting 'orthorhombic'
loop_
_space_group_symop_operation_xyz
x,y,z
1/2-x,-y,1/2+z
x,-y,-z
1/2-x,y,1/2-z
-x,-y,-z
1/2+x,y,1/2-z
-x,y,z
1/2+x,-y,1/2+z
loop_
_atom_site_type_symbol
_atom_site_label
_atom_site_fract_x
_atom_site_fract_y
_atom_site_fract_z
Si Si1 0.685941 0.924339 0.509369
Si Si2 0.175658 0.127222 0.833755
Si Si3 0.820535 0.574454 0.998015
Si Si4 0.816308 0.172830 0.157754
Si Si5 0.326648 0.602262 0.168493
Si Si6 0.668024 0.250818 0.870442
Si Si7 0.678974 0.705399 0.937957
O O1 0.500000 0.921386 0.510985
O O2 0.740912 0.893496 0.422818
O O3 0.734380 0.882662 0.590237
O O4 0.729048 0.000000 0.500000
O O5 0.250000 0.100854 0.750000
O O6 0.201068 0.204781 0.836435
O O7 0.000000 0.109092 0.832370
O O8 0.786433 0.593796 0.092210
O O9 0.000000 0.573539 0.978900
O O10 0.760965 0.500000 0.000000
O O11 0.742970 0.631234 0.942809
O O12 0.750000 0.162326 0.250000
O O13 0.762888 0.243134 0.121576
O O14 0.000000 0.171686 0.161783
O O15 0.250000 0.573511 0.250000
O O16 0.500000 0.578202 0.152794
O O17 0.339069 0.680236 0.174669
O O18 0.500000 0.218802 0.860630
O O19 0.691904 0.266582 0.967929
O O20 0.500000 0.703260 0.917267
#
# Coordination Sequence:
#
# PCOD9416871 Si02
#       7
#     8   8   8   8   8   8   8
#     4   9  20  39  60  83 116 158 201 247 305 370
#     4  11  21  33  53  81 112 149 186 229 284 343
#     4  10  21  37  58  84 116 155 197 242 297 362
#     4  11  22  39  64  92 121 160 209 261 315 371
#     4  10  20  33  51  78 110 147 185 230 281 339
#     4   9  18  32  52  79 111 143 178 223 274 332
#     4  10  20  36  60  87 117 153 196 248 300 354
#
# _framework density 19.333825999999998
#
# number of rings (size 3 to 8) (size 9 to 14) (size 15 to 20)
#    0.000    2.000    1.429    3.429    0.000    5.714 
#    0.000    0.714    0.000    9.429    0.000    0.000 
#    0.000    0.000    0.000    0.000    0.000    0.000 
#
# Total GULP energy -311966.617185 kJ/mol
# GULP energy per Si atom -5570.832450 kJ/mol
# Density = 1.928982 g / cm^3
# Si number density = 19.333826 Si / 1000 Ang^3
#
#
#
# Elastic Constant Matrix: (Units=GPa)
#
#
# Indices 1 2 3 4 5 6 
#
# 1 45.1401 20.2805 36.7666 0.0000 0.0000 0.0000
# 2 20.2805 109.4648 47.5534 0.0000 0.0000 0.0000
# 3 36.7666 47.5534 119.2164 0.0000 0.0000 0.0000
# 4 0.0000 0.0000 0.0000 1.7260 0.0000 0.0000
# 5 0.0000 0.0000 0.0000 0.0000 10.0605 0.0000
# 6 0.0000 0.0000 0.0000 0.0000 0.0000 13.2383
#
#
#
# Elastic Compliance Matrix: (Units=1/GPa)
#
#
# Indices 1 2 3 4 5 6 
#
# 1 0.029893 -0.001855 -0.008479 0.000000 0.000000 0.000000
# 2 -0.001855 0.011165 -0.003882 0.000000 0.000000 0.000000
# 3 -0.008479 -0.003882 0.012551 0.000000 0.000000 0.000000
# 4 0.000000 0.000000 0.000000 0.579362 0.000000 0.000000
# 5 0.000000 0.000000 0.000000 0.000000 0.099399 0.000000
# 6 0.000000 0.000000 0.000000 0.000000 0.000000 0.075538
#
#
# Mechanical properties :
#
#
# Convention : Reuss Voigt Hill
#
# Bulk Modulus (GPa) = 39.71658 53.66913 46.69286
# Shear Modulus (GPa) = 5.91903 16.28636 11.10270
#
# Velocity S-wave (km/s) = 1.75161 2.90552 2.39898
# Velocity P-wave (km/s) = 4.96769 6.25104 5.64595
#
# Compressibility (1/GPa) = 0.02517840
#
# Stress axis : x y z
#
# Youngs Moduli (GPa) = 33.45286 89.56382 79.67227
#
# Poissons Ratio (x) = 0.16612 0.67556
# Poissons Ratio (y) = 0.06205 0.30926
# Poissons Ratio (z) = 0.28365 0.34765
#
# Static dielectric constant tensor:
#      x y z
#    x 1.693360 0.000000 0.000000 
#    y 0.000000 1.725180 0.000000 
#    z 0.000000 0.000000 1.710600 
# 
# From -- ./inp_files/20590.got.cif
#   From: 2010.05.17/outbox.cif.g08.bks.cpg/sg53_11_cif.got.tgz:20590.got - 2010.06.03 12:45:16.
