data_PCOD9416624
_publ_section_title
;
Structure prediction by ZEFSAII (Michael W. Deem and Ramdas Pophale) SiO2 
 PCOD9416624
Probable space group: P M N A
;
_chemical_formula_sum "Si O2"
_cell_formula_units_Z 56
_cell_length_a 15.135784
_cell_length_b 14.867109
_cell_length_c 12.037581
_cell_angle_alpha 90.000000
_cell_angle_beta 90.000000
_cell_angle_gamma 90.000000
_cell_volume 2708.760884
_symmetry_space_group_name_H-M "P M N A"
_symmetry_group_IT_number 53
_symmetry_cell_setting 'orthorhombic'
loop_
_space_group_symop_operation_xyz
x,y,z
1/2-x,-y,1/2+z
x,-y,-z
1/2-x,y,1/2-z
-x,-y,-z
1/2+x,y,1/2-z
-x,y,z
1/2+x,-y,1/2+z
loop_
_atom_site_type_symbol
_atom_site_label
_atom_site_fract_x
_atom_site_fract_y
_atom_site_fract_z
Si Si1 0.600957 0.051993 0.147358
Si Si2 0.895106 0.231640 0.240644
Si Si3 0.643052 0.726487 0.259840
Si Si4 0.343457 0.869838 0.079248
Si Si5 0.318579 0.748546 0.498451
Si Si6 0.325459 0.376901 0.082612
Si Si7 0.402335 0.553795 0.136462
O O1 0.500000 0.023680 0.173193
O O2 0.631236 0.130156 0.228663
O O3 0.663684 0.965431 0.141491
O O4 0.600096 0.102034 0.027749
O O5 0.870196 0.242579 0.112715
O O6 0.849627 0.302330 0.325293
O O7 0.000000 0.240387 0.257405
O O8 0.750000 0.726313 0.250000
O O9 0.616034 0.799072 0.166524
O O10 0.623089 0.746935 0.387544
O O11 0.609939 0.628579 0.228678
O O12 0.254748 0.825658 0.028345
O O13 0.261450 0.657618 0.519175
O O14 0.329560 0.475130 0.138122
O O15 0.393049 0.392765 0.980397
O O16 0.500000 0.513045 0.145687
#
# Coordination Sequence:
#
# PCOD9416624 Si02
#       7
#     8   8   8   8   8   8   8
#     4  10  21  38  63  96 123 152 200 257 314 357
#     4  11  23  42  62  89 128 162 204 254 305 367
#     4  10  21  41  57  85 126 163 202 247 299 365
#     4  10  19  38  60  91 118 155 203 248 305 362
#     4  11  23  42  61  91 125 169 209 244 309 368
#     4  11  21  40  62  92 122 155 207 257 305 363
#     4  11  22  38  65  96 121 155 202 258 317 358
#
# _framework density 20.673659000000001
#
# number of rings (size 3 to 8) (size 9 to 14) (size 15 to 20)
#    0.000    1.429    4.286    3.000    0.000    4.000 
#   15.429    0.000    0.000    3.429    0.000    0.000 
#    0.000    0.000    0.000    0.000    0.000    0.000 
#
# Total GULP energy -312336.347153 kJ/mol
# GULP energy per Si atom -5577.434771 kJ/mol
# Density = 2.062660 g / cm^3
# Si number density = 20.673659 Si / 1000 Ang^3
#
#
#
# Elastic Constant Matrix: (Units=GPa)
#
#
# Indices 1 2 3 4 5 6 
#
# 1 19.6962 11.1846 -4.6394 0.0000 0.0000 0.0000
# 2 11.1846 118.0547 32.5012 0.0000 0.0000 0.0000
# 3 -4.6394 32.5012 73.4152 0.0000 0.0000 0.0000
# 4 0.0000 0.0000 0.0000 16.4917 0.0000 0.0000
# 5 0.0000 0.0000 0.0000 0.0000 19.4735 0.0000
# 6 0.0000 0.0000 0.0000 0.0000 0.0000 11.3287
#
#
#
# Elastic Compliance Matrix: (Units=1/GPa)
#
#
# Indices 1 2 3 4 5 6 
#
# 1 0.056457 -0.007210 0.006760 0.000000 0.000000 0.000000
# 2 -0.007210 0.010567 -0.005134 0.000000 0.000000 0.000000
# 3 0.006760 -0.005134 0.016321 0.000000 0.000000 0.000000
# 4 0.000000 0.000000 0.000000 0.060636 0.000000 0.000000
# 5 0.000000 0.000000 0.000000 0.000000 0.051352 0.000000
# 6 0.000000 0.000000 0.000000 0.000000 0.000000 0.088271
#
#
# Mechanical properties :
#
#
# Convention : Reuss Voigt Hill
#
# Bulk Modulus (GPa) = 13.85470 32.13988 22.99729
# Shear Modulus (GPa) = 15.68223 20.93343 18.30783
#
# Velocity S-wave (km/s) = 2.75719 3.18554 2.97907
# Velocity P-wave (km/s) = 4.10515 5.39539 4.79388
#
# Compressibility (1/GPa) = 0.07217768
#
# Stress axis : x y z
#
# Youngs Moduli (GPa) = 17.71246 94.63381 61.27065
#
# Poissons Ratio (x) = 0.68229 -0.41416
# Poissons Ratio (y) = 0.12770 0.31454
# Poissons Ratio (z) = -0.11973 0.48582
#
# Static dielectric constant tensor:
#      x y z
#    x 1.767290 0.000000 0.000000 
#    y 0.000000 1.755890 0.000000 
#    z 0.000000 0.000000 1.766060 
# 
# From -- ./inp_files/16088.got.cif
#   From: 2010.05.17/outbox.cif.g08.bks.cpg/sg53_9_cif.got.tgz:16088.got - 2010.06.03 12:45:16.
