data_PCOD9416809
_publ_section_title
;
Structure prediction by ZEFSAII (Michael W. Deem and Ramdas Pophale) SiO2 
 PCOD9416809
Probable space group: P M N A
;
_chemical_formula_sum "Si O2"
_cell_formula_units_Z 40
_cell_length_a 8.532783
_cell_length_b 27.112056
_cell_length_c 9.286838
_cell_angle_alpha 90.000000
_cell_angle_beta 90.000000
_cell_angle_gamma 90.000000
_cell_volume 2148.429088
_symmetry_space_group_name_H-M "P M N A"
_symmetry_group_IT_number 53
_symmetry_cell_setting 'orthorhombic'
loop_
_space_group_symop_operation_xyz
x,y,z
1/2-x,-y,1/2+z
x,-y,-z
1/2-x,y,1/2-z
-x,-y,-z
1/2+x,y,1/2-z
-x,y,z
1/2+x,-y,1/2+z
loop_
_atom_site_type_symbol
_atom_site_label
_atom_site_fract_x
_atom_site_fract_y
_atom_site_fract_z
Si Si1 0.810428 0.854702 0.588091
Si Si2 0.310632 0.951557 0.087681
Si Si3 0.689287 0.758869 0.086635
Si Si4 0.312386 0.451878 0.587015
Si Si5 0.312283 0.650500 0.085764
O O1 0.750000 0.858016 0.750000
O O2 0.759613 0.902103 0.495290
O O3 0.756984 0.804314 0.510767
O O4 0.000000 0.854502 0.590567
O O5 0.250000 0.952391 0.250000
O O6 0.500000 0.951695 0.091148
O O7 0.258996 0.000000 0.000000
O O8 0.750000 0.764130 0.250000
O O9 0.500000 0.759923 0.092582
O O10 0.734637 0.704487 0.027833
O O11 0.259575 0.500000 0.500000
O O12 0.250000 0.455060 0.750000
O O13 0.500000 0.451044 0.591003
O O14 0.254642 0.399909 0.520893
O O15 0.250000 0.651050 0.250000
O O16 0.500000 0.647224 0.086880
#
# Coordination Sequence:
#
# PCOD9416809 Si02
#       5
#     8   8   8   8   8
#     4  10  21  36  52  74 105 137 171 209 250 299
#     4  10  21  36  55  80 107 136 173 214 254 300
#     4   9  18  32  51  75  99 126 164 207 249 297
#     4  10  20  33  50  73  99 128 164 203 245 296
#     4   9  16  28  48  71  96 126 161 202 247 294
#
# _framework density 18.618255000000001
#
# number of rings (size 3 to 8) (size 9 to 14) (size 15 to 20)
#    0.000    2.400    0.000    3.600    0.000    4.400 
#    0.000    1.000    0.000    4.800    0.000    0.000 
#    0.000    0.000    0.000    0.000    0.000    0.000 
#
# Total GULP energy -223089.019529 kJ/mol
# GULP energy per Si atom -5577.225488 kJ/mol
# Density = 1.857588 g / cm^3
# Si number density = 18.618255 Si / 1000 Ang^3
#
#
#
# Elastic Constant Matrix: (Units=GPa)
#
#
# Indices 1 2 3 4 5 6 
#
# 1 18.2244 35.2113 14.6309 0.0000 0.0000 0.0000
# 2 35.2113 236.0144 96.1913 0.0000 0.0000 0.0000
# 3 14.6309 96.1913 107.4472 0.0000 0.0000 0.0000
# 4 0.0000 0.0000 0.0000 34.6526 0.0000 0.0000
# 5 0.0000 0.0000 0.0000 0.0000 24.4133 0.0000
# 6 0.0000 0.0000 0.0000 0.0000 0.0000 70.8625
#
#
#
# Elastic Compliance Matrix: (Units=1/GPa)
#
#
# Indices 1 2 3 4 5 6 
#
# 1 0.077101 -0.011374 -0.000316 0.000000 0.000000 0.000000
# 2 -0.011374 0.008349 -0.005926 0.000000 0.000000 0.000000
# 3 -0.000316 -0.005926 0.014655 0.000000 0.000000 0.000000
# 4 0.000000 0.000000 0.000000 0.028858 0.000000 0.000000
# 5 0.000000 0.000000 0.000000 0.000000 0.040961 0.000000
# 6 0.000000 0.000000 0.000000 0.000000 0.000000 0.014112
#
#
# Mechanical properties :
#
#
# Convention : Reuss Voigt Hill
#
# Bulk Modulus (GPa) = 15.41467 72.63922 44.02694
# Shear Modulus (GPa) = 20.75621 40.36253 30.55937
#
# Velocity S-wave (km/s) = 3.34253 4.66112 4.05577
# Velocity P-wave (km/s) = 4.81601 8.25032 6.75507
#
# Compressibility (1/GPa) = 0.06487328
#
# Stress axis : x y z
#
# Youngs Moduli (GPa) = 12.96999 119.77495 68.23688
#
# Poissons Ratio (x) = 1.36231 0.02158
# Poissons Ratio (y) = 0.14752 0.40435
# Poissons Ratio (z) = 0.00410 0.70974
#
# Static dielectric constant tensor:
#      x y z
#    x 1.632780 0.000000 0.000000 
#    y 0.000000 1.698080 0.000000 
#    z 0.000000 0.000000 1.646260 
# 
# From -- ./inp_files/6427.got.cif
#   From: 2010.05.17/outbox.cif.g08.bks.cpg/sg53_4_cif.got.tgz:6427.got - 2010.06.03 12:45:16.
