data_PCOD9416364
_publ_section_title
;
Structure prediction by ZEFSAII (Michael W. Deem and Ramdas Pophale) SiO2 
 PCOD9416364
Probable space group: P M N A
;
_chemical_formula_sum "Si O2"
_cell_formula_units_Z 64
_cell_length_a 7.565764
_cell_length_b 18.098486
_cell_length_c 21.431195
_cell_angle_alpha 90.000000
_cell_angle_beta 90.000000
_cell_angle_gamma 90.000000
_cell_volume 2934.549396
_symmetry_space_group_name_H-M "P M N A"
_symmetry_group_IT_number 53
_symmetry_cell_setting 'orthorhombic'
loop_
_space_group_symop_operation_xyz
x,y,z
1/2-x,-y,1/2+z
x,-y,-z
1/2-x,y,1/2-z
-x,-y,-z
1/2+x,y,1/2-z
-x,y,z
1/2+x,-y,1/2+z
loop_
_atom_site_type_symbol
_atom_site_label
_atom_site_fract_x
_atom_site_fract_y
_atom_site_fract_z
Si Si1 0.802576 0.331004 0.123842
Si Si2 0.794820 0.206516 0.036107
Si Si3 0.208774 0.958305 0.562380
Si Si4 0.711737 0.526850 0.680061
Si Si5 0.291511 0.587116 0.995055
Si Si6 0.782502 0.216197 0.891338
Si Si7 0.790277 0.933388 0.176297
Si Si8 0.299309 0.374330 0.628108
O O1 0.716851 0.260187 0.089888
O O2 0.714884 0.389614 0.170968
O O3 0.807301 0.386857 0.065656
O O4 0.000000 0.310427 0.146537
O O5 0.786850 0.123367 0.060650
O O6 0.000000 0.229563 0.031483
O O7 0.724919 0.210116 0.964551
O O8 0.000000 0.949171 0.553932
O O9 0.277214 0.000000 0.500000
O O10 0.236010 0.003451 0.626445
O O11 0.750000 0.505355 0.750000
O O12 0.500000 0.532197 0.668916
O O13 0.782764 0.454603 0.643375
O O14 0.500000 0.605952 0.992123
O O15 0.276113 0.500000 0.000000
O O16 0.203363 0.625547 0.053521
O O17 0.723230 0.144588 0.852285
O O18 0.723019 0.293047 0.858737
O O19 0.000000 0.217328 0.891816
O O20 0.750000 0.944223 0.250000
O O21 0.000000 0.930148 0.172295
O O22 0.500000 0.376100 0.652931
#
# Coordination Sequence:
#
# PCOD9416364 Si02
#       8
#     8   8   8   8   8   8   8   8
#     4  10  20  36  58  82 108 148 195 238 287 347
#     4  10  19  35  61  91 119 149 193 244 298 356
#     4  11  23  39  62  93 126 158 199 247 300 361
#     4  10  22  37  56  77 106 151 199 242 286 338
#     4  11  21  30  47  80 114 142 177 233 295 335
#     4   9  18  33  58  89 118 152 193 239 288 351
#     4  11  23  41  63  89 124 162 202 242 297 361
#     4  10  19  35  57  81 110 150 196 234 277 343
#
# _framework density 21.809138999999998
#
# number of rings (size 3 to 8) (size 9 to 14) (size 15 to 20)
#    0.000    1.750    3.750    1.125    0.000    3.000 
#    0.000    1.875    0.000    1.500    0.000    0.000 
#    0.000    0.000    0.000    0.000    0.000    0.000 
#
# Total GULP energy -356549.768728 kJ/mol
# GULP energy per Si atom -5571.090136 kJ/mol
# Density = 2.175950 g / cm^3
# Si number density = 21.809139 Si / 1000 Ang^3
#
#
#
# Elastic Constant Matrix: (Units=GPa)
#
#
# Indices 1 2 3 4 5 6 
#
# 1 60.8668 14.6371 -9.3377 0.0000 0.0000 0.0000
# 2 14.6371 142.9458 29.9840 0.0000 0.0000 0.0000
# 3 -9.3377 29.9840 72.9613 0.0000 0.0000 0.0000
# 4 0.0000 0.0000 0.0000 16.1486 0.0000 0.0000
# 5 0.0000 0.0000 0.0000 0.0000 4.8987 0.0000
# 6 0.0000 0.0000 0.0000 0.0000 0.0000 -25.8638
#
#
#
# Elastic Compliance Matrix: (Units=1/GPa)
#
#
# Indices 1 2 3 4 5 6 
#
# 1 0.017526 -0.002479 0.003262 0.000000 0.000000 0.000000
# 2 -0.002479 0.008006 -0.003607 0.000000 0.000000 0.000000
# 3 0.003262 -0.003607 0.015606 0.000000 0.000000 0.000000
# 4 0.000000 0.000000 0.000000 0.061925 0.000000 0.000000
# 5 0.000000 0.000000 0.000000 0.000000 0.204136 0.000000
# 6 0.000000 0.000000 0.000000 0.000000 0.000000 -0.038664
#
#
# Mechanical properties :
#
#
# Convention : Reuss Voigt Hill
#
# Bulk Modulus (GPa) = 28.17794 38.59340 33.38567
# Shear Modulus (GPa) = 17.48168 15.13604 16.30886
#
# Velocity S-wave (km/s) = 2.83428 2.63729 2.73756
# Velocity P-wave (km/s) = 4.86407 5.19693 5.03325
#
# Compressibility (1/GPa) = 0.03548876
#
# Stress axis : x y z
#
# Youngs Moduli (GPa) = 57.05876 124.90378 64.07856
#
# Poissons Ratio (x) = 0.30960 -0.20900
# Poissons Ratio (y) = 0.14143 0.23116
# Poissons Ratio (z) = -0.18611 0.45058
#
# Static dielectric constant tensor:
#      x y z
#    x 1.834630 0.000000 0.000000 
#    y 0.000000 1.903600 0.000000 
#    z 0.000000 0.000000 1.048780 
# 
# From -- ./inp_files/31229.got.cif
#   From: 2010.05.17/outbox.cif.g08.bks.cpg/sg53_16_cif.got.tgz:31229.got - 2010.06.03 12:45:16.
