data_PCOD9416020
_publ_section_title
;
Structure prediction by ZEFSAII (Michael W. Deem and Ramdas Pophale) SiO2 
 PCOD9416020
Probable space group: P M N A
;
_chemical_formula_sum "Si O2"
_cell_formula_units_Z 64
_cell_length_a 9.041470
_cell_length_b 20.820570
_cell_length_c 19.003157
_cell_angle_alpha 90.000000
_cell_angle_beta 90.000000
_cell_angle_gamma 90.000000
_cell_volume 3577.316922
_symmetry_space_group_name_H-M "P M N A"
_symmetry_group_IT_number 53
_symmetry_cell_setting 'orthorhombic'
loop_
_space_group_symop_operation_xyz
x,y,z
1/2-x,-y,1/2+z
x,-y,-z
1/2-x,y,1/2-z
-x,-y,-z
1/2+x,y,1/2-z
-x,y,z
1/2+x,-y,1/2+z
loop_
_atom_site_type_symbol
_atom_site_label
_atom_site_fract_x
_atom_site_fract_y
_atom_site_fract_z
Si Si1 0.676003 0.495384 0.083226
Si Si2 0.176360 0.936549 0.457572
Si Si3 0.173884 0.606518 0.823479
Si Si4 0.322202 0.608806 0.326940
Si Si5 0.673416 0.239418 0.323218
Si Si6 0.675181 0.801558 0.965714
Si Si7 0.676522 0.743894 0.401384
Si Si8 0.323470 0.122414 0.674787
O O1 0.500000 0.497542 0.095948
O O2 0.744200 0.430231 0.114320
O O3 0.755401 0.553071 0.124480
O O4 0.702010 0.500000 0.000000
O O5 0.202449 0.873213 0.504739
O O6 0.261266 0.925125 0.384793
O O7 0.000000 0.940176 0.443572
O O8 0.220759 0.000000 0.500000
O O9 0.250000 0.586842 0.750000
O O10 0.188816 0.683240 0.830080
O O11 0.000000 0.590492 0.822226
O O12 0.250000 0.605303 0.250000
O O13 0.500000 0.602489 0.321896
O O14 0.287748 0.677706 0.362411
O O15 0.750000 0.220467 0.250000
O O16 0.500000 0.224350 0.320890
O O17 0.748830 0.208624 0.390990
O O18 0.500000 0.791719 0.959723
O O19 0.741373 0.753955 0.024724
O O20 0.500000 0.745511 0.414185
O O21 0.713675 0.805425 0.352720
O O22 0.250000 0.111394 0.750000
O O23 0.500000 0.117479 0.679735
#
# Coordination Sequence:
#
# PCOD9416020 Si02
#       8
#     8   8   8   8   8   8   8   8
#     4  11  25  41  56  78 108 142 182 228 274 324
#     4   9  19  37  58  81 112 150 190 228 270 323
#     4  10  21  38  60  81 104 139 179 224 275 329
#     4  11  23  39  59  81 110 145 182 223 273 328
#     4  10  21  37  58  84 112 143 182 229 278 330
#     4  10  20  34  57  85 113 146 181 225 276 324
#     4   9  20  36  55  82 113 147 182 223 272 327
#     4  10  19  33  55  83 115 147 186 229 273 324
#
# _framework density 17.890504
#
# number of rings (size 3 to 8) (size 9 to 14) (size 15 to 20)
#    0.000    2.000    0.000    3.000    1.750    4.750 
#    0.000    0.625    0.000    0.000    0.000    0.000 
#    0.000    0.000    0.000    0.000    0.000    0.000 
#
# Total GULP energy -357530.375945 kJ/mol
# GULP energy per Si atom -5586.412124 kJ/mol
# Density = 1.784978 g / cm^3
# Si number density = 17.890504 Si / 1000 Ang^3
#
#
#
# Elastic Constant Matrix: (Units=GPa)
#
#
# Indices 1 2 3 4 5 6 
#
# 1 89.7344 45.8705 94.5936 0.0000 0.0000 0.0000
# 2 45.8705 47.1710 52.0407 0.0000 0.0000 0.0000
# 3 94.5936 52.0407 175.9370 0.0000 0.0000 0.0000
# 4 0.0000 0.0000 0.0000 25.1359 0.0000 0.0000
# 5 0.0000 0.0000 0.0000 0.0000 36.1289 0.0000
# 6 0.0000 0.0000 0.0000 0.0000 0.0000 21.7462
#
#
#
# Elastic Compliance Matrix: (Units=1/GPa)
#
#
# Indices 1 2 3 4 5 6 
#
# 1 0.034718 -0.019546 -0.012885 0.000000 0.000000 0.000000
# 2 -0.019546 0.042473 -0.002054 0.000000 0.000000 0.000000
# 3 -0.012885 -0.002054 0.013219 0.000000 0.000000 0.000000
# 4 0.000000 0.000000 0.000000 0.039784 0.000000 0.000000
# 5 0.000000 0.000000 0.000000 0.000000 0.027679 0.000000
# 6 0.000000 0.000000 0.000000 0.000000 0.000000 0.045985
#
#
# Mechanical properties :
#
#
# Convention : Reuss Voigt Hill
#
# Bulk Modulus (GPa) = 46.64160 77.53910 62.09035
# Shear Modulus (GPa) = 17.85884 24.62471 21.24177
#
# Velocity S-wave (km/s) = 3.16291 3.71403 3.44949
# Velocity P-wave (km/s) = 6.28218 7.86302 7.11663
#
# Compressibility (1/GPa) = 0.02144009
#
# Stress axis : x y z
#
# Youngs Moduli (GPa) = 28.80343 23.54463 75.64817
#
# Poissons Ratio (x) = 0.46020 0.97472
# Poissons Ratio (y) = 0.56299 0.15539
# Poissons Ratio (z) = 0.37113 0.04836
#
# Static dielectric constant tensor:
#      x y z
#    x 1.595380 0.000000 0.000000 
#    y 0.000000 1.602300 0.000000 
#    z 0.000000 0.000000 1.548780 
# 
# From -- ./inp_files/26797.got.cif
#   From: 2010.05.17/outbox.cif.g08.bks.cpg/sg53_14_cif.got.tgz:26797.got - 2010.06.03 12:45:16.
