data_PCOD9416697
_publ_section_title
;
Structure prediction by ZEFSAII (Michael W. Deem and Ramdas Pophale) SiO2 
 PCOD9416697
Probable space group: P M N A
;
_chemical_formula_sum "Si O2"
_cell_formula_units_Z 48
_cell_length_a 33.324869
_cell_length_b 13.927056
_cell_length_c 5.131084
_cell_angle_alpha 90.000000
_cell_angle_beta 90.000000
_cell_angle_gamma 90.000000
_cell_volume 2381.424938
_symmetry_space_group_name_H-M "P M N A"
_symmetry_group_IT_number 53
_symmetry_cell_setting 'orthorhombic'
loop_
_space_group_symop_operation_xyz
x,y,z
1/2-x,-y,1/2+z
x,-y,-z
1/2-x,y,1/2-z
-x,-y,-z
1/2+x,y,1/2-z
-x,y,z
1/2+x,-y,1/2+z
loop_
_atom_site_type_symbol
_atom_site_label
_atom_site_fract_x
_atom_site_fract_y
_atom_site_fract_z
Si Si1 0.639487 0.820985 0.670337
Si Si2 0.628902 0.705464 0.178315
Si Si3 0.440861 0.107107 0.446749
Si Si4 0.274203 0.884121 0.501637
Si Si5 0.205551 0.568268 0.253582
Si Si6 0.544355 0.759757 0.051707
O O1 0.623880 0.737173 0.478682
O O2 0.606106 0.901761 0.632108
O O3 0.681126 0.849076 0.541944
O O4 0.642630 0.787405 0.968913
O O5 0.665936 0.631824 0.195580
O O6 0.583224 0.689196 0.070735
O O7 0.448747 0.166286 0.709900
O O8 0.456198 0.000000 0.500000
O O9 0.455488 0.174186 0.208221
O O10 0.250000 0.849494 0.750000
O O11 0.274950 0.000000 0.500000
O O12 0.250000 0.852536 0.250000
O O13 0.208631 0.500000 0.500000
O O14 0.250000 0.618232 0.250000
O O15 0.200585 0.500000 0.000000
O O16 0.500000 0.715265 0.075575
#
# Coordination Sequence:
#
# PCOD9416697 Si02
#       6
#     8   8   8   8   8   8
#     4  10  20  34  50  73 103 137 179 221 264 312
#     4  10  21  36  56  79 105 138 171 210 265 321
#     4  10  20  33  51  74 103 143 187 230 271 310
#     4  10  20  32  46  66  96 137 181 224 267 306
#     4  10  21  38  60  85 110 135 165 207 261 321
#     4  10  21  35  52  77 108 142 180 223 270 315
#
# _framework density 20.155998
#
# number of rings (size 3 to 8) (size 9 to 14) (size 15 to 20)
#    0.000    2.000    0.000    3.500    0.000    4.000 
#    0.000    5.000    0.000    1.000    0.000    0.000 
#    0.000    0.000    0.000    0.000    0.000    0.000 
#
# Total GULP energy -267226.927779 kJ/mol
# GULP energy per Si atom -5567.227662 kJ/mol
# Density = 2.011012 g / cm^3
# Si number density = 20.155998 Si / 1000 Ang^3
#
#
#
# Elastic Constant Matrix: (Units=GPa)
#
#
# Indices 1 2 3 4 5 6 
#
# 1 201.6516 35.0398 16.6016 0.0000 0.0000 0.0000
# 2 35.0398 40.6162 9.2642 0.0000 0.0000 0.0000
# 3 16.6016 9.2642 131.2483 0.0000 0.0000 0.0000
# 4 0.0000 0.0000 0.0000 19.0194 0.0000 0.0000
# 5 0.0000 0.0000 0.0000 0.0000 8.9023 0.0000
# 6 0.0000 0.0000 0.0000 0.0000 0.0000 -21.7483
#
#
#
# Elastic Compliance Matrix: (Units=1/GPa)
#
#
# Indices 1 2 3 4 5 6 
#
# 1 0.005853 -0.004961 -0.000390 0.000000 0.000000 0.000000
# 2 -0.004961 0.029228 -0.001436 0.000000 0.000000 0.000000
# 3 -0.000390 -0.001436 0.007770 0.000000 0.000000 0.000000
# 4 0.000000 0.000000 0.000000 0.052578 0.000000 0.000000
# 5 0.000000 0.000000 0.000000 0.000000 0.112331 0.000000
# 6 0.000000 0.000000 0.000000 0.000000 0.000000 -0.045981
#
#
# Mechanical properties :
#
#
# Convention : Reuss Voigt Hill
#
# Bulk Modulus (GPa) = 34.15538 55.03637 44.59588
# Shear Modulus (GPa) = 27.01083 22.07538 24.54310
#
# Velocity S-wave (km/s) = 3.66469 3.31301 3.49328
# Velocity P-wave (km/s) = 5.90669 6.48068 6.20033
#
# Compressibility (1/GPa) = 0.02927796
#
# Stress axis : x y z
#
# Youngs Moduli (GPa) = 170.84859 34.21418 128.70288
#
# Poissons Ratio (x) = 0.16972 0.05022
# Poissons Ratio (y) = 0.84750 0.18476
# Poissons Ratio (z) = 0.06667 0.04912
#
# Static dielectric constant tensor:
#      x y z
#    x 1.826920 0.000000 0.000000 
#    y 0.000000 1.711130 0.000000 
#    z 0.000000 0.000000 1.680740 
# 
# From -- ./inp_files/5285.got.cif
#   From: 2010.05.17/outbox.cif.g08.bks.cpg/sg53_3_cif.got.tgz:5285.got - 2010.06.03 12:45:16.
