data_PCOD9416796
_publ_section_title
;
Structure prediction by ZEFSAII (Michael W. Deem and Ramdas Pophale) SiO2 
 PCOD9416796
Probable space group: P M N A
;
_chemical_formula_sum "Si O2"
_cell_formula_units_Z 64
_cell_length_a 9.350026
_cell_length_b 25.806579
_cell_length_c 14.361408
_cell_angle_alpha 90.000000
_cell_angle_beta 90.000000
_cell_angle_gamma 90.000000
_cell_volume 3465.295511
_symmetry_space_group_name_H-M "P M N A"
_symmetry_group_IT_number 53
_symmetry_cell_setting 'orthorhombic'
loop_
_space_group_symop_operation_xyz
x,y,z
1/2-x,-y,1/2+z
x,-y,-z
1/2-x,y,1/2-z
-x,-y,-z
1/2+x,y,1/2-z
-x,y,z
1/2+x,-y,1/2+z
loop_
_atom_site_type_symbol
_atom_site_label
_atom_site_fract_x
_atom_site_fract_y
_atom_site_fract_z
Si Si1 0.171483 0.368785 0.653295
Si Si2 0.670559 0.971806 0.651314
Si Si3 0.342115 0.513247 0.107116
Si Si4 0.831431 0.271701 0.524514
Si Si5 0.330456 0.170346 0.848967
Si Si6 0.833092 0.413920 0.157497
Si Si7 0.329394 0.299933 0.350172
Si Si8 0.328843 0.920208 0.457376
O O1 0.250000 0.359054 0.750000
O O2 0.205838 0.427720 0.621462
O O3 0.207907 0.324148 0.580110
O O4 0.000000 0.367167 0.665930
O O5 0.750000 0.964957 0.750000
O O6 0.500000 0.966938 0.666598
O O7 0.709158 0.933618 0.564990
O O8 0.695996 0.028792 0.606635
O O9 0.500000 0.506795 0.153007
O O10 0.229808 0.469591 0.133418
O O11 0.361467 0.500000 0.000000
O O12 0.813803 0.224365 0.595899
O O13 0.739743 0.265171 0.430813
O O14 0.000000 0.275612 0.499301
O O15 0.250000 0.171726 0.750000
O O16 0.500000 0.161075 0.834809
O O17 0.260721 0.125984 0.912934
O O18 0.750000 0.401340 0.250000
O O19 0.809540 0.358790 0.107448
O O20 0.000000 0.419255 0.169769
O O21 0.250000 0.293394 0.250000
O O22 0.500000 0.292555 0.337669
O O23 0.500000 0.909854 0.454664
#
# Coordination Sequence:
#
# PCOD9416796 Si02
#       8
#     8   8   8   8   8   8   8   8
#     4  10  21  36  54  76 104 140 179 223 274 327
#     4   9  18  33  55  84 119 158 197 237 283 333
#     4  10  20  33  50  72  99 133 170 210 263 323
#     4  10  22  40  59  80 108 142 184 231 276 326
#     4  11  23  38  59  86 114 148 190 235 282 330
#     4  10  20  33  50  73  99 127 161 203 254 314
#     4  10  21  37  59  84 108 138 176 220 273 331
#     4   9  19  36  56  82 118 157 196 238 283 332
#
# _framework density 18.468843
#
# number of rings (size 3 to 8) (size 9 to 14) (size 15 to 20)
#    0.000    2.125    0.000    3.750    0.000    7.750 
#    0.000    1.875    0.000    1.500    0.000    0.000 
#    0.000    0.000    0.000    0.000    0.000    0.000 
#
# Total GULP energy -356472.421849 kJ/mol
# GULP energy per Si atom -5569.881591 kJ/mol
# Density = 1.842681 g / cm^3
# Si number density = 18.468843 Si / 1000 Ang^3
#
#
#
# Elastic Constant Matrix: (Units=GPa)
#
#
# Indices 1 2 3 4 5 6 
#
# 1 80.4986 53.2458 77.2957 0.0000 0.0000 0.0000
# 2 53.2458 57.1135 55.5286 0.0000 0.0000 0.0000
# 3 77.2957 55.5286 152.5065 0.0000 0.0000 0.0000
# 4 0.0000 0.0000 0.0000 24.8231 0.0000 0.0000
# 5 0.0000 0.0000 0.0000 0.0000 25.5454 0.0000
# 6 0.0000 0.0000 0.0000 0.0000 0.0000 25.5828
#
#
#
# Elastic Compliance Matrix: (Units=1/GPa)
#
#
# Indices 1 2 3 4 5 6 
#
# 1 0.041247 -0.028063 -0.010688 0.000000 0.000000 0.000000
# 2 -0.028063 0.046197 -0.002597 0.000000 0.000000 0.000000
# 3 -0.010688 -0.002597 0.012920 0.000000 0.000000 0.000000
# 4 0.000000 0.000000 0.000000 0.040285 0.000000 0.000000
# 5 0.000000 0.000000 0.000000 0.000000 0.039146 0.000000
# 6 0.000000 0.000000 0.000000 0.000000 0.000000 0.039089
#
#
# Mechanical properties :
#
#
# Convention : Reuss Voigt Hill
#
# Bulk Modulus (GPa) = 56.59969 73.58430 65.09200
# Shear Modulus (GPa) = 16.26182 22.12680 19.19431
#
# Velocity S-wave (km/s) = 2.97054 3.46506 3.22728
# Velocity P-wave (km/s) = 6.51752 7.47915 7.01483
#
# Compressibility (1/GPa) = 0.01766794
#
# Stress axis : x y z
#
# Youngs Moduli (GPa) = 24.24400 21.64657 77.40138
#
# Poissons Ratio (x) = 0.60747 0.82724
# Poissons Ratio (y) = 0.68036 0.20103
# Poissons Ratio (z) = 0.25911 0.05622
#
# Static dielectric constant tensor:
#      x y z
#    x 1.645340 0.000000 0.000000 
#    y 0.000000 2.100550 0.000000 
#    z 0.000000 0.000000 1.633430 
# 
# From -- ./inp_files/20965.got.cif
#   From: 2010.05.17/outbox.cif.g08.bks.cpg/sg53_11_cif.got.tgz:20965.got - 2010.06.03 12:45:16.
