data_PCOD9416331
_publ_section_title
;
Structure prediction by ZEFSAII (Michael W. Deem and Ramdas Pophale) SiO2 
 PCOD9416331
Probable space group: P M N A
;
_chemical_formula_sum "Si O2"
_cell_formula_units_Z 48
_cell_length_a 11.728040
_cell_length_b 13.660720
_cell_length_c 17.806989
_cell_angle_alpha 90.000000
_cell_angle_beta 90.000000
_cell_angle_gamma 90.000000
_cell_volume 2852.919508
_symmetry_space_group_name_H-M "P M N A"
_symmetry_group_IT_number 53
_symmetry_cell_setting 'orthorhombic'
loop_
_space_group_symop_operation_xyz
x,y,z
1/2-x,-y,1/2+z
x,-y,-z
1/2-x,y,1/2-z
-x,-y,-z
1/2+x,y,1/2-z
-x,y,z
1/2+x,-y,1/2+z
loop_
_atom_site_type_symbol
_atom_site_label
_atom_site_fract_x
_atom_site_fract_y
_atom_site_fract_z
Si Si1 0.864610 0.101851 0.465582
Si Si2 0.238806 0.416833 0.831698
Si Si3 0.754461 0.294565 0.981804
Si Si4 0.136439 0.812352 0.698006
Si Si5 0.500000 0.508473 0.378531
Si Si6 0.500000 0.335907 0.484153
Si Si7 0.868154 0.395656 0.384101
O O1 0.813186 0.195010 0.507929
O O2 0.847269 0.120596 0.376582
O O3 0.000000 0.104390 0.477054
O O4 0.820914 0.000000 0.500000
O O5 0.250000 0.370847 0.750000
O O6 0.251021 0.340895 0.899563
O O7 0.325964 0.505835 0.845099
O O8 0.114525 0.466355 0.835746
O O9 0.884984 0.276962 0.005219
O O10 0.705640 0.373272 0.041576
O O11 0.250000 0.828034 0.750000
O O12 0.143171 0.699636 0.669066
O O13 0.000000 0.825843 0.723258
O O14 0.500000 0.397574 0.407574
O O15 0.500000 0.581516 0.450365
O O16 0.000000 0.403433 0.405937
#
# Coordination Sequence:
#
# PCOD9416331 Si02
#       7
#     8   8   8   8   4   4   8
#     4   9  19  38  61  80 101 135 176 218 268 323
#     4  11  22  33  47  74 108 142 174 210 252 305
#     4  10  19  35  55  74 101 135 178 218 256 309
#     4   9  18  35  55  81 111 138 173 217 270 320
#     4   9  18  34  48  66 101 146 181 196 241 308
#     4   9  16  32  55  70  94 142 179 204 245 306
#     4  10  20  33  50  75 105 137 177 218 252 301
#
# _framework density 16.824870000000001
#
# number of rings (size 3 to 8) (size 9 to 14) (size 15 to 20)
#    0.000    2.333    1.667    2.500    1.167    2.000 
#    7.500    1.250    0.000    0.000    0.000    0.000 
#    0.000    0.000    0.000    0.000    0.000    0.000 
#
# Total GULP energy -267426.290072 kJ/mol
# GULP energy per Si atom -5571.381043 kJ/mol
# Density = 1.678658 g / cm^3
# Si number density = 16.824870 Si / 1000 Ang^3
#
#
#
# Elastic Constant Matrix: (Units=GPa)
#
#
# Indices 1 2 3 4 5 6 
#
# 1 101.1409 21.3979 56.6661 0.0000 0.0000 0.0000
# 2 21.3979 60.9781 36.0842 0.0000 0.0000 0.0000
# 3 56.6661 36.0842 93.0936 0.0000 0.0000 0.0000
# 4 0.0000 0.0000 0.0000 13.9608 0.0000 0.0000
# 5 0.0000 0.0000 0.0000 0.0000 54.2126 0.0000
# 6 0.0000 0.0000 0.0000 0.0000 0.0000 14.3206
#
#
#
# Elastic Compliance Matrix: (Units=1/GPa)
#
#
# Indices 1 2 3 4 5 6 
#
# 1 0.015006 0.000181 -0.009204 0.000000 0.000000 0.000000
# 2 0.000181 0.021283 -0.008360 0.000000 0.000000 0.000000
# 3 -0.009204 -0.008360 0.019585 0.000000 0.000000 0.000000
# 4 0.000000 0.000000 0.000000 0.071629 0.000000 0.000000
# 5 0.000000 0.000000 0.000000 0.000000 0.018446 0.000000
# 6 0.000000 0.000000 0.000000 0.000000 0.000000 0.069829
#
#
# Mechanical properties :
#
#
# Convention : Reuss Voigt Hill
#
# Bulk Modulus (GPa) = 47.37635 53.72323 50.54979
# Shear Modulus (GPa) = 19.41155 25.90310 22.65732
#
# Velocity S-wave (km/s) = 3.40036 3.92799 3.67366
# Velocity P-wave (km/s) = 6.60578 7.25068 6.93573
#
# Compressibility (1/GPa) = 0.02110758
#
# Stress axis : x y z
#
# Youngs Moduli (GPa) = 66.64133 46.98667 51.06033
#
# Poissons Ratio (x) = -0.00850 0.46996
# Poissons Ratio (y) = -0.01206 0.42684
# Poissons Ratio (z) = 0.61337 0.39279
#
# Static dielectric constant tensor:
#      x y z
#    x 1.594850 0.000000 0.000000 
#    y 0.000000 1.529880 0.000000 
#    z 0.000000 0.000000 1.591050 
# 
# From -- ./inp_files/21820.got.cif
#   From: 2010.05.17/outbox.cif.g08.bks.cpg/sg53_11_cif.got.tgz:21820.got - 2010.06.03 12:45:16.
