data_PCOD9416236
_publ_section_title
;
Structure prediction by ZEFSAII (Michael W. Deem and Ramdas Pophale) SiO2 
 PCOD9416236
Probable space group: P M N A
;
_chemical_formula_sum "Si O2"
_cell_formula_units_Z 48
_cell_length_a 8.555198
_cell_length_b 10.513743
_cell_length_c 29.047583
_cell_angle_alpha 90.000000
_cell_angle_beta 90.000000
_cell_angle_gamma 90.000000
_cell_volume 2612.747395
_symmetry_space_group_name_H-M "P M N A"
_symmetry_group_IT_number 53
_symmetry_cell_setting 'orthorhombic'
loop_
_space_group_symop_operation_xyz
x,y,z
1/2-x,-y,1/2+z
x,-y,-z
1/2-x,y,1/2-z
-x,-y,-z
1/2+x,y,1/2-z
-x,y,z
1/2+x,-y,1/2+z
loop_
_atom_site_type_symbol
_atom_site_label
_atom_site_fract_x
_atom_site_fract_y
_atom_site_fract_z
Si Si1 0.687213 0.761613 0.605812
Si Si2 0.811375 0.017370 0.946959
Si Si3 0.812798 0.849501 0.699945
Si Si4 0.311500 0.262126 0.894472
Si Si5 0.688375 0.145512 0.799783
Si Si6 0.310772 0.484467 0.053248
O O1 0.500000 0.758403 0.606024
O O2 0.738456 0.893433 0.581690
O O3 0.748772 0.766852 0.657938
O O4 0.749657 0.643567 0.576581
O O5 0.000000 0.025975 0.944792
O O6 0.740708 0.144262 0.925662
O O7 0.765902 0.000000 0.000000
O O8 0.750000 0.810700 0.750000
O O9 0.762841 0.997765 0.692775
O O10 0.000000 0.845794 0.699984
O O11 0.500000 0.265195 0.893586
O O12 0.257623 0.393896 0.916890
O O13 0.257412 0.230926 0.842552
O O14 0.750000 0.186001 0.750000
O O15 0.500000 0.146836 0.798763
O O16 0.500000 0.481386 0.053615
O O17 0.261046 0.500000 0.000000
#
# Coordination Sequence:
#
# PCOD9416236 Si02
#       6
#     8   8   8   8   8   8
#     4  11  22  36  56  83 114 149 190 232 282 340
#     4  10  21  35  53  80 111 142 182 233 282 331
#     4  10  19  34  57  84 115 146 182 229 282 335
#     4  10  20  36  56  81 109 142 186 231 280 334
#     4   9  18  32  53  81 110 140 175 222 276 329
#     4  10  22  39  58  80 111 153 195 236 286 341
#
# _framework density 18.371465000000001
#
# number of rings (size 3 to 8) (size 9 to 14) (size 15 to 20)
#    0.000    2.000    1.667    2.000    0.000    3.333 
#    0.000    0.833    0.000    2.000    0.000    0.000 
#    0.000    0.000    0.000    0.000    0.000    0.000 
#
# Total GULP energy -268022.991212 kJ/mol
# GULP energy per Si atom -5583.812317 kJ/mol
# Density = 1.832965 g / cm^3
# Si number density = 18.371465 Si / 1000 Ang^3
#
#
#
# Elastic Constant Matrix: (Units=GPa)
#
#
# Indices 1 2 3 4 5 6 
#
# 1 9.6612 13.6409 18.8401 0.0000 0.0000 0.0000
# 2 13.6409 67.6979 21.9634 0.0000 0.0000 0.0000
# 3 18.8401 21.9634 127.4906 0.0000 0.0000 0.0000
# 4 0.0000 0.0000 0.0000 33.5943 0.0000 0.0000
# 5 0.0000 0.0000 0.0000 0.0000 25.9418 0.0000
# 6 0.0000 0.0000 0.0000 0.0000 0.0000 20.8955
#
#
#
# Elastic Compliance Matrix: (Units=1/GPa)
#
#
# Indices 1 2 3 4 5 6 
#
# 1 0.192814 -0.031360 -0.023091 0.000000 0.000000 0.000000
# 2 -0.031360 0.020746 0.001060 0.000000 0.000000 0.000000
# 3 -0.023091 0.001060 0.011073 0.000000 0.000000 0.000000
# 4 0.000000 0.000000 0.000000 0.029767 0.000000 0.000000
# 5 0.000000 0.000000 0.000000 0.000000 0.038548 0.000000
# 6 0.000000 0.000000 0.000000 0.000000 0.000000 0.047857
#
#
# Mechanical properties :
#
#
# Convention : Reuss Voigt Hill
#
# Bulk Modulus (GPa) = 8.48515 34.85982 21.67249
# Shear Modulus (GPa) = 10.26964 26.11335 18.19150
#
# Velocity S-wave (km/s) = 2.36688 3.77425 3.15016
# Velocity P-wave (km/s) = 3.47825 6.16518 5.00538
#
# Compressibility (1/GPa) = 0.11785296
#
# Stress axis : x y z
#
# Youngs Moduli (GPa) = 5.18633 48.20102 90.30680
#
# Poissons Ratio (x) = 1.51158 2.08526
# Poissons Ratio (y) = 0.16264 -0.09574
# Poissons Ratio (z) = 0.11976 -0.05110
#
# Static dielectric constant tensor:
#      x y z
#    x 1.619650 0.000000 0.000000 
#    y 0.000000 1.606480 0.000000 
#    z 0.000000 0.000000 1.632510 
# 
# From -- ./inp_files/37760.got.cif
#   From: 2010.05.17/outbox.cif.g08.bks.cpg/sg53_19_cif.got.tgz:37760.got - 2010.06.03 12:45:16.
