data_PCOD9416947
_publ_section_title
;
Structure prediction by ZEFSAII (Michael W. Deem and Ramdas Pophale) SiO2 
 PCOD9416947
Probable space group: P M N A
;
_chemical_formula_sum "Si O2"
_cell_formula_units_Z 48
_cell_length_a 15.124959
_cell_length_b 9.815342
_cell_length_c 13.564637
_cell_angle_alpha 90.000000
_cell_angle_beta 90.000000
_cell_angle_gamma 90.000000
_cell_volume 2013.760504
_symmetry_space_group_name_H-M "P M N A"
_symmetry_group_IT_number 53
_symmetry_cell_setting 'orthorhombic'
loop_
_space_group_symop_operation_xyz
x,y,z
1/2-x,-y,1/2+z
x,-y,-z
1/2-x,y,1/2-z
-x,-y,-z
1/2+x,y,1/2-z
-x,y,z
1/2+x,-y,1/2+z
loop_
_atom_site_type_symbol
_atom_site_label
_atom_site_fract_x
_atom_site_fract_y
_atom_site_fract_z
Si Si1 0.097511 0.605785 0.615370
Si Si2 0.395786 0.791234 0.460958
Si Si3 0.598729 0.669598 0.665571
Si Si4 0.266317 0.574524 0.360179
Si Si5 0.761144 0.019936 0.863153
Si Si6 0.642432 0.142992 0.995801
O O1 0.106460 0.694722 0.717212
O O2 0.172598 0.491460 0.608540
O O3 0.102252 0.718533 0.530322
O O4 0.000000 0.542701 0.617765
O O5 0.500000 0.774018 0.433785
O O6 0.328533 0.671349 0.426156
O O7 0.188895 0.860593 0.389831
O O8 0.353227 0.920284 0.403690
O O9 0.500000 0.609926 0.651227
O O10 0.673243 0.559597 0.648275
O O11 0.605013 0.783884 0.581025
O O12 0.250000 0.630848 0.250000
O O13 0.750000 0.986910 0.750000
O O14 0.722550 0.895914 0.928593
O O15 0.590245 0.000000 0.000000
#
# Coordination Sequence:
#
# PCOD9416947 Si02
#       6
#     8   8   8   8   8   8
#     4  10  20  38  62  91 121 155 205 254 299 354
#     4  11  21  36  59  88 124 163 202 244 303 369
#     4   9  19  33  57  90 118 151 197 249 301 353
#     4  10  20  33  56  86 122 164 200 248 302 361
#     4   9  20  39  59  85 119 161 203 242 302 359
#     4   8  21  38  62  88 109 160 200 247 299 356
#
# _framework density 23.836003000000002
#
# number of rings (size 3 to 8) (size 9 to 14) (size 15 to 20)
#    1.000    1.333    0.000    2.500    0.000    7.000 
#    0.000    3.333    0.000   11.000    0.000    0.000 
#    0.000    0.000    0.000    0.000    0.000    0.000 
#
# Total GULP energy -267379.486122 kJ/mol
# GULP energy per Si atom -5570.405961 kJ/mol
# Density = 2.378175 g / cm^3
# Si number density = 23.836003 Si / 1000 Ang^3
#
#
#
# Elastic Constant Matrix: (Units=GPa)
#
#
# Indices 1 2 3 4 5 6 
#
# 1 182.0984 47.8717 13.8884 0.0000 0.0000 0.0000
# 2 47.8717 74.2317 23.6234 0.0000 0.0000 0.0000
# 3 13.8884 23.6234 113.5307 0.0000 0.0000 0.0000
# 4 0.0000 0.0000 0.0000 27.8646 0.0000 0.0000
# 5 0.0000 0.0000 0.0000 0.0000 20.1241 0.0000
# 6 0.0000 0.0000 0.0000 0.0000 0.0000 -27.1662
#
#
#
# Elastic Compliance Matrix: (Units=1/GPa)
#
#
# Indices 1 2 3 4 5 6 
#
# 1 0.006613 -0.004292 0.000084 0.000000 0.000000 0.000000
# 2 -0.004292 0.017212 -0.003056 0.000000 0.000000 0.000000
# 3 0.000084 -0.003056 0.009434 0.000000 0.000000 0.000000
# 4 0.000000 0.000000 0.000000 0.035888 0.000000 0.000000
# 5 0.000000 0.000000 0.000000 0.000000 0.049692 0.000000
# 6 0.000000 0.000000 0.000000 0.000000 0.000000 -0.036810
#
#
# Mechanical properties :
#
#
# Convention : Reuss Voigt Hill
#
# Bulk Modulus (GPa) = 53.38803 60.06976 56.72889
# Shear Modulus (GPa) = 48.63826 23.12964 35.88395
#
# Velocity S-wave (km/s) = 4.52213 3.11845 3.88422
# Velocity P-wave (km/s) = 7.05074 6.18242 6.63081
#
# Compressibility (1/GPa) = 0.01873079
#
# Stress axis : x y z
#
# Youngs Moduli (GPa) = 151.20899 58.10012 106.00082
#
# Poissons Ratio (x) = 0.24935 -0.00890
# Poissons Ratio (y) = 0.64894 0.32398
# Poissons Ratio (z) = -0.01270 0.17758
#
# Static dielectric constant tensor:
#      x y z
#    x 1.914840 0.000000 0.000000 
#    y 0.000000 1.970780 0.000000 
#    z 0.000000 0.000000 1.989880 
# 
# From -- ./inp_files/28300.got.cif
#   From: 2010.05.17/outbox.cif.g08.bks.cpg/sg53_15_cif.got.tgz:28300.got - 2010.06.03 12:45:16.
