data_PCOD9416150
_publ_section_title
;
Structure prediction by ZEFSAII (Michael W. Deem and Ramdas Pophale) SiO2 
 PCOD9416150
Probable space group: P M N A
;
_chemical_formula_sum "Si O2"
_cell_formula_units_Z 40
_cell_length_a 8.843493
_cell_length_b 13.272985
_cell_length_c 19.221890
_cell_angle_alpha 90.000000
_cell_angle_beta 90.000000
_cell_angle_gamma 90.000000
_cell_volume 2256.256797
_symmetry_space_group_name_H-M "P M N A"
_symmetry_group_IT_number 53
_symmetry_cell_setting 'orthorhombic'
loop_
_space_group_symop_operation_xyz
x,y,z
1/2-x,-y,1/2+z
x,-y,-z
1/2-x,y,1/2-z
-x,-y,-z
1/2+x,y,1/2-z
-x,y,z
1/2+x,-y,1/2+z
loop_
_atom_site_type_symbol
_atom_site_label
_atom_site_fract_x
_atom_site_fract_y
_atom_site_fract_z
Si Si1 0.817989 0.399483 0.826824
Si Si2 0.680575 0.205928 0.581284
Si Si3 0.820276 0.212387 0.082788
Si Si4 0.673884 0.996969 0.915480
Si Si5 0.680631 0.610828 0.826985
O O1 0.750000 0.383670 0.750000
O O2 0.779208 0.304861 0.875240
O O3 0.748353 0.504551 0.853311
O O4 0.000000 0.408502 0.822917
O O5 0.500000 0.190628 0.586181
O O6 0.715596 0.220908 0.499564
O O7 0.760942 0.104470 0.607412
O O8 0.769397 0.100604 0.105840
O O9 0.733220 0.297652 0.124983
O O10 0.000000 0.224354 0.091651
O O11 0.500000 0.984851 0.894431
O O12 0.679704 0.000000 0.000000
O O13 0.750000 0.625199 0.750000
O O14 0.500000 0.604836 0.822676
#
# Coordination Sequence:
#
# PCOD9416150 Si02
#       5
#     8   8   8   8   8
#     4  10  20  36  55  76 103 137 175 212 256 307
#     4   9  19  34  54  78 105 138 174 212 257 310
#     4  10  19  34  55  78 105 137 173 213 257 307
#     4   9  17  30  50  77 107 136 169 212 260 307
#     4  11  22  37  55  76 103 136 173 212 259 310
#
# _framework density 17.728477000000002
#
# number of rings (size 3 to 8) (size 9 to 14) (size 15 to 20)
#    0.000    2.200    0.000    4.800    0.000    5.600 
#    0.000    5.000    0.000    2.400    0.000    0.000 
#    0.000    0.000    0.000    0.000    0.000    0.000 
#
# Total GULP energy -223227.171681 kJ/mol
# GULP energy per Si atom -5580.679292 kJ/mol
# Density = 1.768813 g / cm^3
# Si number density = 17.728477 Si / 1000 Ang^3
#
#
#
# Elastic Constant Matrix: (Units=GPa)
#
#
# Indices 1 2 3 4 5 6 
#
# 1 98.5616 78.2990 36.7437 0.0000 0.0000 0.0000
# 2 78.2990 171.2673 57.3609 0.0000 0.0000 0.0000
# 3 36.7437 57.3609 33.1613 0.0000 0.0000 0.0000
# 4 0.0000 0.0000 0.0000 -556.4983 0.0000 0.0000
# 5 0.0000 0.0000 0.0000 0.0000 13.0056 0.0000
# 6 0.0000 0.0000 0.0000 0.0000 0.0000 36.0920
#
#
#
# Elastic Compliance Matrix: (Units=1/GPa)
#
#
# Indices 1 2 3 4 5 6 
#
# 1 0.018237 -0.003732 -0.013753 0.000000 0.000000 0.000000
# 2 -0.003732 0.014643 -0.021195 0.000000 0.000000 0.000000
# 3 -0.013753 -0.021195 0.082056 0.000000 0.000000 0.000000
# 4 0.000000 0.000000 0.000000 -0.001797 0.000000 0.000000
# 5 0.000000 0.000000 0.000000 0.000000 0.076890 0.000000
# 6 0.000000 0.000000 0.000000 0.000000 0.000000 0.027707
#
#
# Mechanical properties :
#
#
# Convention : Reuss Voigt Hill
#
# Bulk Modulus (GPa) = 26.61116 71.97752 49.29434
# Shear Modulus (GPa) = 16.25378 -92.77435 -38.26029
#
# Velocity S-wave (km/s) = 3.03118 -7.24184 -4.65060
# Velocity P-wave (km/s) = 5.22434 5.40719 0.98587
#
# Compressibility (1/GPa) = 0.03757822
#
# Stress axis : x y z
#
# Youngs Moduli (GPa) = 54.83223 68.29052 12.18683
#
# Poissons Ratio (x) = 0.25483 0.16761
# Poissons Ratio (y) = 0.20461 0.25830
# Poissons Ratio (z) = 0.75411 1.44739
#
# Static dielectric constant tensor:
#      x y z
#    x 1.594370 0.000000 0.000000 
#    y 0.000000 1.595610 0.000000 
#    z 0.000000 0.000000 1.588640 
# 
# From -- ./inp_files/25867.got.cif
#   From: 2010.05.17/outbox.cif.g08.bks.cpg/sg53_13_cif.got.tgz:25867.got - 2010.06.03 12:45:16.
