data_PCOD9416374
_publ_section_title
;
Structure prediction by ZEFSAII (Michael W. Deem and Ramdas Pophale) SiO2 
 PCOD9416374
Probable space group: P M N A
;
_chemical_formula_sum "Si O2"
_cell_formula_units_Z 60
_cell_length_a 9.225939
_cell_length_b 19.726879
_cell_length_c 16.763043
_cell_angle_alpha 90.000000
_cell_angle_beta 90.000000
_cell_angle_gamma 90.000000
_cell_volume 3050.856766
_symmetry_space_group_name_H-M "P M N A"
_symmetry_group_IT_number 53
_symmetry_cell_setting 'orthorhombic'
loop_
_space_group_symop_operation_xyz
x,y,z
1/2-x,-y,1/2+z
x,-y,-z
1/2-x,y,1/2-z
-x,-y,-z
1/2+x,y,1/2-z
-x,y,z
1/2+x,-y,1/2+z
loop_
_atom_site_type_symbol
_atom_site_label
_atom_site_fract_x
_atom_site_fract_y
_atom_site_fract_z
Si Si1 0.250000 0.139309 0.750000
Si Si2 0.341415 0.742976 0.361131
Si Si3 0.829809 0.761793 0.949311
Si Si4 0.175964 0.899100 0.562649
Si Si5 0.167811 0.376951 0.441900
Si Si6 0.831490 0.042732 0.608027
Si Si7 0.172708 0.478972 0.170191
Si Si8 0.664804 0.614431 0.134003
O O1 0.161227 0.191618 0.804937
O O2 0.318819 0.089210 0.814849
O O3 0.500000 0.709783 0.356022
O O4 0.319038 0.763455 0.453579
O O5 0.218563 0.688567 0.340075
O O6 0.756033 0.829788 0.916775
O O7 0.742732 0.694934 0.923245
O O8 0.000000 0.757162 0.929449
O O9 0.222057 0.919877 0.471958
O O10 0.000000 0.888837 0.565622
O O11 0.222827 0.965336 0.613563
O O12 0.261118 0.436189 0.402470
O O13 0.167476 0.384764 0.537647
O O14 0.000000 0.379748 0.415415
O O15 0.000000 0.033231 0.590763
O O16 0.250000 0.451903 0.250000
O O17 0.226574 0.556185 0.161125
O O18 0.000000 0.474286 0.173797
O O19 0.500000 0.600486 0.160370
#
# Coordination Sequence:
#
# PCOD9416374 Si02
#       8
#     4   8   8   8   8   8   8   8
#     4  12  20  34  54  82 120 152 190 236 292 350
#     4  10  22  35  51  81 119 153 186 232 291 350
#     4  10  19  35  57  86 114 144 188 240 296 349
#     4   9  17  35  57  79 106 147 197 240 283 342
#     4  10  21  39  64  92 119 155 201 247 296 353
#     4   9  19  33  54  79 109 150 194 235 284 347
#     4  12  25  41  62  88 122 160 199 249 301 352
#     4  10  22  40  62  87 119 161 204 241 286 352
#
# _framework density 19.666606999999999
#
# number of rings (size 3 to 8) (size 9 to 14) (size 15 to 20)
#    0.000    1.867    1.333    4.000    0.933    4.800 
#    0.000    2.667    1.467    0.000    0.000    0.000 
#    0.000    0.000    0.000    0.000    0.000    0.000 
#
# Total GULP energy -334749.479104 kJ/mol
# GULP energy per Si atom -5579.157985 kJ/mol
# Density = 1.962184 g / cm^3
# Si number density = 19.666607 Si / 1000 Ang^3
#
#
#
# Elastic Constant Matrix: (Units=GPa)
#
#
# Indices 1 2 3 4 5 6 
#
# 1 130.4784 53.0532 21.5800 0.0000 0.0000 0.0000
# 2 53.0532 115.1233 22.5935 0.0000 0.0000 0.0000
# 3 21.5800 22.5935 41.1469 0.0000 0.0000 0.0000
# 4 0.0000 0.0000 0.0000 32.8298 0.0000 0.0000
# 5 0.0000 0.0000 0.0000 0.0000 15.7619 0.0000
# 6 0.0000 0.0000 0.0000 0.0000 0.0000 27.4120
#
#
#
# Elastic Compliance Matrix: (Units=1/GPa)
#
#
# Indices 1 2 3 4 5 6 
#
# 1 0.009744 -0.003908 -0.002964 0.000000 0.000000 0.000000
# 2 -0.003908 0.011303 -0.004157 0.000000 0.000000 0.000000
# 3 -0.002964 -0.004157 0.028140 0.000000 0.000000 0.000000
# 4 0.000000 0.000000 0.000000 0.030460 0.000000 0.000000
# 5 0.000000 0.000000 0.000000 0.000000 0.063444 0.000000
# 6 0.000000 0.000000 0.000000 0.000000 0.000000 0.036480
#
#
# Mechanical properties :
#
#
# Convention : Reuss Voigt Hill
#
# Bulk Modulus (GPa) = 36.86153 53.46688 45.16420
# Shear Modulus (GPa) = 23.73349 27.83554 25.78451
#
# Velocity S-wave (km/s) = 3.47766 3.76622 3.62481
# Velocity P-wave (km/s) = 5.90842 6.79398 6.36662
#
# Compressibility (1/GPa) = 0.02712856
#
# Stress axis : x y z
#
# Youngs Moduli (GPa) = 102.63212 88.46979 35.53648
#
# Poissons Ratio (x) = 0.34578 0.10533
# Poissons Ratio (y) = 0.40114 0.14771
# Poissons Ratio (z) = 0.30420 0.36774
#
# Static dielectric constant tensor:
#      x y z
#    x 1.684970 0.000000 0.000000 
#    y 0.000000 1.693490 0.000000 
#    z 0.000000 0.000000 1.723260 
# 
# From -- ./inp_files/26588.got.cif
#   From: 2010.05.17/outbox.cif.g08.bks.cpg/sg53_14_cif.got.tgz:26588.got - 2010.06.03 12:45:16.
