data_PCOD9416170
_publ_section_title
;
Structure prediction by ZEFSAII (Michael W. Deem and Ramdas Pophale) SiO2 
 PCOD9416170
Probable space group: P M N A
;
_chemical_formula_sum "Si O2"
_cell_formula_units_Z 64
_cell_length_a 15.651466
_cell_length_b 17.682252
_cell_length_c 11.998516
_cell_angle_alpha 90.000000
_cell_angle_beta 90.000000
_cell_angle_gamma 90.000000
_cell_volume 3320.627290
_symmetry_space_group_name_H-M "P M N A"
_symmetry_group_IT_number 53
_symmetry_cell_setting 'orthorhombic'
loop_
_space_group_symop_operation_xyz
x,y,z
1/2-x,-y,1/2+z
x,-y,-z
1/2-x,y,1/2-z
-x,-y,-z
1/2+x,y,1/2-z
-x,y,z
1/2+x,-y,1/2+z
loop_
_atom_site_type_symbol
_atom_site_label
_atom_site_fract_x
_atom_site_fract_y
_atom_site_fract_z
Si Si1 0.847889 0.180683 0.025134
Si Si2 0.101566 0.908942 0.777043
Si Si3 0.901621 0.072264 0.839502
Si Si4 0.400936 0.335764 0.590152
Si Si5 0.401547 0.834551 0.138463
Si Si6 0.901802 0.328200 0.645983
Si Si7 0.245983 0.549707 0.385239
Si Si8 0.316677 0.917379 0.962072
O O1 0.874911 0.164492 0.151496
O O2 0.753342 0.146704 0.014271
O O3 0.900306 0.120823 0.950444
O O4 0.866676 0.264195 0.980387
O O5 0.153519 0.914368 0.663799
O O6 0.000000 0.907946 0.757533
O O7 0.128387 0.985905 0.842972
O O8 0.858928 0.124591 0.744571
O O9 0.000000 0.063592 0.804566
O O10 0.500000 0.352868 0.558267
O O11 0.402390 0.314673 0.720794
O O12 0.333912 0.404716 0.589114
O O13 0.500000 0.817758 0.166287
O O14 0.369348 0.752475 0.101450
O O15 0.395162 0.894714 0.040706
O O16 0.834532 0.393101 0.618203
O O17 0.000000 0.345666 0.611443
O O18 0.234412 0.500000 0.500000
O O19 0.250000 0.522167 0.250000
O O20 0.287340 0.000000 0.000000
#
# Coordination Sequence:
#
# PCOD9416170 Si02
#       8
#     8   8   8   8   8   8   8   8
#     4  12  23  36  56  83 114 143 194 260 314 357
#     4  11  23  38  53  72 107 156 206 252 306 367
#     4  10  19  34  56  78 104 142 191 251 304 346
#     4  10  20  38  64  90 120 160 203 250 303 363
#     4  10  19  34  57  82 109 149 201 248 291 349
#     4   9  18  36  63  95 127 158 199 247 300 363
#     4  10  22  41  66  99 132 163 200 246 303 376
#     4  12  24  36  50  73 111 158 202 252 311 370
#
# _framework density 19.273467
#
# number of rings (size 3 to 8) (size 9 to 14) (size 15 to 20)
#    0.000    1.500    2.500    3.750    0.000    2.500 
#    0.000    2.500    0.000    1.500    0.000    0.000 
#    0.000    0.000    0.000    0.000    0.000    0.000 
#
# Total GULP energy -356445.129374 kJ/mol
# GULP energy per Si atom -5569.455146 kJ/mol
# Density = 1.922960 g / cm^3
# Si number density = 19.273467 Si / 1000 Ang^3
#
#
#
# Elastic Constant Matrix: (Units=GPa)
#
#
# Indices 1 2 3 4 5 6 
#
# 1 93.7215 40.9412 29.4820 0.0000 0.0000 0.0000
# 2 40.9412 70.0055 50.3104 0.0000 0.0000 0.0000
# 3 29.4820 50.3104 104.0823 0.0000 0.0000 0.0000
# 4 0.0000 0.0000 0.0000 35.8475 0.0000 0.0000
# 5 0.0000 0.0000 0.0000 0.0000 10.0988 0.0000
# 6 0.0000 0.0000 0.0000 0.0000 0.0000 -91.9069
#
#
#
# Elastic Compliance Matrix: (Units=1/GPa)
#
#
# Indices 1 2 3 4 5 6 
#
# 1 0.014331 -0.008372 -0.000012 0.000000 0.000000 0.000000
# 2 -0.008372 0.026779 -0.010573 0.000000 0.000000 0.000000
# 3 -0.000012 -0.010573 0.014722 0.000000 0.000000 0.000000
# 4 0.000000 0.000000 0.000000 0.027896 0.000000 0.000000
# 5 0.000000 0.000000 0.000000 0.000000 0.099021 0.000000
# 6 0.000000 0.000000 0.000000 0.000000 0.000000 -0.010881
#
#
# Mechanical properties :
#
#
# Convention : Reuss Voigt Hill
#
# Bulk Modulus (GPa) = 55.81244 56.58628 56.19936
# Shear Modulus (GPa) = 23.17425 0.61292 11.89358
#
# Velocity S-wave (km/s) = 3.47131 0.56454 2.48684
# Velocity P-wave (km/s) = 6.71474 5.46337 6.12111
#
# Compressibility (1/GPa) = 0.01791715
#
# Stress axis : x y z
#
# Youngs Moduli (GPa) = 69.77789 37.34230 67.92596
#
# Poissons Ratio (x) = 0.31264 0.00085
# Poissons Ratio (y) = 0.58420 0.71817
# Poissons Ratio (z) = 0.00087 0.39481
#
# Static dielectric constant tensor:
#      x y z
#    x 1.745390 0.000000 0.000000 
#    y 0.000000 1.721100 0.000000 
#    z 0.000000 0.000000 1.714010 
# 
# From -- ./inp_files/16232.got.cif
#   From: 2010.05.17/outbox.cif.g08.bks.cpg/sg53_9_cif.got.tgz:16232.got - 2010.06.03 12:45:16.
