data_PCOD9416756
_publ_section_title
;
Structure prediction by ZEFSAII (Michael W. Deem and Ramdas Pophale) SiO2 
 PCOD9416756
Probable space group: P M N A
;
_chemical_formula_sum "Si O2"
_cell_formula_units_Z 48
_cell_length_a 18.466204
_cell_length_b 17.576033
_cell_length_c 7.255633
_cell_angle_alpha 90.000000
_cell_angle_beta 90.000000
_cell_angle_gamma 90.000000
_cell_volume 2354.907190
_symmetry_space_group_name_H-M "P M N A"
_symmetry_group_IT_number 53
_symmetry_cell_setting 'orthorhombic'
loop_
_space_group_symop_operation_xyz
x,y,z
1/2-x,-y,1/2+z
x,-y,-z
1/2-x,y,1/2-z
-x,-y,-z
1/2+x,y,1/2-z
-x,y,z
1/2+x,-y,1/2+z
loop_
_atom_site_type_symbol
_atom_site_label
_atom_site_fract_x
_atom_site_fract_y
_atom_site_fract_z
Si Si1 0.585965 0.812877 0.386256
Si Si2 0.333895 0.335417 0.694767
Si Si3 0.085726 0.913429 0.448211
Si Si4 0.332830 0.369270 0.259963
Si Si5 0.916729 0.485250 0.777119
Si Si6 0.164518 0.800796 0.721615
O O1 0.500000 0.800223 0.408033
O O2 0.621314 0.741809 0.276795
O O3 0.597259 0.888334 0.263610
O O4 0.623652 0.815591 0.585098
O O5 0.250000 0.327453 0.750000
O O6 0.341471 0.348961 0.475127
O O7 0.368816 0.412279 0.774220
O O8 0.131989 0.857199 0.573191
O O9 0.000000 0.901807 0.486082
O O10 0.103143 0.000000 0.500000
O O11 0.250000 0.396209 0.250000
O O12 0.385186 0.436314 0.199180
O O13 0.343737 0.288026 0.163145
O O14 0.000000 0.472460 0.728756
O O15 0.913471 0.500000 0.000000
O O16 0.250000 0.812008 0.750000
#
# Coordination Sequence:
#
# PCOD9416756 Si02
#       6
#     8   8   8   8   8   8
#     4  10  22  39  64  91 122 164 206 252 307 369
#     4  10  20  32  56  82 114 156 194 248 297 355
#     4  10  23  43  65  91 125 162 201 250 311 375
#     4   9  19  33  53  79 109 152 195 238 301 352
#     4   9  17  31  51  78 111 148 198 245 289 350
#     4  10  22  39  62  93 124 161 207 255 309 366
#
# _framework density 20.38297
#
# number of rings (size 3 to 8) (size 9 to 14) (size 15 to 20)
#    0.000    2.333    0.000    1.500    7.000    5.333 
#    3.000    2.500    0.000    1.000    0.000    0.000 
#    0.000    0.000    0.000    0.000    0.000    0.000 
#
# Total GULP energy -268095.682599 kJ/mol
# GULP energy per Si atom -5585.326721 kJ/mol
# Density = 2.033658 g / cm^3
# Si number density = 20.382970 Si / 1000 Ang^3
#
#
#
# Elastic Constant Matrix: (Units=GPa)
#
#
# Indices 1 2 3 4 5 6 
#
# 1 119.8917 64.7273 27.6271 0.0000 0.0000 0.0000
# 2 64.7273 75.1824 6.2085 0.0000 0.0000 0.0000
# 3 27.6271 6.2085 58.1564 0.0000 0.0000 0.0000
# 4 0.0000 0.0000 0.0000 4.1626 0.0000 0.0000
# 5 0.0000 0.0000 0.0000 0.0000 28.8277 0.0000
# 6 0.0000 0.0000 0.0000 0.0000 0.0000 18.8390
#
#
#
# Elastic Compliance Matrix: (Units=1/GPa)
#
#
# Indices 1 2 3 4 5 6 
#
# 1 0.018001 -0.014923 -0.006958 0.000000 0.000000 0.000000
# 2 -0.014923 0.025791 0.004336 0.000000 0.000000 0.000000
# 3 -0.006958 0.004336 0.020038 0.000000 0.000000 0.000000
# 4 0.000000 0.000000 0.000000 0.240233 0.000000 0.000000
# 5 0.000000 0.000000 0.000000 0.000000 0.034689 0.000000
# 6 0.000000 0.000000 0.000000 0.000000 0.000000 0.053081
#
#
# Mechanical properties :
#
#
# Convention : Reuss Voigt Hill
#
# Bulk Modulus (GPa) = 34.79651 50.03959 42.41805
# Shear Modulus (GPa) = 11.45468 20.67705 16.06586
#
# Velocity S-wave (km/s) = 2.37317 3.18846 2.81054
# Velocity P-wave (km/s) = 4.96162 6.17722 5.60249
#
# Compressibility (1/GPa) = 0.02873851
#
# Stress axis : x y z
#
# Youngs Moduli (GPa) = 55.55257 38.77354 49.90617
#
# Poissons Ratio (x) = 0.57862 0.34726
# Poissons Ratio (y) = 0.82902 -0.21639
# Poissons Ratio (z) = 0.38655 -0.16812
#
# Static dielectric constant tensor:
#      x y z
#    x 1.681530 0.000000 0.000000 
#    y 0.000000 1.714880 0.000000 
#    z 0.000000 0.000000 1.727350 
# 
# From -- ./inp_files/8620.got.cif
#   From: 2010.05.17/outbox.cif.g08.bks.cpg/sg53_5_cif.got.tgz:8620.got - 2010.06.03 12:45:16.
