data_PCOD9416340
_publ_section_title
;
Structure prediction by ZEFSAII (Michael W. Deem and Ramdas Pophale) SiO2 
 PCOD9416340
Probable space group: P M N A
;
_chemical_formula_sum "Si O2"
_cell_formula_units_Z 48
_cell_length_a 8.781499
_cell_length_b 9.676271
_cell_length_c 32.641596
_cell_angle_alpha 90.000000
_cell_angle_beta 90.000000
_cell_angle_gamma 90.000000
_cell_volume 2773.627052
_symmetry_space_group_name_H-M "P M N A"
_symmetry_group_IT_number 53
_symmetry_cell_setting 'orthorhombic'
loop_
_space_group_symop_operation_xyz
x,y,z
1/2-x,-y,1/2+z
x,-y,-z
1/2-x,y,1/2-z
-x,-y,-z
1/2+x,y,1/2-z
-x,y,z
1/2+x,-y,1/2+z
loop_
_atom_site_type_symbol
_atom_site_label
_atom_site_fract_x
_atom_site_fract_y
_atom_site_fract_z
Si Si1 0.176970 0.834458 0.707816
Si Si2 0.182370 0.652207 0.044188
Si Si3 0.823259 0.829459 0.292138
Si Si4 0.184028 0.655360 0.542332
Si Si5 0.814713 0.154931 0.381471
Si Si6 0.685380 0.167701 0.882635
O O1 0.250000 0.784432 0.750000
O O2 0.241087 0.793635 0.663216
O O3 0.000000 0.796976 0.709068
O O4 0.186745 0.002529 0.707737
O O5 0.250268 0.498044 0.048768
O O6 0.240277 0.743981 0.081709
O O7 0.000000 0.646905 0.042350
O O8 0.249316 0.706189 0.000973
O O9 0.750000 0.779374 0.250000
O O10 0.764199 0.785905 0.336872
O O11 0.000000 0.793057 0.290774
O O12 0.230005 0.752039 0.580221
O O13 0.000000 0.649778 0.539964
O O14 0.000000 0.157552 0.379344
O O15 0.773630 0.994267 0.387176
O O16 0.500000 0.177654 0.884426
#
# Coordination Sequence:
#
# PCOD9416340 Si02
#       6
#     8   8   8   8   8   8
#     4   8  13  24  41  66  96 124 151 185 227 274
#     4  11  22  35  49  70  98 126 156 198 243 287
#     4   8  14  24  42  66  95 125 154 187 227 273
#     4  10  19  35  56  72  88 123 166 199 235 288
#     4   8  16  30  51  75  97 121 159 202 234 270
#     4   9  17  32  51  73  98 127 160 195 233 280
#
# _framework density 17.305859999999999
#
# number of rings (size 3 to 8) (size 9 to 14) (size 15 to 20)
#    0.000    3.000    0.000    5.000    0.000    1.333 
#    0.000    9.167    0.000    1.000    0.000    2.333 
#    0.000    0.000    0.000    0.000    0.000    0.000 
#
# Total GULP energy -267247.841497 kJ/mol
# GULP energy per Si atom -5567.663365 kJ/mol
# Density = 1.726647 g / cm^3
# Si number density = 17.305860 Si / 1000 Ang^3
#
#
#
# Elastic Constant Matrix: (Units=GPa)
#
#
# Indices 1 2 3 4 5 6 
#
# 1 57.5226 20.4052 62.8444 0.0000 0.0000 0.0000
# 2 20.4052 32.8794 68.6719 0.0000 0.0000 0.0000
# 3 62.8444 68.6719 232.1174 0.0000 0.0000 0.0000
# 4 0.0000 0.0000 0.0000 -15.7421 0.0000 0.0000
# 5 0.0000 0.0000 0.0000 0.0000 27.4025 0.0000
# 6 0.0000 0.0000 0.0000 0.0000 0.0000 11.6520
#
#
#
# Elastic Compliance Matrix: (Units=1/GPa)
#
#
# Indices 1 2 3 4 5 6 
#
# 1 0.024847 -0.003585 -0.005667 0.000000 0.000000 0.000000
# 2 -0.003585 0.080117 -0.022732 0.000000 0.000000 0.000000
# 3 -0.005667 -0.022732 0.012568 0.000000 0.000000 0.000000
# 4 0.000000 0.000000 0.000000 -0.063524 0.000000 0.000000
# 5 0.000000 0.000000 0.000000 0.000000 0.036493 0.000000
# 6 0.000000 0.000000 0.000000 0.000000 0.000000 0.085822
#
#
# Mechanical properties :
#
#
# Convention : Reuss Voigt Hill
#
# Bulk Modulus (GPa) = 18.66913 69.59582 44.13248
# Shear Modulus (GPa) = 19.36896 16.03567 17.70231
#
# Velocity S-wave (km/s) = 3.34909 3.04732 3.20176
# Velocity P-wave (km/s) = 5.07606 7.25838 6.26300
#
# Compressibility (1/GPa) = 0.05356437
#
# Stress axis : x y z
#
# Youngs Moduli (GPa) = 40.24628 12.48174 79.56989
#
# Poissons Ratio (x) = 0.04475 0.45088
# Poissons Ratio (y) = 0.14429 1.80878
# Poissons Ratio (z) = 0.22806 0.28373
#
# Static dielectric constant tensor:
#      x y z
#    x 1.589780 0.000000 0.000000 
#    y 0.000000 1.565020 0.000000 
#    z 0.000000 0.000000 1.626080 
# 
# From -- ./inp_files/36177.got.cif
#   From: 2010.05.17/outbox.cif.g08.bks.cpg/sg53_19_cif.got.tgz:36177.got - 2010.06.03 12:45:16.
