data_PCOD9416376
_publ_section_title
;
Structure prediction by ZEFSAII (Michael W. Deem and Ramdas Pophale) SiO2 
 PCOD9416376
Probable space group: P M N A
;
_chemical_formula_sum "Si O2"
_cell_formula_units_Z 48
_cell_length_a 7.683223
_cell_length_b 15.324278
_cell_length_c 18.749270
_cell_angle_alpha 90.000000
_cell_angle_beta 90.000000
_cell_angle_gamma 90.000000
_cell_volume 2207.536147
_symmetry_space_group_name_H-M "P M N A"
_symmetry_group_IT_number 53
_symmetry_cell_setting 'orthorhombic'
loop_
_space_group_symop_operation_xyz
x,y,z
1/2-x,-y,1/2+z
x,-y,-z
1/2-x,y,1/2-z
-x,-y,-z
1/2+x,y,1/2-z
-x,y,z
1/2+x,-y,1/2+z
loop_
_atom_site_type_symbol
_atom_site_label
_atom_site_fract_x
_atom_site_fract_y
_atom_site_fract_z
Si Si1 0.301826 0.756890 0.830308
Si Si2 0.210298 0.072002 0.098199
Si Si3 0.288069 0.882771 0.435672
Si Si4 0.286563 0.689497 0.410020
Si Si5 0.791034 0.476112 0.830445
Si Si6 0.801659 0.618737 0.939281
O O1 0.250000 0.735947 0.750000
O O2 0.500000 0.731207 0.841893
O O3 0.280167 0.859393 0.845304
O O4 0.194831 0.703098 0.888298
O O5 0.000000 0.073873 0.101608
O O6 0.267927 0.971447 0.103731
O O7 0.260793 0.105541 0.018918
O O8 0.500000 0.882920 0.434545
O O9 0.227902 0.789747 0.406288
O O10 0.500000 0.692306 0.411465
O O11 0.233161 0.622192 0.348691
O O12 0.225881 0.647606 0.485144
O O13 0.750000 0.502673 0.750000
O O14 0.722159 0.542055 0.891086
O O15 0.000000 0.478456 0.836030
O O16 0.000000 0.591992 0.955586
#
# Coordination Sequence:
#
# PCOD9416376 Si02
#       6
#     8   8   8   8   8   8
#     4  12  24  36  52  77 110 147 182 224 277 328
#     4   9  16  31  54  80 106 138 176 215 263 318
#     4   8  14  27  55  84 105 133 173 218 261 312
#     4   9  16  31  57  85 107 136 182 225 262 317
#     4  10  21  35  54  79 108 144 180 220 270 321
#     4  10  19  35  58  81 105 136 181 231 271 321
#
# _framework density 21.743697000000001
#
# number of rings (size 3 to 8) (size 9 to 14) (size 15 to 20)
#    0.000    2.333    1.667    3.500    0.000    4.000 
#    0.000    3.333    0.000    4.000    0.000    0.000 
#    0.000    0.000    0.000    0.000    0.000    0.000 
#
# Total GULP energy -267976.270624 kJ/mol
# GULP energy per Si atom -5582.838971 kJ/mol
# Density = 2.169421 g / cm^3
# Si number density = 21.743697 Si / 1000 Ang^3
#
#
#
# Elastic Constant Matrix: (Units=GPa)
#
#
# Indices 1 2 3 4 5 6 
#
# 1 48.8267 1.9329 -3.6119 0.0000 0.0000 0.0000
# 2 1.9329 136.1987 10.4524 0.0000 0.0000 0.0000
# 3 -3.6119 10.4524 35.6872 0.0000 0.0000 0.0000
# 4 0.0000 0.0000 0.0000 -8.7337 0.0000 0.0000
# 5 0.0000 0.0000 0.0000 0.0000 5.9014 0.0000
# 6 0.0000 0.0000 0.0000 0.0000 0.0000 -3.6792
#
#
#
# Elastic Compliance Matrix: (Units=1/GPa)
#
#
# Indices 1 2 3 4 5 6 
#
# 1 0.020664 -0.000464 0.002227 0.000000 0.000000 0.000000
# 2 -0.000464 0.007521 -0.002250 0.000000 0.000000 0.000000
# 3 0.002227 -0.002250 0.028906 0.000000 0.000000 0.000000
# 4 0.000000 0.000000 0.000000 -0.114499 0.000000 0.000000
# 5 0.000000 0.000000 0.000000 0.000000 0.169451 0.000000
# 6 0.000000 0.000000 0.000000 0.000000 0.000000 -0.271796
#
#
# Mechanical properties :
#
#
# Convention : Reuss Voigt Hill
#
# Bulk Modulus (GPa) = 17.81983 26.47328 22.14655
# Shear Modulus (GPa) = -35.69552 12.82698 -11.43427
#
# Velocity S-wave (km/s) = -4.05612 2.43146 -2.29566
# Velocity P-wave (km/s) = 3.70445 4.48154 1.78343
#
# Compressibility (1/GPa) = 0.05611727
#
# Stress axis : x y z
#
# Youngs Moduli (GPa) = 48.39392 132.95274 34.59532
#
# Poissons Ratio (x) = 0.06172 -0.07706
# Poissons Ratio (y) = 0.02246 0.07784
# Poissons Ratio (z) = -0.10779 0.29914
#
# Static dielectric constant tensor:
#      x y z
#    x 1.818200 0.000000 0.000000 
#    y 0.000000 1.823680 0.000000 
#    z 0.000000 0.000000 1.745280 
# 
# From -- ./inp_files/26195.got.cif
#   From: 2010.05.17/outbox.cif.g08.bks.cpg/sg53_14_cif.got.tgz:26195.got - 2010.06.03 12:45:16.
