data_PCOD9416534
_publ_section_title
;
Structure prediction by ZEFSAII (Michael W. Deem and Ramdas Pophale) SiO2 
 PCOD9416534
Probable space group: P M N A
;
_chemical_formula_sum "Si O2"
_cell_formula_units_Z 64
_cell_length_a 8.385869
_cell_length_b 15.052985
_cell_length_c 25.848272
_cell_angle_alpha 90.000000
_cell_angle_beta 90.000000
_cell_angle_gamma 90.000000
_cell_volume 3262.888383
_symmetry_space_group_name_H-M "P M N A"
_symmetry_group_IT_number 53
_symmetry_cell_setting 'orthorhombic'
loop_
_space_group_symop_operation_xyz
x,y,z
1/2-x,-y,1/2+z
x,-y,-z
1/2-x,y,1/2-z
-x,-y,-z
1/2+x,y,1/2-z
-x,y,z
1/2+x,-y,1/2+z
loop_
_atom_site_type_symbol
_atom_site_label
_atom_site_fract_x
_atom_site_fract_y
_atom_site_fract_z
Si Si1 0.685990 0.848322 0.893345
Si Si2 0.191302 0.706081 0.692479
Si Si3 0.193850 0.216711 0.906901
Si Si4 0.308845 0.021837 0.558708
Si Si5 0.682678 0.552831 0.946763
Si Si6 0.190869 0.510386 0.840127
Si Si7 0.192685 0.319223 0.804905
Si Si8 0.184607 0.267576 0.018701
O O1 0.500000 0.862440 0.883307
O O2 0.747979 0.779431 0.849596
O O3 0.711755 0.799973 0.948252
O O4 0.767766 0.943037 0.901721
O O5 0.250000 0.728191 0.750000
O O6 0.246825 0.605859 0.679051
O O7 0.000000 0.705860 0.691125
O O8 0.248992 0.116607 0.919533
O O9 0.250632 0.262475 0.854265
O O10 0.000000 0.214952 0.903447
O O11 0.233265 0.271609 0.958829
O O12 0.500000 0.028217 0.554652
O O13 0.250146 0.000000 0.500000
O O14 0.500000 0.580974 0.935628
O O15 0.749475 0.498759 0.898743
O O16 0.792194 0.638179 0.954659
O O17 0.683872 0.500000 0.000000
O O18 0.246142 0.422167 0.810374
O O19 0.000000 0.513399 0.838442
O O20 0.250000 0.283368 0.750000
O O21 0.000000 0.319291 0.805912
O O22 0.000000 0.238336 0.021141
#
# Coordination Sequence:
#
# PCOD9416534 Si02
#       8
#     8   8   8   8   8   8   8   8
#     4  11  23  38  57  87 124 154 187 242 302 351
#     4  11  24  41  61  85 119 157 199 247 297 353
#     4   9  19  37  60  87 117 149 193 245 291 347
#     4  10  19  36  62  89 116 154 199 239 288 354
#     4  11  23  36  51  80 123 162 196 242 299 353
#     4  11  22  37  60  86 114 154 204 248 293 349
#     4  10  22  40  60  84 115 152 196 246 293 340
#     4  11  20  35  60  85 115 154 196 238 290 357
#
# _framework density 19.614523999999999
#
# number of rings (size 3 to 8) (size 9 to 14) (size 15 to 20)
#    0.000    1.500    2.500    3.000    0.000    5.750 
#    0.000    2.500    0.000    3.000    0.000    0.000 
#    0.000    0.000    0.000    0.000    0.000    0.000 
#
# Total GULP energy -357352.391037 kJ/mol
# GULP energy per Si atom -5583.631110 kJ/mol
# Density = 1.956988 g / cm^3
# Si number density = 19.614524 Si / 1000 Ang^3
#
#
#
# Elastic Constant Matrix: (Units=GPa)
#
#
# Indices 1 2 3 4 5 6 
#
# 1 20.7290 11.4128 9.0529 0.0000 0.0000 0.0000
# 2 11.4128 88.6242 49.7765 0.0000 0.0000 0.0000
# 3 9.0529 49.7765 135.0086 0.0000 0.0000 0.0000
# 4 0.0000 0.0000 0.0000 14.2228 0.0000 0.0000
# 5 0.0000 0.0000 0.0000 0.0000 25.6755 0.0000
# 6 0.0000 0.0000 0.0000 0.0000 0.0000 12.5739
#
#
#
# Elastic Compliance Matrix: (Units=1/GPa)
#
#
# Indices 1 2 3 4 5 6 
#
# 1 0.052099 -0.005987 -0.001286 0.000000 0.000000 0.000000
# 2 -0.005987 0.014918 -0.005099 0.000000 0.000000 0.000000
# 3 -0.001286 -0.005099 0.009373 0.000000 0.000000 0.000000
# 4 0.000000 0.000000 0.000000 0.070310 0.000000 0.000000
# 5 0.000000 0.000000 0.000000 0.000000 0.038948 0.000000
# 6 0.000000 0.000000 0.000000 0.000000 0.000000 0.079530
#
#
# Mechanical properties :
#
#
# Convention : Reuss Voigt Hill
#
# Bulk Modulus (GPa) = 19.36212 42.76067 31.06140
# Shear Modulus (GPa) = 16.27938 22.10243 19.19090
#
# Velocity S-wave (km/s) = 2.88404 3.36049 3.13134
# Velocity P-wave (km/s) = 4.58072 6.07495 5.37996
#
# Compressibility (1/GPa) = 0.05164724
#
# Stress axis : x y z
#
# Youngs Moduli (GPa) = 19.19405 67.03144 106.68855
#
# Poissons Ratio (x) = 0.40130 0.13722
# Poissons Ratio (y) = 0.11491 0.54399
# Poissons Ratio (z) = 0.02469 0.34178
#
# Static dielectric constant tensor:
#      x y z
#    x 1.691720 0.000000 0.000000 
#    y 0.000000 1.700090 0.000000 
#    z 0.000000 0.000000 1.703080 
# 
# From -- ./inp_files/34260.got.cif
#   From: 2010.05.17/outbox.cif.g08.bks.cpg/sg53_18_cif.got.tgz:34260.got - 2010.06.03 12:45:16.
