data_PCOD9416264
_publ_section_title
;
Structure prediction by ZEFSAII (Michael W. Deem and Ramdas Pophale) SiO2 
 PCOD9416264
Probable space group: P M N A
;
_chemical_formula_sum "Si O2"
_cell_formula_units_Z 64
_cell_length_a 15.658304
_cell_length_b 16.695406
_cell_length_c 11.718873
_cell_angle_alpha 90.000000
_cell_angle_beta 90.000000
_cell_angle_gamma 90.000000
_cell_volume 3063.568200
_symmetry_space_group_name_H-M "P M N A"
_symmetry_group_IT_number 53
_symmetry_cell_setting 'orthorhombic'
loop_
_space_group_symop_operation_xyz
x,y,z
1/2-x,-y,1/2+z
x,-y,-z
1/2-x,y,1/2-z
-x,-y,-z
1/2+x,y,1/2-z
-x,y,z
1/2+x,-y,1/2+z
loop_
_atom_site_type_symbol
_atom_site_label
_atom_site_fract_x
_atom_site_fract_y
_atom_site_fract_z
Si Si1 0.900131 0.591493 0.487004
Si Si2 0.397499 0.133811 0.294267
Si Si3 0.147893 0.549340 0.250820
Si Si4 0.655268 0.371284 0.291184
Si Si5 0.404401 0.744126 0.874822
Si Si6 0.598723 0.358544 0.535861
Si Si7 0.397863 0.181939 0.544169
Si Si8 0.195487 0.973929 0.131964
O O1 0.862351 0.500000 0.500000
O O2 0.892105 0.600719 0.351509
O O3 0.865577 0.673927 0.544458
O O4 0.000000 0.586925 0.521669
O O5 0.500000 0.134796 0.283209
O O6 0.363387 0.173627 0.175327
O O7 0.373451 0.181051 0.409902
O O8 0.367050 0.045190 0.326804
O O9 0.250000 0.558077 0.250000
O O10 0.129163 0.455388 0.264361
O O11 0.110970 0.576092 0.131327
O O12 0.750000 0.350653 0.250000
O O13 0.592539 0.304699 0.243849
O O14 0.653495 0.378692 0.425731
O O15 0.500000 0.761595 0.918963
O O16 0.500000 0.354756 0.499394
O O17 0.621965 0.271379 0.585489
O O18 0.500000 0.168635 0.551256
O O19 0.350732 0.110165 0.607148
O O20 0.250000 0.963841 0.250000
O O21 0.227498 0.000000 0.000000
#
# Coordination Sequence:
#
# PCOD9416264 Si02
#       8
#     8   8   8   8   8   8   8   8
#     4  10  20  35  57  78 107 150 196 242 291 350
#     4   9  17  34  60  89 115 146 195 248 292 345
#     4  11  25  38  54  78 117 162 204 243 297 358
#     4  11  23  36  56  83 118 154 192 248 308 356
#     4  10  19  34  58  85 111 144 192 245 295 348
#     4  11  23  40  61  87 117 154 206 255 296 358
#     4   9  18  36  62  88 116 151 195 244 298 357
#     4  10  21  38  61  91 124 156 192 239 300 368
#
# _framework density 20.890673
#
# number of rings (size 3 to 8) (size 9 to 14) (size 15 to 20)
#    0.000    1.875    2.500    1.500    1.750    4.500 
#    0.000    1.250    0.000    3.000    0.000    0.000 
#    0.000    0.000    0.000    0.000    0.000    0.000 
#
# Total GULP energy -356342.739396 kJ/mol
# GULP energy per Si atom -5567.855303 kJ/mol
# Density = 2.084313 g / cm^3
# Si number density = 20.890673 Si / 1000 Ang^3
#
#
#
# Elastic Constant Matrix: (Units=GPa)
#
#
# Indices 1 2 3 4 5 6 
#
# 1 35.2371 19.7962 21.5483 0.0000 0.0000 0.0000
# 2 19.7962 71.0792 13.6608 0.0000 0.0000 0.0000
# 3 21.5483 13.6608 96.0482 0.0000 0.0000 0.0000
# 4 0.0000 0.0000 0.0000 42.0929 0.0000 0.0000
# 5 0.0000 0.0000 0.0000 0.0000 40.1651 0.0000
# 6 0.0000 0.0000 0.0000 0.0000 0.0000 7.8085
#
#
#
# Elastic Compliance Matrix: (Units=1/GPa)
#
#
# Indices 1 2 3 4 5 6 
#
# 1 0.037945 -0.009183 -0.007207 0.000000 0.000000 0.000000
# 2 -0.009183 0.016687 -0.000313 0.000000 0.000000 0.000000
# 3 -0.007207 -0.000313 0.012073 0.000000 0.000000 0.000000
# 4 0.000000 0.000000 0.000000 0.023757 0.000000 0.000000
# 5 0.000000 0.000000 0.000000 0.000000 0.024897 0.000000
# 6 0.000000 0.000000 0.000000 0.000000 0.000000 0.128066
#
#
# Mechanical properties :
#
#
# Convention : Reuss Voigt Hill
#
# Bulk Modulus (GPa) = 30.03122 34.70835 32.36979
# Shear Modulus (GPa) = 17.36530 27.83724 22.60127
#
# Velocity S-wave (km/s) = 2.88626 3.65433 3.29277
# Velocity P-wave (km/s) = 5.05114 5.86991 5.47585
#
# Compressibility (1/GPa) = 0.03329868
#
# Stress axis : x y z
#
# Youngs Moduli (GPa) = 26.35369 59.92856 82.83063
#
# Poissons Ratio (x) = 0.55032 0.59695
# Poissons Ratio (y) = 0.24201 0.02594
# Poissons Ratio (z) = 0.18993 0.01876
#
# Static dielectric constant tensor:
#      x y z
#    x 1.770300 0.000000 0.000000 
#    y 0.000000 1.773510 0.000000 
#    z 0.000000 0.000000 1.800930 
# 
# From -- ./inp_files/16224.got.cif
#   From: 2010.05.17/outbox.cif.g08.bks.cpg/sg53_9_cif.got.tgz:16224.got - 2010.06.03 12:45:16.
