data_PCOD9416186
_publ_section_title
;
Structure prediction by ZEFSAII (Michael W. Deem and Ramdas Pophale) SiO2 
 PCOD9416186
Probable space group: P M N A
;
_chemical_formula_sum "Si O2"
_cell_formula_units_Z 56
_cell_length_a 14.649641
_cell_length_b 18.394652
_cell_length_c 8.446553
_cell_angle_alpha 90.000000
_cell_angle_beta 90.000000
_cell_angle_gamma 90.000000
_cell_volume 2276.135276
_symmetry_space_group_name_H-M "P M N A"
_symmetry_group_IT_number 53
_symmetry_cell_setting 'orthorhombic'
loop_
_space_group_symop_operation_xyz
x,y,z
1/2-x,-y,1/2+z
x,-y,-z
1/2-x,y,1/2-z
-x,-y,-z
1/2+x,y,1/2-z
-x,y,z
1/2+x,-y,1/2+z
loop_
_atom_site_type_symbol
_atom_site_label
_atom_site_fract_x
_atom_site_fract_y
_atom_site_fract_z
Si Si1 0.864317 0.075277 0.937444
Si Si2 0.104495 0.166633 0.220807
Si Si3 0.856317 0.814925 0.295205
Si Si4 0.896404 0.657990 0.179556
Si Si5 0.888645 0.415259 0.497266
Si Si6 0.346161 0.921269 0.977778
Si Si7 0.387750 0.670447 0.680621
O O1 0.895146 0.144670 0.036364
O O2 0.755069 0.071096 0.951718
O O3 0.887284 0.104277 0.764046
O O4 0.902049 0.000000 0.000000
O O5 0.153589 0.095482 0.291562
O O6 0.142170 0.247704 0.222432
O O7 0.000000 0.165243 0.273387
O O8 0.750000 0.805102 0.250000
O O9 0.900580 0.742916 0.229490
O O10 0.871911 0.836205 0.477021
O O11 0.854860 0.620893 0.337598
O O12 0.000000 0.629058 0.166831
O O13 0.857401 0.651247 0.000236
O O14 0.865300 0.500000 0.500000
O O15 0.859861 0.379172 0.330035
O O16 0.000000 0.408206 0.498759
O O17 0.391721 0.000000 0.000000
O O18 0.500000 0.671405 0.674500
#
# Coordination Sequence:
#
# PCOD9416186 Si02
#       7
#     8   8   8   8   8   8   8
#     4  10  20  36  55  74 103 142 186 231 277 326
#     4  11  21  34  52  77 109 141 178 226 277 335
#     4  10  20  34  54  79 103 139 187 230 273 328
#     4  10  19  34  56  80 112 148 178 227 286 326
#     4   9  18  32  53  84 114 142 181 223 268 330
#     4  10  21  36  53  74 103 142 185 235 285 325
#     4   9  18  32  51  79 113 145 178 219 275 332
#
# _framework density 24.603104999999999
#
# number of rings (size 3 to 8) (size 9 to 14) (size 15 to 20)
#    0.000    2.143    1.429    2.143    0.000    5.143 
#    0.000    4.286    0.000    0.000    3.714    0.000 
#    0.000    0.000    0.000    0.000    0.000    0.000 
#
# Total GULP energy -311885.068053 kJ/mol
# GULP energy per Si atom -5569.376215 kJ/mol
# Density = 2.454711 g / cm^3
# Si number density = 24.603105 Si / 1000 Ang^3
#
#
#
# Elastic Constant Matrix: (Units=GPa)
#
#
# Indices 1 2 3 4 5 6 
#
# 1 64.6983 1.0533 12.2604 0.0000 0.0000 0.0000
# 2 1.0533 161.4553 94.0591 0.0000 0.0000 0.0000
# 3 12.2604 94.0591 122.1376 0.0000 0.0000 0.0000
# 4 0.0000 0.0000 0.0000 43.6105 0.0000 0.0000
# 5 0.0000 0.0000 0.0000 0.0000 30.4280 0.0000
# 6 0.0000 0.0000 0.0000 0.0000 0.0000 -6.6375
#
#
#
# Elastic Compliance Matrix: (Units=1/GPa)
#
#
# Indices 1 2 3 4 5 6 
#
# 1 0.015955 0.001503 -0.002759 0.000000 0.000000 0.000000
# 2 0.001503 0.011375 -0.008911 0.000000 0.000000 0.000000
# 3 -0.002759 -0.008911 0.015327 0.000000 0.000000 0.000000
# 4 0.000000 0.000000 0.000000 0.022930 0.000000 0.000000
# 5 0.000000 0.000000 0.000000 0.000000 0.032864 0.000000
# 6 0.000000 0.000000 0.000000 0.000000 0.000000 -0.150658
#
#
# Mechanical properties :
#
#
# Convention : Reuss Voigt Hill
#
# Bulk Modulus (GPa) = 44.79694 62.55964 53.67829
# Shear Modulus (GPa) = -204.65034 29.54142 -87.55446
#
# Velocity S-wave (km/s) = -9.13024 3.46890 -5.97193
# Velocity P-wave (km/s) = 9.63852 6.44415 5.06823
#
# Compressibility (1/GPa) = 0.02232295
#
# Stress axis : x y z
#
# Youngs Moduli (GPa) = 62.67716 87.91103 65.24480
#
# Poissons Ratio (x) = -0.13217 0.18004
# Poissons Ratio (y) = -0.09423 0.58140
# Poissons Ratio (z) = 0.17295 0.78337
#
# Static dielectric constant tensor:
#      x y z
#    x 2.039190 0.000000 0.000000 
#    y 0.000000 1.900800 0.000000 
#    z 0.000000 0.000000 7.366050 
# 
# From -- ./inp_files/11045.got.cif
#   From: 2010.05.17/outbox.cif.g08.bks.cpg/sg53_6_cif.got.tgz:11045.got - 2010.06.03 12:45:16.
