data_PCOD9416035
_publ_section_title
;
Structure prediction by ZEFSAII (Michael W. Deem and Ramdas Pophale) SiO2 
 PCOD9416035
Probable space group: P M N A
;
_chemical_formula_sum "Si O2"
_cell_formula_units_Z 56
_cell_length_a 8.987076
_cell_length_b 15.030498
_cell_length_c 23.183905
_cell_angle_alpha 90.000000
_cell_angle_beta 90.000000
_cell_angle_gamma 90.000000
_cell_volume 3131.687170
_symmetry_space_group_name_H-M "P M N A"
_symmetry_group_IT_number 53
_symmetry_cell_setting 'orthorhombic'
loop_
_space_group_symop_operation_xyz
x,y,z
1/2-x,-y,1/2+z
x,-y,-z
1/2-x,y,1/2-z
-x,-y,-z
1/2+x,y,1/2-z
-x,y,z
1/2+x,-y,1/2+z
loop_
_atom_site_type_symbol
_atom_site_label
_atom_site_fract_x
_atom_site_fract_y
_atom_site_fract_z
Si Si1 0.320362 0.691836 0.689869
Si Si2 0.672830 0.895808 0.515272
Si Si3 0.179336 0.618271 0.052799
Si Si4 0.176683 0.205406 0.587230
Si Si5 0.821696 0.927572 0.310097
Si Si6 0.680656 0.416178 0.423180
Si Si7 0.321990 0.110835 0.349362
O O1 0.250000 0.661353 0.750000
O O2 0.500000 0.685751 0.692949
O O3 0.269776 0.636249 0.633613
O O4 0.282049 0.795516 0.679476
O O5 0.500000 0.869145 0.506323
O O6 0.773743 0.840457 0.472287
O O7 0.708201 0.882464 0.582265
O O8 0.685753 0.000000 0.500000
O O9 0.248119 0.698387 0.088473
O O10 0.222478 0.520239 0.075219
O O11 0.000000 0.623574 0.054289
O O12 0.226169 0.624182 0.985193
O O13 0.223356 0.139331 0.638685
O O14 0.000000 0.214641 0.589452
O O15 0.750000 0.898956 0.250000
O O16 0.000000 0.928806 0.306112
O O17 0.763241 0.026340 0.324411
O O18 0.500000 0.412947 0.423165
O O19 0.500000 0.096640 0.342611
#
# Coordination Sequence:
#
# PCOD9416035 Si02
#       7
#     8   8   8   8   8   8   8
#     4  10  20  34  52  77 110 142 176 216 263 317
#     4  10  19  33  56  82 106 139 182 222 264 317
#     4   9  17  34  62  85 102 134 178 221 270 326
#     4  11  23  36  52  80 115 144 172 219 276 321
#     4  11  24  39  54  72 102 144 186 225 265 312
#     4   8  16  34  59  84 106 132 174 225 268 313
#     4  10  20  35  56  81 108 140 180 224 265 315
#
# _framework density 17.881736
#
# number of rings (size 3 to 8) (size 9 to 14) (size 15 to 20)
#    0.000    2.143    1.429    3.000    0.000    6.571 
#    0.000    5.000    0.000    3.429    0.000    0.000 
#    0.000    0.000    0.000    0.000    0.000    0.000 
#
# Total GULP energy -312619.909395 kJ/mol
# GULP energy per Si atom -5582.498382 kJ/mol
# Density = 1.784104 g / cm^3
# Si number density = 17.881736 Si / 1000 Ang^3
#
#
#
# Elastic Constant Matrix: (Units=GPa)
#
#
# Indices 1 2 3 4 5 6 
#
# 1 20.2940 30.9102 27.8309 0.0000 0.0000 0.0000
# 2 30.9102 100.4927 56.0292 0.0000 0.0000 0.0000
# 3 27.8309 56.0292 98.5262 0.0000 0.0000 0.0000
# 4 0.0000 0.0000 0.0000 19.0869 0.0000 0.0000
# 5 0.0000 0.0000 0.0000 0.0000 23.2950 0.0000
# 6 0.0000 0.0000 0.0000 0.0000 0.0000 -10.0089
#
#
#
# Elastic Compliance Matrix: (Units=1/GPa)
#
#
# Indices 1 2 3 4 5 6 
#
# 1 0.109679 -0.024105 -0.017273 0.000000 0.000000 0.000000
# 2 -0.024105 0.019869 -0.004490 0.000000 0.000000 0.000000
# 3 -0.017273 -0.004490 0.017582 0.000000 0.000000 0.000000
# 4 0.000000 0.000000 0.000000 0.052392 0.000000 0.000000
# 5 0.000000 0.000000 0.000000 0.000000 0.042928 0.000000
# 6 0.000000 0.000000 0.000000 0.000000 0.000000 -0.099911
#
#
# Mechanical properties :
#
#
# Convention : Reuss Voigt Hill
#
# Bulk Modulus (GPa) = 18.05272 49.87261 33.96266
# Shear Modulus (GPa) = 19.78324 13.44411 16.61368
#
# Velocity S-wave (km/s) = 3.32977 2.74494 3.05140
# Velocity P-wave (km/s) = 4.99006 6.16417 5.60793
#
# Compressibility (1/GPa) = 0.05539332
#
# Stress axis : x y z
#
# Youngs Moduli (GPa) = 9.11751 50.33055 56.87643
#
# Poissons Ratio (x) = 1.21323 0.98244
# Poissons Ratio (y) = 0.21978 0.25536
# Poissons Ratio (z) = 0.15749 0.22597
#
# Static dielectric constant tensor:
#      x y z
#    x 1.600590 0.000000 0.000000 
#    y 0.000000 1.609250 0.000000 
#    z 0.000000 0.000000 1.603620 
# 
# From -- ./inp_files/30866.got.cif
#   From: 2010.05.17/outbox.cif.g08.bks.cpg/sg53_16_cif.got.tgz:30866.got - 2010.06.03 12:45:16.
