data_PCOD9416573
_publ_section_title
;
Structure prediction by ZEFSAII (Michael W. Deem and Ramdas Pophale) SiO2 
 PCOD9416573
Probable space group: P M N A
;
_chemical_formula_sum "Si O2"
_cell_formula_units_Z 48
_cell_length_a 17.409865
_cell_length_b 14.700063
_cell_length_c 10.857578
_cell_angle_alpha 90.000000
_cell_angle_beta 90.000000
_cell_angle_gamma 90.000000
_cell_volume 2778.737727
_symmetry_space_group_name_H-M "P M N A"
_symmetry_group_IT_number 53
_symmetry_cell_setting 'orthorhombic'
loop_
_space_group_symop_operation_xyz
x,y,z
1/2-x,-y,1/2+z
x,-y,-z
1/2-x,y,1/2-z
-x,-y,-z
1/2+x,y,1/2-z
-x,y,z
1/2+x,-y,1/2+z
loop_
_atom_site_type_symbol
_atom_site_label
_atom_site_fract_x
_atom_site_fract_y
_atom_site_fract_z
Si Si1 0.588041 0.197478 0.332737
Si Si2 0.909367 0.596548 0.439083
Si Si3 0.159934 0.639924 0.932076
Si Si4 0.681758 0.258211 0.093453
Si Si5 0.772460 0.073807 0.108298
Si Si6 0.335189 0.456049 0.693905
O O1 0.500000 0.172872 0.313460
O O2 0.598466 0.279740 0.428604
O O3 0.627173 0.240069 0.210207
O O4 0.642205 0.115578 0.376873
O O5 0.882692 0.500000 0.500000
O O6 0.866297 0.683615 0.495393
O O7 0.889783 0.587100 0.295762
O O8 0.000000 0.604438 0.461486
O O9 0.241505 0.681467 0.889121
O O10 0.138268 0.557051 0.843065
O O11 0.168937 0.600734 0.068523
O O12 0.716985 0.157991 0.068545
O O13 0.750000 0.045882 0.250000
O O14 0.768864 0.000000 0.000000
O O15 0.250000 0.461484 0.750000
#
# Coordination Sequence:
#
# PCOD9416573 Si02
#       6
#     8   8   8   8   8   8
#     4  10  20  35  58  83 112 144 180 226 285 343
#     4  11  22  34  52  81 115 150 191 232 277 328
#     4  10  20  33  53  75 107 150 197 232 270 324
#     4  10  19  37  58  82 108 147 194 234 273 330
#     4   9  20  40  64  89 111 143 191 240 288 351
#     4  11  20  32  50  74 109 152 193 236 270 316
#
# _framework density 17.274031000000001
#
# number of rings (size 3 to 8) (size 9 to 14) (size 15 to 20)
#    0.000    1.833    1.667    5.000    0.000    3.000 
#    6.000    1.667    0.000   12.500    0.000    0.000 
#    0.000    0.000    0.000    0.000    0.000    0.000 
#
# Total GULP energy -267612.380975 kJ/mol
# GULP energy per Si atom -5575.257937 kJ/mol
# Density = 1.723471 g / cm^3
# Si number density = 17.274031 Si / 1000 Ang^3
#
#
#
# Elastic Constant Matrix: (Units=GPa)
#
#
# Indices 1 2 3 4 5 6 
#
# 1 92.7087 43.0503 34.4422 0.0000 0.0000 0.0000
# 2 43.0503 108.3047 75.9219 0.0000 0.0000 0.0000
# 3 34.4422 75.9219 103.5088 0.0000 0.0000 0.0000
# 4 0.0000 0.0000 0.0000 29.2072 0.0000 0.0000
# 5 0.0000 0.0000 0.0000 0.0000 22.0635 0.0000
# 6 0.0000 0.0000 0.0000 0.0000 0.0000 5.2796
#
#
#
# Elastic Compliance Matrix: (Units=1/GPa)
#
#
# Indices 1 2 3 4 5 6 
#
# 1 0.013292 -0.004493 -0.001127 0.000000 0.000000 0.000000
# 2 -0.004493 0.020524 -0.013559 0.000000 0.000000 0.000000
# 3 -0.001127 -0.013559 0.019981 0.000000 0.000000 0.000000
# 4 0.000000 0.000000 0.000000 0.034238 0.000000 0.000000
# 5 0.000000 0.000000 0.000000 0.000000 0.045324 0.000000
# 6 0.000000 0.000000 0.000000 0.000000 0.000000 0.189409
#
#
# Mechanical properties :
#
#
# Convention : Reuss Voigt Hill
#
# Bulk Modulus (GPa) = 64.77289 67.92790 66.35040
# Shear Modulus (GPa) = 13.65101 21.38391 17.51746
#
# Velocity S-wave (km/s) = 2.81421 3.52223 3.18794
# Velocity P-wave (km/s) = 6.93818 7.48001 7.21418
#
# Compressibility (1/GPa) = 0.01543856
#
# Stress axis : x y z
#
# Youngs Moduli (GPa) = 75.23505 48.72307 50.04676
#
# Poissons Ratio (x) = 0.21893 0.05640
# Poissons Ratio (y) = 0.33805 0.67858
# Poissons Ratio (z) = 0.08479 0.66064
#
# Static dielectric constant tensor:
#      x y z
#    x 1.593930 0.000000 0.000000 
#    y 0.000000 1.587200 0.000000 
#    z 0.000000 0.000000 1.604910 
# 
# From -- ./inp_files/16956.got.cif
#   From: 2010.05.17/outbox.cif.g08.bks.cpg/sg53_9_cif.got.tgz:16956.got - 2010.06.03 12:45:16.
