data_PCOD9416894
_publ_section_title
;
Structure prediction by ZEFSAII (Michael W. Deem and Ramdas Pophale) SiO2 
 PCOD9416894
Probable space group: P M N A
;
_chemical_formula_sum "Si O2"
_cell_formula_units_Z 48
_cell_length_a 9.427470
_cell_length_b 30.705611
_cell_length_c 8.947550
_cell_angle_alpha 90.000000
_cell_angle_beta 90.000000
_cell_angle_gamma 90.000000
_cell_volume 2590.103011
_symmetry_space_group_name_H-M "P M N A"
_symmetry_group_IT_number 53
_symmetry_cell_setting 'orthorhombic'
loop_
_space_group_symop_operation_xyz
x,y,z
1/2-x,-y,1/2+z
x,-y,-z
1/2-x,y,1/2-z
-x,-y,-z
1/2+x,y,1/2-z
-x,y,z
1/2+x,-y,1/2+z
loop_
_atom_site_type_symbol
_atom_site_label
_atom_site_fract_x
_atom_site_fract_y
_atom_site_fract_z
Si Si1 0.831058 0.544360 0.591982
Si Si2 0.672674 0.799072 0.090384
Si Si3 0.170605 0.276266 0.090996
Si Si4 0.755392 0.897107 0.431115
Si Si5 0.500000 0.950865 0.566967
Si Si6 0.169678 0.373658 0.089318
Si Si7 0.500000 0.047001 0.074162
O O1 0.816995 0.500000 0.500000
O O2 0.750000 0.538338 0.750000
O O3 0.750664 0.585524 0.515792
O O4 0.000000 0.553174 0.611394
O O5 0.750000 0.796960 0.250000
O O6 0.500000 0.796050 0.098898
O O7 0.716258 0.846717 0.028938
O O8 0.745349 0.760409 0.998724
O O9 0.250000 0.277271 0.250000
O O10 0.185434 0.325138 0.023151
O O11 0.000000 0.267774 0.104293
O O12 0.750000 0.899784 0.250000
O O13 0.624372 0.921059 0.504156
O O14 0.873892 0.925996 0.505231
O O15 0.500000 0.954874 0.746499
O O16 0.500000 0.000000 0.500000
O O17 0.250000 0.371347 0.250000
O O18 0.000000 0.381570 0.104781
O O19 0.500000 0.000000 0.000000
#
# Coordination Sequence:
#
# PCOD9416894 Si02
#       7
#     8   8   8   8   4   8   4
#     4  10  20  33  52  79 110 149 195 244 298 357
#     4  11  24  42  65  90 121 161 201 245 305 366
#     4  10  21  37  60  90 122 156 199 249 299 356
#     4  11  24  43  66  91 123 165 207 248 306 369
#     4  12  26  42  66  98 126 166 204 254 307 360
#     4   9  17  31  53  80 111 151 194 239 295 353
#     4  12  24  44  66  92 130 160 206 256 301 364
#
# _framework density 18.532081000000002
#
# number of rings (size 3 to 8) (size 9 to 14) (size 15 to 20)
#    0.000    1.500    0.833    5.500    4.667    4.667 
#    0.000    0.833    0.000    2.000    0.000    0.000 
#    0.000    0.000    0.000    0.000    0.000    0.000 
#
# Total GULP energy -267333.513993 kJ/mol
# GULP energy per Si atom -5569.448208 kJ/mol
# Density = 1.848990 g / cm^3
# Si number density = 18.532081 Si / 1000 Ang^3
#
#
#
# Elastic Constant Matrix: (Units=GPa)
#
#
# Indices 1 2 3 4 5 6 
#
# 1 207.8123 107.4243 43.1394 0.0000 0.0000 0.0000
# 2 107.4243 216.3012 69.4693 0.0000 0.0000 0.0000
# 3 43.1394 69.4693 70.5577 0.0000 0.0000 0.0000
# 4 0.0000 0.0000 0.0000 35.6674 0.0000 0.0000
# 5 0.0000 0.0000 0.0000 0.0000 28.1601 0.0000
# 6 0.0000 0.0000 0.0000 0.0000 0.0000 37.0962
#
#
#
# Elastic Compliance Matrix: (Units=1/GPa)
#
#
# Indices 1 2 3 4 5 6 
#
# 1 0.006540 -0.002872 -0.001171 0.000000 0.000000 0.000000
# 2 -0.002872 0.008022 -0.006143 0.000000 0.000000 0.000000
# 3 -0.001171 -0.006143 0.020937 0.000000 0.000000 0.000000
# 4 0.000000 0.000000 0.000000 0.028037 0.000000 0.000000
# 5 0.000000 0.000000 0.000000 0.000000 0.035511 0.000000
# 6 0.000000 0.000000 0.000000 0.000000 0.000000 0.026957
#
#
# Mechanical properties :
#
#
# Convention : Reuss Voigt Hill
#
# Bulk Modulus (GPa) = 66.10349 103.85969 84.98159
# Shear Modulus (GPa) = 33.02144 38.49396 35.75770
#
# Velocity S-wave (km/s) = 4.22578 4.56252 4.39738
# Velocity P-wave (km/s) = 7.71731 9.16080 8.46986
#
# Compressibility (1/GPa) = 0.01512779
#
# Stress axis : x y z
#
# Youngs Moduli (GPa) = 152.91435 124.65269 47.76319
#
# Poissons Ratio (x) = 0.35798 0.05592
# Poissons Ratio (y) = 0.43914 0.29340
# Poissons Ratio (z) = 0.17904 0.76570
#
# Static dielectric constant tensor:
#      x y z
#    x 1.591390 0.000000 0.000000 
#    y 0.000000 1.644850 0.000000 
#    z 0.000000 0.000000 1.591230 
# 
# From -- ./inp_files/6767.got.cif
#   From: 2010.05.17/outbox.cif.g08.bks.cpg/sg53_4_cif.got.tgz:6767.got - 2010.06.03 12:45:16.
