data_PCOD9416314
_publ_section_title
;
Structure prediction by ZEFSAII (Michael W. Deem and Ramdas Pophale) SiO2 
 PCOD9416314
Probable space group: P M N A
;
_chemical_formula_sum "Si O2"
_cell_formula_units_Z 64
_cell_length_a 13.547058
_cell_length_b 8.846343
_cell_length_c 23.879221
_cell_angle_alpha 90.000000
_cell_angle_beta 90.000000
_cell_angle_gamma 90.000000
_cell_volume 2861.731734
_symmetry_space_group_name_H-M "P M N A"
_symmetry_group_IT_number 53
_symmetry_cell_setting 'orthorhombic'
loop_
_space_group_symop_operation_xyz
x,y,z
1/2-x,-y,1/2+z
x,-y,-z
1/2-x,y,1/2-z
-x,-y,-z
1/2+x,y,1/2-z
-x,y,z
1/2+x,-y,1/2+z
loop_
_atom_site_type_symbol
_atom_site_label
_atom_site_fract_x
_atom_site_fract_y
_atom_site_fract_z
Si Si1 0.109179 0.089599 0.401499
Si Si2 0.381851 0.070501 0.693747
Si Si3 0.223996 0.838599 0.992969
Si Si4 0.110338 0.407262 0.076608
Si Si5 0.167010 0.269544 0.189369
Si Si6 0.773054 0.294839 0.889192
Si Si7 0.885481 0.808660 0.318457
Si Si8 0.609647 0.644895 0.810658
O O1 0.188834 0.125932 0.448933
O O2 0.103198 0.230188 0.359321
O O3 0.000000 0.064247 0.426355
O O4 0.130824 0.950115 0.360009
O O5 0.500000 0.041911 0.690084
O O6 0.346704 0.185709 0.645628
O O7 0.362881 0.145457 0.754694
O O8 0.322669 0.912792 0.689182
O O9 0.158656 0.703680 0.968589
O O10 0.261226 0.786044 0.053628
O O11 0.169538 0.000000 0.000000
O O12 0.109840 0.312685 0.133849
O O13 0.174480 0.554095 0.090392
O O14 0.000000 0.451577 0.061417
O O15 0.268439 0.367520 0.187247
O O16 0.108451 0.303154 0.245942
O O17 0.682630 0.319146 0.845930
O O18 0.000000 0.772457 0.320342
O O19 0.500000 0.563783 0.816672
#
# Coordination Sequence:
#
# PCOD9416314 Si02
#       8
#     8   8   8   8   8   8   8   8
#     4  10  19  38  69 107 142 173 216 285 358 410
#     4  11  22  40  70 105 137 181 236 290 347 413
#     4  12  25  45  72 103 128 177 243 300 343 406
#     4  12  28  49  68  95 139 190 237 290 361 421
#     4  11  21  38  68 101 137 176 229 291 341 409
#     4  12  26  44  67  94 143 186 229 282 349 417
#     4  10  21  41  71 105 142 181 226 283 353 423
#     4  10  19  34  62  99 139 174 212 275 349 405
#
# _framework density 22.364082
#
# number of rings (size 3 to 8) (size 9 to 14) (size 15 to 20)
#    0.000    1.000    3.750    3.750    1.750    2.500 
#    4.500    1.250    0.000    1.500    0.000    0.000 
#    0.000    0.000    0.000    0.000    0.000    0.000 
#
# Total GULP energy -357006.266229 kJ/mol
# GULP energy per Si atom -5578.222910 kJ/mol
# Density = 2.231318 g / cm^3
# Si number density = 22.364082 Si / 1000 Ang^3
#
#
#
# Elastic Constant Matrix: (Units=GPa)
#
#
# Indices 1 2 3 4 5 6 
#
# 1 140.8011 36.0553 28.8965 0.0000 0.0000 0.0000
# 2 36.0553 79.2035 51.9313 0.0000 0.0000 0.0000
# 3 28.8965 51.9313 147.1209 0.0000 0.0000 0.0000
# 4 0.0000 0.0000 0.0000 -10.9105 0.0000 0.0000
# 5 0.0000 0.0000 0.0000 0.0000 74.5266 0.0000
# 6 0.0000 0.0000 0.0000 0.0000 0.0000 24.0409
#
#
#
# Elastic Compliance Matrix: (Units=1/GPa)
#
#
# Indices 1 2 3 4 5 6 
#
# 1 0.008055 -0.003421 -0.000374 0.000000 0.000000 0.000000
# 2 -0.003421 0.017881 -0.005640 0.000000 0.000000 0.000000
# 3 -0.000374 -0.005640 0.008861 0.000000 0.000000 0.000000
# 4 0.000000 0.000000 0.000000 -0.091655 0.000000 0.000000
# 5 0.000000 0.000000 0.000000 0.000000 0.013418 0.000000
# 6 0.000000 0.000000 0.000000 0.000000 0.000000 0.041596
#
#
# Mechanical properties :
#
#
# Convention : Reuss Voigt Hill
#
# Bulk Modulus (GPa) = 62.78844 66.76573 64.77709
# Shear Modulus (GPa) = 223.84893 34.21423 129.03158
#
# Velocity S-wave (km/s) = 10.01551 3.91560 7.60402
# Velocity P-wave (km/s) = 12.72335 7.09658 10.30158
#
# Compressibility (1/GPa) = 0.01592650
#
# Stress axis : x y z
#
# Youngs Moduli (GPa) = 124.14354 55.92531 112.84898
#
# Poissons Ratio (x) = 0.19134 0.04226
# Poissons Ratio (y) = 0.42474 0.63643
# Poissons Ratio (z) = 0.04648 0.31540
#
# Static dielectric constant tensor:
#      x y z
#    x 1.711020 0.000000 0.000000 
#    y 0.000000 1.859990 0.000000 
#    z 0.000000 0.000000 1.776780 
# 
# From -- ./inp_files/35369.got.cif
#   From: 2010.05.17/outbox.cif.g08.bks.cpg/sg53_18_cif.got.tgz:35369.got - 2010.06.03 12:45:16.
