data_PCOD9416831
_publ_section_title
;
Structure prediction by ZEFSAII (Michael W. Deem and Ramdas Pophale) SiO2 
 PCOD9416831
Probable space group: P M N A
;
_chemical_formula_sum "Si O2"
_cell_formula_units_Z 64
_cell_length_a 7.679043
_cell_length_b 15.198313
_cell_length_c 25.477540
_cell_angle_alpha 90.000000
_cell_angle_beta 90.000000
_cell_angle_gamma 90.000000
_cell_volume 2973.445453
_symmetry_space_group_name_H-M "P M N A"
_symmetry_group_IT_number 53
_symmetry_cell_setting 'orthorhombic'
loop_
_space_group_symop_operation_xyz
x,y,z
1/2-x,-y,1/2+z
x,-y,-z
1/2-x,y,1/2-z
-x,-y,-z
1/2+x,y,1/2-z
-x,y,z
1/2+x,-y,1/2+z
loop_
_atom_site_type_symbol
_atom_site_label
_atom_site_fract_x
_atom_site_fract_y
_atom_site_fract_z
Si Si1 0.699356 0.977875 0.669833
Si Si2 0.209630 0.228277 0.485332
Si Si3 0.209439 0.958875 0.555187
Si Si4 0.797030 0.280164 0.903731
Si Si5 0.207104 0.780912 0.810025
Si Si6 0.294142 0.359617 0.100285
Si Si7 0.790192 0.167301 0.806821
Si Si8 0.703728 0.465000 0.555814
O O1 0.500000 0.972658 0.688997
O O2 0.703121 0.993350 0.607359
O O3 0.778337 0.880759 0.680063
O O4 0.781602 0.067079 0.692059
O O5 0.249994 0.143831 0.450452
O O6 0.283905 0.222892 0.543365
O O7 0.274272 0.311150 0.452254
O O8 0.000000 0.231909 0.490255
O O9 0.000000 0.970716 0.560283
O O10 0.263069 0.000000 0.500000
O O11 0.722152 0.227019 0.854543
O O12 0.719226 0.374403 0.921315
O O13 0.000000 0.295677 0.891023
O O14 0.250000 0.757380 0.750000
O O15 0.266991 0.706267 0.850965
O O16 0.000000 0.785618 0.816707
O O17 0.500000 0.370003 0.094368
O O18 0.217250 0.457001 0.098414
O O19 0.750000 0.206219 0.750000
O O20 0.000000 0.160038 0.813181
O O21 0.778782 0.500000 0.500000
O O22 0.500000 0.446723 0.545595
#
# Coordination Sequence:
#
# PCOD9416831 Si02
#       8
#     8   8   8   8   8   8   8   8
#     4  10  21  36  56  83 113 148 192 237 281 334
#     4  10  20  33  52  82 117 149 185 231 284 341
#     4  10  20  33  50  77 115 156 193 232 282 338
#     4  10  21  37  59  85 114 149 191 239 289 344
#     4  11  23  39  60  85 115 153 195 238 286 340
#     4  11  22  37  58  85 118 152 188 236 287 341
#     4  10  22  40  59  83 113 148 192 238 283 333
#     4  10  20  36  59  86 116 152 191 234 291 350
#
# _framework density 21.523852000000002
#
# number of rings (size 3 to 8) (size 9 to 14) (size 15 to 20)
#    0.000    1.750    2.500    1.875    0.000    3.500 
#    0.000    0.625    0.000    1.500    0.000    0.000 
#    0.000    0.000    0.000    0.000    0.000    0.000 
#
# Total GULP energy -357348.545735 kJ/mol
# GULP energy per Si atom -5583.571027 kJ/mol
# Density = 2.147486 g / cm^3
# Si number density = 21.523852 Si / 1000 Ang^3
#
#
#
# Elastic Constant Matrix: (Units=GPa)
#
#
# Indices 1 2 3 4 5 6 
#
# 1 40.9021 7.1825 -10.0205 0.0000 0.0000 0.0000
# 2 7.1825 93.7184 47.0967 0.0000 0.0000 0.0000
# 3 -10.0205 47.0967 139.7223 0.0000 0.0000 0.0000
# 4 0.0000 0.0000 0.0000 14.2844 0.0000 0.0000
# 5 0.0000 0.0000 0.0000 0.0000 17.1803 0.0000
# 6 0.0000 0.0000 0.0000 0.0000 0.0000 6.2238
#
#
#
# Elastic Compliance Matrix: (Units=1/GPa)
#
#
# Indices 1 2 3 4 5 6 
#
# 1 0.025806 -0.003501 0.003031 0.000000 0.000000 0.000000
# 2 -0.003501 0.013321 -0.004741 0.000000 0.000000 0.000000
# 3 0.003031 -0.004741 0.008973 0.000000 0.000000 0.000000
# 4 0.000000 0.000000 0.000000 0.070007 0.000000 0.000000
# 5 0.000000 0.000000 0.000000 0.000000 0.058206 0.000000
# 6 0.000000 0.000000 0.000000 0.000000 0.000000 0.160673
#
#
# Mechanical properties :
#
#
# Convention : Reuss Voigt Hill
#
# Bulk Modulus (GPa) = 26.54138 40.31779 33.42959
# Shear Modulus (GPa) = 13.89014 22.87662 18.38338
#
# Velocity S-wave (km/s) = 2.54310 3.26367 2.92566
# Velocity P-wave (km/s) = 4.58051 5.74234 5.19401
#
# Compressibility (1/GPa) = 0.03767701
#
# Stress axis : x y z
#
# Youngs Moduli (GPa) = 38.75085 75.06820 111.45068
#
# Poissons Ratio (x) = 0.26280 -0.33778
# Poissons Ratio (y) = 0.13566 0.52842
# Poissons Ratio (z) = -0.11744 0.35592
#
# Static dielectric constant tensor:
#      x y z
#    x 1.787780 0.000000 0.000000 
#    y 0.000000 1.830110 0.000000 
#    z 0.000000 0.000000 1.767300 
# 
# From -- ./inp_files/34154.got.cif
#   From: 2010.05.17/outbox.cif.g08.bks.cpg/sg53_18_cif.got.tgz:34154.got - 2010.06.03 12:45:16.
