data_PCOD9416589
_publ_section_title
;
Structure prediction by ZEFSAII (Michael W. Deem and Ramdas Pophale) SiO2 
 PCOD9416589
Probable space group: P M N A
;
_chemical_formula_sum "Si O2"
_cell_formula_units_Z 64
_cell_length_a 8.961501
_cell_length_b 15.722841
_cell_length_c 24.273499
_cell_angle_alpha 90.000000
_cell_angle_beta 90.000000
_cell_angle_gamma 90.000000
_cell_volume 3420.142207
_symmetry_space_group_name_H-M "P M N A"
_symmetry_group_IT_number 53
_symmetry_cell_setting 'orthorhombic'
loop_
_space_group_symop_operation_xyz
x,y,z
1/2-x,-y,1/2+z
x,-y,-z
1/2-x,y,1/2-z
-x,-y,-z
1/2+x,y,1/2-z
-x,y,z
1/2+x,-y,1/2+z
loop_
_atom_site_type_symbol
_atom_site_label
_atom_site_fract_x
_atom_site_fract_y
_atom_site_fract_z
Si Si1 0.321023 0.001584 0.810210
Si Si2 0.676168 0.398157 0.003677
Si Si3 0.320282 0.503227 0.309958
Si Si4 0.821362 0.340494 0.117737
Si Si5 0.320898 0.657143 0.390187
Si Si6 0.177238 0.849500 0.118999
Si Si7 0.820784 0.837011 0.616842
Si Si8 0.324043 0.898129 0.005194
O O1 0.250000 0.997018 0.750000
O O2 0.500000 0.005166 0.806541
O O3 0.280617 0.918089 0.845945
O O4 0.261747 0.083986 0.842438
O O5 0.500000 0.380814 0.007858
O O6 0.741670 0.357247 0.948468
O O7 0.698428 0.500000 0.000000
O O8 0.757002 0.363169 0.057713
O O9 0.250000 0.508547 0.250000
O O10 0.500000 0.504496 0.305485
O O11 0.276907 0.416190 0.340912
O O12 0.275682 0.582849 0.348221
O O13 0.757352 0.249436 0.135032
O O14 0.000000 0.337758 0.115145
O O15 0.500000 0.651082 0.398610
O O16 0.288279 0.751232 0.367823
O O17 0.000000 0.862554 0.123963
O O18 0.228690 0.865651 0.056260
O O19 0.781629 0.857014 0.553185
O O20 0.000000 0.827086 0.619141
O O21 0.500000 0.880554 0.015445
O O22 0.308458 0.000000 0.000000
#
# Coordination Sequence:
#
# PCOD9416589 Si02
#       8
#     8   8   8   8   8   8   8   8
#     4  11  24  44  65  87 119 161 203 251 304 355
#     4  11  22  36  60  93 124 158 200 244 296 357
#     4  10  23  42  62  84 115 156 200 245 297 351
#     4  11  23  39  62  89 121 160 198 245 302 356
#     4  10  22  41  62  88 123 160 198 243 301 358
#     4  11  23  38  61  93 123 156 200 248 297 359
#     4  10  22  40  63  89 121 159 198 244 299 359
#     4  10  19  37  61  86 120 160 196 236 299 361
#
# _framework density 18.712672000000001
#
# number of rings (size 3 to 8) (size 9 to 14) (size 15 to 20)
#    0.000    1.500    2.500    2.250    0.000    7.750 
#    0.000    3.750    0.000    0.000    0.000    0.000 
#    0.000    0.000    0.000    0.000    0.000    0.000 
#
# Total GULP energy -357809.891224 kJ/mol
# GULP energy per Si atom -5590.779550 kJ/mol
# Density = 1.867008 g / cm^3
# Si number density = 18.712672 Si / 1000 Ang^3
#
#
#
# Elastic Constant Matrix: (Units=GPa)
#
#
# Indices 1 2 3 4 5 6 
#
# 1 34.1856 41.9637 30.8417 0.0000 0.0000 0.0000
# 2 41.9637 113.2412 38.4266 0.0000 0.0000 0.0000
# 3 30.8417 38.4266 106.5749 0.0000 0.0000 0.0000
# 4 0.0000 0.0000 0.0000 -1.0832 0.0000 0.0000
# 5 0.0000 0.0000 0.0000 0.0000 35.7250 0.0000
# 6 0.0000 0.0000 0.0000 0.0000 0.0000 33.8179
#
#
#
# Elastic Compliance Matrix: (Units=1/GPa)
#
#
# Indices 1 2 3 4 5 6 
#
# 1 0.063741 -0.019781 -0.011314 0.000000 0.000000 0.000000
# 2 -0.019781 0.016201 -0.000117 0.000000 0.000000 0.000000
# 3 -0.011314 -0.000117 0.012699 0.000000 0.000000 0.000000
# 4 0.000000 0.000000 0.000000 -0.923191 0.000000 0.000000
# 5 0.000000 0.000000 0.000000 0.000000 0.027992 0.000000
# 6 0.000000 0.000000 0.000000 0.000000 0.000000 0.029570
#
#
# Mechanical properties :
#
#
# Convention : Reuss Voigt Hill
#
# Bulk Modulus (GPa) = 33.09346 52.94063 43.01704
# Shear Modulus (GPa) = -7.13784 23.20991 8.03603
#
# Velocity S-wave (km/s) = -1.95518 3.52565 2.07455
# Velocity P-wave (km/s) = 3.55338 6.70272 5.36437
#
# Compressibility (1/GPa) = 0.03021745
#
# Stress axis : x y z
#
# Youngs Moduli (GPa) = 15.68839 61.72553 78.74480
#
# Poissons Ratio (x) = 1.22102 0.89090
# Poissons Ratio (y) = 0.31034 0.00919
# Poissons Ratio (z) = 0.17749 0.00721
#
# Static dielectric constant tensor:
#      x y z
#    x 1.625170 0.000000 0.000000 
#    y 0.000000 1.651910 0.000000 
#    z 0.000000 0.000000 1.600110 
# 
# From -- ./inp_files/34162.got.cif
#   From: 2010.05.17/outbox.cif.g08.bks.cpg/sg53_18_cif.got.tgz:34162.got - 2010.06.03 12:45:16.
