data_PCOD9416346
_publ_section_title
;
Structure prediction by ZEFSAII (Michael W. Deem and Ramdas Pophale) SiO2 
 PCOD9416346
Probable space group: P M N A
;
_chemical_formula_sum "Si O2"
_cell_formula_units_Z 48
_cell_length_a 8.015086
_cell_length_b 15.312759
_cell_length_c 19.440806
_cell_angle_alpha 90.000000
_cell_angle_beta 90.000000
_cell_angle_gamma 90.000000
_cell_volume 2386.030004
_symmetry_space_group_name_H-M "P M N A"
_symmetry_group_IT_number 53
_symmetry_cell_setting 'orthorhombic'
loop_
_space_group_symop_operation_xyz
x,y,z
1/2-x,-y,1/2+z
x,-y,-z
1/2-x,y,1/2-z
-x,-y,-z
1/2+x,y,1/2-z
-x,y,z
1/2+x,-y,1/2+z
loop_
_atom_site_type_symbol
_atom_site_label
_atom_site_fract_x
_atom_site_fract_y
_atom_site_fract_z
Si Si1 0.192446 0.953395 0.898076
Si Si2 0.703767 0.372611 0.421170
Si Si3 0.798787 0.535593 0.170889
Si Si4 0.201016 0.213930 0.173692
Si Si5 0.201919 0.316616 0.928747
Si Si6 0.690446 0.876410 0.037858
O O1 0.262943 0.883117 0.844515
O O2 0.000000 0.972799 0.882130
O O3 0.284909 0.044537 0.908658
O O4 0.200558 0.902566 0.971457
O O5 0.500000 0.374237 0.420802
O O6 0.760459 0.456150 0.377678
O O7 0.758948 0.285225 0.381462
O O8 0.753782 0.365517 0.500619
O O9 0.750000 0.525317 0.250000
O O10 0.742016 0.626208 0.136159
O O11 0.000000 0.534470 0.168054
O O12 0.250000 0.240763 0.250000
O O13 0.000000 0.210914 0.168806
O O14 0.264366 0.217670 0.932637
O O15 0.000000 0.313473 0.928592
O O16 0.500000 0.876426 0.013995
#
# Coordination Sequence:
#
# PCOD9416346 Si02
#       6
#     8   8   8   8   8   8
#     4  10  19  35  56  78 108 149 185 219 267 334
#     4   9  17  34  57  83 108 141 189 230 270 327
#     4  10  21  36  58  82 111 148 184 231 281 331
#     4  10  20  33  53  80 113 148 182 225 276 330
#     4  10  19  36  59  82 108 146 193 230 269 332
#     4  11  21  33  54  84 111 138 177 234 283 317
#
# _framework density 20.117097999999999
#
# number of rings (size 3 to 8) (size 9 to 14) (size 15 to 20)
#    0.000    2.000    1.667    4.000    0.000    4.000 
#    0.000    1.667    0.000    2.000    0.000    0.000 
#    0.000    0.000    0.000    0.000    0.000    0.000 
#
# Total GULP energy -267992.091890 kJ/mol
# GULP energy per Si atom -5583.168581 kJ/mol
# Density = 2.007131 g / cm^3
# Si number density = 20.117098 Si / 1000 Ang^3
#
#
#
# Elastic Constant Matrix: (Units=GPa)
#
#
# Indices 1 2 3 4 5 6 
#
# 1 25.3777 9.3336 4.0192 0.0000 0.0000 0.0000
# 2 9.3336 131.1073 31.5531 0.0000 0.0000 0.0000
# 3 4.0192 31.5531 49.2797 0.0000 0.0000 0.0000
# 4 0.0000 0.0000 0.0000 24.0173 0.0000 0.0000
# 5 0.0000 0.0000 0.0000 0.0000 15.5543 0.0000
# 6 0.0000 0.0000 0.0000 0.0000 0.0000 -2.4024
#
#
#
# Elastic Compliance Matrix: (Units=1/GPa)
#
#
# Indices 1 2 3 4 5 6 
#
# 1 0.040588 -0.002474 -0.001726 0.000000 0.000000 0.000000
# 2 -0.002474 0.009168 -0.005668 0.000000 0.000000 0.000000
# 3 -0.001726 -0.005668 0.024062 0.000000 0.000000 0.000000
# 4 0.000000 0.000000 0.000000 0.041637 0.000000 0.000000
# 5 0.000000 0.000000 0.000000 0.000000 0.064291 0.000000
# 6 0.000000 0.000000 0.000000 0.000000 0.000000 -0.416252
#
#
# Mechanical properties :
#
#
# Convention : Reuss Voigt Hill
#
# Bulk Modulus (GPa) = 18.49074 32.84184 25.66629
# Shear Modulus (GPa) = -25.15816 18.15776 -3.50020
#
# Velocity S-wave (km/s) = -3.54020 3.00759 -1.32049
# Velocity P-wave (km/s) = 2.73846 5.33119 3.23438
#
# Compressibility (1/GPa) = 0.05408114
#
# Stress axis : x y z
#
# Youngs Moduli (GPa) = 24.63786 109.07992 41.55878
#
# Poissons Ratio (x) = 0.26987 0.07174
# Poissons Ratio (y) = 0.06096 0.23556
# Poissons Ratio (z) = 0.04253 0.61828
#
# Static dielectric constant tensor:
#      x y z
#    x 1.720520 0.000000 0.000000 
#    y 0.000000 1.720560 0.000000 
#    z 0.000000 0.000000 1.689290 
# 
# From -- ./inp_files/26244.got.cif
#   From: 2010.05.17/outbox.cif.g08.bks.cpg/sg53_14_cif.got.tgz:26244.got - 2010.06.03 12:45:16.
