data_PCOD9416995
_publ_section_title
;
Structure prediction by ZEFSAII (Michael W. Deem and Ramdas Pophale) SiO2 
 PCOD9416995
Probable space group: P M N A
;
_chemical_formula_sum "Si O2"
_cell_formula_units_Z 40
_cell_length_a 8.481999
_cell_length_b 26.495454
_cell_length_c 9.721176
_cell_angle_alpha 90.000000
_cell_angle_beta 90.000000
_cell_angle_gamma 90.000000
_cell_volume 2184.682795
_symmetry_space_group_name_H-M "P M N A"
_symmetry_group_IT_number 53
_symmetry_cell_setting 'orthorhombic'
loop_
_space_group_symop_operation_xyz
x,y,z
1/2-x,-y,1/2+z
x,-y,-z
1/2-x,y,1/2-z
-x,-y,-z
1/2+x,y,1/2-z
-x,y,z
1/2+x,-y,1/2+z
loop_
_atom_site_type_symbol
_atom_site_label
_atom_site_fract_x
_atom_site_fract_y
_atom_site_fract_z
Si Si1 0.189134 0.046624 0.405621
Si Si2 0.690340 0.753745 0.403241
Si Si3 0.189226 0.154904 0.094767
Si Si4 0.809477 0.639379 0.095847
Si Si5 0.690589 0.452646 0.405871
O O1 0.250000 0.040321 0.250000
O O2 0.250514 0.100743 0.457786
O O3 0.000000 0.048007 0.402921
O O4 0.240890 0.000000 0.500000
O O5 0.750000 0.763962 0.250000
O O6 0.500000 0.754021 0.403186
O O7 0.744548 0.797665 0.504985
O O8 0.741289 0.696606 0.439687
O O9 0.250000 0.160193 0.250000
O O10 0.000000 0.153987 0.095867
O O11 0.750000 0.627663 0.250000
O O12 0.000000 0.638395 0.099709
O O13 0.756917 0.598170 0.984808
O O14 0.740832 0.500000 0.500000
O O15 0.750000 0.455910 0.250000
O O16 0.500000 0.452744 0.401929
#
# Coordination Sequence:
#
# PCOD9416995 Si02
#       5
#     8   8   8   8   8
#     4  10  21  36  54  76 101 131 167 205 248 298
#     4   9  19  34  52  75 102 133 168 207 250 296
#     4  10  20  34  52  74 101 132 166 205 249 296
#     4   9  18  34  53  74 102 133 168 209 251 297
#     4  10  21  35  52  76 104 134 170 211 253 300
#
# _framework density 18.309294999999999
#
# number of rings (size 3 to 8) (size 9 to 14) (size 15 to 20)
#    0.000    2.400    0.000    3.000    0.000    6.000 
#    0.000    4.000    0.000    0.000    0.000    0.000 
#    0.000    0.000    0.000    0.000    0.000    0.000 
#
# Total GULP energy -223191.794773 kJ/mol
# GULP energy per Si atom -5579.794869 kJ/mol
# Density = 1.826762 g / cm^3
# Si number density = 18.309295 Si / 1000 Ang^3
#
#
#
# Elastic Constant Matrix: (Units=GPa)
#
#
# Indices 1 2 3 4 5 6 
#
# 1 19.1006 29.6785 18.6796 0.0000 0.0000 0.0000
# 2 29.6785 187.7497 123.2227 0.0000 0.0000 0.0000
# 3 18.6796 123.2227 120.7135 0.0000 0.0000 0.0000
# 4 0.0000 0.0000 0.0000 43.7310 0.0000 0.0000
# 5 0.0000 0.0000 0.0000 0.0000 28.0307 0.0000
# 6 0.0000 0.0000 0.0000 0.0000 0.0000 -4.2562
#
#
#
# Elastic Compliance Matrix: (Units=1/GPa)
#
#
# Indices 1 2 3 4 5 6 
#
# 1 0.069477 -0.011897 0.001393 0.000000 0.000000 0.000000
# 2 -0.011897 0.018175 -0.016712 0.000000 0.000000 0.000000
# 3 0.001393 -0.016712 0.025128 0.000000 0.000000 0.000000
# 4 0.000000 0.000000 0.000000 0.022867 0.000000 0.000000
# 5 0.000000 0.000000 0.000000 0.000000 0.035675 0.000000
# 6 0.000000 0.000000 0.000000 0.000000 0.000000 -0.234951
#
#
# Mechanical properties :
#
#
# Convention : Reuss Voigt Hill
#
# Bulk Modulus (GPa) = 17.13832 74.52506 45.83169
# Shear Modulus (GPa) = 487.65420 23.89996 255.77708
#
# Velocity S-wave (km/s) = 16.33771 3.61688 11.83221
# Velocity P-wave (km/s) = 19.11217 7.63113 14.55179
#
# Compressibility (1/GPa) = 0.05834877
#
# Stress axis : x y z
#
# Youngs Moduli (GPa) = 14.39317 55.02016 39.79646
#
# Poissons Ratio (x) = 0.65457 -0.05544
# Poissons Ratio (y) = 0.17124 0.66508
# Poissons Ratio (z) = -0.02005 0.91950
#
# Static dielectric constant tensor:
#      x y z
#    x 1.626820 0.000000 0.000000 
#    y 0.000000 1.652170 0.000000 
#    z 0.000000 0.000000 1.585190 
# 
# From -- ./inp_files/6437.got.cif
#   From: 2010.05.17/outbox.cif.g08.bks.cpg/sg53_4_cif.got.tgz:6437.got - 2010.06.03 12:45:16.
