data_PCOD9416663
_publ_section_title
;
Structure prediction by ZEFSAII (Michael W. Deem and Ramdas Pophale) SiO2 
 PCOD9416663
Probable space group: P M N A
;
_chemical_formula_sum "Si O2"
_cell_formula_units_Z 32
_cell_length_a 8.443628
_cell_length_b 7.630051
_cell_length_c 21.143265
_cell_angle_alpha 90.000000
_cell_angle_beta 90.000000
_cell_angle_gamma 90.000000
_cell_volume 1362.161450
_symmetry_space_group_name_H-M "P M N A"
_symmetry_group_IT_number 53
_symmetry_cell_setting 'orthorhombic'
loop_
_space_group_symop_operation_xyz
x,y,z
1/2-x,-y,1/2+z
x,-y,-z
1/2-x,y,1/2-z
-x,-y,-z
1/2+x,y,1/2-z
-x,y,z
1/2+x,-y,1/2+z
loop_
_atom_site_type_symbol
_atom_site_label
_atom_site_fract_x
_atom_site_fract_y
_atom_site_fract_z
Si Si1 0.250000 0.964791 0.750000
Si Si2 0.673083 0.296456 0.019056
Si Si3 0.665848 0.645687 0.831669
Si Si4 0.000000 0.897956 0.153260
Si Si5 0.500000 0.806444 0.543242
Si Si6 0.500000 0.502577 0.644533
O O1 0.159688 0.825011 0.706536
O O2 0.352842 0.073615 0.700759
O O3 0.500000 0.231993 0.995104
O O4 0.667725 0.300032 0.094919
O O5 0.836066 0.196325 0.003923
O O6 0.686348 0.500000 0.000000
O O7 0.500000 0.544207 0.820983
O O8 0.835315 0.552503 0.820252
O O9 0.000000 0.046014 0.098481
O O10 0.000000 0.700794 0.129111
O O11 0.500000 0.622115 0.581660
#
# Coordination Sequence:
#
# PCOD9416663 Si02
#       6
#     4   8   8   4   4   4
#     4  12  20  40  60  80 118 154 196 240 294 348
#     4   9  17  31  58  92 114 149 203 240 288 352
#     4  10  20  37  63  81 117 162 187 240 300 340
#     4  12  24  39  59  89 119 153 204 242 287 367
#     4  10  19  40  60  82 120 161 186 248 295 338
#     4  10  22  41  57  87 120 146 199 244 284 350
#
# _framework density 23.492076000000001
#
# number of rings (size 3 to 8) (size 9 to 14) (size 15 to 20)
#    0.000    1.750    6.250    0.375    0.000    1.000 
#    2.250    0.000    0.000   12.000    0.000   15.750 
#    0.000    0.000    0.000    0.000    0.000    0.000 
#
# Total GULP energy -178560.480684 kJ/mol
# GULP energy per Si atom -5580.015021 kJ/mol
# Density = 2.343861 g / cm^3
# Si number density = 23.492076 Si / 1000 Ang^3
#
#
#
# Elastic Constant Matrix: (Units=GPa)
#
#
# Indices 1 2 3 4 5 6 
#
# 1 261.1879 37.7961 9.7815 0.0000 0.0000 0.0000
# 2 37.7961 127.9038 24.5369 0.0000 0.0000 0.0000
# 3 9.7815 24.5369 56.0948 0.0000 0.0000 0.0000
# 4 0.0000 0.0000 0.0000 20.3396 0.0000 0.0000
# 5 0.0000 0.0000 0.0000 0.0000 35.8666 0.0000
# 6 0.0000 0.0000 0.0000 0.0000 0.0000 3.7933
#
#
#
# Elastic Compliance Matrix: (Units=1/GPa)
#
#
# Indices 1 2 3 4 5 6 
#
# 1 0.004002 -0.001145 -0.000197 0.000000 0.000000 0.000000
# 2 -0.001145 0.008862 -0.003677 0.000000 0.000000 0.000000
# 3 -0.000197 -0.003677 0.019470 0.000000 0.000000 0.000000
# 4 0.000000 0.000000 0.000000 0.049165 0.000000 0.000000
# 5 0.000000 0.000000 0.000000 0.000000 0.027881 0.000000
# 6 0.000000 0.000000 0.000000 0.000000 0.000000 0.263622
#
#
# Mechanical properties :
#
#
# Convention : Reuss Voigt Hill
#
# Bulk Modulus (GPa) = 44.85079 65.49061 55.17070
# Shear Modulus (GPa) = 12.80507 36.87137 24.83822
#
# Velocity S-wave (km/s) = 2.33723 3.96602 3.25515
# Velocity P-wave (km/s) = 5.13973 6.99362 6.13708
#
# Compressibility (1/GPa) = 0.02229615
#
# Stress axis : x y z
#
# Youngs Moduli (GPa) = 249.89440 112.84140 51.36209
#
# Poissons Ratio (x) = 0.12917 0.01012
# Poissons Ratio (y) = 0.28606 0.18885
# Poissons Ratio (z) = 0.04925 0.41489
#
# Static dielectric constant tensor:
#      x y z
#    x 2.105280 0.000000 0.000000 
#    y 0.000000 1.807890 0.000000 
#    z 0.000000 0.000000 1.910960 
# 
# From -- ./inp_files/33577.got.cif
#   From: 2010.05.17/outbox.cif.g08.bks.cpg/sg53_17_cif.got.tgz:33577.got - 2010.06.03 12:45:16.
