data_PCOD9416418
_publ_section_title
;
Structure prediction by ZEFSAII (Michael W. Deem and Ramdas Pophale) SiO2 
 PCOD9416418
Probable space group: P M N A
;
_chemical_formula_sum "Si O2"
_cell_formula_units_Z 48
_cell_length_a 16.304040
_cell_length_b 9.707302
_cell_length_c 14.097628
_cell_angle_alpha 90.000000
_cell_angle_beta 90.000000
_cell_angle_gamma 90.000000
_cell_volume 2231.206773
_symmetry_space_group_name_H-M "P M N A"
_symmetry_group_IT_number 53
_symmetry_cell_setting 'orthorhombic'
loop_
_space_group_symop_operation_xyz
x,y,z
1/2-x,-y,1/2+z
x,-y,-z
1/2-x,y,1/2-z
-x,-y,-z
1/2+x,y,1/2-z
-x,y,z
1/2+x,-y,1/2+z
loop_
_atom_site_type_symbol
_atom_site_label
_atom_site_fract_x
_atom_site_fract_y
_atom_site_fract_z
Si Si1 0.092994 0.622578 0.108670
Si Si2 0.244060 0.017387 0.854213
Si Si3 0.242040 0.450885 0.359364
Si Si4 0.196740 0.788582 0.974334
Si Si5 0.407585 0.660755 0.171966
Si Si6 0.414131 0.974912 0.110829
O O1 0.170814 0.521367 0.114432
O O2 0.096604 0.687065 0.214288
O O3 0.000000 0.568175 0.098558
O O4 0.115990 0.722795 0.021814
O O5 0.250000 0.081472 0.750000
O O6 0.333688 0.947951 0.856159
O O7 0.182726 0.897737 0.888855
O O8 0.235725 0.129322 0.936970
O O9 0.250000 0.402525 0.250000
O O10 0.241609 0.326418 0.433681
O O11 0.165546 0.557675 0.358994
O O12 0.500000 0.604357 0.152498
O O13 0.403191 0.811929 0.127211
O O14 0.500000 0.017337 0.156561
O O15 0.418481 0.000000 0.000000
#
# Coordination Sequence:
#
# PCOD9416418 Si02
#       6
#     8   8   8   8   8   8
#     4  10  21  38  62  92 127 164 204 250 308 379
#     4  11  23  41  61  86 119 161 210 260 313 370
#     4  10  21  37  60  90 127 163 201 254 312 370
#     4  11  22  38  60  89 119 160 207 253 309 370
#     4   9  19  37  63  95 126 161 206 255 308 367
#     4  10  19  35  59  86 117 156 205 251 299 361
#
# _framework density 21.513023
#
# number of rings (size 3 to 8) (size 9 to 14) (size 15 to 20)
#    0.000    1.833    1.667    3.000    0.000    2.667 
#    0.000    4.167    0.000    6.000    0.000    0.000 
#    0.000    0.000    0.000    0.000    0.000    0.000 
#
# Total GULP energy -267262.096208 kJ/mol
# GULP energy per Si atom -5567.960338 kJ/mol
# Density = 2.146406 g / cm^3
# Si number density = 21.513023 Si / 1000 Ang^3
#
#
#
# Elastic Constant Matrix: (Units=GPa)
#
#
# Indices 1 2 3 4 5 6 
#
# 1 126.8804 28.1233 22.3594 0.0000 0.0000 0.0000
# 2 28.1233 77.1252 59.4579 0.0000 0.0000 0.0000
# 3 22.3594 59.4579 123.7704 0.0000 0.0000 0.0000
# 4 0.0000 0.0000 0.0000 37.6020 0.0000 0.0000
# 5 0.0000 0.0000 0.0000 0.0000 23.2296 0.0000
# 6 0.0000 0.0000 0.0000 0.0000 0.0000 4.9696
#
#
#
# Elastic Compliance Matrix: (Units=1/GPa)
#
#
# Indices 1 2 3 4 5 6 
#
# 1 0.008575 -0.003069 -0.000075 0.000000 0.000000 0.000000
# 2 -0.003069 0.021691 -0.009865 0.000000 0.000000 0.000000
# 3 -0.000075 -0.009865 0.012832 0.000000 0.000000 0.000000
# 4 0.000000 0.000000 0.000000 0.026594 0.000000 0.000000
# 5 0.000000 0.000000 0.000000 0.000000 0.043049 0.000000
# 6 0.000000 0.000000 0.000000 0.000000 0.000000 0.201222
#
#
# Mechanical properties :
#
#
# Convention : Reuss Voigt Hill
#
# Bulk Modulus (GPa) = 58.55125 60.85080 59.70103
# Shear Modulus (GPa) = 14.46449 27.68260 21.07354
#
# Velocity S-wave (km/s) = 2.59580 3.59107 3.13321
# Velocity P-wave (km/s) = 6.02163 6.74843 6.39536
#
# Compressibility (1/GPa) = 0.01707905
#
# Stress axis : x y z
#
# Youngs Moduli (GPa) = 116.61951 46.10273 77.92878
#
# Poissons Ratio (x) = 0.14150 0.00582
# Poissons Ratio (y) = 0.35793 0.76881
# Poissons Ratio (z) = 0.00871 0.45483
#
# Static dielectric constant tensor:
#      x y z
#    x 1.866400 0.000000 0.000000 
#    y 0.000000 1.828670 0.000000 
#    z 0.000000 0.000000 1.872010 
# 
# From -- ./inp_files/23599.got.cif
#   From: 2010.05.17/outbox.cif.g08.bks.cpg/sg53_12_cif.got.tgz:23599.got - 2010.06.03 12:45:16.
