data_PCOD9416045
_publ_section_title
;
Structure prediction by ZEFSAII (Michael W. Deem and Ramdas Pophale) SiO2 
 PCOD9416045
Probable space group: P M N A
;
_chemical_formula_sum "Si O2"
_cell_formula_units_Z 64
_cell_length_a 8.536767
_cell_length_b 12.825205
_cell_length_c 29.678876
_cell_angle_alpha 90.000000
_cell_angle_beta 90.000000
_cell_angle_gamma 90.000000
_cell_volume 3249.415091
_symmetry_space_group_name_H-M "P M N A"
_symmetry_group_IT_number 53
_symmetry_cell_setting 'orthorhombic'
loop_
_space_group_symop_operation_xyz
x,y,z
1/2-x,-y,1/2+z
x,-y,-z
1/2-x,y,1/2-z
-x,-y,-z
1/2+x,y,1/2-z
-x,y,z
1/2+x,-y,1/2+z
loop_
_atom_site_type_symbol
_atom_site_label
_atom_site_fract_x
_atom_site_fract_y
_atom_site_fract_z
Si Si1 0.313190 0.764256 0.300973
Si Si2 0.684014 0.031407 0.451787
Si Si3 0.319676 0.194196 0.176531
Si Si4 0.319993 0.255687 0.415381
Si Si5 0.309922 0.977143 0.350746
Si Si6 0.814689 0.574803 0.360043
Si Si7 0.811992 0.470377 0.448866
Si Si8 0.316693 0.595104 0.703238
O O1 0.250000 0.756957 0.250000
O O2 0.500000 0.767072 0.298100
O O3 0.261532 0.870476 0.326402
O O4 0.265092 0.666385 0.331833
O O5 0.500000 0.000073 0.452716
O O6 0.690186 0.156505 0.447978
O O7 0.755167 0.000000 0.500000
O O8 0.743357 0.987107 0.403419
O O9 0.500000 0.198588 0.190737
O O10 0.298310 0.230509 0.124839
O O11 0.219614 0.282113 0.201529
O O12 0.254572 0.077042 0.176408
O O13 0.500000 0.257787 0.397654
O O14 0.277125 0.364450 0.437204
O O15 0.500000 0.983966 0.351094
O O16 0.768392 0.558839 0.412219
O O17 0.770990 0.465460 0.336401
O O18 0.000000 0.591316 0.357645
O O19 0.779186 0.500000 0.500000
O O20 0.000000 0.453637 0.444161
O O21 0.250000 0.552350 0.750000
O O22 0.500000 0.575870 0.699719
#
# Coordination Sequence:
#
# PCOD9416045 Si02
#       8
#     8   8   8   8   8   8   8   8
#     4  11  24  42  64  88 121 164 211 263 316 372
#     4   8  15  30  54  84 116 151 195 247 306 362
#     4  11  21  36  59  86 118 156 194 241 303 363
#     4  10  19  33  56  83 114 155 199 250 303 359
#     4   9  20  38  59  85 118 158 203 253 307 363
#     4  11  23  41  63  87 121 162 205 250 306 368
#     4  10  22  39  59  85 120 162 203 250 309 371
#     4  12  24  39  61  89 120 152 196 245 297 360
#
# _framework density 19.695851999999999
#
# number of rings (size 3 to 8) (size 9 to 14) (size 15 to 20)
#    0.000    1.750    1.250    4.500    0.000    3.250 
#    0.000    2.500    0.000    9.375    0.000    0.000 
#    0.000    0.000    0.000    0.000    0.000    0.000 
#
# Total GULP energy -357214.542865 kJ/mol
# GULP energy per Si atom -5581.477232 kJ/mol
# Density = 1.965102 g / cm^3
# Si number density = 19.695852 Si / 1000 Ang^3
#
#
#
# Elastic Constant Matrix: (Units=GPa)
#
#
# Indices 1 2 3 4 5 6 
#
# 1 27.1401 17.6619 14.2085 0.0000 0.0000 0.0000
# 2 17.6619 117.0444 52.5253 0.0000 0.0000 0.0000
# 3 14.2085 52.5253 105.3022 0.0000 0.0000 0.0000
# 4 0.0000 0.0000 0.0000 23.2093 0.0000 0.0000
# 5 0.0000 0.0000 0.0000 0.0000 11.7641 0.0000
# 6 0.0000 0.0000 0.0000 0.0000 0.0000 23.7369
#
#
#
# Elastic Compliance Matrix: (Units=1/GPa)
#
#
# Indices 1 2 3 4 5 6 
#
# 1 0.041681 -0.004852 -0.003204 0.000000 0.000000 0.000000
# 2 -0.004852 0.011573 -0.005118 0.000000 0.000000 0.000000
# 3 -0.003204 -0.005118 0.012482 0.000000 0.000000 0.000000
# 4 0.000000 0.000000 0.000000 0.043086 0.000000 0.000000
# 5 0.000000 0.000000 0.000000 0.000000 0.085004 0.000000
# 6 0.000000 0.000000 0.000000 0.000000 0.000000 0.042128
#
#
# Mechanical properties :
#
#
# Convention : Reuss Voigt Hill
#
# Bulk Modulus (GPa) = 25.38857 46.47533 35.93195
# Shear Modulus (GPa) = 18.15345 22.74813 20.45079
#
# Velocity S-wave (km/s) = 3.03923 3.40217 3.22581
# Velocity P-wave (km/s) = 5.02336 6.25146 5.67076
#
# Compressibility (1/GPa) = 0.03938780
#
# Stress axis : x y z
#
# Youngs Moduli (GPa) = 23.99198 86.41103 80.11802
#
# Poissons Ratio (x) = 0.41925 0.25669
# Poissons Ratio (y) = 0.11640 0.41003
# Poissons Ratio (z) = 0.07687 0.44224
#
# Static dielectric constant tensor:
#      x y z
#    x 1.672480 0.000000 0.000000 
#    y 0.000000 1.676750 0.000000 
#    z 0.000000 0.000000 1.724620 
# 
# From -- ./inp_files/38144.got.cif
#   From: 2010.05.17/outbox.cif.g08.bks.cpg/sg53_20_cif.got.tgz:38144.got - 2010.06.03 12:45:16.
