data_PCOD9416629
_publ_section_title
;
Structure prediction by ZEFSAII (Michael W. Deem and Ramdas Pophale) SiO2 
 PCOD9416629
Probable space group: P M N A
;
_chemical_formula_sum "Si O2"
_cell_formula_units_Z 64
_cell_length_a 8.890444
_cell_length_b 26.734576
_cell_length_c 15.054524
_cell_angle_alpha 90.000000
_cell_angle_beta 90.000000
_cell_angle_gamma 90.000000
_cell_volume 3578.193149
_symmetry_space_group_name_H-M "P M N A"
_symmetry_group_IT_number 53
_symmetry_cell_setting 'orthorhombic'
loop_
_space_group_symop_operation_xyz
x,y,z
1/2-x,-y,1/2+z
x,-y,-z
1/2-x,y,1/2-z
-x,-y,-z
1/2+x,y,1/2-z
-x,y,z
1/2+x,-y,1/2+z
loop_
_atom_site_type_symbol
_atom_site_label
_atom_site_fract_x
_atom_site_fract_y
_atom_site_fract_z
Si Si1 0.681452 0.634602 0.651259
Si Si2 0.321675 0.107857 0.656555
Si Si3 0.174129 0.996146 0.393565
Si Si4 0.316782 0.557267 0.499881
Si Si5 0.181442 0.365259 0.848766
Si Si6 0.681050 0.714441 0.500258
Si Si7 0.180275 0.823819 0.494061
Si Si8 0.180526 0.893359 0.659087
O O1 0.750000 0.635274 0.750000
O O2 0.500000 0.633392 0.659449
O O3 0.728148 0.587530 0.588877
O O4 0.719947 0.682190 0.588425
O O5 0.250000 0.121258 0.750000
O O6 0.500000 0.110606 0.658537
O O7 0.270057 0.051302 0.634697
O O8 0.254727 0.145942 0.585637
O O9 0.000000 0.988475 0.364557
O O10 0.173016 0.000000 0.500000
O O11 0.231002 0.049517 0.358611
O O12 0.265831 0.500000 0.500000
O O13 0.500000 0.557741 0.499839
O O14 0.271803 0.587568 0.410921
O O15 0.250000 0.364433 0.750000
O O16 0.219714 0.317760 0.911883
O O17 0.000000 0.366479 0.840503
O O18 0.500000 0.720438 0.500183
O O19 0.760332 0.767662 0.499810
O O20 0.221722 0.856033 0.580723
O O21 0.000000 0.824386 0.485000
O O22 0.250000 0.875267 0.750000
O O23 0.000000 0.895161 0.663522
#
# Coordination Sequence:
#
# PCOD9416629 Si02
#       8
#     8   8   8   8   8   8   8   8
#     4   9  18  33  54  78 107 143 185 229 272 324
#     4  12  25  40  60  86 114 146 184 224 271 330
#     4  10  19  38  62  83 114 148 178 222 272 321
#     4   8  15  30  51  76 109 149 185 218 264 323
#     4   9  18  33  54  78 106 140 180 222 267 318
#     4   9  20  38  55  75 105 142 180 222 273 329
#     4  11  23  41  60  82 110 143 181 228 283 328
#     4  10  22  38  58  82 111 144 177 218 269 323
#
# _framework density 17.886123999999999
#
# number of rings (size 3 to 8) (size 9 to 14) (size 15 to 20)
#    0.000    2.250    1.250    3.375    0.000    5.250 
#    0.000    5.625    0.000    0.750    0.000    0.000 
#    0.000    0.000    0.000    0.000    0.000    0.000 
#
# Total GULP energy -357080.945994 kJ/mol
# GULP energy per Si atom -5579.389781 kJ/mol
# Density = 1.784541 g / cm^3
# Si number density = 17.886124 Si / 1000 Ang^3
#
#
#
# Elastic Constant Matrix: (Units=GPa)
#
#
# Indices 1 2 3 4 5 6 
#
# 1 42.4231 62.8576 61.4759 0.0000 0.0000 0.0000
# 2 62.8576 172.0821 101.5383 0.0000 0.0000 0.0000
# 3 61.4759 101.5383 193.8547 0.0000 0.0000 0.0000
# 4 0.0000 0.0000 0.0000 22.9870 0.0000 0.0000
# 5 0.0000 0.0000 0.0000 0.0000 35.9225 0.0000
# 6 0.0000 0.0000 0.0000 0.0000 0.0000 21.3987
#
#
#
# Elastic Compliance Matrix: (Units=1/GPa)
#
#
# Indices 1 2 3 4 5 6 
#
# 1 0.066566 -0.017164 -0.012119 0.000000 0.000000 0.000000
# 2 -0.017164 0.012836 -0.001280 0.000000 0.000000 0.000000
# 3 -0.012119 -0.001280 0.009672 0.000000 0.000000 0.000000
# 4 0.000000 0.000000 0.000000 0.043503 0.000000 0.000000
# 5 0.000000 0.000000 0.000000 0.000000 0.027838 0.000000
# 6 0.000000 0.000000 0.000000 0.000000 0.000000 0.046732
#
#
# Mechanical properties :
#
#
# Convention : Reuss Voigt Hill
#
# Bulk Modulus (GPa) = 35.78162 95.56704 65.67433
# Shear Modulus (GPa) = 18.01218 28.22751 23.11984
#
# Velocity S-wave (km/s) = 3.17684 3.97694 3.59919
# Velocity P-wave (km/s) = 5.78836 8.63915 7.35323
#
# Compressibility (1/GPa) = 0.02794731
#
# Stress axis : x y z
#
# Youngs Moduli (GPa) = 15.02273 77.90462 103.38590
#
# Poissons Ratio (x) = 1.33714 1.25298
# Poissons Ratio (y) = 0.25785 0.13237
# Poissons Ratio (z) = 0.18207 0.09975
#
# Static dielectric constant tensor:
#      x y z
#    x 1.602790 0.000000 0.000000 
#    y 0.000000 1.636620 0.000000 
#    z 0.000000 0.000000 1.603130 
# 
# From -- ./inp_files/20988.got.cif
#   From: 2010.05.17/outbox.cif.g08.bks.cpg/sg53_11_cif.got.tgz:20988.got - 2010.06.03 12:45:16.
