data_PCOD9416283
_publ_section_title
;
Structure prediction by ZEFSAII (Michael W. Deem and Ramdas Pophale) SiO2 
 PCOD9416283
Probable space group: P M N A
;
_chemical_formula_sum "Si O2"
_cell_formula_units_Z 52
_cell_length_a 7.910831
_cell_length_b 14.931725
_cell_length_c 25.270928
_cell_angle_alpha 90.000000
_cell_angle_beta 90.000000
_cell_angle_gamma 90.000000
_cell_volume 2985.061478
_symmetry_space_group_name_H-M "P M N A"
_symmetry_group_IT_number 53
_symmetry_cell_setting 'orthorhombic'
loop_
_space_group_symop_operation_xyz
x,y,z
1/2-x,-y,1/2+z
x,-y,-z
1/2-x,y,1/2-z
-x,-y,-z
1/2+x,y,1/2-z
-x,y,z
1/2+x,-y,1/2+z
loop_
_atom_site_type_symbol
_atom_site_label
_atom_site_fract_x
_atom_site_fract_y
_atom_site_fract_z
Si Si1 0.203101 0.141364 0.524238
Si Si2 0.000000 0.446561 0.884102
Si Si3 0.195433 0.872984 0.806615
Si Si4 0.694269 0.506942 0.190854
Si Si5 0.000000 0.277844 0.959594
Si Si6 0.000000 0.646783 0.923555
Si Si7 0.798800 0.954429 0.583987
Si Si8 0.813460 0.308913 0.351398
O O1 0.330895 0.217418 0.543140
O O2 0.248635 0.113526 0.463605
O O3 0.000000 0.161084 0.525959
O O4 0.232634 0.053025 0.560276
O O5 0.831482 0.452194 0.848567
O O6 0.000000 0.356700 0.917307
O O7 0.000000 0.539142 0.917454
O O8 0.250000 0.912850 0.750000
O O9 0.220508 0.932904 0.859133
O O10 0.294464 0.780747 0.817464
O O11 0.000000 0.849289 0.802712
O O12 0.750000 0.528936 0.250000
O O13 0.500000 0.533736 0.180812
O O14 0.702142 0.399112 0.183045
O O15 0.000000 0.323813 0.016676
O O16 0.164394 0.685293 0.893796
O O17 0.000000 0.945423 0.590551
O O18 0.000000 0.309271 0.376498
#
# Coordination Sequence:
#
# PCOD9416283 Si02
#       8
#     8   4   8   8   4   4   8   8
#     4   9  21  38  61  87 109 143 191 243 283 317
#     4  10  23  38  53  85 120 143 188 230 286 344
#     4  12  23  32  49  81 118 157 183 220 274 344
#     4  10  19  34  59  82 105 146 186 236 282 330
#     4  12  23  35  60  84 112 154 190 232 284 329
#     4  10  21  38  55  81 116 157 185 226 281 335
#     4   9  19  38  58  82 114 144 186 237 280 330
#     4  10  20  34  53  81 117 149 189 225 267 331
#
# _framework density 17.420076999999999
#
# number of rings (size 3 to 8) (size 9 to 14) (size 15 to 20)
#    0.000    1.846    1.538    3.923    2.154    4.308 
#    0.000    0.000    0.000    5.538    0.000    0.000 
#    0.000    0.000    0.000    0.000    0.000    0.000 
#
# Total GULP energy -290215.928560 kJ/mol
# GULP energy per Si atom -5581.075549 kJ/mol
# Density = 1.738043 g / cm^3
# Si number density = 17.420077 Si / 1000 Ang^3
#
#
#
# Elastic Constant Matrix: (Units=GPa)
#
#
# Indices 1 2 3 4 5 6 
#
# 1 125.3556 44.8614 49.1982 0.0000 0.0000 0.0000
# 2 44.8614 69.0236 50.6954 0.0000 0.0000 0.0000
# 3 49.1982 50.6954 99.2506 0.0000 0.0000 0.0000
# 4 0.0000 0.0000 0.0000 15.9785 0.0000 0.0000
# 5 0.0000 0.0000 0.0000 0.0000 11.9637 0.0000
# 6 0.0000 0.0000 0.0000 0.0000 0.0000 10.6844
#
#
#
# Elastic Compliance Matrix: (Units=1/GPa)
#
#
# Indices 1 2 3 4 5 6 
#
# 1 0.010877 -0.004976 -0.002850 0.000000 0.000000 0.000000
# 2 -0.004976 0.025463 -0.010539 0.000000 0.000000 0.000000
# 3 -0.002850 -0.010539 0.016871 0.000000 0.000000 0.000000
# 4 0.000000 0.000000 0.000000 0.062584 0.000000 0.000000
# 5 0.000000 0.000000 0.000000 0.000000 0.083586 0.000000
# 6 0.000000 0.000000 0.000000 0.000000 0.000000 0.093595
#
#
# Mechanical properties :
#
#
# Convention : Reuss Voigt Hill
#
# Bulk Modulus (GPa) = 60.67812 64.79330 62.73571
# Shear Modulus (GPa) = 14.91648 17.65029 16.28338
#
# Velocity S-wave (km/s) = 2.92940 3.18656 3.06068
# Velocity P-wave (km/s) = 6.80807 7.12841 6.97008
#
# Compressibility (1/GPa) = 0.01648041
#
# Stress axis : x y z
#
# Youngs Moduli (GPa) = 91.94081 39.27320 59.27196
#
# Poissons Ratio (x) = 0.19543 0.16891
# Poissons Ratio (y) = 0.45750 0.62468
# Poissons Ratio (z) = 0.26201 0.41391
#
# Static dielectric constant tensor:
#      x y z
#    x 1.631880 0.000000 0.000000 
#    y 0.000000 1.575690 0.000000 
#    z 0.000000 0.000000 1.590370 
# 
# From -- ./inp_files/34074.got.cif
#   From: 2010.05.17/outbox.cif.g08.bks.cpg/sg53_18_cif.got.tgz:34074.got - 2010.06.03 12:45:16.
