data_PCOD9416987
_publ_section_title
;
Structure prediction by ZEFSAII (Michael W. Deem and Ramdas Pophale) SiO2 
 PCOD9416987
Probable space group: P M N A
;
_chemical_formula_sum "Si O2"
_cell_formula_units_Z 64
_cell_length_a 8.666444
_cell_length_b 18.617614
_cell_length_c 23.485101
_cell_angle_alpha 90.000000
_cell_angle_beta 90.000000
_cell_angle_gamma 90.000000
_cell_volume 3789.286033
_symmetry_space_group_name_H-M "P M N A"
_symmetry_group_IT_number 53
_symmetry_cell_setting 'orthorhombic'
loop_
_space_group_symop_operation_xyz
x,y,z
1/2-x,-y,1/2+z
x,-y,-z
1/2-x,y,1/2-z
-x,-y,-z
1/2+x,y,1/2-z
-x,y,z
1/2+x,-y,1/2+z
loop_
_atom_site_type_symbol
_atom_site_label
_atom_site_fract_x
_atom_site_fract_y
_atom_site_fract_z
Si Si1 0.183582 0.867419 0.131068
Si Si2 0.815965 0.433568 0.685717
Si Si3 0.184557 0.084217 0.510444
Si Si4 0.315467 0.578942 0.685630
Si Si5 0.314180 0.128960 0.392451
Si Si6 0.184250 0.005951 0.311699
Si Si7 0.185790 0.262220 0.186072
Si Si8 0.685470 0.725881 0.185554
O O1 0.234780 0.888098 0.067443
O O2 0.241941 0.788906 0.148508
O O3 0.000000 0.872284 0.136915
O O4 0.262248 0.925925 0.172357
O O5 0.750000 0.432099 0.750000
O O6 0.749494 0.506097 0.657968
O O7 0.777230 0.354395 0.662506
O O8 0.000000 0.439962 0.688408
O O9 0.242639 0.126492 0.455093
O O10 0.000000 0.090237 0.516807
O O11 0.221094 0.000000 0.500000
O O12 0.250000 0.579915 0.750000
O O13 0.500000 0.573725 0.687447
O O14 0.271697 0.658083 0.663322
O O15 0.500000 0.126873 0.395922
O O16 0.254117 0.059567 0.358378
O O17 0.266258 0.198678 0.355942
O O18 0.250000 0.025878 0.250000
O O19 0.000000 0.010584 0.312170
O O20 0.250000 0.252533 0.250000
O O21 0.000000 0.260242 0.190403
O O22 0.750000 0.731490 0.250000
O O23 0.500000 0.732948 0.187424
#
# Coordination Sequence:
#
# PCOD9416987 Si02
#       8
#     8   8   8   8   8   8   8   8
#     4  12  24  38  57  78 101 133 172 214 259 307
#     4   9  16  26  43  68  99 136 172 206 246 296
#     4  11  23  40  60  79 100 130 170 218 263 308
#     4   9  15  25  42  66  99 136 171 206 245 294
#     4  11  22  37  56  78 103 134 174 216 259 307
#     4  12  24  38  54  76 105 137 171 208 255 309
#     4   9  19  32  48  74 107 140 172 210 255 303
#     4  10  20  34  51  75 109 141 172 212 257 307
#
# _framework density 16.889724999999999
#
# number of rings (size 3 to 8) (size 9 to 14) (size 15 to 20)
#    0.000    1.625    1.250    5.625    0.000    4.500 
#    0.000    0.000    0.000    0.000    0.000    0.875 
#    0.000    7.000    0.000    0.000    0.000    0.000 
#
# Total GULP energy -357167.615029 kJ/mol
# GULP energy per Si atom -5580.743985 kJ/mol
# Density = 1.685128 g / cm^3
# Si number density = 16.889725 Si / 1000 Ang^3
#
#
#
# Elastic Constant Matrix: (Units=GPa)
#
#
# Indices 1 2 3 4 5 6 
#
# 1 53.6286 26.4797 5.6345 0.0000 0.0000 0.0000
# 2 26.4797 115.3752 8.9865 0.0000 0.0000 0.0000
# 3 5.6345 8.9865 46.6355 0.0000 0.0000 0.0000
# 4 0.0000 0.0000 0.0000 3.3206 0.0000 0.0000
# 5 0.0000 0.0000 0.0000 0.0000 24.7545 0.0000
# 6 0.0000 0.0000 0.0000 0.0000 0.0000 30.1593
#
#
#
# Elastic Compliance Matrix: (Units=1/GPa)
#
#
# Indices 1 2 3 4 5 6 
#
# 1 0.021154 -0.004727 -0.001645 0.000000 0.000000 0.000000
# 2 -0.004727 0.009856 -0.001328 0.000000 0.000000 0.000000
# 3 -0.001645 -0.001328 0.021898 0.000000 0.000000 0.000000
# 4 0.000000 0.000000 0.000000 0.301147 0.000000 0.000000
# 5 0.000000 0.000000 0.000000 0.000000 0.040397 0.000000
# 6 0.000000 0.000000 0.000000 0.000000 0.000000 0.033157
#
#
# Mechanical properties :
#
#
# Convention : Reuss Voigt Hill
#
# Bulk Modulus (GPa) = 26.66158 33.09341 29.87749
# Shear Modulus (GPa) = 10.97673 23.28280 17.12976
#
# Velocity S-wave (km/s) = 2.55209 3.71687 3.18812
# Velocity P-wave (km/s) = 4.95017 6.16899 5.59288
#
# Compressibility (1/GPa) = 0.03750715
#
# Stress axis : x y z
#
# Youngs Moduli (GPa) = 47.27348 101.46446 45.66719
#
# Poissons Ratio (x) = 0.47960 0.07512
# Poissons Ratio (y) = 0.22345 0.06065
# Poissons Ratio (z) = 0.07776 0.13475
#
# Static dielectric constant tensor:
#      x y z
#    x 1.563070 0.000000 0.000000 
#    y 0.000000 1.620140 0.000000 
#    z 0.000000 0.000000 1.538560 
# 
# From -- ./inp_files/34440.got.cif
#   From: 2010.05.17/outbox.cif.g08.bks.cpg/sg53_18_cif.got.tgz:34440.got - 2010.06.03 12:45:16.
