data_PCOD9416763
_publ_section_title
;
Structure prediction by ZEFSAII (Michael W. Deem and Ramdas Pophale) SiO2 
 PCOD9416763
Probable space group: P M N A
;
_chemical_formula_sum "Si O2"
_cell_formula_units_Z 64
_cell_length_a 8.658179
_cell_length_b 19.592527
_cell_length_c 23.954710
_cell_angle_alpha 90.000000
_cell_angle_beta 90.000000
_cell_angle_gamma 90.000000
_cell_volume 4063.571743
_symmetry_space_group_name_H-M "P M N A"
_symmetry_group_IT_number 53
_symmetry_cell_setting 'orthorhombic'
loop_
_space_group_symop_operation_xyz
x,y,z
1/2-x,-y,1/2+z
x,-y,-z
1/2-x,y,1/2-z
-x,-y,-z
1/2+x,y,1/2-z
-x,y,z
1/2+x,-y,1/2+z
loop_
_atom_site_type_symbol
_atom_site_label
_atom_site_fract_x
_atom_site_fract_y
_atom_site_fract_z
Si Si1 0.185174 0.388419 0.188546
Si Si2 0.187415 0.979249 0.587247
Si Si3 0.686307 0.110717 0.188143
Si Si4 0.184230 0.603274 0.478115
Si Si5 0.686863 0.109470 0.978379
Si Si6 0.185153 0.478719 0.083788
Si Si7 0.685717 0.253582 0.129627
Si Si8 0.816269 0.253928 0.003795
O O1 0.250000 0.401299 0.250000
O O2 0.224220 0.447551 0.143930
O O3 0.254084 0.318298 0.164024
O O4 0.000000 0.382222 0.190723
O O5 0.240769 0.948286 0.645646
O O6 0.227962 0.927101 0.537214
O O7 0.000000 0.980345 0.588038
O O8 0.235395 0.055026 0.568896
O O9 0.750000 0.103899 0.250000
O O10 0.500000 0.108743 0.190089
O O11 0.729244 0.183683 0.161151
O O12 0.249333 0.571731 0.536057
O O13 0.245666 0.552533 0.430326
O O14 0.244635 0.680020 0.474009
O O15 0.000000 0.601519 0.479912
O O16 0.500000 0.116442 0.977355
O O17 0.762535 0.183183 0.976331
O O18 0.000000 0.480962 0.078062
O O19 0.500000 0.256185 0.125260
O O20 0.754680 0.253985 0.067529
O O21 0.000000 0.259396 0.004346
#
# Coordination Sequence:
#
# PCOD9416763 Si02
#       8
#     8   8   8   8   8   8   8   8
#     4  11  23  36  52  73 103 139 175 210 250 293
#     4   8  15  30  51  71  93 125 166 207 246 290
#     4  10  20  33  48  70  97 132 170 206 244 288
#     4  11  21  33  53  75  98 132 171 207 248 304
#     4   9  16  31  53  71  92 126 166 206 247 297
#     4  10  20  35  52  74 103 132 164 210 259 294
#     4  11  21  34  51  69  98 136 180 214 241 290
#     4  12  22  32  48  74 106 134 162 204 258 306
#
# _framework density 15.749692
#
# number of rings (size 3 to 8) (size 9 to 14) (size 15 to 20)
#    0.000    1.750    2.500    5.250    0.000    3.500 
#    0.000    1.875    0.000    0.000    0.000    0.875 
#    0.000    4.000    0.000    0.000    0.000    0.000 
#
# Total GULP energy -357271.993878 kJ/mol
# GULP energy per Si atom -5582.374904 kJ/mol
# Density = 1.571384 g / cm^3
# Si number density = 15.749692 Si / 1000 Ang^3
#
#
#
# Elastic Constant Matrix: (Units=GPa)
#
#
# Indices 1 2 3 4 5 6 
#
# 1 63.6295 48.7927 37.5519 0.0000 0.0000 0.0000
# 2 48.7927 152.5274 76.5391 0.0000 0.0000 0.0000
# 3 37.5519 76.5391 99.7455 0.0000 0.0000 0.0000
# 4 0.0000 0.0000 0.0000 18.4533 0.0000 0.0000
# 5 0.0000 0.0000 0.0000 0.0000 9.1280 0.0000
# 6 0.0000 0.0000 0.0000 0.0000 0.0000 83.7511
#
#
#
# Elastic Compliance Matrix: (Units=1/GPa)
#
#
# Indices 1 2 3 4 5 6 
#
# 1 0.022106 -0.004708 -0.004709 0.000000 0.000000 0.000000
# 2 -0.004708 0.011664 -0.007178 0.000000 0.000000 0.000000
# 3 -0.004709 -0.007178 0.017306 0.000000 0.000000 0.000000
# 4 0.000000 0.000000 0.000000 0.054191 0.000000 0.000000
# 5 0.000000 0.000000 0.000000 0.000000 0.109553 0.000000
# 6 0.000000 0.000000 0.000000 0.000000 0.000000 0.011940
#
#
# Mechanical properties :
#
#
# Convention : Reuss Voigt Hill
#
# Bulk Modulus (GPa) = 55.91228 71.29664 63.60446
# Shear Modulus (GPa) = 18.80310 32.46774 25.63542
#
# Velocity S-wave (km/s) = 3.45899 4.54528 4.03883
# Velocity P-wave (km/s) = 7.17847 8.53891 7.88808
#
# Compressibility (1/GPa) = 0.01788516
#
# Stress axis : x y z
#
# Youngs Moduli (GPa) = 45.23705 85.73167 57.78183
#
# Poissons Ratio (x) = 0.40365 0.27212
# Poissons Ratio (y) = 0.21299 0.41476
# Poissons Ratio (z) = 0.21304 0.61538
#
# Static dielectric constant tensor:
#      x y z
#    x 1.530010 0.000000 0.000000 
#    y 0.000000 1.529150 0.000000 
#    z 0.000000 0.000000 1.506380 
# 
# From -- ./inp_files/34521.got.cif
#   From: 2010.05.17/outbox.cif.g08.bks.cpg/sg53_18_cif.got.tgz:34521.got - 2010.06.03 12:45:16.
