data_PCOD9416824
_publ_section_title
;
Structure prediction by ZEFSAII (Michael W. Deem and Ramdas Pophale) SiO2 
 PCOD9416824
Probable space group: P M N A
;
_chemical_formula_sum "Si O2"
_cell_formula_units_Z 56
_cell_length_a 9.284433
_cell_length_b 15.370716
_cell_length_c 20.950502
_cell_angle_alpha 90.000000
_cell_angle_beta 90.000000
_cell_angle_gamma 90.000000
_cell_volume 2989.812261
_symmetry_space_group_name_H-M "P M N A"
_symmetry_group_IT_number 53
_symmetry_cell_setting 'orthorhombic'
loop_
_space_group_symop_operation_xyz
x,y,z
1/2-x,-y,1/2+z
x,-y,-z
1/2-x,y,1/2-z
-x,-y,-z
1/2+x,y,1/2-z
-x,y,z
1/2+x,-y,1/2+z
loop_
_atom_site_type_symbol
_atom_site_label
_atom_site_fract_x
_atom_site_fract_y
_atom_site_fract_z
Si Si1 0.328455 0.941612 0.560611
Si Si2 0.334355 0.553535 0.686096
Si Si3 0.664706 0.775731 0.974918
Si Si4 0.671929 0.057638 0.684964
Si Si5 0.663223 0.345129 0.688126
Si Si6 0.834461 0.783101 0.377120
Si Si7 0.173777 0.424288 0.448859
O O1 0.500000 0.932670 0.553043
O O2 0.260223 0.846084 0.561102
O O3 0.277020 0.000000 0.500000
O O4 0.300324 0.992099 0.626347
O O5 0.250000 0.584150 0.750000
O O6 0.500000 0.585883 0.684523
O O7 0.341663 0.448711 0.690689
O O8 0.250547 0.569244 0.619949
O O9 0.500000 0.781043 0.951878
O O10 0.706085 0.674103 0.972115
O O11 0.668184 0.805038 0.048591
O O12 0.750000 0.030255 0.750000
O O13 0.500000 0.065700 0.693786
O O14 0.741739 0.148534 0.662658
O O15 0.750000 0.313964 0.750000
O O16 0.500000 0.312341 0.685987
O O17 0.758370 0.309970 0.630531
O O18 0.000000 0.780415 0.355495
O O19 0.216924 0.500000 0.500000
O O20 0.000000 0.432468 0.441209
#
# Coordination Sequence:
#
# PCOD9416824 Si02
#       7
#     8   8   8   8   8   8   8
#     4  10  21  40  63  86 115 154 196 242 294 346
#     4  10  21  37  58  83 112 154 203 251 305 361
#     4  10  22  37  59  89 116 152 198 243 295 353
#     4  11  23  39  59  85 118 154 193 240 298 351
#     4  10  20  33  50  75 109 148 191 238 291 352
#     4  11  21  34  54  82 115 151 191 235 291 355
#     4  10  21  39  61  88 125 162 200 251 305 359
#
# _framework density 18.730271999999999
#
# number of rings (size 3 to 8) (size 9 to 14) (size 15 to 20)
#    0.000    1.714    1.429    3.000    0.000    5.714 
#    0.000    0.714    0.000    1.714    0.000    0.000 
#    0.000    0.000    0.000    0.000    0.000    0.000 
#
# Total GULP energy -312387.071682 kJ/mol
# GULP energy per Si atom -5578.340566 kJ/mol
# Density = 1.868764 g / cm^3
# Si number density = 18.730272 Si / 1000 Ang^3
#
#
#
# Elastic Constant Matrix: (Units=GPa)
#
#
# Indices 1 2 3 4 5 6 
#
# 1 89.4924 43.2363 67.8882 0.0000 0.0000 0.0000
# 2 43.2363 88.1331 40.7432 0.0000 0.0000 0.0000
# 3 67.8882 40.7432 120.8036 0.0000 0.0000 0.0000
# 4 0.0000 0.0000 0.0000 29.2509 0.0000 0.0000
# 5 0.0000 0.0000 0.0000 0.0000 30.6485 0.0000
# 6 0.0000 0.0000 0.0000 0.0000 0.0000 30.3909
#
#
#
# Elastic Compliance Matrix: (Units=1/GPa)
#
#
# Indices 1 2 3 4 5 6 
#
# 1 0.021844 -0.005972 -0.010261 0.000000 0.000000 0.000000
# 2 -0.005972 0.015075 -0.001728 0.000000 0.000000 0.000000
# 3 -0.010261 -0.001728 0.014627 0.000000 0.000000 0.000000
# 4 0.000000 0.000000 0.000000 0.034187 0.000000 0.000000
# 5 0.000000 0.000000 0.000000 0.000000 0.032628 0.000000
# 6 0.000000 0.000000 0.000000 0.000000 0.000000 0.032905
#
#
# Mechanical properties :
#
#
# Convention : Reuss Voigt Hill
#
# Bulk Modulus (GPa) = 64.00909 66.90716 65.45812
# Shear Modulus (GPa) = 25.98798 27.82883 26.90841
#
# Velocity S-wave (km/s) = 3.72894 3.85875 3.79440
# Velocity P-wave (km/s) = 7.26556 7.46004 7.36344
#
# Compressibility (1/GPa) = 0.01562278
#
# Stress axis : x y z
#
# Youngs Moduli (GPa) = 45.78001 66.33371 68.36568
#
# Poissons Ratio (x) = 0.39617 0.70151
# Poissons Ratio (y) = 0.27342 0.11814
# Poissons Ratio (z) = 0.46976 0.11463
#
# Static dielectric constant tensor:
#      x y z
#    x 1.647600 0.000000 0.000000 
#    y 0.000000 1.654330 0.000000 
#    z 0.000000 0.000000 1.680450 
# 
# From -- ./inp_files/30839.got.cif
#   From: 2010.05.17/outbox.cif.g08.bks.cpg/sg53_16_cif.got.tgz:30839.got - 2010.06.03 12:45:16.
