data_PCOD9416749
_publ_section_title
;
Structure prediction by ZEFSAII (Michael W. Deem and Ramdas Pophale) SiO2 
 PCOD9416749
Probable space group: P M N A
;
_chemical_formula_sum "Si O2"
_cell_formula_units_Z 56
_cell_length_a 21.759794
_cell_length_b 9.172912
_cell_length_c 13.092653
_cell_angle_alpha 90.000000
_cell_angle_beta 90.000000
_cell_angle_gamma 90.000000
_cell_volume 2613.302383
_symmetry_space_group_name_H-M "P M N A"
_symmetry_group_IT_number 53
_symmetry_cell_setting 'orthorhombic'
loop_
_space_group_symop_operation_xyz
x,y,z
1/2-x,-y,1/2+z
x,-y,-z
1/2-x,y,1/2-z
-x,-y,-z
1/2+x,y,1/2-z
-x,y,z
1/2+x,-y,1/2+z
loop_
_atom_site_type_symbol
_atom_site_label
_atom_site_fract_x
_atom_site_fract_y
_atom_site_fract_z
Si Si1 0.431431 0.101539 0.366889
Si Si2 0.928425 0.636672 0.274900
Si Si3 0.866066 0.335711 0.524184
Si Si4 0.230225 0.750151 0.028049
Si Si5 0.708413 0.977137 0.653184
Si Si6 0.430055 0.691935 0.829208
Si Si7 0.095167 0.341857 0.961074
O O1 0.500000 0.030560 0.371404
O O2 0.366725 0.016094 0.353846
O O3 0.430591 0.200811 0.265924
O O4 0.426004 0.210010 0.464878
O O5 0.891476 0.714214 0.366225
O O6 0.909804 0.465530 0.285003
O O7 0.920828 0.681069 0.157531
O O8 0.000000 0.649289 0.300434
O O9 0.889377 0.500000 0.500000
O O10 0.793211 0.335232 0.527002
O O11 0.889565 0.252582 0.423700
O O12 0.168880 0.657250 0.032947
O O13 0.230416 0.863224 0.121133
O O14 0.224758 0.854908 0.930141
O O15 0.750000 0.936208 0.750000
O O16 0.500000 0.675733 0.867108
O O17 0.071946 0.500000 0.000000
#
# Coordination Sequence:
#
# PCOD9416749 Si02
#       7
#     8   8   8   8   8   8   8
#     4  10  20  36  61  87 113 150 194 237 280 334
#     4  10  20  32  52  85 120 152 178 218 287 345
#     4  10  20  35  56  85 118 148 183 232 279 344
#     4  10  23  39  57  83 109 151 197 230 285 336
#     4  10  22  41  62  80 111 152 197 243 283 328
#     4   9  17  32  56  85 115 147 182 223 280 342
#     4  11  21  35  56  87 121 149 181 228 284 347
#
# _framework density 21.428826999999998
#
# number of rings (size 3 to 8) (size 9 to 14) (size 15 to 20)
#    0.000    2.000    1.429    2.143    2.000    2.286 
#    0.000    6.429    0.000    0.000    0.000    5.000 
#    0.000    0.000    0.000    0.000    0.000    0.000 
#
# Total GULP energy -312432.712076 kJ/mol
# GULP energy per Si atom -5579.155573 kJ/mol
# Density = 2.138005 g / cm^3
# Si number density = 21.428827 Si / 1000 Ang^3
#
#
#
# Elastic Constant Matrix: (Units=GPa)
#
#
# Indices 1 2 3 4 5 6 
#
# 1 119.1694 9.0174 65.4551 0.0000 0.0000 0.0000
# 2 9.0174 28.0068 14.2457 0.0000 0.0000 0.0000
# 3 65.4551 14.2457 123.9927 0.0000 0.0000 0.0000
# 4 0.0000 0.0000 0.0000 -7.5607 0.0000 0.0000
# 5 0.0000 0.0000 0.0000 0.0000 -19.8141 0.0000
# 6 0.0000 0.0000 0.0000 0.0000 0.0000 -9.3959
#
#
#
# Elastic Compliance Matrix: (Units=1/GPa)
#
#
# Indices 1 2 3 4 5 6 
#
# 1 0.011830 -0.000672 -0.006168 0.000000 0.000000 0.000000
# 2 -0.000672 0.037960 -0.004007 0.000000 0.000000 0.000000
# 3 -0.006168 -0.004007 0.011781 0.000000 0.000000 0.000000
# 4 0.000000 0.000000 0.000000 -0.132263 0.000000 0.000000
# 5 0.000000 0.000000 0.000000 0.000000 -0.050469 0.000000
# 6 0.000000 0.000000 0.000000 0.000000 0.000000 -0.106430
#
#
# Mechanical properties :
#
#
# Convention : Reuss Voigt Hill
#
# Bulk Modulus (GPa) = 25.07601 49.84505 37.46053
# Shear Modulus (GPa) = -25.95983 4.80925 -10.57529
#
# Velocity S-wave (km/s) = -3.48436 1.49972 -2.22391
# Velocity P-wave (km/s) = 2.11193 5.12934 3.30529
#
# Compressibility (1/GPa) = 0.03987875
#
# Stress axis : x y z
#
# Youngs Moduli (GPa) = 84.53106 26.34364 84.88042
#
# Poissons Ratio (x) = 0.01769 0.52353
# Poissons Ratio (y) = 0.05677 0.34009
# Poissons Ratio (z) = 0.52137 0.10555
#
# Static dielectric constant tensor:
#      x y z
#    x 1.774320 0.000000 0.000000 
#    y 0.000000 1.796340 0.000000 
#    z 0.000000 0.000000 1.803160 
# 
# From -- ./inp_files/17864.got.cif
#   From: 2010.05.17/outbox.cif.g08.bks.cpg/sg53_9_cif.got.tgz:17864.got - 2010.06.03 12:45:16.
