data_PCOD9416548
_publ_section_title
;
Structure prediction by ZEFSAII (Michael W. Deem and Ramdas Pophale) SiO2 
 PCOD9416548
Probable space group: P M N A
;
_chemical_formula_sum "Si O2"
_cell_formula_units_Z 48
_cell_length_a 10.556955
_cell_length_b 12.594024
_cell_length_c 17.414334
_cell_angle_alpha 90.000000
_cell_angle_beta 90.000000
_cell_angle_gamma 90.000000
_cell_volume 2315.314847
_symmetry_space_group_name_H-M "P M N A"
_symmetry_group_IT_number 53
_symmetry_cell_setting 'orthorhombic'
loop_
_space_group_symop_operation_xyz
x,y,z
1/2-x,-y,1/2+z
x,-y,-z
1/2-x,y,1/2-z
-x,-y,-z
1/2+x,y,1/2-z
-x,y,z
1/2+x,-y,1/2+z
loop_
_atom_site_type_symbol
_atom_site_label
_atom_site_fract_x
_atom_site_fract_y
_atom_site_fract_z
Si Si1 0.269579 0.607039 0.549649
Si Si2 0.649636 0.900705 0.688859
Si Si3 0.144902 0.828196 0.983200
Si Si4 0.230597 0.867260 0.139332
Si Si5 0.000000 0.289623 0.816667
Si Si6 0.000000 0.626259 0.515670
Si Si7 0.000000 0.509332 0.905331
Si Si8 0.000000 0.755903 0.352601
O O1 0.253032 0.500000 0.500000
O O2 0.335156 0.702839 0.504214
O O3 0.371674 0.573718 0.613286
O O4 0.127902 0.648102 0.562989
O O5 0.500000 0.889829 0.708426
O O6 0.725157 0.114667 0.547670
O O7 0.684510 0.024690 0.677975
O O8 0.671508 0.849765 0.605284
O O9 0.000000 0.858447 0.997382
O O10 0.250000 0.143264 0.250000
O O11 0.125083 0.779382 0.162287
O O12 0.372198 0.826051 0.154367
O O13 0.000000 0.397645 0.864264
O O14 0.000000 0.313298 0.725341
O O15 0.000000 0.500000 0.500000
O O16 0.000000 0.690119 0.433628
O O17 0.000000 0.500000 0.000000
#
# Coordination Sequence:
#
# PCOD9416548 Si02
#       8
#     8   8   8   8   4   4   4   4
#     4  10  19  36  63  92 118 162 213 260 314 369
#     4  11  25  45  67  95 134 176 218 274 330 385
#     4  11  21  40  71  97 127 168 226 269 312 397
#     4  12  23  42  66  98 130 173 216 270 331 402
#     4  12  24  40  66  98 130 170 217 277 337 394
#     4  10  22  38  61  87 132 169 203 259 330 392
#     4  10  20  34  63  90 115 164 216 261 301 387
#     4  12  26  40  62 100 143 166 209 278 350 394
#
# _framework density 20.731521999999998
#
# number of rings (size 3 to 8) (size 9 to 14) (size 15 to 20)
#    0.000    1.000    4.167    4.000    3.500    1.333 
#    3.000    0.833    7.333    0.000    0.000    0.000 
#    0.000    0.000    0.000    0.000    0.000    0.000 
#
# Total GULP energy -267643.105326 kJ/mol
# GULP energy per Si atom -5575.898028 kJ/mol
# Density = 2.068434 g / cm^3
# Si number density = 20.731522 Si / 1000 Ang^3
#
#
#
# Elastic Constant Matrix: (Units=GPa)
#
#
# Indices 1 2 3 4 5 6 
#
# 1 183.7135 13.7564 53.5021 0.0000 0.0000 0.0000
# 2 13.7564 40.6680 19.7456 0.0000 0.0000 0.0000
# 3 53.5021 19.7456 102.1382 0.0000 0.0000 0.0000
# 4 0.0000 0.0000 0.0000 25.9230 0.0000 0.0000
# 5 0.0000 0.0000 0.0000 0.0000 17.2012 0.0000
# 6 0.0000 0.0000 0.0000 0.0000 0.0000 18.1788
#
#
#
# Elastic Compliance Matrix: (Units=1/GPa)
#
#
# Indices 1 2 3 4 5 6 
#
# 1 0.006436 -0.000596 -0.003256 0.000000 0.000000 0.000000
# 2 -0.000596 0.027192 -0.004944 0.000000 0.000000 0.000000
# 3 -0.003256 -0.004944 0.012452 0.000000 0.000000 0.000000
# 4 0.000000 0.000000 0.000000 0.038576 0.000000 0.000000
# 5 0.000000 0.000000 0.000000 0.000000 0.058135 0.000000
# 6 0.000000 0.000000 0.000000 0.000000 0.000000 0.055009
#
#
# Mechanical properties :
#
#
# Convention : Reuss Voigt Hill
#
# Bulk Modulus (GPa) = 35.10438 55.61420 45.35929
# Shear Modulus (GPa) = 22.23314 28.22830 25.23072
#
# Velocity S-wave (km/s) = 3.27835 3.69401 3.49237
# Velocity P-wave (km/s) = 5.59462 6.71404 6.17973
#
# Compressibility (1/GPa) = 0.02848648
#
# Stress axis : x y z
#
# Youngs Moduli (GPa) = 155.37189 36.77595 80.30726
#
# Poissons Ratio (x) = 0.02192 0.26149
# Poissons Ratio (y) = 0.09262 0.39708
# Poissons Ratio (z) = 0.50591 0.18184
#
# Static dielectric constant tensor:
#      x y z
#    x 1.830900 0.000000 0.000000 
#    y 0.000000 1.786610 0.000000 
#    z 0.000000 0.000000 1.782560 
# 
# From -- ./inp_files/31940.got.cif
#   From: 2010.05.17/outbox.cif.g08.bks.cpg/sg53_16_cif.got.tgz:31940.got - 2010.06.03 12:45:16.
