data_PCOD9416908
_publ_section_title
;
Structure prediction by ZEFSAII (Michael W. Deem and Ramdas Pophale) SiO2 
 PCOD9416908
Probable space group: P M N A
;
_chemical_formula_sum "Si O2"
_cell_formula_units_Z 64
_cell_length_a 7.998479
_cell_length_b 22.940340
_cell_length_c 19.181516
_cell_angle_alpha 90.000000
_cell_angle_beta 90.000000
_cell_angle_gamma 90.000000
_cell_volume 3519.574704
_symmetry_space_group_name_H-M "P M N A"
_symmetry_group_IT_number 53
_symmetry_cell_setting 'orthorhombic'
loop_
_space_group_symop_operation_xyz
x,y,z
1/2-x,-y,1/2+z
x,-y,-z
1/2-x,y,1/2-z
-x,-y,-z
1/2+x,y,1/2-z
-x,y,z
1/2+x,-y,1/2+z
loop_
_atom_site_type_symbol
_atom_site_label
_atom_site_fract_x
_atom_site_fract_y
_atom_site_fract_z
Si Si1 0.302814 0.413390 0.043145
Si Si2 0.697138 0.474271 0.890575
Si Si3 0.798019 0.641829 0.326694
Si Si4 0.302049 0.941401 0.465052
Si Si5 0.197807 0.178369 0.028892
Si Si6 0.299768 0.302129 0.970982
Si Si7 0.300308 0.129632 0.171133
Si Si8 0.199814 0.996181 0.328628
O O1 0.500000 0.407542 0.060867
O O2 0.230204 0.460924 0.097250
O O3 0.295840 0.443563 0.966713
O O4 0.232260 0.349295 0.027520
O O5 0.500000 0.481375 0.873961
O O6 0.766349 0.424700 0.839349
O O7 0.750000 0.662775 0.250000
O O8 0.740092 0.680426 0.393025
O O9 0.000000 0.639899 0.329912
O O10 0.500000 0.940672 0.480839
O O11 0.231588 0.880886 0.493787
O O12 0.228657 0.000000 0.500000
O O13 0.276033 0.951704 0.383538
O O14 0.232806 0.171316 0.111028
O O15 0.000000 0.179527 0.017832
O O16 0.266164 0.236911 0.994842
O O17 0.500000 0.310508 0.969566
O O18 0.250000 0.144814 0.250000
O O19 0.500000 0.129098 0.167173
O O20 0.239730 0.062871 0.157473
O O21 0.250000 0.982350 0.250000
O O22 0.000000 0.995669 0.335166
#
# Coordination Sequence:
#
# PCOD9416908 Si02
#       8
#     8   8   8   8   8   8   8   8
#     4   7  10  20  41  66  90 115 149 196 243 286
#     4   7  10  19  39  67  91 113 149 196 242 286
#     4   9  17  29  47  71 100 133 170 213 257 301
#     4  10  20  35  53  73 101 133 168 213 262 310
#     4  11  22  35  53  76 102 135 172 213 259 307
#     4   9  18  32  49  71  98 132 175 217 254 300
#     4  10  20  34  54  79 104 128 157 198 248 306
#     4  10  20  33  53  78 104 131 161 200 253 313
#
# _framework density 18.184014999999999
#
# number of rings (size 3 to 8) (size 9 to 14) (size 15 to 20)
#    0.000    2.875    1.250    3.375    0.000    2.750 
#    0.000    0.625    0.000    3.000    0.000    5.250 
#    0.000    0.000    0.000    0.000    0.000    0.000 
#
# Total GULP energy -356301.990634 kJ/mol
# GULP energy per Si atom -5567.218604 kJ/mol
# Density = 1.814263 g / cm^3
# Si number density = 18.184015 Si / 1000 Ang^3
#
#
#
# Elastic Constant Matrix: (Units=GPa)
#
#
# Indices 1 2 3 4 5 6 
#
# 1 14.1637 8.8303 -6.9919 0.0000 0.0000 0.0000
# 2 8.8303 138.5457 63.3799 0.0000 0.0000 0.0000
# 3 -6.9919 63.3799 85.4995 0.0000 0.0000 0.0000
# 4 0.0000 0.0000 0.0000 21.0842 0.0000 0.0000
# 5 0.0000 0.0000 0.0000 0.0000 19.0871 0.0000
# 6 0.0000 0.0000 0.0000 0.0000 0.0000 -3.6744
#
#
#
# Elastic Compliance Matrix: (Units=1/GPa)
#
#
# Indices 1 2 3 4 5 6 
#
# 1 0.087358 -0.013370 0.017055 0.000000 0.000000 0.000000
# 2 -0.013370 0.012968 -0.010706 0.000000 0.000000 0.000000
# 3 0.017055 -0.010706 0.021027 0.000000 0.000000 0.000000
# 4 0.000000 0.000000 0.000000 0.047429 0.000000 0.000000
# 5 0.000000 0.000000 0.000000 0.000000 0.052392 0.000000
# 6 0.000000 0.000000 0.000000 0.000000 0.000000 -0.272151
#
#
# Mechanical properties :
#
#
# Convention : Reuss Voigt Hill
#
# Bulk Modulus (GPa) = 9.31880 40.96061 25.13970
# Shear Modulus (GPa) = -4287.85043 18.83207 -2134.50918
#
# Velocity S-wave (km/s) = -48.61226 3.22163 -34.29849
# Velocity P-wave (km/s) = 56.08684 6.03432 39.42918
#
# Compressibility (1/GPa) = 0.10730996
#
# Stress axis : x y z
#
# Youngs Moduli (GPa) = 11.44720 77.11488 47.55783
#
# Poissons Ratio (x) = 1.03101 -0.81109
# Poissons Ratio (y) = 0.15305 0.50916
# Poissons Ratio (z) = -0.19523 0.82560
#
# Static dielectric constant tensor:
#      x y z
#    x 1.661630 0.000000 0.000000 
#    y 0.000000 1.666800 0.000000 
#    z 0.000000 0.000000 1.623680 
# 
# From -- ./inp_files/27074.got.cif
#   From: 2010.05.17/outbox.cif.g08.bks.cpg/sg53_14_cif.got.tgz:27074.got - 2010.06.03 12:45:16.
