data_PCOD9416024
_publ_section_title
;
Structure prediction by ZEFSAII (Michael W. Deem and Ramdas Pophale) SiO2 
 PCOD9416024
Probable space group: P M N A
;
_chemical_formula_sum "Si O2"
_cell_formula_units_Z 64
_cell_length_a 8.841301
_cell_length_b 11.006117
_cell_length_c 34.930279
_cell_angle_alpha 90.000000
_cell_angle_beta 90.000000
_cell_angle_gamma 90.000000
_cell_volume 3399.009325
_symmetry_space_group_name_H-M "P M N A"
_symmetry_group_IT_number 53
_symmetry_cell_setting 'orthorhombic'
loop_
_space_group_symop_operation_xyz
x,y,z
1/2-x,-y,1/2+z
x,-y,-z
1/2-x,y,1/2-z
-x,-y,-z
1/2+x,y,1/2-z
-x,y,z
1/2+x,-y,1/2+z
loop_
_atom_site_type_symbol
_atom_site_label
_atom_site_fract_x
_atom_site_fract_y
_atom_site_fract_z
Si Si1 0.817643 0.210805 0.022462
Si Si2 0.679476 0.548721 0.940136
Si Si3 0.322579 0.655923 0.633053
Si Si4 0.318804 0.725146 0.209202
Si Si5 0.818816 0.438625 0.291031
Si Si6 0.180279 0.708867 0.057784
Si Si7 0.322654 0.077296 0.403751
Si Si8 0.319412 0.839430 0.129786
O O1 0.743623 0.335346 0.037323
O O2 0.773291 0.106289 0.052522
O O3 0.000000 0.222907 0.026213
O O4 0.782729 0.200965 0.977607
O O5 0.500000 0.540839 0.944248
O O6 0.727371 0.573570 0.896228
O O7 0.756597 0.423684 0.952460
O O8 0.500000 0.622888 0.630941
O O9 0.258026 0.636286 0.675117
O O10 0.309430 0.794417 0.618346
O O11 0.250000 0.762294 0.250000
O O12 0.500000 0.735695 0.211919
O O13 0.283930 0.582182 0.202975
O O14 0.266451 0.800425 0.172176
O O15 0.750000 0.404677 0.250000
O O16 0.000000 0.424147 0.291262
O O17 0.251852 0.752240 0.097270
O O18 0.000000 0.703515 0.061414
O O19 0.500000 0.041725 0.404543
O O20 0.230750 0.973586 0.382572
O O21 0.500000 0.828740 0.129219
#
# Coordination Sequence:
#
# PCOD9416024 Si02
#       8
#     8   8   8   8   8   8   8   8
#     4   9  20  38  57  78 107 145 188 229 271 325
#     4  11  21  33  53  82 113 142 177 226 282 335
#     4  10  20  36  57  79 106 144 187 226 270 329
#     4   9  20  37  57  82 111 141 172 213 265 321
#     4  10  19  33  55  84 116 144 174 219 275 334
#     4  11  22  36  56  80 109 147 186 225 272 327
#     4   9  20  39  58  76 103 143 189 231 270 318
#     4  11  23  38  56  82 113 142 181 231 278 324
#
# _framework density 18.829014000000001
#
# number of rings (size 3 to 8) (size 9 to 14) (size 15 to 20)
#    0.000    2.000    0.000    4.500    0.000    8.000 
#    0.000    3.125    0.000    1.500    0.000    0.000 
#    0.000    0.000    0.000    0.000    0.000    0.000 
#
# Total GULP energy -357447.208134 kJ/mol
# GULP energy per Si atom -5585.112627 kJ/mol
# Density = 1.878616 g / cm^3
# Si number density = 18.829014 Si / 1000 Ang^3
#
#
#
# Elastic Constant Matrix: (Units=GPa)
#
#
# Indices 1 2 3 4 5 6 
#
# 1 39.0050 17.7744 29.2529 0.0000 0.0000 0.0000
# 2 17.7744 40.1624 21.6530 0.0000 0.0000 0.0000
# 3 29.2529 21.6530 116.5346 0.0000 0.0000 0.0000
# 4 0.0000 0.0000 0.0000 18.3341 0.0000 0.0000
# 5 0.0000 0.0000 0.0000 0.0000 -1.8719 0.0000
# 6 0.0000 0.0000 0.0000 0.0000 0.0000 -21.1406
#
#
#
# Elastic Compliance Matrix: (Units=1/GPa)
#
#
# Indices 1 2 3 4 5 6 
#
# 1 0.036431 -0.012439 -0.006834 0.000000 0.000000 0.000000
# 2 -0.012439 0.031918 -0.002808 0.000000 0.000000 0.000000
# 3 -0.006834 -0.002808 0.010818 0.000000 0.000000 0.000000
# 4 0.000000 0.000000 0.000000 0.054543 0.000000 0.000000
# 5 0.000000 0.000000 0.000000 0.000000 -0.534218 0.000000
# 6 0.000000 0.000000 0.000000 0.000000 0.000000 -0.047302
#
#
# Mechanical properties :
#
#
# Convention : Reuss Voigt Hill
#
# Bulk Modulus (GPa) = 28.56659 37.00694 32.78676
# Shear Modulus (GPa) = -12.75576 7.53245 -2.61166
#
# Velocity S-wave (km/s) = -2.60562 2.00228 -1.17900
# Velocity P-wave (km/s) = 2.48036 5.00424 3.94934
#
# Compressibility (1/GPa) = 0.03500593
#
# Stress axis : x y z
#
# Youngs Moduli (GPa) = 27.44900 31.33046 92.43532
#
# Poissons Ratio (x) = 0.38971 0.63169
# Poissons Ratio (y) = 0.34143 0.25957
# Poissons Ratio (z) = 0.18758 0.08798
#
# Static dielectric constant tensor:
#      x y z
#    x 1.625590 0.000000 0.000000 
#    y 0.000000 1.650500 0.000000 
#    z 0.000000 0.000000 1.669600 
# 
# From -- ./inp_files/38198.got.cif
#   From: 2010.05.17/outbox.cif.g08.bks.cpg/sg53_20_cif.got.tgz:38198.got - 2010.06.03 12:45:16.
