data_PCOD9416393
_publ_section_title
;
Structure prediction by ZEFSAII (Michael W. Deem and Ramdas Pophale) SiO2 
 PCOD9416393
Probable space group: P M N A
;
_chemical_formula_sum "Si O2"
_cell_formula_units_Z 64
_cell_length_a 16.616103
_cell_length_b 15.274463
_cell_length_c 14.552342
_cell_angle_alpha 90.000000
_cell_angle_beta 90.000000
_cell_angle_gamma 90.000000
_cell_volume 3693.414239
_symmetry_space_group_name_H-M "P M N A"
_symmetry_group_IT_number 53
_symmetry_cell_setting 'orthorhombic'
loop_
_space_group_symop_operation_xyz
x,y,z
1/2-x,-y,1/2+z
x,-y,-z
1/2-x,y,1/2-z
-x,-y,-z
1/2+x,y,1/2-z
-x,y,z
1/2+x,-y,1/2+z
loop_
_atom_site_type_symbol
_atom_site_label
_atom_site_fract_x
_atom_site_fract_y
_atom_site_fract_z
Si Si1 0.772334 0.738078 0.469731
Si Si2 0.096579 0.048617 0.777735
Si Si3 0.165855 0.906251 0.025695
Si Si4 0.096394 0.219350 0.673508
Si Si5 0.594024 0.859142 0.664189
Si Si6 0.173616 0.642950 0.187528
Si Si7 0.704380 0.312141 0.342555
Si Si8 0.093095 0.474783 0.106843
O O1 0.733441 0.833666 0.473158
O O2 0.856577 0.746594 0.416435
O O3 0.711870 0.682033 0.405531
O O4 0.766406 0.703015 0.573162
O O5 0.124862 0.086719 0.875431
O O6 0.122082 0.119620 0.701069
O O7 0.000000 0.047267 0.776370
O O8 0.121095 0.945889 0.778329
O O9 0.103437 0.884851 0.943694
O O10 0.201520 0.000000 0.000000
O O11 0.125023 0.282360 0.756987
O O12 0.000000 0.222238 0.663925
O O13 0.500000 0.840787 0.683877
O O14 0.651634 0.775713 0.675235
O O15 0.250000 0.618072 0.250000
O O16 0.120792 0.558892 0.164855
O O17 0.750000 0.334880 0.250000
O O18 0.646006 0.390598 0.370971
O O19 0.000000 0.455167 0.124391
O O20 0.102279 0.500000 0.000000
#
# Coordination Sequence:
#
# PCOD9416393 Si02
#       8
#     8   8   8   8   8   8   8   8
#     4  10  20  36  54  81 112 145 189 232 280 327
#     4   9  16  28  49  79 113 149 183 225 282 335
#     4   9  16  28  47  78 108 145 183 227 280 331
#     4  10  20  34  55  83 116 151 185 228 281 338
#     4   9  18  33  52  78 111 145 188 235 279 327
#     4  10  19  35  58  84 115 144 175 224 281 343
#     4  11  23  41  58  81 111 152 193 231 276 335
#     4  11  22  37  60  88 113 140 177 229 291 342
#
# _framework density 17.328140000000001
#
# number of rings (size 3 to 8) (size 9 to 14) (size 15 to 20)
#    0.000    2.125    2.500    1.500    0.000    1.500 
#    6.750    1.250    0.000    0.375    0.000    4.375 
#    0.000    0.000    0.000    0.000    0.000    0.000 
#
# Total GULP energy -356773.715564 kJ/mol
# GULP energy per Si atom -5574.589306 kJ/mol
# Density = 1.728870 g / cm^3
# Si number density = 17.328140 Si / 1000 Ang^3
#
#
#
# Elastic Constant Matrix: (Units=GPa)
#
#
# Indices 1 2 3 4 5 6 
#
# 1 67.7282 34.0305 39.5009 0.0000 0.0000 0.0000
# 2 34.0305 83.8932 31.0594 0.0000 0.0000 0.0000
# 3 39.5009 31.0594 83.2635 0.0000 0.0000 0.0000
# 4 0.0000 0.0000 0.0000 -15.3460 0.0000 0.0000
# 5 0.0000 0.0000 0.0000 0.0000 11.4944 0.0000
# 6 0.0000 0.0000 0.0000 0.0000 0.0000 14.3047
#
#
#
# Elastic Compliance Matrix: (Units=1/GPa)
#
#
# Indices 1 2 3 4 5 6 
#
# 1 0.022811 -0.006087 -0.008551 0.000000 0.000000 0.000000
# 2 -0.006087 0.015454 -0.002877 0.000000 0.000000 0.000000
# 3 -0.008551 -0.002877 0.017140 0.000000 0.000000 0.000000
# 4 0.000000 0.000000 0.000000 -0.065164 0.000000 0.000000
# 5 0.000000 0.000000 0.000000 0.000000 0.086999 0.000000
# 6 0.000000 0.000000 0.000000 0.000000 0.000000 0.069907
#
#
# Mechanical properties :
#
#
# Convention : Reuss Voigt Hill
#
# Bulk Modulus (GPa) = 49.08073 49.34073 49.21073
# Shear Modulus (GPa) = 26.45946 10.77690 18.61818
#
# Velocity S-wave (km/s) = 3.91188 2.49656 3.28143
# Velocity P-wave (km/s) = 6.98495 6.07014 6.54355
#
# Compressibility (1/GPa) = 0.02037459
#
# Stress axis : x y z
#
# Youngs Moduli (GPa) = 43.83946 64.70711 58.34353
#
# Poissons Ratio (x) = 0.39388 0.49889
# Poissons Ratio (y) = 0.26686 0.16786
# Poissons Ratio (z) = 0.37486 0.18617
#
# Static dielectric constant tensor:
#      x y z
#    x 1.563200 0.000000 0.000000 
#    y 0.000000 1.605860 0.000000 
#    z 0.000000 0.000000 1.565920 
# 
# From -- ./inp_files/23980.got.cif
#   From: 2010.05.17/outbox.cif.g08.bks.cpg/sg53_12_cif.got.tgz:23980.got - 2010.06.03 12:45:16.
