data_PCOD9416387
_publ_section_title
;
Structure prediction by ZEFSAII (Michael W. Deem and Ramdas Pophale) SiO2 
 PCOD9416387
Probable space group: P M N A
;
_chemical_formula_sum "Si O2"
_cell_formula_units_Z 48
_cell_length_a 7.888915
_cell_length_b 17.710724
_cell_length_c 18.262434
_cell_angle_alpha 90.000000
_cell_angle_beta 90.000000
_cell_angle_gamma 90.000000
_cell_volume 2551.597990
_symmetry_space_group_name_H-M "P M N A"
_symmetry_group_IT_number 53
_symmetry_cell_setting 'orthorhombic'
loop_
_space_group_symop_operation_xyz
x,y,z
1/2-x,-y,1/2+z
x,-y,-z
1/2-x,y,1/2-z
-x,-y,-z
1/2+x,y,1/2-z
-x,y,z
1/2+x,-y,1/2+z
loop_
_atom_site_type_symbol
_atom_site_label
_atom_site_fract_x
_atom_site_fract_y
_atom_site_fract_z
Si Si1 0.701719 0.994327 0.582071
Si Si2 0.296187 0.845075 0.664982
Si Si3 0.701764 0.145835 0.834957
Si Si4 0.500000 0.413548 0.589807
Si Si5 0.000000 0.413913 0.088398
Si Si6 0.301058 0.302447 0.910577
Si Si7 0.190772 0.307553 0.413640
O O1 0.500000 0.982648 0.575680
O O2 0.728390 0.071799 0.625326
O O3 0.773021 0.000000 0.500000
O O4 0.766987 0.921572 0.625851
O O5 0.250000 0.847186 0.750000
O O6 0.500000 0.840495 0.658082
O O7 0.219868 0.771558 0.626517
O O8 0.750000 0.146508 0.750000
O O9 0.500000 0.142127 0.841170
O O10 0.754433 0.223699 0.873974
O O11 0.500000 0.500073 0.615076
O O12 0.500000 0.415726 0.500701
O O13 0.330939 0.367638 0.611602
O O14 0.166668 0.367103 0.110083
O O15 0.500000 0.317337 0.892306
O O16 0.291454 0.295043 0.998795
O O17 0.000000 0.335127 0.399847
#
# Coordination Sequence:
#
# PCOD9416387 Si02
#       7
#     8   8   8   4   4   8   8
#     4  10  22  38  58  83 114 151 191 236 285 333
#     4  11  22  36  54  81 113 151 194 238 279 341
#     4  11  23  37  55  82 113 152 193 238 280 337
#     4   9  18  32  60  83 117 151 177 237 291 337
#     4   9  18  34  54  91 115 143 189 229 291 347
#     4   9  20  35  55  86 114 147 194 236 286 343
#     4  10  19  35  58  83 115 149 188 239 287 340
#
# _framework density 18.811741000000001
#
# number of rings (size 3 to 8) (size 9 to 14) (size 15 to 20)
#    0.000    2.000    0.833    2.500    2.333    3.667 
#    0.000    3.333    0.000    1.000    0.000    0.000 
#    0.000    0.000    0.000    0.000    0.000    0.000 
#
# Total GULP energy -268002.122497 kJ/mol
# GULP energy per Si atom -5583.377552 kJ/mol
# Density = 1.876892 g / cm^3
# Si number density = 18.811741 Si / 1000 Ang^3
#
#
#
# Elastic Constant Matrix: (Units=GPa)
#
#
# Indices 1 2 3 4 5 6 
#
# 1 88.5116 67.3675 37.7442 0.0000 0.0000 0.0000
# 2 67.3675 185.7246 61.7283 0.0000 0.0000 0.0000
# 3 37.7442 61.7283 67.3265 0.0000 0.0000 0.0000
# 4 0.0000 0.0000 0.0000 -13.9758 0.0000 0.0000
# 5 0.0000 0.0000 0.0000 0.0000 9.1052 0.0000
# 6 0.0000 0.0000 0.0000 0.0000 0.0000 9.0965
#
#
#
# Elastic Compliance Matrix: (Units=1/GPa)
#
#
# Indices 1 2 3 4 5 6 
#
# 1 0.016938 -0.004297 -0.005556 0.000000 0.000000 0.000000
# 2 -0.004297 0.008834 -0.005691 0.000000 0.000000 0.000000
# 3 -0.005556 -0.005691 0.023185 0.000000 0.000000 0.000000
# 4 0.000000 0.000000 0.000000 -0.071552 0.000000 0.000000
# 5 0.000000 0.000000 0.000000 0.000000 0.109828 0.000000
# 6 0.000000 0.000000 0.000000 0.000000 0.000000 0.109932
#
#
# Mechanical properties :
#
#
# Convention : Reuss Voigt Hill
#
# Bulk Modulus (GPa) = 55.95950 75.02697 65.49324
# Shear Modulus (GPa) = 21.34848 12.49337 16.92093
#
# Velocity S-wave (km/s) = 3.37241 2.57986 3.00240
# Velocity P-wave (km/s) = 6.70640 6.98884 6.84908
#
# Compressibility (1/GPa) = 0.01787007
#
# Stress axis : x y z
#
# Youngs Moduli (GPa) = 59.03957 113.19284 43.13118
#
# Poissons Ratio (x) = 0.48643 0.23962
# Poissons Ratio (y) = 0.25371 0.24545
# Poissons Ratio (z) = 0.32800 0.64415
#
# Static dielectric constant tensor:
#      x y z
#    x 1.671150 0.000000 0.000000 
#    y 0.000000 1.622810 0.000000 
#    z 0.000000 0.000000 1.641680 
# 
# From -- ./inp_files/26329.got.cif
#   From: 2010.05.17/outbox.cif.g08.bks.cpg/sg53_14_cif.got.tgz:26329.got - 2010.06.03 12:45:16.
