data_PCOD9416446
_publ_section_title
;
Structure prediction by ZEFSAII (Michael W. Deem and Ramdas Pophale) SiO2 
 PCOD9416446
Probable space group: P M N A
;
_chemical_formula_sum "Si O2"
_cell_formula_units_Z 40
_cell_length_a 15.981721
_cell_length_b 13.455111
_cell_length_c 9.141372
_cell_angle_alpha 90.000000
_cell_angle_beta 90.000000
_cell_angle_gamma 90.000000
_cell_volume 1965.722516
_symmetry_space_group_name_H-M "P M N A"
_symmetry_group_IT_number 53
_symmetry_cell_setting 'orthorhombic'
loop_
_space_group_symop_operation_xyz
x,y,z
1/2-x,-y,1/2+z
x,-y,-z
1/2-x,y,1/2-z
-x,-y,-z
1/2+x,y,1/2-z
-x,y,z
1/2+x,-y,1/2+z
loop_
_atom_site_type_symbol
_atom_site_label
_atom_site_fract_x
_atom_site_fract_y
_atom_site_fract_z
Si Si1 0.906115 0.255611 0.380543
Si Si2 0.903955 0.213256 0.031739
Si Si3 0.185107 0.549129 0.642849
Si Si4 0.405284 0.582000 0.371550
Si Si5 0.238272 0.102196 0.424630
O O1 0.905367 0.239889 0.204490
O O2 0.883439 0.370895 0.403865
O O3 0.833101 0.186208 0.444699
O O4 0.000000 0.232668 0.433181
O O5 0.828262 0.136649 0.012178
O O6 0.000000 0.182395 0.994332
O O7 0.882344 0.312785 0.941759
O O8 0.224148 0.500000 0.500000
O O9 0.250000 0.604337 0.750000
O O10 0.350126 0.460997 0.757820
O O11 0.407025 0.500000 0.500000
O O12 0.500000 0.591434 0.315789
O O13 0.250000 0.088925 0.250000
O O14 0.212326 0.000000 0.500000
#
# Coordination Sequence:
#
# PCOD9416446 Si02
#       5
#     8   8   8   8   8
#     4  10  21  39  63  87 120 167 211 255 311 378
#     4   9  18  36  65  92 120 162 209 250 307 382
#     4  12  25  37  58  90 128 168 208 254 311 376
#     4  10  19  35  61  89 123 164 202 244 300 375
#     4  10  22  41  64  88 121 161 210 267 322 372
#
# _framework density 20.348751
#
# number of rings (size 3 to 8) (size 9 to 14) (size 15 to 20)
#    0.000    1.800    2.000    3.000    2.800    2.400 
#    3.600    0.000    0.000    0.000    0.000    0.000 
#    0.000    0.000    0.000    0.000    0.000    0.000 
#
# Total GULP energy -223366.255031 kJ/mol
# GULP energy per Si atom -5584.156376 kJ/mol
# Density = 2.030244 g / cm^3
# Si number density = 20.348751 Si / 1000 Ang^3
#
#
#
# Elastic Constant Matrix: (Units=GPa)
#
#
# Indices 1 2 3 4 5 6 
#
# 1 121.0517 52.0854 29.5133 0.0000 0.0000 0.0000
# 2 52.0854 74.2276 25.8261 0.0000 0.0000 0.0000
# 3 29.5133 25.8261 45.0592 0.0000 0.0000 0.0000
# 4 0.0000 0.0000 0.0000 31.3693 0.0000 0.0000
# 5 0.0000 0.0000 0.0000 0.0000 18.3684 0.0000
# 6 0.0000 0.0000 0.0000 0.0000 0.0000 15.4050
#
#
#
# Elastic Compliance Matrix: (Units=1/GPa)
#
#
# Indices 1 2 3 4 5 6 
#
# 1 0.012360 -0.007315 -0.003903 0.000000 0.000000 0.000000
# 2 -0.007315 0.021157 -0.007335 0.000000 0.000000 0.000000
# 3 -0.003903 -0.007335 0.028954 0.000000 0.000000 0.000000
# 4 0.000000 0.000000 0.000000 0.031878 0.000000 0.000000
# 5 0.000000 0.000000 0.000000 0.000000 0.054441 0.000000
# 6 0.000000 0.000000 0.000000 0.000000 0.000000 0.064914
#
#
# Mechanical properties :
#
#
# Convention : Reuss Voigt Hill
#
# Bulk Modulus (GPa) = 39.42525 50.57648 45.00087
# Shear Modulus (GPa) = 19.28525 21.88946 20.58736
#
# Velocity S-wave (km/s) = 3.08187 3.28337 3.18421
# Velocity P-wave (km/s) = 5.66399 6.26760 5.97342
#
# Compressibility (1/GPa) = 0.02536445
#
# Stress axis : x y z
#
# Youngs Moduli (GPa) = 80.90634 47.26533 34.53792
#
# Poissons Ratio (x) = 0.34575 0.13480
# Poissons Ratio (y) = 0.59183 0.25334
# Poissons Ratio (z) = 0.31578 0.34670
#
# Static dielectric constant tensor:
#      x y z
#    x 1.770740 0.000000 0.000000 
#    y 0.000000 1.689460 0.000000 
#    z 0.000000 0.000000 1.731710 
# 
# From -- ./inp_files/15747.got.cif
#   From: 2010.05.17/outbox.cif.g08.bks.cpg/sg53_8_cif.got.tgz:15747.got - 2010.06.03 12:45:16.
