data_PCOD9416748
_publ_section_title
;
Structure prediction by ZEFSAII (Michael W. Deem and Ramdas Pophale) SiO2 
 PCOD9416748
Probable space group: P M N A
;
_chemical_formula_sum "Si O2"
_cell_formula_units_Z 56
_cell_length_a 14.149202
_cell_length_b 14.404149
_cell_length_c 15.424914
_cell_angle_alpha 90.000000
_cell_angle_beta 90.000000
_cell_angle_gamma 90.000000
_cell_volume 3143.708746
_symmetry_space_group_name_H-M "P M N A"
_symmetry_group_IT_number 53
_symmetry_cell_setting 'orthorhombic'
loop_
_space_group_symop_operation_xyz
x,y,z
1/2-x,-y,1/2+z
x,-y,-z
1/2-x,y,1/2-z
-x,-y,-z
1/2+x,y,1/2-z
-x,y,z
1/2+x,-y,1/2+z
loop_
_atom_site_type_symbol
_atom_site_label
_atom_site_fract_x
_atom_site_fract_y
_atom_site_fract_z
Si Si1 0.230173 0.590844 0.044572
Si Si2 0.113129 0.882321 0.936565
Si Si3 0.303572 0.076947 0.617752
Si Si4 0.101329 0.346839 0.657129
Si Si5 0.894002 0.679528 0.896661
Si Si6 0.609249 0.864348 0.200571
Si Si7 0.147973 0.495531 0.208086
O O1 0.311241 0.645256 0.093227
O O2 0.159097 0.551660 0.117837
O O3 0.274518 0.500000 0.000000
O O4 0.177761 0.645665 0.969800
O O5 0.125026 0.788189 0.881252
O O6 0.000000 0.903504 0.940002
O O7 0.171980 0.969105 0.900078
O O8 0.153545 0.869693 0.034283
O O9 0.360288 0.102829 0.704344
O O10 0.192807 0.099138 0.636476
O O11 0.111648 0.247678 0.702910
O O12 0.102818 0.433045 0.723867
O O13 0.000000 0.347430 0.611183
O O14 0.890551 0.605636 0.817994
O O15 0.000000 0.674938 0.933227
O O16 0.500000 0.891303 0.179845
O O17 0.250000 0.478427 0.250000
#
# Coordination Sequence:
#
# PCOD9416748 Si02
#       7
#     8   8   8   8   8   8   8
#     4   9  19  33  50  74 107 139 172 211 255 311
#     4  10  20  35  55  79 105 138 182 219 267 324
#     4  10  20  35  56  76 107 141 167 227 275 310
#     4  10  20  32  52  78 106 139 174 214 260 314
#     4  10  20  33  53  79 105 138 176 217 259 310
#     4  10  21  34  54  83 106 135 175 217 267 321
#     4   9  19  33  49  73 110 141 172 210 258 311
#
# _framework density 17.813355000000001
#
# number of rings (size 3 to 8) (size 9 to 14) (size 15 to 20)
#    0.000    2.286    0.000    3.000    8.000    3.429 
#    2.571    1.429    0.000    0.857    0.000    0.000 
#    0.000    0.000    0.000    0.000    0.000    0.000 
#
# Total GULP energy -311832.215879 kJ/mol
# GULP energy per Si atom -5568.432426 kJ/mol
# Density = 1.777281 g / cm^3
# Si number density = 17.813355 Si / 1000 Ang^3
#
#
#
# Elastic Constant Matrix: (Units=GPa)
#
#
# Indices 1 2 3 4 5 6 
#
# 1 110.8625 52.3214 26.3304 0.0000 0.0000 0.0000
# 2 52.3214 102.8808 23.1555 0.0000 0.0000 0.0000
# 3 26.3304 23.1555 40.6025 0.0000 0.0000 0.0000
# 4 0.0000 0.0000 0.0000 20.2969 0.0000 0.0000
# 5 0.0000 0.0000 0.0000 0.0000 1.2488 0.0000
# 6 0.0000 0.0000 0.0000 0.0000 0.0000 -10.0800
#
#
#
# Elastic Compliance Matrix: (Units=1/GPa)
#
#
# Indices 1 2 3 4 5 6 
#
# 1 0.012777 -0.005315 -0.005254 0.000000 0.000000 0.000000
# 2 -0.005315 0.013362 -0.004174 0.000000 0.000000 0.000000
# 3 -0.005254 -0.004174 0.030417 0.000000 0.000000 0.000000
# 4 0.000000 0.000000 0.000000 0.049269 0.000000 0.000000
# 5 0.000000 0.000000 0.000000 0.000000 0.800767 0.000000
# 6 0.000000 0.000000 0.000000 0.000000 0.000000 -0.099206
#
#
# Mechanical properties :
#
#
# Convention : Reuss Voigt Hill
#
# Bulk Modulus (GPa) = 36.94214 50.88449 43.91331
# Shear Modulus (GPa) = 5.91090 12.46236 9.18663
#
# Velocity S-wave (km/s) = 1.82358 2.64788 2.27340
# Velocity P-wave (km/s) = 5.02169 6.16244 5.62108
#
# Compressibility (1/GPa) = 0.02706936
#
# Stress axis : x y z
#
# Youngs Moduli (GPa) = 78.26828 74.83656 32.87665
#
# Poissons Ratio (x) = 0.39776 0.17274
# Poissons Ratio (y) = 0.41600 0.13722
# Poissons Ratio (z) = 0.41125 0.31235
#
# Static dielectric constant tensor:
#      x y z
#    x 1.642390 0.000000 0.000000 
#    y 0.000000 1.640960 0.000000 
#    z 0.000000 0.000000 1.599040 
# 
# From -- ./inp_files/22969.got.cif
#   From: 2010.05.17/outbox.cif.g08.bks.cpg/sg53_12_cif.got.tgz:22969.got - 2010.06.03 12:45:16.
