data_PCOD9416911
_publ_section_title
;
Structure prediction by ZEFSAII (Michael W. Deem and Ramdas Pophale) SiO2 
 PCOD9416911
Probable space group: P M N A
;
_chemical_formula_sum "Si O2"
_cell_formula_units_Z 64
_cell_length_a 9.137364
_cell_length_b 19.507094
_cell_length_c 20.219177
_cell_angle_alpha 90.000000
_cell_angle_beta 90.000000
_cell_angle_gamma 90.000000
_cell_volume 3603.935227
_symmetry_space_group_name_H-M "P M N A"
_symmetry_group_IT_number 53
_symmetry_cell_setting 'orthorhombic'
loop_
_space_group_symop_operation_xyz
x,y,z
1/2-x,-y,1/2+z
x,-y,-z
1/2-x,y,1/2-z
-x,-y,-z
1/2+x,y,1/2-z
-x,y,z
1/2+x,-y,1/2+z
loop_
_atom_site_type_symbol
_atom_site_label
_atom_site_fract_x
_atom_site_fract_y
_atom_site_fract_z
Si Si1 0.670936 0.688771 0.446324
Si Si2 0.823264 0.795079 0.538065
Si Si3 0.827057 0.625613 0.318794
Si Si4 0.170574 0.562092 0.953315
Si Si5 0.167802 0.944694 0.684837
Si Si6 0.328474 0.539856 0.818441
Si Si7 0.666838 0.777509 0.815704
Si Si8 0.670781 0.060245 0.447144
O O1 0.500000 0.705038 0.434677
O O2 0.758178 0.751311 0.478649
O O3 0.746833 0.661196 0.380076
O O4 0.677125 0.628760 0.501136
O O5 0.775823 0.763726 0.610041
O O6 0.759941 0.871690 0.533944
O O7 0.000000 0.796365 0.538199
O O8 0.750000 0.645291 0.250000
O O9 0.812286 0.542945 0.324842
O O10 0.000000 0.641271 0.317987
O O11 0.257163 0.569349 0.885027
O O12 0.000000 0.546741 0.937285
O O13 0.226375 0.500000 0.000000
O O14 0.250000 0.968817 0.750000
O O15 0.166201 0.861073 0.686667
O O16 0.259270 0.964996 0.621093
O O17 0.000000 0.967097 0.681619
O O18 0.250000 0.560465 0.750000
O O19 0.500000 0.556154 0.814981
O O20 0.750000 0.753413 0.750000
O O21 0.500000 0.753300 0.811838
O O22 0.500000 0.078266 0.437897
O O23 0.682117 0.000000 0.500000
#
# Coordination Sequence:
#
# PCOD9416911 Si02
#       8
#     8   8   8   8   8   8   8   8
#     4  11  22  36  56  80 108 143 179 222 273 324
#     4  10  21  36  53  77 109 143 181 223 269 323
#     4  10  20  34  54  80 107 137 177 224 270 319
#     4  10  20  35  54  77 107 140 177 220 267 318
#     4   9  16  27  46  73 104 136 172 214 258 306
#     4  10  20  33  53  78 107 141 180 225 271 320
#     4   8  15  27  45  69  96 129 167 208 250 296
#     4  10  20  34  54  80 109 141 179 222 268 321
#
# _framework density 17.758365999999999
#
# number of rings (size 3 to 8) (size 9 to 14) (size 15 to 20)
#    0.000    2.250    1.250    3.000    0.000    6.750 
#    0.000    0.625    0.000    2.250    0.000    1.750 
#    0.000    0.000    0.000    0.000    0.000    0.000 
#
# Total GULP energy -357092.522628 kJ/mol
# GULP energy per Si atom -5579.570666 kJ/mol
# Density = 1.771795 g / cm^3
# Si number density = 17.758366 Si / 1000 Ang^3
#
#
#
# Elastic Constant Matrix: (Units=GPa)
#
#
# Indices 1 2 3 4 5 6 
#
# 1 120.4013 28.8539 81.9492 0.0000 0.0000 0.0000
# 2 28.8539 27.4748 23.7478 0.0000 0.0000 0.0000
# 3 81.9492 23.7478 146.5559 0.0000 0.0000 0.0000
# 4 0.0000 0.0000 0.0000 16.5520 0.0000 0.0000
# 5 0.0000 0.0000 0.0000 0.0000 37.3002 0.0000
# 6 0.0000 0.0000 0.0000 0.0000 0.0000 15.5038
#
#
#
# Elastic Compliance Matrix: (Units=1/GPa)
#
#
# Indices 1 2 3 4 5 6 
#
# 1 0.015549 -0.010250 -0.007034 0.000000 0.000000 0.000000
# 2 -0.010250 0.049082 -0.002222 0.000000 0.000000 0.000000
# 3 -0.007034 -0.002222 0.011116 0.000000 0.000000 0.000000
# 4 0.000000 0.000000 0.000000 0.060416 0.000000 0.000000
# 5 0.000000 0.000000 0.000000 0.000000 0.026810 0.000000
# 6 0.000000 0.000000 0.000000 0.000000 0.000000 0.064500
#
#
# Mechanical properties :
#
#
# Convention : Reuss Voigt Hill
#
# Bulk Modulus (GPa) = 27.22088 62.61486 44.91787
# Shear Modulus (GPa) = 17.93849 24.52994 21.23422
#
# Velocity S-wave (km/s) = 3.18172 3.72064 3.46168
# Velocity P-wave (km/s) = 5.37211 7.33440 6.42857
#
# Compressibility (1/GPa) = 0.03673651
#
# Stress axis : x y z
#
# Youngs Moduli (GPa) = 64.31091 20.37405 89.95743
#
# Poissons Ratio (x) = 0.20884 0.63274
# Poissons Ratio (y) = 0.65921 0.19984
# Poissons Ratio (z) = 0.45235 0.04526
#
# Static dielectric constant tensor:
#      x y z
#    x 1.601820 0.000000 0.000000 
#    y 0.000000 1.604710 0.000000 
#    z 0.000000 0.000000 1.611510 
# 
# From -- ./inp_files/26907.got.cif
#   From: 2010.05.17/outbox.cif.g08.bks.cpg/sg53_14_cif.got.tgz:26907.got - 2010.06.03 12:45:16.
