data_PCOD9416832
_publ_section_title
;
Structure prediction by ZEFSAII (Michael W. Deem and Ramdas Pophale) SiO2 
 PCOD9416832
Probable space group: P M N A
;
_chemical_formula_sum "Si O2"
_cell_formula_units_Z 64
_cell_length_a 7.743024
_cell_length_b 15.204127
_cell_length_c 25.576644
_cell_angle_alpha 90.000000
_cell_angle_beta 90.000000
_cell_angle_gamma 90.000000
_cell_volume 3011.033952
_symmetry_space_group_name_H-M "P M N A"
_symmetry_group_IT_number 53
_symmetry_cell_setting 'orthorhombic'
loop_
_space_group_symop_operation_xyz
x,y,z
1/2-x,-y,1/2+z
x,-y,-z
1/2-x,y,1/2-z
-x,-y,-z
1/2+x,y,1/2-z
-x,y,z
1/2+x,-y,1/2+z
loop_
_atom_site_type_symbol
_atom_site_label
_atom_site_fract_x
_atom_site_fract_y
_atom_site_fract_z
Si Si1 0.704928 0.780538 0.911616
Si Si2 0.203345 0.681444 0.805868
Si Si3 0.199157 0.147635 0.887897
Si Si4 0.292265 0.979756 0.559084
Si Si5 0.708306 0.462463 0.943999
Si Si6 0.199219 0.493374 0.831135
Si Si7 0.791788 0.296895 0.809628
Si Si8 0.290798 0.271050 0.976809
O O1 0.500000 0.775717 0.913036
O O2 0.756182 0.739300 0.856508
O O3 0.766996 0.727419 0.963018
O O4 0.755657 0.881285 0.922165
O O5 0.250000 0.722134 0.750000
O O6 0.282440 0.582518 0.809047
O O7 0.000000 0.668998 0.806855
O O8 0.275963 0.051541 0.899061
O O9 0.275989 0.220425 0.848411
O O10 0.000000 0.135945 0.871445
O O11 0.207889 0.191918 0.945136
O O12 0.500000 0.990551 0.557231
O O13 0.227002 0.000000 0.500000
O O14 0.500000 0.472244 0.939343
O O15 0.792756 0.504673 0.893637
O O16 0.759101 0.500000 0.000000
O O17 0.753643 0.359911 0.946615
O O18 0.276529 0.396669 0.819478
O O19 0.000000 0.488128 0.813476
O O20 0.750000 0.274015 0.750000
O O21 0.000000 0.300694 0.817304
O O22 0.500000 0.262282 0.975424
#
# Coordination Sequence:
#
# PCOD9416832 Si02
#       8
#     8   8   8   8   8   8   8   8
#     4  11  23  39  61  89 121 156 195 244 297 354
#     4  11  24  42  63  87 117 155 200 248 295 346
#     4  10  20  36  58  83 116 151 189 240 292 346
#     4  10  20  36  61  90 118 155 195 238 298 357
#     4  10  20  33  50  77 116 157 194 235 286 344
#     4  10  21  37  58  85 114 149 196 243 287 340
#     4  10  21  37  57  83 115 151 193 238 284 340
#     4  10  20  33  53  83 117 153 191 235 291 349
#
# _framework density 21.255155999999999
#
# number of rings (size 3 to 8) (size 9 to 14) (size 15 to 20)
#    0.000    1.750    2.500    1.875    0.000    4.500 
#    0.000    0.625    0.000    1.500    0.000    0.000 
#    0.000    0.000    0.000    0.000    0.000    0.000 
#
# Total GULP energy -357275.047610 kJ/mol
# GULP energy per Si atom -5582.422619 kJ/mol
# Density = 2.120678 g / cm^3
# Si number density = 21.255156 Si / 1000 Ang^3
#
#
#
# Elastic Constant Matrix: (Units=GPa)
#
#
# Indices 1 2 3 4 5 6 
#
# 1 29.6748 11.0363 -7.8218 0.0000 0.0000 0.0000
# 2 11.0363 70.9761 60.4326 0.0000 0.0000 0.0000
# 3 -7.8218 60.4326 133.3107 0.0000 0.0000 0.0000
# 4 0.0000 0.0000 0.0000 20.0290 0.0000 0.0000
# 5 0.0000 0.0000 0.0000 0.0000 23.7031 0.0000
# 6 0.0000 0.0000 0.0000 0.0000 0.0000 5.7983
#
#
#
# Elastic Compliance Matrix: (Units=1/GPa)
#
#
# Indices 1 2 3 4 5 6 
#
# 1 0.041090 -0.013749 0.008643 0.000000 0.000000 0.000000
# 2 -0.013749 0.027546 -0.013294 0.000000 0.000000 0.000000
# 3 0.008643 -0.013294 0.014035 0.000000 0.000000 0.000000
# 4 0.000000 0.000000 0.000000 0.049928 0.000000 0.000000
# 5 0.000000 0.000000 0.000000 0.000000 0.042189 0.000000
# 6 0.000000 0.000000 0.000000 0.000000 0.000000 0.172464
#
#
# Mechanical properties :
#
#
# Convention : Reuss Voigt Hill
#
# Bulk Modulus (GPa) = 21.79941 40.13952 30.96947
# Shear Modulus (GPa) = 12.52064 21.26038 16.89051
#
# Velocity S-wave (km/s) = 2.42970 3.16610 2.82202
# Velocity P-wave (km/s) = 4.26023 5.68253 5.02199
#
# Compressibility (1/GPa) = 0.04587280
#
# Stress axis : x y z
#
# Youngs Moduli (GPa) = 24.33674 36.30257 71.25111
#
# Poissons Ratio (x) = 0.49911 -0.61586
# Poissons Ratio (y) = 0.33460 0.94721
# Poissons Ratio (z) = -0.21035 0.48261
#
# Static dielectric constant tensor:
#      x y z
#    x 1.775110 0.000000 0.000000 
#    y 0.000000 1.831570 0.000000 
#    z 0.000000 0.000000 1.744920 
# 
# From -- ./inp_files/34262.got.cif
#   From: 2010.05.17/outbox.cif.g08.bks.cpg/sg53_18_cif.got.tgz:34262.got - 2010.06.03 12:45:16.
