data_PCOD9416247
_publ_section_title
;
Structure prediction by ZEFSAII (Michael W. Deem and Ramdas Pophale) SiO2 
 PCOD9416247
Probable space group: P M N A
;
_chemical_formula_sum "Si O2"
_cell_formula_units_Z 64
_cell_length_a 14.709141
_cell_length_b 11.763167
_cell_length_c 19.038909
_cell_angle_alpha 90.000000
_cell_angle_beta 90.000000
_cell_angle_gamma 90.000000
_cell_volume 3294.227830
_symmetry_space_group_name_H-M "P M N A"
_symmetry_group_IT_number 53
_symmetry_cell_setting 'orthorhombic'
loop_
_space_group_symop_operation_xyz
x,y,z
1/2-x,-y,1/2+z
x,-y,-z
1/2-x,y,1/2-z
-x,-y,-z
1/2+x,y,1/2-z
-x,y,z
1/2+x,-y,1/2+z
loop_
_atom_site_type_symbol
_atom_site_label
_atom_site_fract_x
_atom_site_fract_y
_atom_site_fract_z
Si Si1 0.099981 0.257178 0.907443
Si Si2 0.770279 0.385474 0.537928
Si Si3 0.779319 0.036825 0.418488
Si Si4 0.898012 0.507811 0.646547
Si Si5 0.603421 0.995163 0.345581
Si Si6 0.393086 0.735935 0.924354
Si Si7 0.858547 0.660794 0.246135
Si Si8 0.396231 0.098466 0.810942
O O1 0.186736 0.301624 0.949182
O O2 0.107443 0.318317 0.832054
O O3 0.000000 0.278822 0.938793
O O4 0.105918 0.124348 0.887920
O O5 0.736546 0.500000 0.500000
O O6 0.823358 0.433628 0.605446
O O7 0.845401 0.323486 0.490701
O O8 0.682361 0.065274 0.383037
O O9 0.844275 0.145420 0.411806
O O10 0.771336 0.000000 0.500000
O O11 0.825650 0.938614 0.370523
O O12 0.880666 0.641292 0.636672
O O13 0.893674 0.457643 0.723926
O O14 0.000000 0.487876 0.617164
O O15 0.500000 0.039485 0.349661
O O16 0.622881 0.964900 0.263703
O O17 0.500000 0.752939 0.935597
O O18 0.750000 0.664017 0.250000
O O19 0.891064 0.767993 0.292857
O O20 0.500000 0.070937 0.831841
#
# Coordination Sequence:
#
# PCOD9416247 Si02
#       8
#     8   8   8   8   8   8   8   8
#     4  10  19  34  57  88 117 142 184 245 294 334
#     4  10  20  36  57  80 112 154 190 225 279 350
#     4  12  24  37  58  89 124 154 194 249 307 354
#     4  10  20  36  58  80 108 148 186 227 281 344
#     4   9  20  40  62  83 112 155 203 247 292 351
#     4  10  23  40  55  80 116 153 193 231 285 355
#     4  11  19  33  58  88 114 142 189 244 292 339
#     4  10  21  37  59  88 118 152 195 244 304 357
#
# _framework density 19.427921999999999
#
# number of rings (size 3 to 8) (size 9 to 14) (size 15 to 20)
#    0.000    1.750    1.250    5.250    1.750    3.000 
#    0.000    1.875    0.000    0.750    0.000    0.000 
#    0.000    0.000    0.000    0.000    0.000    0.000 
#
# Total GULP energy -357293.591676 kJ/mol
# GULP energy per Si atom -5582.712370 kJ/mol
# Density = 1.938370 g / cm^3
# Si number density = 19.427922 Si / 1000 Ang^3
#
#
#
# Elastic Constant Matrix: (Units=GPa)
#
#
# Indices 1 2 3 4 5 6 
#
# 1 127.9650 24.1136 28.4968 0.0000 0.0000 0.0000
# 2 24.1136 46.3701 22.4969 0.0000 0.0000 0.0000
# 3 28.4968 22.4969 48.2231 0.0000 0.0000 0.0000
# 4 0.0000 0.0000 0.0000 21.0761 0.0000 0.0000
# 5 0.0000 0.0000 0.0000 0.0000 31.4397 0.0000
# 6 0.0000 0.0000 0.0000 0.0000 0.0000 27.5999
#
#
#
# Elastic Compliance Matrix: (Units=1/GPa)
#
#
# Indices 1 2 3 4 5 6 
#
# 1 0.009271 -0.002796 -0.004174 0.000000 0.000000 0.000000
# 2 -0.002796 0.028718 -0.011745 0.000000 0.000000 0.000000
# 3 -0.004174 -0.011745 0.028683 0.000000 0.000000 0.000000
# 4 0.000000 0.000000 0.000000 0.047447 0.000000 0.000000
# 5 0.000000 0.000000 0.000000 0.000000 0.031807 0.000000
# 6 0.000000 0.000000 0.000000 0.000000 0.000000 0.036232
#
#
# Mechanical properties :
#
#
# Convention : Reuss Voigt Hill
#
# Bulk Modulus (GPa) = 34.19834 41.41921 37.80877
# Shear Modulus (GPa) = 21.80208 25.85319 23.82763
#
# Velocity S-wave (km/s) = 3.35356 3.65187 3.50589
# Velocity P-wave (km/s) = 5.71280 6.25677 5.99096
#
# Compressibility (1/GPa) = 0.02924119
#
# Stress axis : x y z
#
# Youngs Moduli (GPa) = 107.86219 34.82148 34.86387
#
# Poissons Ratio (x) = 0.09736 0.14553
# Poissons Ratio (y) = 0.30159 0.40948
# Poissons Ratio (z) = 0.45024 0.40898
#
# Static dielectric constant tensor:
#      x y z
#    x 1.714390 0.000000 0.000000 
#    y 0.000000 1.670840 0.000000 
#    z 0.000000 0.000000 1.699360 
# 
# From -- ./inp_files/28546.got.cif
#   From: 2010.05.17/outbox.cif.g08.bks.cpg/sg53_15_cif.got.tgz:28546.got - 2010.06.03 12:45:16.
