data_PCOD9416424
_publ_section_title
;
Structure prediction by ZEFSAII (Michael W. Deem and Ramdas Pophale) SiO2 
 PCOD9416424
Probable space group: P M N A
;
_chemical_formula_sum "Si O2"
_cell_formula_units_Z 48
_cell_length_a 8.908040
_cell_length_b 10.425651
_cell_length_c 28.885961
_cell_angle_alpha 90.000000
_cell_angle_beta 90.000000
_cell_angle_gamma 90.000000
_cell_volume 2682.700325
_symmetry_space_group_name_H-M "P M N A"
_symmetry_group_IT_number 53
_symmetry_cell_setting 'orthorhombic'
loop_
_space_group_symop_operation_xyz
x,y,z
1/2-x,-y,1/2+z
x,-y,-z
1/2-x,y,1/2-z
-x,-y,-z
1/2+x,y,1/2-z
-x,y,z
1/2+x,-y,1/2+z
loop_
_atom_site_type_symbol
_atom_site_label
_atom_site_fract_x
_atom_site_fract_y
_atom_site_fract_z
Si Si1 0.319535 0.493876 0.896568
Si Si2 0.320739 0.988385 0.607204
Si Si3 0.820921 0.251111 0.946985
Si Si4 0.679399 0.757264 0.951432
Si Si5 0.319998 0.602550 0.798634
Si Si6 0.320173 0.904588 0.799100
O O1 0.500000 0.473420 0.897506
O O2 0.237629 0.373537 0.918862
O O3 0.289009 0.622213 0.926174
O O4 0.273131 0.523029 0.843695
O O5 0.500000 0.974873 0.611114
O O6 0.255221 0.872006 0.576930
O O7 0.247127 0.980382 0.657743
O O8 0.287551 0.121654 0.581447
O O9 0.000000 0.258869 0.953705
O O10 0.741145 0.246057 0.996651
O O11 0.500000 0.775511 0.951271
O O12 0.250000 0.560926 0.750000
O O13 0.500000 0.595738 0.795371
O O14 0.281838 0.753152 0.805917
O O15 0.250000 0.943693 0.750000
O O16 0.500000 0.915609 0.797984
#
# Coordination Sequence:
#
# PCOD9416424 Si02
#       6
#     8   8   8   8   8   8
#     4  10  21  39  59  84 116 150 190 236 284 342
#     4  11  23  39  58  84 119 154 192 239 285 337
#     4  11  25  40  55  83 119 153 193 237 286 343
#     4  11  22  39  62  86 112 149 197 241 287 343
#     4   9  18  34  56  85 115 142 182 232 280 333
#     4  10  19  35  59  88 117 147 189 237 286 340
#
# _framework density 17.892420000000001
#
# number of rings (size 3 to 8) (size 9 to 14) (size 15 to 20)
#    0.000    1.667    1.667    3.000    0.000    9.333 
#    0.000    0.833    0.000    2.000    0.000    0.000 
#    0.000    0.000    0.000    0.000    0.000    0.000 
#
# Total GULP energy -268218.971453 kJ/mol
# GULP energy per Si atom -5587.895239 kJ/mol
# Density = 1.785170 g / cm^3
# Si number density = 17.892420 Si / 1000 Ang^3
#
#
#
# Elastic Constant Matrix: (Units=GPa)
#
#
# Indices 1 2 3 4 5 6 
#
# 1 48.8478 55.4166 55.9493 0.0000 0.0000 0.0000
# 2 55.4166 103.1994 64.3782 0.0000 0.0000 0.0000
# 3 55.9493 64.3782 172.8764 0.0000 0.0000 0.0000
# 4 0.0000 0.0000 0.0000 -56.3201 0.0000 0.0000
# 5 0.0000 0.0000 0.0000 0.0000 38.4524 0.0000
# 6 0.0000 0.0000 0.0000 0.0000 0.0000 50.2249
#
#
#
# Elastic Compliance Matrix: (Units=1/GPa)
#
#
# Indices 1 2 3 4 5 6 
#
# 1 0.063915 -0.027898 -0.010296 0.000000 0.000000 0.000000
# 2 -0.027898 0.024800 -0.000206 0.000000 0.000000 0.000000
# 3 -0.010296 -0.000206 0.009193 0.000000 0.000000 0.000000
# 4 0.000000 0.000000 0.000000 -0.017756 0.000000 0.000000
# 5 0.000000 0.000000 0.000000 0.000000 0.026006 0.000000
# 6 0.000000 0.000000 0.000000 0.000000 0.000000 0.019910
#
#
# Mechanical properties :
#
#
# Convention : Reuss Voigt Hill
#
# Bulk Modulus (GPa) = 47.37889 75.15688 61.26788
# Shear Modulus (GPa) = 23.82026 16.41674 20.11850
#
# Velocity S-wave (km/s) = 3.65266 3.03235 3.35687
# Velocity P-wave (km/s) = 6.65782 7.37267 7.02435
#
# Compressibility (1/GPa) = 0.02110645
#
# Stress axis : x y z
#
# Youngs Moduli (GPa) = 15.64590 40.32310 108.77279
#
# Poissons Ratio (x) = 1.12495 1.11992
# Poissons Ratio (y) = 0.43649 0.02244
# Poissons Ratio (z) = 0.16109 0.00832
#
# Static dielectric constant tensor:
#      x y z
#    x 1.597230 0.000000 0.000000 
#    y 0.000000 1.584320 0.000000 
#    z 0.000000 0.000000 1.596340 
# 
# From -- ./inp_files/37707.got.cif
#   From: 2010.05.17/outbox.cif.g08.bks.cpg/sg53_19_cif.got.tgz:37707.got - 2010.06.03 12:45:16.
