data_PCOD9416136
_publ_section_title
;
Structure prediction by ZEFSAII (Michael W. Deem and Ramdas Pophale) SiO2 
 PCOD9416136
Probable space group: P M N A
;
_chemical_formula_sum "Si O2"
_cell_formula_units_Z 64
_cell_length_a 8.815790
_cell_length_b 20.992948
_cell_length_c 20.073983
_cell_angle_alpha 90.000000
_cell_angle_beta 90.000000
_cell_angle_gamma 90.000000
_cell_volume 3715.080412
_symmetry_space_group_name_H-M "P M N A"
_symmetry_group_IT_number 53
_symmetry_cell_setting 'orthorhombic'
loop_
_space_group_symop_operation_xyz
x,y,z
1/2-x,-y,1/2+z
x,-y,-z
1/2-x,y,1/2-z
-x,-y,-z
1/2+x,y,1/2-z
-x,y,z
1/2+x,-y,1/2+z
loop_
_atom_site_type_symbol
_atom_site_label
_atom_site_fract_x
_atom_site_fract_y
_atom_site_fract_z
Si Si1 0.817798 0.128769 0.680897
Si Si2 0.682222 0.060468 0.046578
Si Si3 0.681667 0.634855 0.179278
Si Si4 0.818124 0.484841 0.319999
Si Si5 0.320180 0.681523 0.456739
Si Si6 0.817203 0.565573 0.538892
Si Si7 0.181132 0.013318 0.180413
Si Si8 0.318304 0.814077 0.038408
O O1 0.750000 0.154747 0.750000
O O2 0.780312 0.168511 0.615018
O O3 0.000000 0.123967 0.686016
O O4 0.749566 0.057929 0.672103
O O5 0.500000 0.058196 0.057327
O O6 0.765593 0.053107 0.116685
O O7 0.718732 0.125060 0.007189
O O8 0.721300 0.000000 0.000000
O O9 0.750000 0.655578 0.250000
O O10 0.500000 0.640662 0.180276
O O11 0.721528 0.559661 0.170628
O O12 0.748013 0.671290 0.116300
O O13 0.750000 0.463338 0.250000
O O14 0.769923 0.445399 0.384655
O O15 0.000000 0.482159 0.316385
O O16 0.500000 0.678580 0.452010
O O17 0.259440 0.624927 0.503297
O O18 0.265594 0.750088 0.482156
O O19 0.782688 0.500000 0.500000
O O20 0.000000 0.573701 0.536104
O O21 0.250000 0.037971 0.250000
O O22 0.000000 0.009748 0.184696
O O23 0.500000 0.804415 0.035198
#
# Coordination Sequence:
#
# PCOD9416136 Si02
#       8
#     8   8   8   8   8   8   8   8
#     4  10  19  34  54  79 109 147 189 227 272 324
#     4  10  19  37  61  84 110 143 186 232 282 332
#     4  10  19  35  55  79 111 148 189 226 273 329
#     4   9  18  32  55  83 110 141 177 226 276 327
#     4  12  25  37  53  81 115 150 188 233 277 328
#     4  10  19  37  60  81 108 147 189 229 279 332
#     4  11  21  33  54  84 116 147 182 227 278 329
#     4  10  22  39  58  77 109 153 188 227 279 336
#
# _framework density 17.227083
#
# number of rings (size 3 to 8) (size 9 to 14) (size 15 to 20)
#    0.000    1.750    2.500    3.750    0.000    3.500 
#    0.000    1.250    0.000    0.750    0.000    3.500 
#    0.000    0.000    0.000    0.000    0.000    0.000 
#
# Total GULP energy -357465.438402 kJ/mol
# GULP energy per Si atom -5585.397475 kJ/mol
# Density = 1.718787 g / cm^3
# Si number density = 17.227083 Si / 1000 Ang^3
#
#
#
# Elastic Constant Matrix: (Units=GPa)
#
#
# Indices 1 2 3 4 5 6 
#
# 1 62.6608 47.9960 48.3006 0.0000 0.0000 0.0000
# 2 47.9960 97.5659 57.1204 0.0000 0.0000 0.0000
# 3 48.3006 57.1204 121.7055 0.0000 0.0000 0.0000
# 4 0.0000 0.0000 0.0000 18.3323 0.0000 0.0000
# 5 0.0000 0.0000 0.0000 0.0000 33.1740 0.0000
# 6 0.0000 0.0000 0.0000 0.0000 0.0000 2080.0065
#
#
#
# Elastic Compliance Matrix: (Units=1/GPa)
#
#
# Indices 1 2 3 4 5 6 
#
# 1 0.029047 -0.010397 -0.006648 0.000000 0.000000 0.000000
# 2 -0.010397 0.017854 -0.004253 0.000000 0.000000 0.000000
# 3 -0.006648 -0.004253 0.012851 0.000000 0.000000 0.000000
# 4 0.000000 0.000000 0.000000 0.054549 0.000000 0.000000
# 5 0.000000 0.000000 0.000000 0.000000 0.030144 0.000000
# 6 0.000000 0.000000 0.000000 0.000000 0.000000 0.000481
#
#
# Mechanical properties :
#
#
# Convention : Reuss Voigt Hill
#
# Bulk Modulus (GPa) = 58.29011 65.41845 61.85428
# Shear Modulus (GPa) = 25.87424 434.87023 230.37223
#
# Velocity S-wave (km/s) = 3.87971 15.90541 11.57658
# Velocity P-wave (km/s) = 7.34706 19.37437 14.65171
#
# Compressibility (1/GPa) = 0.01715557
#
# Stress axis : x y z
#
# Youngs Moduli (GPa) = 34.42646 56.00860 77.81372
#
# Poissons Ratio (x) = 0.58234 0.51731
# Poissons Ratio (y) = 0.35794 0.33097
# Poissons Ratio (z) = 0.22887 0.23822
#
# Static dielectric constant tensor:
#      x y z
#    x 1.573380 0.000000 0.000000 
#    y 0.000000 1.574340 0.000000 
#    z 0.000000 0.000000 1.585250 
# 
# From -- ./inp_files/31205.got.cif
#   From: 2010.05.17/outbox.cif.g08.bks.cpg/sg53_16_cif.got.tgz:31205.got - 2010.06.03 12:45:16.
