data_PCOD9416552
_publ_section_title
;
Structure prediction by ZEFSAII (Michael W. Deem and Ramdas Pophale) SiO2 
 PCOD9416552
Probable space group: P M N A
;
_chemical_formula_sum "Si O2"
_cell_formula_units_Z 40
_cell_length_a 15.420929
_cell_length_b 11.605697
_cell_length_c 10.210857
_cell_angle_alpha 90.000000
_cell_angle_beta 90.000000
_cell_angle_gamma 90.000000
_cell_volume 1827.443504
_symmetry_space_group_name_H-M "P M N A"
_symmetry_group_IT_number 53
_symmetry_cell_setting 'orthorhombic'
loop_
_space_group_symop_operation_xyz
x,y,z
1/2-x,-y,1/2+z
x,-y,-z
1/2-x,y,1/2-z
-x,-y,-z
1/2+x,y,1/2-z
-x,y,z
1/2+x,-y,1/2+z
loop_
_atom_site_type_symbol
_atom_site_label
_atom_site_fract_x
_atom_site_fract_y
_atom_site_fract_z
Si Si1 0.395760 0.627064 0.039023
Si Si2 0.847317 0.768914 0.212608
Si Si3 0.895145 0.371322 0.036448
Si Si4 0.899623 0.013406 0.145884
Si Si5 0.394465 0.763293 0.793030
O O1 0.500000 0.622011 0.027400
O O2 0.377049 0.672471 0.183854
O O3 0.362803 0.500000 0.000000
O O4 0.362159 0.719777 0.933072
O O5 0.750000 0.797748 0.250000
O O6 0.856590 0.716317 0.068583
O O7 0.897561 0.889548 0.214700
O O8 0.000000 0.365001 0.023580
O O9 0.867957 0.500000 0.000000
O O10 0.873901 0.332200 0.183023
O O11 0.000000 0.048109 0.123475
O O12 0.862658 0.114718 0.236649
O O13 0.859969 0.000000 0.000000
O O14 0.500000 0.769602 0.803449
#
# Coordination Sequence:
#
# PCOD9416552 Si02
#       5
#     8   8   8   8   8
#     4  10  21  40  64  90 120 152 195 251 303 354
#     4  12  25  39  56  88 128 163 197 239 305 370
#     4  10  19  36  64  90 112 151 207 253 291 352
#     4  10  19  38  65  86 113 153 208 263 293 338
#     4   9  18  34  60  90 112 144 197 254 305 340
#
# _framework density 21.888500000000001
#
# number of rings (size 3 to 8) (size 9 to 14) (size 15 to 20)
#    0.000    1.800    2.000    3.000    0.000    4.800 
#    3.600    4.000    0.000    0.000    0.000    0.000 
#    0.000    0.000    0.000    0.000    0.000    0.000 
#
# Total GULP energy -223457.180431 kJ/mol
# GULP energy per Si atom -5586.429511 kJ/mol
# Density = 2.183868 g / cm^3
# Si number density = 21.888500 Si / 1000 Ang^3
#
#
#
# Elastic Constant Matrix: (Units=GPa)
#
#
# Indices 1 2 3 4 5 6 
#
# 1 23.7042 -7.7776 -2.1611 0.0000 0.0000 0.0000
# 2 -7.7776 85.9281 -8.3864 0.0000 0.0000 0.0000
# 3 -2.1611 -8.3864 62.3884 0.0000 0.0000 0.0000
# 4 0.0000 0.0000 0.0000 30.8430 0.0000 0.0000
# 5 0.0000 0.0000 0.0000 0.0000 -93.2629 0.0000
# 6 0.0000 0.0000 0.0000 0.0000 0.0000 -49.3049
#
#
#
# Elastic Compliance Matrix: (Units=1/GPa)
#
#
# Indices 1 2 3 4 5 6 
#
# 1 0.043741 0.004162 0.002075 0.000000 0.000000 0.000000
# 2 0.004162 0.012188 0.001783 0.000000 0.000000 0.000000
# 3 0.002075 0.001783 0.016340 0.000000 0.000000 0.000000
# 4 0.000000 0.000000 0.000000 0.032422 0.000000 0.000000
# 5 0.000000 0.000000 0.000000 0.000000 -0.010722 0.000000
# 6 0.000000 0.000000 0.000000 0.000000 0.000000 -0.020282
#
#
# Mechanical properties :
#
#
# Convention : Reuss Voigt Hill
#
# Bulk Modulus (GPa) = 11.32411 15.04114 13.18262
# Shear Modulus (GPa) = 57.41478 -9.65522 23.87978
#
# Velocity S-wave (km/s) = 5.12714 -2.10254 3.30657
# Velocity P-wave (km/s) = 6.34309 0.99619 4.54022
#
# Compressibility (1/GPa) = 0.08830719
#
# Stress axis : x y z
#
# Youngs Moduli (GPa) = 22.86175 82.04590 61.19914
#
# Poissons Ratio (x) = -0.34145 -0.12696
# Poissons Ratio (y) = -0.09514 -0.10909
# Poissons Ratio (z) = -0.04743 -0.14625
#
# Static dielectric constant tensor:
#      x y z
#    x 1.854060 0.000000 0.000000 
#    y 0.000000 1.803720 0.000000 
#    z 0.000000 0.000000 1.759400 
# 
# From -- ./inp_files/9631.got.cif
#   From: 2010.05.17/outbox.cif.g08.bks.cpg/sg53_5_cif.got.tgz:9631.got - 2010.06.03 12:45:16.
