data_PCOD9416447
_publ_section_title
;
Structure prediction by ZEFSAII (Michael W. Deem and Ramdas Pophale) SiO2 
 PCOD9416447
Probable space group: P M N A
;
_chemical_formula_sum "Si O2"
_cell_formula_units_Z 40
_cell_length_a 8.670141
_cell_length_b 8.037415
_cell_length_c 29.262254
_cell_angle_alpha 90.000000
_cell_angle_beta 90.000000
_cell_angle_gamma 90.000000
_cell_volume 2039.155425
_symmetry_space_group_name_H-M "P M N A"
_symmetry_group_IT_number 53
_symmetry_cell_setting 'orthorhombic'
loop_
_space_group_symop_operation_xyz
x,y,z
1/2-x,-y,1/2+z
x,-y,-z
1/2-x,y,1/2-z
-x,-y,-z
1/2+x,y,1/2-z
-x,y,z
1/2+x,-y,1/2+z
loop_
_atom_site_type_symbol
_atom_site_label
_atom_site_fract_x
_atom_site_fract_y
_atom_site_fract_z
Si Si1 0.312672 0.559466 0.549465
Si Si2 0.685529 0.053374 0.448617
Si Si3 0.314921 0.752368 0.699049
Si Si4 0.317446 0.933722 0.144094
Si Si5 0.186384 0.417066 0.854647
O O1 0.255983 0.500000 0.500000
O O2 0.500000 0.548944 0.548337
O O3 0.275469 0.752463 0.557097
O O4 0.262477 0.453506 0.593100
O O5 0.500000 0.033366 0.443670
O O6 0.725873 0.000000 0.500000
O O7 0.766084 0.951587 0.408713
O O8 0.250000 0.758227 0.750000
O O9 0.500000 0.758207 0.699582
O O10 0.269425 0.578740 0.674791
O O11 0.255250 0.910267 0.670625
O O12 0.500000 0.940830 0.148126
O O13 0.255745 0.756579 0.161664
O O14 0.000000 0.404781 0.854264
#
# Coordination Sequence:
#
# PCOD9416447 Si02
#       5
#     8   8   8   8   8
#     4   9  16  30  56  90 121 157 207 259 310 365
#     4  10  19  35  61  90 124 168 218 267 315 375
#     4  11  24  45  71  96 125 163 212 267 323 377
#     4  12  25  40  62  93 134 173 210 259 318 384
#     4  10  21  40  65  91 125 166 213 266 315 372
#
# _framework density 19.615963000000001
#
# number of rings (size 3 to 8) (size 9 to 14) (size 15 to 20)
#    0.000    1.600    2.000    3.600    0.000    6.000 
#    0.000    2.000    0.000    2.400    0.000    0.000 
#    0.000    0.000    0.000    0.000    0.000    0.000 
#
# Total GULP energy -223561.417979 kJ/mol
# GULP energy per Si atom -5589.035449 kJ/mol
# Density = 1.957132 g / cm^3
# Si number density = 19.615963 Si / 1000 Ang^3
#
#
#
# Elastic Constant Matrix: (Units=GPa)
#
#
# Indices 1 2 3 4 5 6 
#
# 1 48.6500 52.1828 38.7732 0.0000 0.0000 0.0000
# 2 52.1828 169.6572 67.9039 0.0000 0.0000 0.0000
# 3 38.7732 67.9039 116.0839 0.0000 0.0000 0.0000
# 4 0.0000 0.0000 0.0000 23.5778 0.0000 0.0000
# 5 0.0000 0.0000 0.0000 0.0000 21.1120 0.0000
# 6 0.0000 0.0000 0.0000 0.0000 0.0000 32.2935
#
#
#
# Elastic Compliance Matrix: (Units=1/GPa)
#
#
# Indices 1 2 3 4 5 6 
#
# 1 0.034482 -0.007829 -0.006938 0.000000 0.000000 0.000000
# 2 -0.007829 0.009474 -0.002927 0.000000 0.000000 0.000000
# 3 -0.006938 -0.002927 0.012644 0.000000 0.000000 0.000000
# 4 0.000000 0.000000 0.000000 0.042413 0.000000 0.000000
# 5 0.000000 0.000000 0.000000 0.000000 0.047366 0.000000
# 6 0.000000 0.000000 0.000000 0.000000 0.000000 0.030966
#
#
# Mechanical properties :
#
#
# Convention : Reuss Voigt Hill
#
# Bulk Modulus (GPa) = 47.14236 72.45679 59.79957
# Shear Modulus (GPa) = 22.74778 27.09874 24.92326
#
# Velocity S-wave (km/s) = 3.40907 3.72084 3.56836
# Velocity P-wave (km/s) = 6.29130 7.44831 6.89412
#
# Compressibility (1/GPa) = 0.02121235
#
# Stress axis : x y z
#
# Youngs Moduli (GPa) = 29.00087 105.55551 79.09109
#
# Poissons Ratio (x) = 0.82641 0.54870
# Poissons Ratio (y) = 0.22705 0.23147
# Poissons Ratio (z) = 0.20120 0.30893
#
# Static dielectric constant tensor:
#      x y z
#    x 1.661430 0.000000 0.000000 
#    y 0.000000 1.685710 0.000000 
#    z 0.000000 0.000000 1.686810 
# 
# From -- ./inp_files/36021.got.cif
#   From: 2010.05.17/outbox.cif.g08.bks.cpg/sg53_19_cif.got.tgz:36021.got - 2010.06.03 12:45:16.
