data_PCOD9416397
_publ_section_title
;
Structure prediction by ZEFSAII (Michael W. Deem and Ramdas Pophale) SiO2 
 PCOD9416397
Probable space group: P M N A
;
_chemical_formula_sum "Si O2"
_cell_formula_units_Z 64
_cell_length_a 8.713099
_cell_length_b 18.031843
_cell_length_c 20.271828
_cell_angle_alpha 90.000000
_cell_angle_beta 90.000000
_cell_angle_gamma 90.000000
_cell_volume 3184.972440
_symmetry_space_group_name_H-M "P M N A"
_symmetry_group_IT_number 53
_symmetry_cell_setting 'orthorhombic'
loop_
_space_group_symop_operation_xyz
x,y,z
1/2-x,-y,1/2+z
x,-y,-z
1/2-x,y,1/2-z
-x,-y,-z
1/2+x,y,1/2-z
-x,y,z
1/2+x,-y,1/2+z
loop_
_atom_site_type_symbol
_atom_site_label
_atom_site_fract_x
_atom_site_fract_y
_atom_site_fract_z
Si Si1 0.182718 0.935214 0.913303
Si Si2 0.179912 0.047292 0.683479
Si Si3 0.327145 0.300126 0.067889
Si Si4 0.185654 0.635585 0.320776
Si Si5 0.686954 0.576944 0.034815
Si Si6 0.179729 0.200944 0.846431
Si Si7 0.327313 0.155446 0.977200
Si Si8 0.318499 0.207803 0.322598
O O1 0.266857 0.913133 0.980498
O O2 0.219392 0.868300 0.861805
O O3 0.000000 0.937774 0.923371
O O4 0.242101 0.009387 0.879246
O O5 0.250000 0.013350 0.750000
O O6 0.223212 0.133667 0.683712
O O7 0.000000 0.035527 0.682686
O O8 0.500000 0.324851 0.085704
O O9 0.339085 0.224102 0.027148
O O10 0.238242 0.277129 0.133470
O O11 0.260438 0.359023 0.015925
O O12 0.250000 0.607435 0.250000
O O13 0.232031 0.592239 0.388671
O O14 0.250558 0.719169 0.329429
O O15 0.000000 0.637546 0.317974
O O16 0.500000 0.580055 0.036069
O O17 0.731823 0.500000 0.000000
O O18 0.000000 0.197201 0.828936
O O19 0.207266 0.183548 0.923341
O O20 0.500000 0.142544 0.949736
O O21 0.250000 0.207588 0.250000
O O22 0.500000 0.210806 0.317837
#
# Coordination Sequence:
#
# PCOD9416397 Si02
#       8
#     8   8   8   8   8   8   8   8
#     4  10  21  37  56  82 114 152 198 251 307 363
#     4  12  25  41  58  79 110 151 198 252 310 370
#     4   9  17  33  57  84 115 152 194 239 288 348
#     4  11  22  40  64  94 126 161 205 250 300 361
#     4   9  18  36  64  94 123 160 199 238 289 357
#     4  12  24  39  60  86 117 155 198 251 306 359
#     4  10  19  35  58  86 115 152 196 243 298 359
#     4  10  20  33  53  81 113 152 197 248 299 353
#
# _framework density 20.094365
#
# number of rings (size 3 to 8) (size 9 to 14) (size 15 to 20)
#    0.000    1.625    1.250    4.500    0.000    3.500 
#    0.000    3.125    0.000    4.875    0.000    0.000 
#    0.000    0.000    0.000    0.000    0.000    0.000 
#
# Total GULP energy -357350.273419 kJ/mol
# GULP energy per Si atom -5583.598022 kJ/mol
# Density = 2.004863 g / cm^3
# Si number density = 20.094365 Si / 1000 Ang^3
#
#
#
# Elastic Constant Matrix: (Units=GPa)
#
#
# Indices 1 2 3 4 5 6 
#
# 1 41.5438 13.7228 22.6085 0.0000 0.0000 0.0000
# 2 13.7228 83.5599 41.5965 0.0000 0.0000 0.0000
# 3 22.6085 41.5965 129.5942 0.0000 0.0000 0.0000
# 4 0.0000 0.0000 0.0000 9.7948 0.0000 0.0000
# 5 0.0000 0.0000 0.0000 0.0000 31.1029 0.0000
# 6 0.0000 0.0000 0.0000 0.0000 0.0000 15.5660
#
#
#
# Elastic Compliance Matrix: (Units=1/GPa)
#
#
# Indices 1 2 3 4 5 6 
#
# 1 0.027024 -0.002489 -0.003916 0.000000 0.000000 0.000000
# 2 -0.002489 0.014473 -0.004211 0.000000 0.000000 0.000000
# 3 -0.003916 -0.004211 0.009751 0.000000 0.000000 0.000000
# 4 0.000000 0.000000 0.000000 0.102095 0.000000 0.000000
# 5 0.000000 0.000000 0.000000 0.000000 0.032151 0.000000
# 6 0.000000 0.000000 0.000000 0.000000 0.000000 0.064242
#
#
# Mechanical properties :
#
#
# Convention : Reuss Voigt Hill
#
# Bulk Modulus (GPa) = 33.31504 45.61705 39.46605
# Shear Modulus (GPa) = 17.79530 23.07742 20.43636
#
# Velocity S-wave (km/s) = 2.97911 3.39256 3.19253
# Velocity P-wave (km/s) = 5.33374 6.17225 5.76825
#
# Compressibility (1/GPa) = 0.03001647
#
# Stress axis : x y z
#
# Youngs Moduli (GPa) = 37.00414 69.09649 102.55178
#
# Poissons Ratio (x) = 0.17197 0.40156
# Poissons Ratio (y) = 0.09210 0.43186
# Poissons Ratio (z) = 0.14490 0.29097
#
# Static dielectric constant tensor:
#      x y z
#    x 1.691660 0.000000 0.000000 
#    y 0.000000 1.720520 0.000000 
#    z 0.000000 0.000000 1.788280 
# 
# From -- ./inp_files/31243.got.cif
#   From: 2010.05.17/outbox.cif.g08.bks.cpg/sg53_16_cif.got.tgz:31243.got - 2010.06.03 12:45:16.
