data_PCOD9416281
_publ_section_title
;
Structure prediction by ZEFSAII (Michael W. Deem and Ramdas Pophale) SiO2 
 PCOD9416281
Probable space group: P M N A
;
_chemical_formula_sum "Si O2"
_cell_formula_units_Z 48
_cell_length_a 14.031635
_cell_length_b 14.347924
_cell_length_c 11.778295
_cell_angle_alpha 90.000000
_cell_angle_beta 90.000000
_cell_angle_gamma 90.000000
_cell_volume 2371.263269
_symmetry_space_group_name_H-M "P M N A"
_symmetry_group_IT_number 53
_symmetry_cell_setting 'orthorhombic'
loop_
_space_group_symop_operation_xyz
x,y,z
1/2-x,-y,1/2+z
x,-y,-z
1/2-x,y,1/2-z
-x,-y,-z
1/2+x,y,1/2-z
-x,y,z
1/2+x,-y,1/2+z
loop_
_atom_site_type_symbol
_atom_site_label
_atom_site_fract_x
_atom_site_fract_y
_atom_site_fract_z
Si Si1 0.611603 0.547226 0.124217
Si Si2 0.259669 0.049934 0.376349
Si Si3 0.386305 0.358385 0.225491
Si Si4 0.111975 0.806625 0.563086
Si Si5 0.769328 0.264281 0.623239
Si Si6 0.614074 0.226472 0.435296
O O1 0.500000 0.575187 0.146536
O O2 0.643652 0.464349 0.208189
O O3 0.683470 0.633151 0.126073
O O4 0.611785 0.500000 0.000000
O O5 0.250000 0.003673 0.250000
O O6 0.159862 0.104298 0.383449
O O7 0.340366 0.131942 0.382447
O O8 0.271452 0.000000 0.500000
O O9 0.500000 0.362672 0.209014
O O10 0.351984 0.286060 0.129348
O O11 0.369408 0.309496 0.344985
O O12 0.151252 0.798706 0.436879
O O13 0.000000 0.808979 0.569422
O O14 0.750000 0.234924 0.750000
O O15 0.674423 0.252186 0.547249
O O16 0.500000 0.216855 0.452665
#
# Coordination Sequence:
#
# PCOD9416281 Si02
#       6
#     8   8   8   8   8   8
#     4  10  19  34  58  91 125 161 213 267 313 368
#     4  11  24  41  66 102 135 165 211 269 332 402
#     4   9  17  35  65  91 112 154 214 261 303 361
#     4  10  20  40  68  90 118 163 212 258 311 379
#     4  11  24  37  55  91 131 172 212 263 320 378
#     4  10  23  44  68  91 124 173 222 264 316 382
#
# _framework density 20.242374999999999
#
# number of rings (size 3 to 8) (size 9 to 14) (size 15 to 20)
#    0.000    1.833    3.333    0.500    0.000    6.000 
#    0.000    0.000    0.000    3.500    0.000    0.000 
#    0.000    0.000    0.000    0.000    0.000    0.000 
#
# Total GULP energy -267644.424051 kJ/mol
# GULP energy per Si atom -5575.925501 kJ/mol
# Density = 2.019630 g / cm^3
# Si number density = 20.242375 Si / 1000 Ang^3
#
#
#
# Elastic Constant Matrix: (Units=GPa)
#
#
# Indices 1 2 3 4 5 6 
#
# 1 133.1996 26.0192 29.3805 0.0000 0.0000 0.0000
# 2 26.0192 61.4596 43.7360 0.0000 0.0000 0.0000
# 3 29.3805 43.7360 114.8396 0.0000 0.0000 0.0000
# 4 0.0000 0.0000 0.0000 2.1166 0.0000 0.0000
# 5 0.0000 0.0000 0.0000 0.0000 31.1137 0.0000
# 6 0.0000 0.0000 0.0000 0.0000 0.0000 21.8519
#
#
#
# Elastic Compliance Matrix: (Units=1/GPa)
#
#
# Indices 1 2 3 4 5 6 
#
# 1 0.008280 -0.002741 -0.001075 0.000000 0.000000 0.000000
# 2 -0.002741 0.023227 -0.008145 0.000000 0.000000 0.000000
# 3 -0.001075 -0.008145 0.012085 0.000000 0.000000 0.000000
# 4 0.000000 0.000000 0.000000 0.472454 0.000000 0.000000
# 5 0.000000 0.000000 0.000000 0.000000 0.032140 0.000000
# 6 0.000000 0.000000 0.000000 0.000000 0.000000 0.045763
#
#
# Mechanical properties :
#
#
# Convention : Reuss Voigt Hill
#
# Bulk Modulus (GPa) = 50.83449 56.41891 53.62670
# Shear Modulus (GPa) = 8.00736 25.04066 16.52401
#
# Velocity S-wave (km/s) = 1.99106 3.52098 2.86021
# Velocity P-wave (km/s) = 5.51844 6.66797 6.12026
#
# Compressibility (1/GPa) = 0.01967168
#
# Stress axis : x y z
#
# Youngs Moduli (GPa) = 120.77423 43.05315 82.74999
#
# Poissons Ratio (x) = 0.11799 0.08892
# Poissons Ratio (y) = 0.33100 0.67398
# Poissons Ratio (z) = 0.12978 0.35066
#
# Static dielectric constant tensor:
#      x y z
#    x 1.711140 0.000000 0.000000 
#    y 0.000000 1.767510 0.000000 
#    z 0.000000 0.000000 1.747370 
# 
# From -- ./inp_files/15940.got.cif
#   From: 2010.05.17/outbox.cif.g08.bks.cpg/sg53_8_cif.got.tgz:15940.got - 2010.06.03 12:45:16.
