data_PCOD9416147
_publ_section_title
;
Structure prediction by ZEFSAII (Michael W. Deem and Ramdas Pophale) SiO2 
 PCOD9416147
Probable space group: P M N A
;
_chemical_formula_sum "Si O2"
_cell_formula_units_Z 48
_cell_length_a 7.915000
_cell_length_b 13.291954
_cell_length_c 27.204070
_cell_angle_alpha 90.000000
_cell_angle_beta 90.000000
_cell_angle_gamma 90.000000
_cell_volume 2862.026380
_symmetry_space_group_name_H-M "P M N A"
_symmetry_group_IT_number 53
_symmetry_cell_setting 'orthorhombic'
loop_
_space_group_symop_operation_xyz
x,y,z
1/2-x,-y,1/2+z
x,-y,-z
1/2-x,y,1/2-z
-x,-y,-z
1/2+x,y,1/2-z
-x,y,z
1/2+x,-y,1/2+z
loop_
_atom_site_type_symbol
_atom_site_label
_atom_site_fract_x
_atom_site_fract_y
_atom_site_fract_z
Si Si1 0.307829 0.967491 0.875173
Si Si2 0.500000 0.579692 0.073255
Si Si3 0.689471 0.304872 0.614299
Si Si4 0.297112 0.856451 0.193207
Si Si5 0.500000 0.649304 0.960193
Si Si6 0.694522 0.798348 0.559063
Si Si7 0.692944 0.114001 0.544879
O O1 0.500000 0.939671 0.863183
O O2 0.236630 0.039096 0.832152
O O3 0.306000 0.042607 0.922074
O O4 0.213300 0.867840 0.892859
O O5 0.664671 0.615968 0.102995
O O6 0.500000 0.461212 0.063299
O O7 0.500000 0.633221 0.019386
O O8 0.500000 0.347181 0.615983
O O9 0.723534 0.237204 0.662556
O O10 0.697350 0.223403 0.570139
O O11 0.250000 0.852130 0.250000
O O12 0.500000 0.853936 0.187212
O O13 0.666110 0.711402 0.944012
O O14 0.500000 0.764101 0.553618
O O15 0.732925 0.869706 0.511838
O O16 0.500000 0.075600 0.549303
#
# Coordination Sequence:
#
# PCOD9416147 Si02
#       7
#     8   4   8   8   4   8   8
#     4  10  20  30  49  74 106 146 178 214 260 317
#     4  11  22  38  55  78 105 144 188 232 290 318
#     4  10  19  34  55  77 109 145 178 220 275 331
#     4  10  20  34  54  84 118 142 174 215 267 329
#     4  11  24  36  54  77 108 141 190 242 266 318
#     4  11  21  34  50  73 106 145 186 220 262 313
#     4   9  18  29  45  73 104 142 181 212 250 315
#
# _framework density 16.771334
#
# number of rings (size 3 to 8) (size 9 to 14) (size 15 to 20)
#    0.000    1.833    3.333    1.500    2.333    4.667 
#    0.000    1.667    0.000    0.000    0.000    1.167 
#    0.000    0.000    0.000    0.000    0.000    0.000 
#
# Total GULP energy -267756.837197 kJ/mol
# GULP energy per Si atom -5578.267442 kJ/mol
# Density = 1.673316 g / cm^3
# Si number density = 16.771334 Si / 1000 Ang^3
#
#
#
# Elastic Constant Matrix: (Units=GPa)
#
#
# Indices 1 2 3 4 5 6 
#
# 1 99.7730 47.5999 29.2740 0.0000 0.0000 0.0000
# 2 47.5999 66.1931 36.6243 0.0000 0.0000 0.0000
# 3 29.2740 36.6243 94.7799 0.0000 0.0000 0.0000
# 4 0.0000 0.0000 0.0000 14.6480 0.0000 0.0000
# 5 0.0000 0.0000 0.0000 0.0000 20.6844 0.0000
# 6 0.0000 0.0000 0.0000 0.0000 0.0000 2.8832
#
#
#
# Elastic Compliance Matrix: (Units=1/GPa)
#
#
# Indices 1 2 3 4 5 6 
#
# 1 0.015284 -0.010657 -0.000602 0.000000 0.000000 0.000000
# 2 -0.010657 0.026647 -0.007005 0.000000 0.000000 0.000000
# 3 -0.000602 -0.007005 0.013444 0.000000 0.000000 0.000000
# 4 0.000000 0.000000 0.000000 0.068269 0.000000 0.000000
# 5 0.000000 0.000000 0.000000 0.000000 0.048346 0.000000
# 6 0.000000 0.000000 0.000000 0.000000 0.000000 0.346835
#
#
# Mechanical properties :
#
#
# Convention : Reuss Voigt Hill
#
# Bulk Modulus (GPa) = 53.06536 54.19359 53.62947
# Shear Modulus (GPa) = 8.90256 17.45964 13.18110
#
# Velocity S-wave (km/s) = 2.30645 3.23002 2.80649
# Velocity P-wave (km/s) = 6.22914 6.80397 6.52289
#
# Compressibility (1/GPa) = 0.01884469
#
# Stress axis : x y z
#
# Youngs Moduli (GPa) = 65.42793 37.52764 74.38423
#
# Poissons Ratio (x) = 0.39995 0.04481
# Poissons Ratio (y) = 0.69730 0.52107
# Poissons Ratio (z) = 0.03942 0.26288
#
# Static dielectric constant tensor:
#      x y z
#    x 1.601200 0.000000 0.000000 
#    y 0.000000 1.552410 0.000000 
#    z 0.000000 0.000000 1.558210 
# 
# From -- ./inp_files/33934.got.cif
#   From: 2010.05.17/outbox.cif.g08.bks.cpg/sg53_17_cif.got.tgz:33934.got - 2010.06.03 12:45:16.
