data_PCOD9416857
_publ_section_title
;
Structure prediction by ZEFSAII (Michael W. Deem and Ramdas Pophale) SiO2 
 PCOD9416857
Probable space group: P M N A
;
_chemical_formula_sum "Si O2"
_cell_formula_units_Z 32
_cell_length_a 8.781991
_cell_length_b 21.536367
_cell_length_c 9.283820
_cell_angle_alpha 90.000000
_cell_angle_beta 90.000000
_cell_angle_gamma 90.000000
_cell_volume 1755.869126
_symmetry_space_group_name_H-M "P M N A"
_symmetry_group_IT_number 53
_symmetry_cell_setting 'orthorhombic'
loop_
_space_group_symop_operation_xyz
x,y,z
1/2-x,-y,1/2+z
x,-y,-z
1/2-x,y,1/2-z
-x,-y,-z
1/2+x,y,1/2-z
-x,y,z
1/2+x,-y,1/2+z
loop_
_atom_site_type_symbol
_atom_site_label
_atom_site_fract_x
_atom_site_fract_y
_atom_site_fract_z
Si Si1 0.682657 0.325094 0.411480
Si Si2 0.817735 0.061175 0.410540
Si Si3 0.182485 0.561554 0.409261
Si Si4 0.682018 0.187040 0.411503
O O1 0.750000 0.330213 0.250000
O O2 0.500000 0.330970 0.403082
O O3 0.751495 0.378527 0.509877
O O4 0.717731 0.255630 0.470749
O O5 0.750000 0.055642 0.250000
O O6 0.753237 0.125041 0.478501
O O7 0.000000 0.065749 0.401500
O O8 0.776822 0.000000 0.500000
O O9 0.222409 0.500000 0.500000
O O10 0.250000 0.556850 0.250000
O O11 0.000000 0.565985 0.402121
O O12 0.750000 0.188455 0.250000
O O13 0.500000 0.180397 0.404938
#
# Coordination Sequence:
#
# PCOD9416857 Si02
#       4
#     8   8   8   8
#     4  10  20  35  57  84 111 141 179 221 267 319
#     4  10  20  33  51  76 104 137 177 219 264 314
#     4  11  24  40  59  83 111 144 180 220 266 316
#     4   9  17  30  51  77 104 137 175 215 261 313
#
# _framework density 18.224592000000001
#
# number of rings (size 3 to 8) (size 9 to 14) (size 15 to 20)
#    0.000    2.000    0.000    5.250    0.000    9.000 
#    0.000    1.250    0.000    3.000    0.000    0.000 
#    0.000    0.000    0.000    0.000    0.000    0.000 
#
# Total GULP energy -178561.555954 kJ/mol
# GULP energy per Si atom -5580.048624 kJ/mol
# Density = 1.818311 g / cm^3
# Si number density = 18.224592 Si / 1000 Ang^3
#
#
#
# Elastic Constant Matrix: (Units=GPa)
#
#
# Indices 1 2 3 4 5 6 
#
# 1 73.5088 84.1996 39.3787 0.0000 0.0000 0.0000
# 2 84.1996 229.3542 84.1863 0.0000 0.0000 0.0000
# 3 39.3787 84.1863 83.5908 0.0000 0.0000 0.0000
# 4 0.0000 0.0000 0.0000 33.1898 0.0000 0.0000
# 5 0.0000 0.0000 0.0000 0.0000 21.8388 0.0000
# 6 0.0000 0.0000 0.0000 0.0000 0.0000 37.2019
#
#
#
# Elastic Compliance Matrix: (Units=1/GPa)
#
#
# Indices 1 2 3 4 5 6 
#
# 1 0.024251 -0.007472 -0.003900 0.000000 0.000000 0.000000
# 2 -0.007472 0.009219 -0.005765 0.000000 0.000000 0.000000
# 3 -0.003900 -0.005765 0.019606 0.000000 0.000000 0.000000
# 4 0.000000 0.000000 0.000000 0.030130 0.000000 0.000000
# 5 0.000000 0.000000 0.000000 0.000000 0.045790 0.000000
# 6 0.000000 0.000000 0.000000 0.000000 0.000000 0.026880
#
#
# Mechanical properties :
#
#
# Convention : Reuss Voigt Hill
#
# Bulk Modulus (GPa) = 53.18028 89.10921 71.14474
# Shear Modulus (GPa) = 25.45609 30.35871 27.90740
#
# Velocity S-wave (km/s) = 3.74143 4.08586 3.91743
# Velocity P-wave (km/s) = 6.92158 8.44158 7.71908
#
# Compressibility (1/GPa) = 0.01880396
#
# Stress axis : x y z
#
# Youngs Moduli (GPa) = 41.23542 108.47068 51.00437
#
# Poissons Ratio (x) = 0.81044 0.19890
# Poissons Ratio (y) = 0.30809 0.29404
# Poissons Ratio (z) = 0.16080 0.62533
#
# Static dielectric constant tensor:
#      x y z
#    x 1.608160 0.000000 0.000000 
#    y 0.000000 1.670510 0.000000 
#    z 0.000000 0.000000 1.593730 
# 
# From -- ./inp_files/6008.got.cif
#   From: 2010.05.17/outbox.cif.g08.bks.cpg/sg53_4_cif.got.tgz:6008.got - 2010.06.03 12:45:16.
