data_PCOD9416250
_publ_section_title
;
Structure prediction by ZEFSAII (Michael W. Deem and Ramdas Pophale) SiO2 
 PCOD9416250
Probable space group: P M N A
;
_chemical_formula_sum "Si O2"
_cell_formula_units_Z 64
_cell_length_a 24.469435
_cell_length_b 14.606496
_cell_length_c 9.552771
_cell_angle_alpha 90.000000
_cell_angle_beta 90.000000
_cell_angle_gamma 90.000000
_cell_volume 3414.281718
_symmetry_space_group_name_H-M "P M N A"
_symmetry_group_IT_number 53
_symmetry_cell_setting 'orthorhombic'
loop_
_space_group_symop_operation_xyz
x,y,z
1/2-x,-y,1/2+z
x,-y,-z
1/2-x,y,1/2-z
-x,-y,-z
1/2+x,y,1/2-z
-x,y,z
1/2+x,-y,1/2+z
loop_
_atom_site_type_symbol
_atom_site_label
_atom_site_fract_x
_atom_site_fract_y
_atom_site_fract_z
Si Si1 0.745428 0.107238 0.462291
Si Si2 0.119725 0.089943 0.091911
Si Si3 0.366505 0.088525 0.098151
Si Si4 0.362351 0.404151 0.917057
Si Si5 0.355442 0.597084 0.424091
Si Si6 0.065293 0.266676 0.424185
Si Si7 0.246673 0.701344 0.412053
Si Si8 0.064480 0.721110 0.905447
O O1 0.683110 0.121378 0.415821
O O2 0.802451 0.114693 0.378367
O O3 0.754094 0.189264 0.571968
O O4 0.745230 0.000000 0.500000
O O5 0.108417 0.064925 0.252155
O O6 0.083358 0.176728 0.052875
O O7 0.112155 0.000000 0.000000
O O8 0.400642 0.174545 0.041352
O O9 0.368223 0.000000 0.000000
O O10 0.361148 0.411865 0.746180
O O11 0.308484 0.346534 0.964040
O O12 0.361444 0.500000 0.000000
O O13 0.413686 0.345798 0.972934
O O14 0.350555 0.500000 0.500000
O O15 0.301971 0.656205 0.468374
O O16 0.405851 0.650220 0.493353
O O17 0.078775 0.289988 0.260564
O O18 0.000000 0.252801 0.433412
O O19 0.250000 0.679225 0.250000
O O20 0.000000 0.711870 0.916665
#
# Coordination Sequence:
#
# PCOD9416250 Si02
#       8
#     8   8   8   8   8   8   8   8
#     4  10  19  34  57  89 121 156 190 235 285 352
#     4  10  21  36  57  87 120 158 197 241 294 352
#     4  10  21  36  57  87 120 158 197 241 294 352
#     4  11  23  41  64  91 120 154 195 244 301 359
#     4  11  23  41  64  91 120 154 195 244 301 359
#     4  10  22  41  62  86 118 157 203 252 297 345
#     4  10  21  38  62  91 124 157 192 240 293 355
#     4  10  22  41  62  86 118 157 203 252 297 345
#
# _framework density 18.744793000000001
#
# number of rings (size 3 to 8) (size 9 to 14) (size 15 to 20)
#    0.000    1.750    2.500    1.500    0.000    6.500 
#    0.000    1.875    0.000    0.000    0.000    0.000 
#    0.000    0.000    0.000    0.000    0.000    0.000 
#
# Total GULP energy -356458.105431 kJ/mol
# GULP energy per Si atom -5569.657897 kJ/mol
# Density = 1.870213 g / cm^3
# Si number density = 18.744793 Si / 1000 Ang^3
#
#
#
# Elastic Constant Matrix: (Units=GPa)
#
#
# Indices 1 2 3 4 5 6 
#
# 1 39.7529 9.7778 11.1616 0.0000 0.0000 0.0000
# 2 9.7778 83.0844 31.4046 0.0000 0.0000 0.0000
# 3 11.1616 31.4046 47.2519 0.0000 0.0000 0.0000
# 4 0.0000 0.0000 0.0000 31.5681 0.0000 0.0000
# 5 0.0000 0.0000 0.0000 0.0000 14.4083 0.0000
# 6 0.0000 0.0000 0.0000 0.0000 0.0000 6.8588
#
#
#
# Elastic Compliance Matrix: (Units=1/GPa)
#
#
# Indices 1 2 3 4 5 6 
#
# 1 0.027007 -0.001024 -0.005699 0.000000 0.000000 0.000000
# 2 -0.001024 0.016113 -0.010467 0.000000 0.000000 0.000000
# 3 -0.005699 -0.010467 0.029466 0.000000 0.000000 0.000000
# 4 0.000000 0.000000 0.000000 0.031678 0.000000 0.000000
# 5 0.000000 0.000000 0.000000 0.000000 0.069404 0.000000
# 6 0.000000 0.000000 0.000000 0.000000 0.000000 0.145799
#
#
# Mechanical properties :
#
#
# Convention : Reuss Voigt Hill
#
# Bulk Modulus (GPa) = 26.17392 30.53082 28.35237
# Shear Modulus (GPa) = 13.63950 18.41672 16.02811
#
# Velocity S-wave (km/s) = 2.70041 3.13788 2.92733
# Velocity P-wave (km/s) = 4.86997 5.42691 5.15597
#
# Compressibility (1/GPa) = 0.03820597
#
# Stress axis : x y z
#
# Youngs Moduli (GPa) = 37.02691 62.06221 33.93752
#
# Poissons Ratio (x) = 0.06357 0.19340
# Poissons Ratio (y) = 0.03793 0.35522
# Poissons Ratio (z) = 0.21101 0.64961
#
# Static dielectric constant tensor:
#      x y z
#    x 1.666510 0.000000 0.000000 
#    y 0.000000 1.633160 0.000000 
#    z 0.000000 0.000000 1.738240 
# 
# From -- ./inp_files/11934.got.cif
#   From: 2010.05.17/outbox.cif.g08.bks.cpg/sg53_6_cif.got.tgz:11934.got - 2010.06.03 12:45:16.
