data_PCOD9416208
_publ_section_title
;
Structure prediction by ZEFSAII (Michael W. Deem and Ramdas Pophale) SiO2 
 PCOD9416208
Probable space group: P M N A
;
_chemical_formula_sum "Si O2"
_cell_formula_units_Z 64
_cell_length_a 8.793924
_cell_length_b 20.811831
_cell_length_c 19.767987
_cell_angle_alpha 90.000000
_cell_angle_beta 90.000000
_cell_angle_gamma 90.000000
_cell_volume 3617.890726
_symmetry_space_group_name_H-M "P M N A"
_symmetry_group_IT_number 53
_symmetry_cell_setting 'orthorhombic'
loop_
_space_group_symop_operation_xyz
x,y,z
1/2-x,-y,1/2+z
x,-y,-z
1/2-x,y,1/2-z
-x,-y,-z
1/2+x,y,1/2-z
-x,y,z
1/2+x,-y,1/2+z
loop_
_atom_site_type_symbol
_atom_site_label
_atom_site_fract_x
_atom_site_fract_y
_atom_site_fract_z
Si Si1 0.319459 0.434937 0.457264
Si Si2 0.682463 0.639660 0.178065
Si Si3 0.817289 0.687220 0.466886
Si Si4 0.681386 0.987942 0.177768
Si Si5 0.682917 0.062167 0.543611
Si Si6 0.182532 0.810997 0.959457
Si Si7 0.317627 0.861528 0.823012
Si Si8 0.317422 0.488747 0.177480
O O1 0.294049 0.500000 0.500000
O O2 0.500000 0.422781 0.454419
O O3 0.236416 0.376416 0.493972
O O4 0.253342 0.448047 0.383038
O O5 0.750000 0.660525 0.250000
O O6 0.500000 0.642442 0.182500
O O7 0.730773 0.678933 0.111743
O O8 0.723799 0.564351 0.167472
O O9 0.745096 0.748385 0.503253
O O10 0.000000 0.691423 0.468716
O O11 0.750000 0.969350 0.250000
O O12 0.500000 0.984614 0.180294
O O13 0.724489 0.063076 0.165651
O O14 0.744578 0.945440 0.117020
O O15 0.500000 0.060766 0.550006
O O16 0.725752 0.126456 0.503824
O O17 0.729945 0.000000 0.500000
O O18 0.251073 0.820964 0.884853
O O19 0.000000 0.808543 0.954834
O O20 0.250000 0.843157 0.750000
O O21 0.500000 0.856960 0.821460
O O22 0.250000 0.469646 0.250000
O O23 0.500000 0.483862 0.177368
#
# Coordination Sequence:
#
# PCOD9416208 Si02
#       8
#     8   8   8   8   8   8   8   8
#     4  11  22  36  58  87 116 149 191 237 284 337
#     4   9  19  34  56  83 112 147 188 233 281 336
#     4  11  23  40  59  84 118 156 195 237 287 343
#     4  10  20  33  55  85 117 149 190 239 289 342
#     4  10  20  36  58  83 114 149 189 236 288 340
#     4  11  23  39  59  85 117 154 193 238 288 345
#     4  10  20  35  57  85 115 150 190 236 285 342
#     4  10  19  34  56  85 118 150 189 237 289 340
#
# _framework density 17.689865999999999
#
# number of rings (size 3 to 8) (size 9 to 14) (size 15 to 20)
#    0.000    1.750    2.500    2.250    0.000    4.250 
#    0.000    1.250    0.000    1.500    0.000    0.000 
#    0.000    0.000    0.000    0.000    0.000    0.000 
#
# Total GULP energy -357458.724548 kJ/mol
# GULP energy per Si atom -5585.292571 kJ/mol
# Density = 1.764960 g / cm^3
# Si number density = 17.689866 Si / 1000 Ang^3
#
#
#
# Elastic Constant Matrix: (Units=GPa)
#
#
# Indices 1 2 3 4 5 6 
#
# 1 44.0074 38.1107 51.6167 0.0000 0.0000 0.0000
# 2 38.1107 83.1511 67.1333 0.0000 0.0000 0.0000
# 3 51.6167 67.1333 185.7166 0.0000 0.0000 0.0000
# 4 0.0000 0.0000 0.0000 28.6217 0.0000 0.0000
# 5 0.0000 0.0000 0.0000 0.0000 34.8248 0.0000
# 6 0.0000 0.0000 0.0000 0.0000 0.0000 71.8970
#
#
#
# Elastic Compliance Matrix: (Units=1/GPa)
#
#
# Indices 1 2 3 4 5 6 
#
# 1 0.043038 -0.014218 -0.006822 0.000000 0.000000 0.000000
# 2 -0.014218 0.021679 -0.003885 0.000000 0.000000 0.000000
# 3 -0.006822 -0.003885 0.008685 0.000000 0.000000 0.000000
# 4 0.000000 0.000000 0.000000 0.034939 0.000000 0.000000
# 5 0.000000 0.000000 0.000000 0.000000 0.028715 0.000000
# 6 0.000000 0.000000 0.000000 0.000000 0.000000 0.013909
#
#
# Mechanical properties :
#
#
# Convention : Reuss Voigt Hill
#
# Bulk Modulus (GPa) = 42.45859 69.62183 56.04021
# Shear Modulus (GPa) = 23.96180 37.46966 30.71573
#
# Velocity S-wave (km/s) = 3.68441 4.60732 4.17147
# Velocity P-wave (km/s) = 6.49258 8.23077 7.41280
#
# Compressibility (1/GPa) = 0.02355236
#
# Stress axis : x y z
#
# Youngs Moduli (GPa) = 23.23542 46.12664 115.13984
#
# Poissons Ratio (x) = 0.65581 0.78551
# Poissons Ratio (y) = 0.33035 0.44734
# Poissons Ratio (z) = 0.15852 0.17921
#
# Static dielectric constant tensor:
#      x y z
#    x 1.587680 0.000000 0.000000 
#    y 0.000000 1.583850 0.000000 
#    z 0.000000 0.000000 1.589010 
# 
# From -- ./inp_files/26761.got.cif
#   From: 2010.05.17/outbox.cif.g08.bks.cpg/sg53_14_cif.got.tgz:26761.got - 2010.06.03 12:45:16.
