data_PCOD9416686
_publ_section_title
;
Structure prediction by ZEFSAII (Michael W. Deem and Ramdas Pophale) SiO2 
 PCOD9416686
Probable space group: P M N A
;
_chemical_formula_sum "Si O2"
_cell_formula_units_Z 56
_cell_length_a 14.158892
_cell_length_b 9.268342
_cell_length_c 18.915818
_cell_angle_alpha 90.000000
_cell_angle_beta 90.000000
_cell_angle_gamma 90.000000
_cell_volume 2482.312457
_symmetry_space_group_name_H-M "P M N A"
_symmetry_group_IT_number 53
_symmetry_cell_setting 'orthorhombic'
loop_
_space_group_symop_operation_xyz
x,y,z
1/2-x,-y,1/2+z
x,-y,-z
1/2-x,y,1/2-z
-x,-y,-z
1/2+x,y,1/2-z
-x,y,z
1/2+x,-y,1/2+z
loop_
_atom_site_type_symbol
_atom_site_label
_atom_site_fract_x
_atom_site_fract_y
_atom_site_fract_z
Si Si1 0.745046 0.592707 0.406782
Si Si2 0.102497 0.021796 0.387986
Si Si3 0.610847 0.365208 0.364157
Si Si4 0.392465 0.464076 0.784670
Si Si5 0.206241 0.087432 0.181170
Si Si6 0.396911 0.251558 0.993485
Si Si7 0.891519 0.793271 0.181172
O O1 0.667927 0.468547 0.416292
O O2 0.817223 0.529434 0.347104
O O3 0.810582 0.650579 0.469461
O O4 0.683245 0.723312 0.373116
O O5 0.200105 0.013404 0.348429
O O6 0.109503 0.172448 0.431233
O O7 0.000000 0.022682 0.350324
O O8 0.101029 0.884994 0.439984
O O9 0.500000 0.361994 0.379195
O O10 0.620750 0.433855 0.284335
O O11 0.656183 0.207750 0.365041
O O12 0.500000 0.485963 0.810187
O O13 0.384091 0.303052 0.751904
O O14 0.250000 0.162895 0.250000
O O15 0.133905 0.958245 0.195338
O O16 0.500000 0.323377 0.988065
O O17 0.000000 0.777251 0.156260
#
# Coordination Sequence:
#
# PCOD9416686 Si02
#       7
#     8   8   8   8   8   8   8
#     4  11  17  33  57  82 104 144 189 228 274 326
#     4   9  20  38  58  86 118 144 175 225 287 339
#     4  10  22  37  52  74 115 156 187 227 279 333
#     4   9  18  32  50  78 111 143 180 230 281 331
#     4  12  22  36  55  82 110 152 188 227 280 333
#     4   9  18  35  61  88 113 142 178 226 283 337
#     4  10  20  31  48  76 110 141 184 234 274 322
#
# _framework density 22.559608999999998
#
# number of rings (size 3 to 8) (size 9 to 14) (size 15 to 20)
#    0.000    2.000    1.429    6.429    0.000    1.143 
#    0.000    2.143    0.000    6.857    0.000    0.000 
#    0.000    0.000    0.000    0.000    0.000    0.000 
#
# Total GULP energy -312887.290924 kJ/mol
# GULP energy per Si atom -5587.273052 kJ/mol
# Density = 2.250826 g / cm^3
# Si number density = 22.559609 Si / 1000 Ang^3
#
#
#
# Elastic Constant Matrix: (Units=GPa)
#
#
# Indices 1 2 3 4 5 6 
#
# 1 140.2218 34.6572 8.4107 0.0000 0.0000 0.0000
# 2 34.6572 89.7792 -4.7048 0.0000 0.0000 0.0000
# 3 8.4107 -4.7048 6.4372 0.0000 0.0000 0.0000
# 4 0.0000 0.0000 0.0000 4.2703 0.0000 0.0000
# 5 0.0000 0.0000 0.0000 0.0000 19.8364 0.0000
# 6 0.0000 0.0000 0.0000 0.0000 0.0000 27.1509
#
#
#
# Elastic Compliance Matrix: (Units=1/GPa)
#
#
# Indices 1 2 3 4 5 6 
#
# 1 0.009095 -0.004298 -0.015025 0.000000 0.000000 0.000000
# 2 -0.004298 0.013613 0.015566 0.000000 0.000000 0.000000
# 3 -0.015025 0.015566 0.186356 0.000000 0.000000 0.000000
# 4 0.000000 0.000000 0.000000 0.234177 0.000000 0.000000
# 5 0.000000 0.000000 0.000000 0.000000 0.050412 0.000000
# 6 0.000000 0.000000 0.000000 0.000000 0.000000 0.036831
#
#
# Mechanical properties :
#
#
# Convention : Reuss Voigt Hill
#
# Bulk Modulus (GPa) = 4.96158 34.79604 19.87881
# Shear Modulus (GPa) = 8.26196 23.45651 15.85923
#
# Velocity S-wave (km/s) = 1.91578 3.22802 2.65428
# Velocity P-wave (km/s) = 2.66416 5.41766 4.26900
#
# Compressibility (1/GPa) = 0.20154888
#
# Stress axis : x y z
#
# Youngs Moduli (GPa) = 109.94833 73.45682 5.36609
#
# Poissons Ratio (x) = 0.31574 0.08063
# Poissons Ratio (y) = 0.47260 -0.08353
# Poissons Ratio (z) = 1.65200 -1.14342
#
# Static dielectric constant tensor:
#      x y z
#    x 1.814540 0.000000 0.000000 
#    y 0.000000 1.823220 0.000000 
#    z 0.000000 0.000000 1.940280 
# 
# From -- ./inp_files/32419.got.cif
#   From: 2010.05.17/outbox.cif.g08.bks.cpg/sg53_17_cif.got.tgz:32419.got - 2010.06.03 12:45:16.
