data_PCOD9416029
_publ_section_title
;
Structure prediction by ZEFSAII (Michael W. Deem and Ramdas Pophale) SiO2 
 PCOD9416029
Probable space group: P M N A
;
_chemical_formula_sum "Si O2"
_cell_formula_units_Z 64
_cell_length_a 23.320479
_cell_length_b 9.634904
_cell_length_c 14.879334
_cell_angle_alpha 90.000000
_cell_angle_beta 90.000000
_cell_angle_gamma 90.000000
_cell_volume 3343.246133
_symmetry_space_group_name_H-M "P M N A"
_symmetry_group_IT_number 53
_symmetry_cell_setting 'orthorhombic'
loop_
_space_group_symop_operation_xyz
x,y,z
1/2-x,-y,1/2+z
x,-y,-z
1/2-x,y,1/2-z
-x,-y,-z
1/2+x,y,1/2-z
-x,y,z
1/2+x,-y,1/2+z
loop_
_atom_site_type_symbol
_atom_site_label
_atom_site_fract_x
_atom_site_fract_y
_atom_site_fract_z
Si Si1 0.232994 0.780817 0.349698
Si Si2 0.734328 0.523247 0.904573
Si Si3 0.359778 0.772559 0.397381
Si Si4 0.565341 0.027692 0.718253
Si Si5 0.189054 0.236575 0.290873
Si Si6 0.361330 0.450078 0.357218
Si Si7 0.129305 0.982055 0.393210
Si Si8 0.933981 0.219512 0.075185
O O1 0.250000 0.828428 0.250000
O O2 0.223635 0.614392 0.346557
O O3 0.291468 0.795714 0.407302
O O4 0.177680 0.861533 0.384701
O O5 0.707470 0.658297 0.866441
O O6 0.801889 0.554914 0.912185
O O7 0.707849 0.500000 0.000000
O O8 0.386804 0.874359 0.324520
O O9 0.370043 0.616573 0.357434
O O10 0.392069 0.806584 0.490742
O O11 0.500000 0.071147 0.698293
O O12 0.575387 0.036964 0.825762
O O13 0.573333 0.883107 0.661485
O O14 0.250000 0.185821 0.250000
O O15 0.155497 0.343145 0.223835
O O16 0.156593 0.113727 0.340362
O O17 0.416474 0.375765 0.398321
O O18 0.117377 0.000000 0.500000
O O19 0.000000 0.206825 0.046893
#
# Coordination Sequence:
#
# PCOD9416029 Si02
#       8
#     8   8   8   8   8   8   8   8
#     4  11  21  38  59  92 126 159 195 248 304 372
#     4  10  19  33  55  88 125 161 196 238 305 373
#     4  11  22  37  64  94 129 162 202 246 310 382
#     4  11  25  44  62  84 121 163 209 264 310 357
#     4  10  21  37  59  87 127 162 196 250 316 374
#     4  10  20  37  58  88 126 164 199 246 302 372
#     4  12  25  41  63  90 115 156 213 254 309 368
#     4  11  23  40  63  92 128 171 215 254 303 368
#
# _framework density 19.143072
#
# number of rings (size 3 to 8) (size 9 to 14) (size 15 to 20)
#    0.000    1.250    2.500    5.625    0.000    4.750 
#    0.000    0.000    0.000    0.000    0.000    0.875 
#    0.000    0.000    0.000    0.000    0.000    0.000 
#
# Total GULP energy -356270.167779 kJ/mol
# GULP energy per Si atom -5566.721372 kJ/mol
# Density = 1.909950 g / cm^3
# Si number density = 19.143072 Si / 1000 Ang^3
#
#
#
# Elastic Constant Matrix: (Units=GPa)
#
#
# Indices 1 2 3 4 5 6 
#
# 1 39.5668 12.5796 -14.7119 0.0000 0.0000 0.0000
# 2 12.5796 43.1369 0.6201 0.0000 0.0000 0.0000
# 3 -14.7119 0.6201 62.6789 0.0000 0.0000 0.0000
# 4 0.0000 0.0000 0.0000 93.8639 0.0000 0.0000
# 5 0.0000 0.0000 0.0000 0.0000 28.7663 0.0000
# 6 0.0000 0.0000 0.0000 0.0000 0.0000 13.3628
#
#
#
# Elastic Compliance Matrix: (Units=1/GPa)
#
#
# Indices 1 2 3 4 5 6 
#
# 1 0.030903 -0.009118 0.007344 0.000000 0.000000 0.000000
# 2 -0.009118 0.025875 -0.002396 0.000000 0.000000 0.000000
# 3 0.007344 -0.002396 0.017702 0.000000 0.000000 0.000000
# 4 0.000000 0.000000 0.000000 0.010654 0.000000 0.000000
# 5 0.000000 0.000000 0.000000 0.000000 0.034763 0.000000
# 6 0.000000 0.000000 0.000000 0.000000 0.000000 0.074835
#
#
# Mechanical properties :
#
#
# Convention : Reuss Voigt Hill
#
# Bulk Modulus (GPa) = 15.11935 15.81757 15.46846
# Shear Modulus (GPa) = 22.21058 36.99160 29.60109
#
# Velocity S-wave (km/s) = 3.40993 4.40065 3.93658
# Velocity P-wave (km/s) = 4.83929 5.83967 5.36285
#
# Compressibility (1/GPa) = 0.06614042
#
# Stress axis : x y z
#
# Youngs Moduli (GPa) = 32.35924 38.64688 56.49161
#
# Poissons Ratio (x) = 0.35236 -0.41486
# Poissons Ratio (y) = 0.29504 0.13536
# Poissons Ratio (z) = -0.23764 0.09260
#
# Static dielectric constant tensor:
#      x y z
#    x 1.677310 0.000000 0.000000 
#    y 0.000000 1.690600 0.000000 
#    z 0.000000 0.000000 1.730330 
# 
# From -- ./inp_files/24744.got.cif
#   From: 2010.05.17/outbox.cif.g08.bks.cpg/sg53_13_cif.got.tgz:24744.got - 2010.06.03 12:45:16.
