data_PCOD9416305
_publ_section_title
;
Structure prediction by ZEFSAII (Michael W. Deem and Ramdas Pophale) SiO2 
 PCOD9416305
Probable space group: P M N A
;
_chemical_formula_sum "Si O2"
_cell_formula_units_Z 64
_cell_length_a 7.759742
_cell_length_b 15.974775
_cell_length_c 24.330379
_cell_angle_alpha 90.000000
_cell_angle_beta 90.000000
_cell_angle_gamma 90.000000
_cell_volume 3015.997005
_symmetry_space_group_name_H-M "P M N A"
_symmetry_group_IT_number 53
_symmetry_cell_setting 'orthorhombic'
loop_
_space_group_symop_operation_xyz
x,y,z
1/2-x,-y,1/2+z
x,-y,-z
1/2-x,y,1/2-z
-x,-y,-z
1/2+x,y,1/2-z
-x,y,z
1/2+x,-y,1/2+z
loop_
_atom_site_type_symbol
_atom_site_label
_atom_site_fract_x
_atom_site_fract_y
_atom_site_fract_z
Si Si1 0.292832 0.012018 0.813666
Si Si2 0.703229 0.407955 0.012203
Si Si3 0.295534 0.506009 0.312900
Si Si4 0.706539 0.337894 0.127423
Si Si5 0.296658 0.648406 0.395137
Si Si6 0.291427 0.832706 0.113107
Si Si7 0.789035 0.846706 0.623987
Si Si8 0.289919 0.902794 0.996811
O O1 0.250000 0.017654 0.750000
O O2 0.500000 0.011517 0.819655
O O3 0.228610 0.925142 0.839987
O O4 0.230271 0.092921 0.847289
O O5 0.500000 0.419497 0.023170
O O6 0.774673 0.365644 0.067208
O O7 0.778422 0.500000 0.000000
O O8 0.720161 0.356068 0.956343
O O9 0.250000 0.524052 0.250000
O O10 0.500000 0.509979 0.317173
O O11 0.242103 0.413016 0.330911
O O12 0.224810 0.574665 0.356144
O O13 0.500000 0.330203 0.123171
O O14 0.770103 0.245211 0.142467
O O15 0.500000 0.635507 0.401428
O O16 0.265496 0.740087 0.370748
O O17 0.500000 0.833306 0.113053
O O18 0.232534 0.854384 0.051192
O O19 0.737317 0.862278 0.560712
O O20 0.000000 0.848312 0.625359
O O21 0.500000 0.902444 0.997289
O O22 0.237042 0.000000 0.000000
#
# Coordination Sequence:
#
# PCOD9416305 Si02
#       8
#     8   8   8   8   8   8   8   8
#     4  10  21  37  56  80 110 147 188 230 277 331
#     4  10  19  34  60  91 119 150 189 231 279 337
#     4  11  25  43  61  81 109 149 195 241 290 340
#     4  10  20  36  60  89 120 151 188 235 281 336
#     4  11  24  39  58  85 118 153 187 232 290 345
#     4  10  20  35  59  86 111 144 187 233 280 334
#     4   9  17  31  54  85 115 144 181 227 280 332
#     4   9  14  27  55  87 114 140 179 231 279 325
#
# _framework density 21.220181
#
# number of rings (size 3 to 8) (size 9 to 14) (size 15 to 20)
#    0.000    2.000    2.500    1.500    0.000    5.750 
#    0.000    4.375    0.000    1.125    0.000    0.000 
#    0.000    0.000    0.000    0.000    0.000    0.000 
#
# Total GULP energy -357508.086280 kJ/mol
# GULP energy per Si atom -5586.063848 kJ/mol
# Density = 2.117188 g / cm^3
# Si number density = 21.220181 Si / 1000 Ang^3
#
#
#
# Elastic Constant Matrix: (Units=GPa)
#
#
# Indices 1 2 3 4 5 6 
#
# 1 22.3983 -4.6655 -13.2452 0.0000 0.0000 0.0000
# 2 -4.6655 125.7845 20.4388 0.0000 0.0000 0.0000
# 3 -13.2452 20.4388 82.4222 0.0000 0.0000 0.0000
# 4 0.0000 0.0000 0.0000 6.4494 0.0000 0.0000
# 5 0.0000 0.0000 0.0000 0.0000 -4.4402 0.0000
# 6 0.0000 0.0000 0.0000 0.0000 0.0000 11.6426
#
#
#
# Elastic Compliance Matrix: (Units=1/GPa)
#
#
# Indices 1 2 3 4 5 6 
#
# 1 0.049373 0.000565 0.007794 0.000000 0.000000 0.000000
# 2 0.000565 0.008290 -0.001965 0.000000 0.000000 0.000000
# 3 0.007794 -0.001965 0.013872 0.000000 0.000000 0.000000
# 4 0.000000 0.000000 0.000000 0.155052 0.000000 0.000000
# 5 0.000000 0.000000 0.000000 0.000000 -0.225213 0.000000
# 6 0.000000 0.000000 0.000000 0.000000 0.000000 0.085892
#
#
# Mechanical properties :
#
#
# Convention : Reuss Voigt Hill
#
# Bulk Modulus (GPa) = 11.85907 26.18458 19.02182
# Shear Modulus (GPa) = 48.73940 17.93548 33.33744
#
# Velocity S-wave (km/s) = 4.79774 2.91040 3.96792
# Velocity P-wave (km/s) = 6.02426 4.86417 5.47503
#
# Compressibility (1/GPa) = 0.08432363
#
# Stress axis : x y z
#
# Youngs Moduli (GPa) = 20.25399 120.62205 72.08528
#
# Poissons Ratio (x) = -0.06813 -0.56184
# Poissons Ratio (y) = -0.01144 0.14165
# Poissons Ratio (z) = -0.15786 0.23703
#
# Static dielectric constant tensor:
#      x y z
#    x 1.792400 0.000000 0.000000 
#    y 0.000000 1.785250 0.000000 
#    z 0.000000 0.000000 1.734810 
# 
# From -- ./inp_files/34256.got.cif
#   From: 2010.05.17/outbox.cif.g08.bks.cpg/sg53_18_cif.got.tgz:34256.got - 2010.06.03 12:45:16.
