data_PCOD9416307
_publ_section_title
;
Structure prediction by ZEFSAII (Michael W. Deem and Ramdas Pophale) SiO2 
 PCOD9416307
Probable space group: P M N A
;
_chemical_formula_sum "Si O2"
_cell_formula_units_Z 40
_cell_length_a 24.182020
_cell_length_b 10.334863
_cell_length_c 7.604203
_cell_angle_alpha 90.000000
_cell_angle_beta 90.000000
_cell_angle_gamma 90.000000
_cell_volume 1900.426169
_symmetry_space_group_name_H-M "P M N A"
_symmetry_group_IT_number 53
_symmetry_cell_setting 'orthorhombic'
loop_
_space_group_symop_operation_xyz
x,y,z
1/2-x,-y,1/2+z
x,-y,-z
1/2-x,y,1/2-z
-x,-y,-z
1/2+x,y,1/2-z
-x,y,z
1/2+x,-y,1/2+z
loop_
_atom_site_type_symbol
_atom_site_label
_atom_site_fract_x
_atom_site_fract_y
_atom_site_fract_z
Si Si1 0.147876 0.360235 0.505615
Si Si2 0.896922 0.008152 0.205903
Si Si3 0.063862 0.281052 0.791031
Si Si4 0.938308 0.286887 0.206714
Si Si5 0.210255 0.882890 0.599231
O O1 0.175883 0.500000 0.500000
O O2 0.106328 0.356712 0.669976
O O3 0.109259 0.340023 0.333108
O O4 0.188597 0.237754 0.512721
O O5 0.924033 0.870735 0.249391
O O6 0.936705 0.131030 0.230081
O O7 0.842718 0.044998 0.315366
O O8 0.882666 0.000000 0.000000
O O9 0.000000 0.309166 0.750307
O O10 0.072308 0.307620 0.998785
O O11 0.000000 0.335621 0.249034
O O12 0.250000 0.830713 0.750000
O O13 0.240490 0.000000 0.500000
#
# Coordination Sequence:
#
# PCOD9416307 Si02
#       5
#     8   8   8   8   8
#     4  11  24  41  60  87 130 165 203 248 303 365
#     4   9  17  33  57  89 125 154 195 257 308 352
#     4  10  19  34  60  93 130 171 205 242 298 363
#     4   9  19  33  56  90 126 165 207 245 290 354
#     4  11  22  41  67  90 111 147 205 264 317 366
#
# _framework density 21.047909000000001
#
# number of rings (size 3 to 8) (size 9 to 14) (size 15 to 20)
#    0.000    2.000    2.000    1.800    0.000    4.800 
#    0.000    6.000    0.000    0.000    0.000    0.000 
#    0.000    0.000    0.000    0.000    0.000    0.000 
#
# Total GULP energy -223391.994574 kJ/mol
# GULP energy per Si atom -5584.799864 kJ/mol
# Density = 2.100000 g / cm^3
# Si number density = 21.047909 Si / 1000 Ang^3
#
#
#
# Elastic Constant Matrix: (Units=GPa)
#
#
# Indices 1 2 3 4 5 6 
#
# 1 31.2049 -10.4518 0.3039 0.0000 0.0000 0.0000
# 2 -10.4518 102.0584 4.2582 0.0000 0.0000 0.0000
# 3 0.3039 4.2582 30.6825 0.0000 0.0000 0.0000
# 4 0.0000 0.0000 0.0000 8.0211 0.0000 0.0000
# 5 0.0000 0.0000 0.0000 0.0000 13.8135 0.0000
# 6 0.0000 0.0000 0.0000 0.0000 0.0000 -0.9807
#
#
#
# Elastic Compliance Matrix: (Units=1/GPa)
#
#
# Indices 1 2 3 4 5 6 
#
# 1 0.033204 0.003434 -0.000805 0.000000 0.000000 0.000000
# 2 0.003434 0.010211 -0.001451 0.000000 0.000000 0.000000
# 3 -0.000805 -0.001451 0.032801 0.000000 0.000000 0.000000
# 4 0.000000 0.000000 0.000000 0.124671 0.000000 0.000000
# 5 0.000000 0.000000 0.000000 0.000000 0.072393 0.000000
# 6 0.000000 0.000000 0.000000 0.000000 0.000000 -1.019710
#
#
# Mechanical properties :
#
#
# Convention : Reuss Voigt Hill
#
# Bulk Modulus (GPa) = 12.72734 16.90740 14.81737
# Shear Modulus (GPa) = -6.91951 15.49314 4.28681
#
# Velocity S-wave (km/s) = -1.81511 2.71604 1.42868
# Velocity P-wave (km/s) = 1.29117 4.22919 3.12676
#
# Compressibility (1/GPa) = 0.07857103
#
# Stress axis : x y z
#
# Youngs Moduli (GPa) = 30.11660 97.93803 30.48665
#
# Poissons Ratio (x) = -0.33632 0.02456
# Poissons Ratio (y) = -0.10342 0.04424
# Poissons Ratio (z) = 0.02426 0.14212
#
# Static dielectric constant tensor:
#      x y z
#    x 1.713910 0.000000 0.000000 
#    y 0.000000 1.801570 0.000000 
#    z 0.000000 0.000000 1.789530 
# 
# From -- ./inp_files/11523.got.cif
#   From: 2010.05.17/outbox.cif.g08.bks.cpg/sg53_6_cif.got.tgz:11523.got - 2010.06.03 12:45:16.
