data_PCOD9416271
_publ_section_title
;
Structure prediction by ZEFSAII (Michael W. Deem and Ramdas Pophale) SiO2 
 PCOD9416271
Probable space group: P M N A
;
_chemical_formula_sum "Si O2"
_cell_formula_units_Z 64
_cell_length_a 17.545343
_cell_length_b 8.971798
_cell_length_c 21.193139
_cell_angle_alpha 90.000000
_cell_angle_beta 90.000000
_cell_angle_gamma 90.000000
_cell_volume 3336.081380
_symmetry_space_group_name_H-M "P M N A"
_symmetry_group_IT_number 53
_symmetry_cell_setting 'orthorhombic'
loop_
_space_group_symop_operation_xyz
x,y,z
1/2-x,-y,1/2+z
x,-y,-z
1/2-x,y,1/2-z
-x,-y,-z
1/2+x,y,1/2-z
-x,y,z
1/2+x,-y,1/2+z
loop_
_atom_site_type_symbol
_atom_site_label
_atom_site_fract_x
_atom_site_fract_y
_atom_site_fract_z
Si Si1 0.085697 0.980970 0.288152
Si Si2 0.723391 0.164145 0.423059
Si Si3 0.583928 0.672713 0.016442
Si Si4 0.737014 0.187559 0.935621
Si Si5 0.201006 0.271353 0.692751
Si Si6 0.413683 0.473102 0.227257
Si Si7 0.090767 0.198402 0.176099
Si Si8 0.115042 0.749490 0.620428
O O1 0.137188 0.852936 0.315576
O O2 0.000000 0.927381 0.278778
O O3 0.110362 0.059920 0.222623
O O4 0.088444 0.111972 0.338922
O O5 0.721857 0.215781 0.496680
O O6 0.646306 0.191115 0.383935
O O7 0.793532 0.246695 0.388432
O O8 0.747225 0.988097 0.423478
O O9 0.500000 0.674409 0.046567
O O10 0.650099 0.760024 0.051910
O O11 0.604065 0.500000 0.000000
O O12 0.581648 0.751294 0.948815
O O13 0.751817 0.278387 0.870777
O O14 0.250000 0.212214 0.750000
O O15 0.155630 0.413022 0.719725
O O16 0.500000 0.532810 0.237737
O O17 0.399134 0.347917 0.281240
O O18 0.412284 0.391683 0.159640
O O19 0.000000 0.189553 0.161175
#
# Coordination Sequence:
#
# PCOD9416271 Si02
#       8
#     8   8   8   8   8   8   8   8
#     4  10  20  34  56  86 118 153 195 245 302 362
#     4  10  20  38  60  83 126 151 201 256 294 359
#     4  10  20  35  55  81 122 168 204 238 288 356
#     4  10  22  38  53  89 118 160 202 251 296 357
#     4  12  24  37  57  84 120 156 199 246 316 364
#     4  10  22  38  59  90 121 150 201 253 301 372
#     4   9  20  39  65  89 112 153 204 256 315 364
#     4  10  19  34  58  85 116 157 196 233 292 356
#
# _framework density 19.184184999999999
#
# number of rings (size 3 to 8) (size 9 to 14) (size 15 to 20)
#    0.000    1.875    1.250    3.750    1.750    3.000 
#    0.000    3.125    0.000    1.500    0.000    1.750 
#    0.000    0.000    0.000    0.000    0.000    0.000 
#
# Total GULP energy -356671.315167 kJ/mol
# GULP energy per Si atom -5572.989299 kJ/mol
# Density = 1.914052 g / cm^3
# Si number density = 19.184185 Si / 1000 Ang^3
#
#
#
# Elastic Constant Matrix: (Units=GPa)
#
#
# Indices 1 2 3 4 5 6 
#
# 1 66.1024 16.7503 50.3867 0.0000 0.0000 0.0000
# 2 16.7503 25.0269 7.7040 0.0000 0.0000 0.0000
# 3 50.3867 7.7040 127.2689 0.0000 0.0000 0.0000
# 4 0.0000 0.0000 0.0000 13.6445 0.0000 0.0000
# 5 0.0000 0.0000 0.0000 0.0000 23.3653 0.0000
# 6 0.0000 0.0000 0.0000 0.0000 0.0000 10.6916
#
#
#
# Elastic Compliance Matrix: (Units=1/GPa)
#
#
# Indices 1 2 3 4 5 6 
#
# 1 0.025966 -0.014484 -0.009403 0.000000 0.000000 0.000000
# 2 -0.014484 0.048795 0.002781 0.000000 0.000000 0.000000
# 3 -0.009403 0.002781 0.011412 0.000000 0.000000 0.000000
# 4 0.000000 0.000000 0.000000 0.073289 0.000000 0.000000
# 5 0.000000 0.000000 0.000000 0.000000 0.042799 0.000000
# 6 0.000000 0.000000 0.000000 0.000000 0.000000 0.093531
#
#
# Mechanical properties :
#
#
# Convention : Reuss Voigt Hill
#
# Bulk Modulus (GPa) = 22.74828 40.89779 31.82303
# Shear Modulus (GPa) = 14.17798 19.11076 16.64437
#
# Velocity S-wave (km/s) = 2.72149 3.15964 2.94872
# Velocity P-wave (km/s) = 4.66464 5.88863 5.31201
#
# Compressibility (1/GPa) = 0.04395937
#
# Stress axis : x y z
#
# Youngs Moduli (GPa) = 38.51182 20.49380 87.62767
#
# Poissons Ratio (x) = 0.29684 0.82400
# Poissons Ratio (y) = 0.55781 -0.24366
# Poissons Ratio (z) = 0.36214 -0.05699
#
# Static dielectric constant tensor:
#      x y z
#    x 1.561420 0.000000 0.000000 
#    y 0.000000 1.694080 0.000000 
#    z 0.000000 0.000000 1.711500 
# 
# From -- ./inp_files/32836.got.cif
#   From: 2010.05.17/outbox.cif.g08.bks.cpg/sg53_17_cif.got.tgz:32836.got - 2010.06.03 12:45:16.
