data_PCOD9416758
_publ_section_title
;
Structure prediction by ZEFSAII (Michael W. Deem and Ramdas Pophale) SiO2 
 PCOD9416758
Probable space group: P M N A
;
_chemical_formula_sum "Si O2"
_cell_formula_units_Z 48
_cell_length_a 9.605652
_cell_length_b 11.999688
_cell_length_c 26.181708
_cell_angle_alpha 90.000000
_cell_angle_beta 90.000000
_cell_angle_gamma 90.000000
_cell_volume 3017.830044
_symmetry_space_group_name_H-M "P M N A"
_symmetry_group_IT_number 53
_symmetry_cell_setting 'orthorhombic'
loop_
_space_group_symop_operation_xyz
x,y,z
1/2-x,-y,1/2+z
x,-y,-z
1/2-x,y,1/2-z
-x,-y,-z
1/2+x,y,1/2-z
-x,y,z
1/2+x,-y,1/2+z
loop_
_atom_site_type_symbol
_atom_site_label
_atom_site_fract_x
_atom_site_fract_y
_atom_site_fract_z
Si Si1 0.334502 0.292274 0.567871
Si Si2 0.833695 0.030893 0.941643
Si Si3 0.837119 0.527207 0.382123
Si Si4 0.332477 0.332897 0.197437
Si Si5 0.342419 0.347153 0.029280
Si Si6 0.660874 0.847512 0.886793
O O1 0.500000 0.307990 0.569432
O O2 0.304404 0.160317 0.569660
O O3 0.258429 0.365312 0.610954
O O4 0.270695 0.334594 0.514364
O O5 0.000000 0.013692 0.938605
O O6 0.756329 0.950071 0.902424
O O7 0.791352 0.000000 0.000000
O O8 0.800331 0.443213 0.336125
O O9 0.823618 0.452457 0.433588
O O10 0.000000 0.556873 0.377075
O O11 0.250000 0.332497 0.250000
O O12 0.500000 0.331635 0.204917
O O13 0.297545 0.225057 0.162610
O O14 0.500000 0.351931 0.007527
O O15 0.334867 0.240379 0.066382
O O16 0.500000 0.882402 0.880596
#
# Coordination Sequence:
#
# PCOD9416758 Si02
#       6
#     8   8   8   8   8   8
#     4  11  21  30  44  69 101 135 170 203 239 287
#     4  10  20  33  46  67 104 141 170 206 247 287
#     4   9  19  34  49  69  99 130 162 201 246 296
#     4   9  19  36  57  80 101 123 158 208 260 305
#     4   9  17  30  47  67  96 133 166 199 239 286
#     4   9  18  32  51  75  99 128 171 209 240 292
#
# _framework density 15.905468000000001
#
# number of rings (size 3 to 8) (size 9 to 14) (size 15 to 20)
#    0.000    2.500    1.667    3.000    0.000    5.667 
#    0.000    3.333    0.000    1.000    0.000    0.000 
#    0.000    0.000    0.000    0.000    0.000    0.000 
#
# Total GULP energy -267651.766812 kJ/mol
# GULP energy per Si atom -5576.078475 kJ/mol
# Density = 1.586927 g / cm^3
# Si number density = 15.905468 Si / 1000 Ang^3
#
#
#
# Elastic Constant Matrix: (Units=GPa)
#
#
# Indices 1 2 3 4 5 6 
#
# 1 66.8678 74.6122 55.5882 0.0000 0.0000 0.0000
# 2 74.6122 113.0140 60.0823 0.0000 0.0000 0.0000
# 3 55.5882 60.0823 101.5773 0.0000 0.0000 0.0000
# 4 0.0000 0.0000 0.0000 8.5395 0.0000 0.0000
# 5 0.0000 0.0000 0.0000 0.0000 29.8915 0.0000
# 6 0.0000 0.0000 0.0000 0.0000 0.0000 62.4990
#
#
#
# Elastic Compliance Matrix: (Units=1/GPa)
#
#
# Indices 1 2 3 4 5 6 
#
# 1 0.071591 -0.038562 -0.016369 0.000000 0.000000 0.000000
# 2 -0.038562 0.033679 0.001182 0.000000 0.000000 0.000000
# 3 -0.016369 0.001182 0.018103 0.000000 0.000000 0.000000
# 4 0.000000 0.000000 0.000000 0.117102 0.000000 0.000000
# 5 0.000000 0.000000 0.000000 0.000000 0.033454 0.000000
# 6 0.000000 0.000000 0.000000 0.000000 0.000000 0.016000
#
#
# Mechanical properties :
#
#
# Convention : Reuss Voigt Hill
#
# Bulk Modulus (GPa) = 62.99002 73.55828 68.27415
# Shear Modulus (GPa) = 12.41564 26.26445 19.34004
#
# Velocity S-wave (km/s) = 2.79693 4.06801 3.49081
# Velocity P-wave (km/s) = 7.07949 8.27118 7.69843
#
# Compressibility (1/GPa) = 0.01587553
#
# Stress axis : x y z
#
# Youngs Moduli (GPa) = 13.96831 29.69241 55.23908
#
# Poissons Ratio (x) = 1.14500 0.90419
# Poissons Ratio (y) = 0.53865 -0.06532
# Poissons Ratio (z) = 0.22864 -0.03511
#
# Static dielectric constant tensor:
#      x y z
#    x 1.526030 0.000000 0.000000 
#    y 0.000000 1.541620 0.000000 
#    z 0.000000 0.000000 1.516400 
# 
# From -- ./inp_files/33872.got.cif
#   From: 2010.05.17/outbox.cif.g08.bks.cpg/sg53_17_cif.got.tgz:33872.got - 2010.06.03 12:45:16.
