data_PCOD9416268
_publ_section_title
;
Structure prediction by ZEFSAII (Michael W. Deem and Ramdas Pophale) SiO2 
 PCOD9416268
Probable space group: P M N A
;
_chemical_formula_sum "Si O2"
_cell_formula_units_Z 40
_cell_length_a 7.491524
_cell_length_b 8.188146
_cell_length_c 29.284310
_cell_angle_alpha 90.000000
_cell_angle_beta 90.000000
_cell_angle_gamma 90.000000
_cell_volume 1796.349132
_symmetry_space_group_name_H-M "P M N A"
_symmetry_group_IT_number 53
_symmetry_cell_setting 'orthorhombic'
loop_
_space_group_symop_operation_xyz
x,y,z
1/2-x,-y,1/2+z
x,-y,-z
1/2-x,y,1/2-z
-x,-y,-z
1/2+x,y,1/2-z
-x,y,z
1/2+x,-y,1/2+z
loop_
_atom_site_type_symbol
_atom_site_label
_atom_site_fract_x
_atom_site_fract_y
_atom_site_fract_z
Si Si1 0.786210 0.759465 0.196493
Si Si2 0.716069 0.071541 0.548227
Si Si3 0.205216 0.436177 0.148175
Si Si4 0.707399 0.451744 0.950309
Si Si5 0.781189 0.079042 0.143118
O O1 0.750000 0.753641 0.250000
O O2 0.714171 0.596774 0.171694
O O3 0.720809 0.927996 0.174177
O O4 0.000000 0.760746 0.188941
O O5 0.500000 0.074883 0.547724
O O6 0.776836 0.257128 0.554711
O O7 0.771370 0.962653 0.591211
O O8 0.777768 0.000000 0.500000
O O9 0.206414 0.465131 0.093689
O O10 0.000000 0.429420 0.163934
O O11 0.283681 0.257814 0.157625
O O12 0.500000 0.500254 0.949646
O O13 0.782017 0.500000 0.000000
O O14 0.000000 0.083622 0.143844
#
# Coordination Sequence:
#
# PCOD9416268 Si02
#       5
#     8   8   8   8   8
#     4  10  21  38  59  85 116 149 190 238 288 340
#     4  10  19  34  58  85 112 148 196 240 280 339
#     4  10  20  38  63  84 111 151 194 243 283 331
#     4  11  23  36  52  81 122 157 189 234 289 348
#     4   9  18  35  58  86 113 142 188 239 284 332
#
# _framework density 22.267386999999999
#
# number of rings (size 3 to 8) (size 9 to 14) (size 15 to 20)
#    0.000    2.000    2.000    1.800    0.000    5.200 
#    0.000    2.000    0.000    0.000    0.000    0.000 
#    0.000    0.000    0.000    0.000    0.000    0.000 
#
# Total GULP energy -223569.381050 kJ/mol
# GULP energy per Si atom -5589.234526 kJ/mol
# Density = 2.221671 g / cm^3
# Si number density = 22.267387 Si / 1000 Ang^3
#
#
#
# Elastic Constant Matrix: (Units=GPa)
#
#
# Indices 1 2 3 4 5 6 
#
# 1 62.7409 2.8556 -4.8212 0.0000 0.0000 0.0000
# 2 2.8556 222.0246 82.8638 0.0000 0.0000 0.0000
# 3 -4.8212 82.8638 130.8680 0.0000 0.0000 0.0000
# 4 0.0000 0.0000 0.0000 31.3335 0.0000 0.0000
# 5 0.0000 0.0000 0.0000 0.0000 80.1604 0.0000
# 6 0.0000 0.0000 0.0000 0.0000 0.0000 -18.6176
#
#
#
# Elastic Compliance Matrix: (Units=1/GPa)
#
#
# Indices 1 2 3 4 5 6 
#
# 1 0.016037 -0.000559 0.000945 0.000000 0.000000 0.000000
# 2 -0.000559 0.005917 -0.003767 0.000000 0.000000 0.000000
# 3 0.000945 -0.003767 0.010061 0.000000 0.000000 0.000000
# 4 0.000000 0.000000 0.000000 0.031915 0.000000 0.000000
# 5 0.000000 0.000000 0.000000 0.000000 0.012475 0.000000
# 6 0.000000 0.000000 0.000000 0.000000 0.000000 -0.053713
#
#
# Mechanical properties :
#
#
# Convention : Reuss Voigt Hill
#
# Bulk Modulus (GPa) = 39.60028 64.15886 51.87957
# Shear Modulus (GPa) = 132.02131 40.89095 86.45613
#
# Velocity S-wave (km/s) = 7.70829 4.28993 6.23784
# Velocity P-wave (km/s) = 9.85121 7.30845 8.67352
#
# Compressibility (1/GPa) = 0.02525234
#
# Stress axis : x y z
#
# Youngs Moduli (GPa) = 62.35740 168.99852 99.38897
#
# Poissons Ratio (x) = 0.09444 -0.09388
# Poissons Ratio (y) = 0.03485 0.37443
# Poissons Ratio (z) = -0.05890 0.63666
#
# Static dielectric constant tensor:
#      x y z
#    x 1.824870 0.000000 0.000000 
#    y 0.000000 1.809040 0.000000 
#    z 0.000000 0.000000 1.771280 
# 
# From -- ./inp_files/36033.got.cif
#   From: 2010.05.17/outbox.cif.g08.bks.cpg/sg53_19_cif.got.tgz:36033.got - 2010.06.03 12:45:16.
