data_PCOD9416230
_publ_section_title
;
Structure prediction by ZEFSAII (Michael W. Deem and Ramdas Pophale) SiO2 
 PCOD9416230
Probable space group: P M N A
;
_chemical_formula_sum "Si O2"
_cell_formula_units_Z 64
_cell_length_a 9.132604
_cell_length_b 12.682897
_cell_length_c 31.084009
_cell_angle_alpha 90.000000
_cell_angle_beta 90.000000
_cell_angle_gamma 90.000000
_cell_volume 3600.394736
_symmetry_space_group_name_H-M "P M N A"
_symmetry_group_IT_number 53
_symmetry_cell_setting 'orthorhombic'
loop_
_space_group_symop_operation_xyz
x,y,z
1/2-x,-y,1/2+z
x,-y,-z
1/2-x,y,1/2-z
-x,-y,-z
1/2+x,y,1/2-z
-x,y,z
1/2+x,-y,1/2+z
loop_
_atom_site_type_symbol
_atom_site_label
_atom_site_fract_x
_atom_site_fract_y
_atom_site_fract_z
Si Si1 0.823667 0.836766 0.378083
Si Si2 0.173108 0.386199 0.590611
Si Si3 0.672074 0.610730 0.588550
Si Si4 0.324382 0.184647 0.119730
Si Si5 0.838854 0.373820 0.494427
Si Si6 0.664794 0.138011 0.291427
Si Si7 0.163483 0.888642 0.209192
Si Si8 0.322305 0.994067 0.949763
O O1 0.787373 0.712759 0.380398
O O2 0.751011 0.878202 0.334938
O O3 0.778234 0.906149 0.419779
O O4 0.000000 0.845877 0.375817
O O5 0.265729 0.492522 0.595231
O O6 0.189184 0.337812 0.542515
O O7 0.000000 0.412654 0.595086
O O8 0.500000 0.615373 0.596657
O O9 0.763183 0.697587 0.614160
O O10 0.711806 0.642229 0.539360
O O11 0.500000 0.182602 0.122222
O O12 0.254677 0.146722 0.164443
O O13 0.281339 0.109269 0.079006
O O14 0.850768 0.500000 0.500000
O O15 0.000000 0.334794 0.479337
O O16 0.750000 0.183570 0.250000
O O17 0.500000 0.182176 0.295997
O O18 0.649202 0.013509 0.283120
O O19 0.250000 0.842926 0.250000
O O20 0.000000 0.843920 0.205513
O O21 0.500000 0.994024 0.951720
O O22 0.271999 0.000000 0.000000
#
# Coordination Sequence:
#
# PCOD9416230 Si02
#       8
#     8   8   8   8   8   8   8   8
#     4  10  19  34  57  83 111 142 184 229 272 324
#     4   9  19  34  54  77 104 140 185 232 274 322
#     4  11  22  34  50  74 107 143 185 231 277 325
#     4  11  21  35  58  81 110 146 186 228 273 327
#     4   8  15  30  50  71  95 130 181 230 269 310
#     4  10  20  35  56  82 112 141 178 224 274 325
#     4  10  20  34  55  81 112 143 178 223 272 325
#     4   9  19  33  53  81 111 146 187 226 266 320
#
# _framework density 17.775829000000002
#
# number of rings (size 3 to 8) (size 9 to 14) (size 15 to 20)
#    0.000    2.250    1.250    3.000    1.750    3.750 
#    0.000    0.000    0.000    2.625    0.000    1.750 
#    0.000    0.000    0.000    0.000    0.000    0.000 
#
# Total GULP energy -356405.153661 kJ/mol
# GULP energy per Si atom -5568.830526 kJ/mol
# Density = 1.773537 g / cm^3
# Si number density = 17.775829 Si / 1000 Ang^3
#
#
#
# Elastic Constant Matrix: (Units=GPa)
#
#
# Indices 1 2 3 4 5 6 
#
# 1 79.5241 39.4330 42.3936 0.0000 0.0000 0.0000
# 2 39.4330 65.7405 28.5481 0.0000 0.0000 0.0000
# 3 42.3936 28.5481 111.8988 0.0000 0.0000 0.0000
# 4 0.0000 0.0000 0.0000 12.2426 0.0000 0.0000
# 5 0.0000 0.0000 0.0000 0.0000 4.7767 0.0000
# 6 0.0000 0.0000 0.0000 0.0000 0.0000 -29.6726
#
#
#
# Elastic Compliance Matrix: (Units=1/GPa)
#
#
# Indices 1 2 3 4 5 6 
#
# 1 0.020221 -0.009899 -0.005135 0.000000 0.000000 0.000000
# 2 -0.009899 0.021953 -0.001850 0.000000 0.000000 0.000000
# 3 -0.005135 -0.001850 0.011354 0.000000 0.000000 0.000000
# 4 0.000000 0.000000 0.000000 0.081682 0.000000 0.000000
# 5 0.000000 0.000000 0.000000 0.000000 0.209349 0.000000
# 6 0.000000 0.000000 0.000000 0.000000 0.000000 -0.033701
#
#
# Mechanical properties :
#
#
# Convention : Reuss Voigt Hill
#
# Bulk Modulus (GPa) = 50.61150 53.10142 51.85646
# Shear Modulus (GPa) = 14.23636 7.25524 10.74580
#
# Velocity S-wave (km/s) = 2.83306 2.02247 2.46136
# Velocity P-wave (km/s) = 6.26383 5.94908 6.10848
#
# Compressibility (1/GPa) = 0.01975836
#
# Stress axis : x y z
#
# Youngs Moduli (GPa) = 49.45352 45.55272 88.07258
#
# Poissons Ratio (x) = 0.45093 0.45228
# Poissons Ratio (y) = 0.48954 0.16296
# Poissons Ratio (z) = 0.25396 0.08429
#
# Static dielectric constant tensor:
#      x y z
#    x 1.612540 0.000000 0.000000 
#    y 0.000000 1.629170 0.000000 
#    z 0.000000 0.000000 1.636350 
# 
# From -- ./inp_files/38127.got.cif
#   From: 2010.05.17/outbox.cif.g08.bks.cpg/sg53_20_cif.got.tgz:38127.got - 2010.06.03 12:45:16.
