data_PCOD9416998
_publ_section_title
;
Structure prediction by ZEFSAII (Michael W. Deem and Ramdas Pophale) SiO2 
 PCOD9416998
Probable space group: P M N A
;
_chemical_formula_sum "Si O2"
_cell_formula_units_Z 40
_cell_length_a 9.301567
_cell_length_b 15.044661
_cell_length_c 13.045993
_cell_angle_alpha 90.000000
_cell_angle_beta 90.000000
_cell_angle_gamma 90.000000
_cell_volume 1825.642201
_symmetry_space_group_name_H-M "P M N A"
_symmetry_group_IT_number 53
_symmetry_cell_setting 'orthorhombic'
loop_
_space_group_symop_operation_xyz
x,y,z
1/2-x,-y,1/2+z
x,-y,-z
1/2-x,y,1/2-z
-x,-y,-z
1/2+x,y,1/2-z
-x,y,z
1/2+x,-y,1/2+z
loop_
_atom_site_type_symbol
_atom_site_label
_atom_site_fract_x
_atom_site_fract_y
_atom_site_fract_z
Si Si1 0.334110 0.169938 0.152150
Si Si2 0.329270 0.191386 0.565670
Si Si3 0.655148 0.031974 0.881897
Si Si4 0.670474 0.562547 0.851123
Si Si5 0.671605 0.364908 0.925585
O O1 0.250000 0.207643 0.250000
O O2 0.500000 0.201490 0.142232
O O3 0.342524 0.063365 0.170926
O O4 0.246938 0.183414 0.046594
O O5 0.500000 0.194657 0.556026
O O6 0.279720 0.103978 0.628469
O O7 0.263632 0.281678 0.611391
O O8 0.500000 0.076096 0.862991
O O9 0.658225 0.000000 0.000000
O O10 0.750000 0.592355 0.750000
O O11 0.500000 0.568256 0.837237
O O12 0.704693 0.458626 0.871920
O O13 0.705277 0.616568 0.954173
O O14 0.500000 0.348366 0.916670
#
# Coordination Sequence:
#
# PCOD9416998 Si02
#       5
#     8   8   8   8   8
#     4  10  20  34  52  74 102 136 173 215 263 311
#     4  11  21  32  51  78 104 134 173 215 257 305
#     4   8  16  32  51  69  94 131 167 202 250 300
#     4   9  19  36  59  81 104 138 176 217 268 323
#     4   9  19  37  56  77 108 144 177 213 267 327
#
# _framework density 21.910095999999999
#
# number of rings (size 3 to 8) (size 9 to 14) (size 15 to 20)
#    0.000    2.600    0.000    4.800    0.000    6.800 
#    0.000    5.000    0.000    0.000    0.000    0.000 
#    0.000    0.000    0.000    0.000    0.000    0.000 
#
# Total GULP energy -223332.591220 kJ/mol
# GULP energy per Si atom -5583.314781 kJ/mol
# Density = 2.186023 g / cm^3
# Si number density = 21.910096 Si / 1000 Ang^3
#
#
#
# Elastic Constant Matrix: (Units=GPa)
#
#
# Indices 1 2 3 4 5 6 
#
# 1 117.8266 56.9328 18.9676 0.0000 0.0000 0.0000
# 2 56.9328 138.9878 -5.5422 0.0000 0.0000 0.0000
# 3 18.9676 -5.5422 56.3452 0.0000 0.0000 0.0000
# 4 0.0000 0.0000 0.0000 -5.4473 0.0000 0.0000
# 5 0.0000 0.0000 0.0000 0.0000 19.4478 0.0000
# 6 0.0000 0.0000 0.0000 0.0000 0.0000 28.5443
#
#
#
# Elastic Compliance Matrix: (Units=1/GPa)
#
#
# Indices 1 2 3 4 5 6 
#
# 1 0.011565 -0.004912 -0.004376 0.000000 0.000000 0.000000
# 2 -0.004912 0.009309 0.002569 0.000000 0.000000 0.000000
# 3 -0.004376 0.002569 0.019474 0.000000 0.000000 0.000000
# 4 0.000000 0.000000 0.000000 -0.183577 0.000000 0.000000
# 5 0.000000 0.000000 0.000000 0.000000 0.051420 0.000000
# 6 0.000000 0.000000 0.000000 0.000000 0.000000 0.035033
#
#
# Mechanical properties :
#
#
# Convention : Reuss Voigt Hill
#
# Bulk Modulus (GPa) = 37.16081 50.43068 43.79574
# Shear Modulus (GPa) = -145.48350 24.69572 -60.39389
#
# Velocity S-wave (km/s) = -8.15747 3.36093 -5.25588
# Velocity P-wave (km/s) = 8.46926 6.17480 4.09879
#
# Compressibility (1/GPa) = 0.02691007
#
# Stress axis : x y z
#
# Youngs Moduli (GPa) = 86.46891 107.41952 51.35147
#
# Poissons Ratio (x) = 0.52762 0.22473
# Poissons Ratio (y) = 0.42471 -0.13193
# Poissons Ratio (z) = 0.37841 -0.27598
#
# Static dielectric constant tensor:
#      x y z
#    x 1.753740 0.000000 0.000000 
#    y 0.000000 1.832980 0.000000 
#    z 0.000000 0.000000 1.807480 
# 
# From -- ./inp_files/19864.got.cif
#   From: 2010.05.17/outbox.cif.g08.bks.cpg/sg53_10_cif.got.tgz:19864.got - 2010.06.03 12:45:16.
