data_PCOD9416008
_publ_section_title
;
Structure prediction by ZEFSAII (Michael W. Deem and Ramdas Pophale) SiO2 
 PCOD9416008
Probable space group: P M N A
;
_chemical_formula_sum "Si O2"
_cell_formula_units_Z 64
_cell_length_a 8.980880
_cell_length_b 20.876017
_cell_length_c 19.748817
_cell_angle_alpha 90.000000
_cell_angle_beta 90.000000
_cell_angle_gamma 90.000000
_cell_volume 3702.607025
_symmetry_space_group_name_H-M "P M N A"
_symmetry_group_IT_number 53
_symmetry_cell_setting 'orthorhombic'
loop_
_space_group_symop_operation_xyz
x,y,z
1/2-x,-y,1/2+z
x,-y,-z
1/2-x,y,1/2-z
-x,-y,-z
1/2+x,y,1/2-z
-x,y,z
1/2+x,-y,1/2+z
loop_
_atom_site_type_symbol
_atom_site_label
_atom_site_fract_x
_atom_site_fract_y
_atom_site_fract_z
Si Si1 0.178002 0.640558 0.679077
Si Si2 0.679715 0.682205 0.967631
Si Si3 0.821851 0.489398 0.678494
Si Si4 0.822586 0.987518 0.821390
Si Si5 0.679133 0.814236 0.042592
Si Si6 0.677982 0.138569 0.678053
Si Si7 0.323013 0.436822 0.545306
Si Si8 0.178468 0.061908 0.454432
O O1 0.250000 0.660898 0.750000
O O2 0.224404 0.678181 0.611486
O O3 0.214170 0.565100 0.668008
O O4 0.000000 0.645323 0.685802
O O5 0.500000 0.674379 0.969599
O O6 0.716973 0.748786 0.003980
O O7 0.754222 0.623848 0.007377
O O8 0.750000 0.470759 0.750000
O O9 0.753946 0.449412 0.617188
O O10 0.000000 0.483200 0.680533
O O11 0.750000 0.969287 0.750000
O O12 0.758321 0.946798 0.883025
O O13 0.000000 0.982091 0.817615
O O14 0.785580 0.062970 0.833236
O O15 0.500000 0.816339 0.052233
O O16 0.756708 0.822507 0.115016
O O17 0.720593 0.874537 0.995400
O O18 0.750000 0.156869 0.750000
O O19 0.500000 0.144734 0.681529
O O20 0.295758 0.500000 0.500000
O O21 0.500000 0.429285 0.553476
O O22 0.000000 0.062626 0.444035
O O23 0.214886 0.000000 0.500000
#
# Coordination Sequence:
#
# PCOD9416008 Si02
#       8
#     8   8   8   8   8   8   8   8
#     4   9  18  32  53  79 106 139 179 221 267 321
#     4  10  21  38  57  80 111 149 187 225 273 330
#     4  10  19  33  55  82 112 143 180 226 275 325
#     4  10  20  33  53  81 111 144 183 231 279 330
#     4  10  21  37  57  81 112 148 186 226 274 330
#     4  10  20  34  55  81 110 142 183 229 276 330
#     4  11  22  35  55  83 112 142 181 226 272 324
#     4  10  19  33  55  81 110 144 181 225 275 327
#
# _framework density 17.285118000000001
#
# number of rings (size 3 to 8) (size 9 to 14) (size 15 to 20)
#    0.000    2.000    2.500    1.500    0.000    3.750 
#    0.000    1.250    0.000    4.500    0.000    0.000 
#    0.000    0.000    0.000    0.000    0.000    0.000 
#
# Total GULP energy -357278.266325 kJ/mol
# GULP energy per Si atom -5582.472911 kJ/mol
# Density = 1.724578 g / cm^3
# Si number density = 17.285118 Si / 1000 Ang^3
#
#
#
# Elastic Constant Matrix: (Units=GPa)
#
#
# Indices 1 2 3 4 5 6 
#
# 1 37.1249 47.8324 66.2876 0.0000 0.0000 0.0000
# 2 47.8324 102.2847 79.1315 0.0000 0.0000 0.0000
# 3 66.2876 79.1315 194.7129 0.0000 0.0000 0.0000
# 4 0.0000 0.0000 0.0000 26.9575 0.0000 0.0000
# 5 0.0000 0.0000 0.0000 0.0000 37.3628 0.0000
# 6 0.0000 0.0000 0.0000 0.0000 0.0000 14.2113
#
#
#
# Elastic Compliance Matrix: (Units=1/GPa)
#
#
# Indices 1 2 3 4 5 6 
#
# 1 0.120001 -0.035753 -0.026323 0.000000 0.000000 0.000000
# 2 -0.035753 0.024912 0.002047 0.000000 0.000000 0.000000
# 3 -0.026323 0.002047 0.013265 0.000000 0.000000 0.000000
# 4 0.000000 0.000000 0.000000 0.037095 0.000000 0.000000
# 5 0.000000 0.000000 0.000000 0.000000 0.026765 0.000000
# 6 0.000000 0.000000 0.000000 0.000000 0.000000 0.070367
#
#
# Mechanical properties :
#
#
# Convention : Reuss Voigt Hill
#
# Bulk Modulus (GPa) = 26.23201 80.06951 53.15076
# Shear Modulus (GPa) = 11.76005 25.09771 18.42888
#
# Velocity S-wave (km/s) = 2.61120 3.81462 3.26877
# Velocity P-wave (km/s) = 4.92952 8.11327 6.71287
#
# Compressibility (1/GPa) = 0.03812136
#
# Stress axis : x y z
#
# Youngs Moduli (GPa) = 8.33329 40.14107 75.38592
#
# Poissons Ratio (x) = 1.43515 1.98437
# Poissons Ratio (y) = 0.29794 -0.15433
# Poissons Ratio (z) = 0.21936 -0.08218
#
# Static dielectric constant tensor:
#      x y z
#    x 1.574690 0.000000 0.000000 
#    y 0.000000 1.569300 0.000000 
#    z 0.000000 0.000000 1.569440 
# 
# From -- ./inp_files/26768.got.cif
#   From: 2010.05.17/outbox.cif.g08.bks.cpg/sg53_14_cif.got.tgz:26768.got - 2010.06.03 12:45:16.
