data_PCOD9416004
_publ_section_title
;
Structure prediction by ZEFSAII (Michael W. Deem and Ramdas Pophale) SiO2 
 PCOD9416004
Probable space group: P M N A
;
_chemical_formula_sum "Si O2"
_cell_formula_units_Z 48
_cell_length_a 18.365285
_cell_length_b 8.944447
_cell_length_c 15.073751
_cell_angle_alpha 90.000000
_cell_angle_beta 90.000000
_cell_angle_gamma 90.000000
_cell_volume 2476.124654
_symmetry_space_group_name_H-M "P M N A"
_symmetry_group_IT_number 53
_symmetry_cell_setting 'orthorhombic'
loop_
_space_group_symop_operation_xyz
x,y,z
1/2-x,-y,1/2+z
x,-y,-z
1/2-x,y,1/2-z
-x,-y,-z
1/2+x,y,1/2-z
-x,y,z
1/2+x,-y,1/2+z
loop_
_atom_site_type_symbol
_atom_site_label
_atom_site_fract_x
_atom_site_fract_y
_atom_site_fract_z
Si Si1 0.417699 0.928626 0.715327
Si Si2 0.638714 0.426833 0.091460
Si Si3 0.720489 0.104490 0.650844
Si Si4 0.297946 0.434521 0.594590
Si Si5 0.081455 0.428190 0.218038
Si Si6 0.861070 0.928156 0.589703
O O1 0.500000 0.968324 0.689459
O O2 0.407702 0.749974 0.703612
O O3 0.406312 0.957958 0.820580
O O4 0.355170 0.017451 0.663933
O O5 0.718675 0.493612 0.111616
O O6 0.589638 0.455634 0.176982
O O7 0.644934 0.249365 0.078944
O O8 0.612686 0.500000 0.000000
O O9 0.750000 0.143201 0.750000
O O10 0.710772 0.256431 0.596588
O O11 0.781775 0.999758 0.607663
O O12 0.321868 0.500000 0.500000
O O13 0.356292 0.483196 0.667279
O O14 0.000000 0.468102 0.188634
O O15 0.891599 0.000000 0.500000
#
# Coordination Sequence:
#
# PCOD9416004 Si02
#       6
#     8   8   8   8   8   8
#     4   9  20  37  55  77 106 144 182 217 269 326
#     4  10  20  35  57  84 111 143 182 222 270 326
#     4  10  20  35  56  80 106 140 184 229 272 322
#     4  11  22  36  56  81 109 141 183 232 276 322
#     4  10  21  38  57  78 112 150 181 221 272 327
#     4  10  19  33  55  81 109 139 175 222 270 320
#
# _framework density 19.38513
#
# number of rings (size 3 to 8) (size 9 to 14) (size 15 to 20)
#    0.000    2.000    0.000    4.500    0.000    5.667 
#    0.000    0.000    0.000    2.500    0.000    0.000 
#    0.000    0.000    0.000    0.000    0.000    0.000 
#
# Total GULP energy -268162.623625 kJ/mol
# GULP energy per Si atom -5586.721326 kJ/mol
# Density = 1.934101 g / cm^3
# Si number density = 19.385130 Si / 1000 Ang^3
#
#
#
# Elastic Constant Matrix: (Units=GPa)
#
#
# Indices 1 2 3 4 5 6 
#
# 1 57.0950 14.3711 -4.0855 0.0000 0.0000 0.0000
# 2 14.3711 63.0615 22.3921 0.0000 0.0000 0.0000
# 3 -4.0855 22.3921 48.0480 0.0000 0.0000 0.0000
# 4 0.0000 0.0000 0.0000 35.9602 0.0000 0.0000
# 5 0.0000 0.0000 0.0000 0.0000 2.6407 0.0000
# 6 0.0000 0.0000 0.0000 0.0000 0.0000 7.2505
#
#
#
# Elastic Compliance Matrix: (Units=1/GPa)
#
#
# Indices 1 2 3 4 5 6 
#
# 1 0.019337 -0.005980 0.004431 0.000000 0.000000 0.000000
# 2 -0.005980 0.020851 -0.010226 0.000000 0.000000 0.000000
# 3 0.004431 -0.010226 0.025955 0.000000 0.000000 0.000000
# 4 0.000000 0.000000 0.000000 0.027809 0.000000 0.000000
# 5 0.000000 0.000000 0.000000 0.000000 0.378685 0.000000
# 6 0.000000 0.000000 0.000000 0.000000 0.000000 0.137921
#
#
# Mechanical properties :
#
#
# Convention : Reuss Voigt Hill
#
# Bulk Modulus (GPa) = 23.47780 25.95109 24.71445
# Shear Modulus (GPa) = 7.71241 18.20541 12.95891
#
# Velocity S-wave (km/s) = 1.99679 3.06787 2.58834
# Velocity P-wave (km/s) = 4.17777 5.09561 4.65935
#
# Compressibility (1/GPa) = 0.04259342
#
# Stress axis : x y z
#
# Youngs Moduli (GPa) = 51.71443 47.95833 38.52830
#
# Poissons Ratio (x) = 0.28680 -0.17072
# Poissons Ratio (y) = 0.30926 0.39399
# Poissons Ratio (z) = -0.22915 0.49042
#
# Static dielectric constant tensor:
#      x y z
#    x 1.648950 0.000000 0.000000 
#    y 0.000000 1.650000 0.000000 
#    z 0.000000 0.000000 1.690210 
# 
# From -- ./inp_files/23607.got.cif
#   From: 2010.05.17/outbox.cif.g08.bks.cpg/sg53_12_cif.got.tgz:23607.got - 2010.06.03 12:45:16.
