data_PCOD9416343
_publ_section_title
;
Structure prediction by ZEFSAII (Michael W. Deem and Ramdas Pophale) SiO2 
 PCOD9416343
Probable space group: P M N A
;
_chemical_formula_sum "Si O2"
_cell_formula_units_Z 40
_cell_length_a 8.133421
_cell_length_b 11.961183
_cell_length_c 22.099845
_cell_angle_alpha 90.000000
_cell_angle_beta 90.000000
_cell_angle_gamma 90.000000
_cell_volume 2149.990868
_symmetry_space_group_name_H-M "P M N A"
_symmetry_group_IT_number 53
_symmetry_cell_setting 'orthorhombic'
loop_
_space_group_symop_operation_xyz
x,y,z
1/2-x,-y,1/2+z
x,-y,-z
1/2-x,y,1/2-z
-x,-y,-z
1/2+x,y,1/2-z
-x,y,z
1/2+x,-y,1/2+z
loop_
_atom_site_type_symbol
_atom_site_label
_atom_site_fract_x
_atom_site_fract_y
_atom_site_fract_z
Si Si1 0.189756 0.166673 0.026341
Si Si2 0.801820 0.780899 0.317517
Si Si3 0.301410 0.473991 0.818822
Si Si4 0.808825 0.039882 0.588818
Si Si5 0.199176 0.416921 0.445122
O O1 0.241844 0.291557 0.041992
O O2 0.000000 0.164390 0.007773
O O3 0.216637 0.076768 0.079674
O O4 0.295263 0.113846 0.972085
O O5 0.750000 0.806930 0.250000
O O6 0.744708 0.654174 0.329926
O O7 0.738745 0.877626 0.360798
O O8 0.000000 0.779098 0.323420
O O9 0.250000 0.506333 0.750000
O O10 0.500000 0.475185 0.818853
O O11 0.246564 0.543709 0.877830
O O12 0.000000 0.014940 0.600697
O O13 0.251762 0.500000 0.500000
O O14 0.000000 0.417816 0.445358
#
# Coordination Sequence:
#
# PCOD9416343 Si02
#       5
#     8   8   8   8   8
#     4  11  22  34  51  78 107 133 167 215 267 306
#     4   9  18  32  53  79 103 131 168 210 254 302
#     4   9  18  33  53  77 105 136 170 211 259 309
#     4  10  19  35  56  75 101 138 175 207 251 312
#     4  10  20  36  57  78 103 138 180 218 255 311
#
# _framework density 18.604731000000001
#
# number of rings (size 3 to 8) (size 9 to 14) (size 15 to 20)
#    0.000    2.200    0.000    4.800    0.000    6.000 
#    0.000    5.000    0.000    0.000    0.000    0.000 
#    0.000    0.000    0.000    0.000    0.000    0.000 
#
# Total GULP energy -223027.104542 kJ/mol
# GULP energy per Si atom -5575.677614 kJ/mol
# Density = 1.856239 g / cm^3
# Si number density = 18.604731 Si / 1000 Ang^3
#
#
#
# Elastic Constant Matrix: (Units=GPa)
#
#
# Indices 1 2 3 4 5 6 
#
# 1 19.6495 6.9093 -0.0732 0.0000 0.0000 0.0000
# 2 6.9093 149.0654 79.8869 0.0000 0.0000 0.0000
# 3 -0.0732 79.8869 79.7754 0.0000 0.0000 0.0000
# 4 0.0000 0.0000 0.0000 44.0443 0.0000 0.0000
# 5 0.0000 0.0000 0.0000 0.0000 22.2012 0.0000
# 6 0.0000 0.0000 0.0000 0.0000 0.0000 4.9572
#
#
#
# Elastic Compliance Matrix: (Units=1/GPa)
#
#
# Indices 1 2 3 4 5 6 
#
# 1 0.052789 -0.005337 0.005393 0.000000 0.000000 0.000000
# 2 -0.005337 0.015018 -0.015044 0.000000 0.000000 0.000000
# 3 0.005393 -0.015044 0.027605 0.000000 0.000000 0.000000
# 4 0.000000 0.000000 0.000000 0.022704 0.000000 0.000000
# 5 0.000000 0.000000 0.000000 0.000000 0.045043 0.000000
# 6 0.000000 0.000000 0.000000 0.000000 0.000000 0.201726
#
#
# Mechanical properties :
#
#
# Convention : Reuss Voigt Hill
#
# Bulk Modulus (GPa) = 15.28218 46.88182 31.08200
# Shear Modulus (GPa) = 11.99980 25.02503 18.51242
#
# Velocity S-wave (km/s) = 2.54241 3.67153 3.15784
# Velocity P-wave (km/s) = 4.10493 6.57473 5.48076
#
# Compressibility (1/GPa) = 0.06543568
#
# Stress axis : x y z
#
# Youngs Moduli (GPa) = 18.94345 66.58567 36.22499
#
# Poissons Ratio (x) = 0.35536 -0.19535
# Poissons Ratio (y) = 0.10110 0.54497
# Poissons Ratio (z) = -0.10216 1.00172
#
# Static dielectric constant tensor:
#      x y z
#    x 1.648980 0.000000 0.000000 
#    y 0.000000 1.631210 0.000000 
#    z 0.000000 0.000000 1.665970 
# 
# From -- ./inp_files/25836.got.cif
#   From: 2010.05.17/outbox.cif.g08.bks.cpg/sg53_13_cif.got.tgz:25836.got - 2010.06.03 12:45:16.
