data_PCOD9416385
_publ_section_title
;
Structure prediction by ZEFSAII (Michael W. Deem and Ramdas Pophale) SiO2 
 PCOD9416385
Probable space group: P M N A
;
_chemical_formula_sum "Si O2"
_cell_formula_units_Z 64
_cell_length_a 8.820503
_cell_length_b 22.112616
_cell_length_c 18.261850
_cell_angle_alpha 90.000000
_cell_angle_beta 90.000000
_cell_angle_gamma 90.000000
_cell_volume 3561.871499
_symmetry_space_group_name_H-M "P M N A"
_symmetry_group_IT_number 53
_symmetry_cell_setting 'orthorhombic'
loop_
_space_group_symop_operation_xyz
x,y,z
1/2-x,-y,1/2+z
x,-y,-z
1/2-x,y,1/2-z
-x,-y,-z
1/2+x,y,1/2-z
-x,y,z
1/2+x,-y,1/2+z
loop_
_atom_site_type_symbol
_atom_site_label
_atom_site_fract_x
_atom_site_fract_y
_atom_site_fract_z
Si Si1 0.319486 0.876539 0.328142
Si Si2 0.317592 0.934614 0.028997
Si Si3 0.682653 0.497746 0.830242
Si Si4 0.818612 0.188833 0.450323
Si Si5 0.317353 0.617508 0.919457
Si Si6 0.681066 0.752407 0.405409
Si Si7 0.819211 0.730000 0.830953
Si Si8 0.317385 0.374061 0.908588
O O1 0.250000 0.891675 0.250000
O O2 0.500000 0.881874 0.325756
O O3 0.255099 0.917320 0.393605
O O4 0.281573 0.807125 0.350314
O O5 0.500000 0.934894 0.037349
O O6 0.280781 0.879944 0.973096
O O7 0.269344 0.000000 0.000000
O O8 0.750000 0.506554 0.750000
O O9 0.500000 0.497098 0.825492
O O10 0.723698 0.553518 0.882945
O O11 0.730639 0.433719 0.864738
O O12 0.759971 0.229843 0.517815
O O13 0.740795 0.212785 0.377166
O O14 0.000000 0.194977 0.444530
O O15 0.500000 0.625269 0.913442
O O16 0.237979 0.671329 0.875584
O O17 0.279160 0.618673 0.005371
O O18 0.500000 0.751005 0.415755
O O19 0.741344 0.687462 0.381091
O O20 0.750000 0.728951 0.750000
O O21 0.000000 0.730195 0.827315
O O22 0.500000 0.368662 0.903407
#
# Coordination Sequence:
#
# PCOD9416385 Si02
#       8
#     8   8   8   8   8   8   8   8
#     4  10  21  36  56  84 118 154 193 236 280 328
#     4   9  19  37  62  89 117 152 191 230 276 332
#     4  10  22  38  54  76 106 143 184 230 282 338
#     4  10  19  35  58  83 113 146 181 222 271 328
#     4  10  20  37  59  80 105 140 186 232 281 337
#     4  10  20  34  54  82 112 143 182 229 277 328
#     4  12  24  37  56  83 114 145 184 231 281 331
#     4  10  20  35  57  80 106 143 185 228 279 339
#
# _framework density 17.968081000000002
#
# number of rings (size 3 to 8) (size 9 to 14) (size 15 to 20)
#    0.000    1.875    1.250    3.000    0.000    6.250 
#    0.000    3.125    0.000    2.250    0.000    0.000 
#    0.000    0.000    0.000    0.000    0.000    0.000 
#
# Total GULP energy -357493.866959 kJ/mol
# GULP energy per Si atom -5585.841671 kJ/mol
# Density = 1.792719 g / cm^3
# Si number density = 17.968081 Si / 1000 Ang^3
#
#
#
# Elastic Constant Matrix: (Units=GPa)
#
#
# Indices 1 2 3 4 5 6 
#
# 1 37.6991 34.2324 23.0138 0.0000 0.0000 0.0000
# 2 34.2324 130.9182 37.2886 0.0000 0.0000 0.0000
# 3 23.0138 37.2886 60.8234 0.0000 0.0000 0.0000
# 4 0.0000 0.0000 0.0000 17.6420 0.0000 0.0000
# 5 0.0000 0.0000 0.0000 0.0000 25.6897 0.0000
# 6 0.0000 0.0000 0.0000 0.0000 0.0000 22.8793
#
#
#
# Elastic Compliance Matrix: (Units=1/GPa)
#
#
# Indices 1 2 3 4 5 6 
#
# 1 0.039614 -0.007377 -0.010466 0.000000 0.000000 0.000000
# 2 -0.007377 0.010628 -0.003724 0.000000 0.000000 0.000000
# 3 -0.010466 -0.003724 0.022684 0.000000 0.000000 0.000000
# 4 0.000000 0.000000 0.000000 0.056683 0.000000 0.000000
# 5 0.000000 0.000000 0.000000 0.000000 0.038926 0.000000
# 6 0.000000 0.000000 0.000000 0.000000 0.000000 0.043708
#
#
# Mechanical properties :
#
#
# Convention : Reuss Voigt Hill
#
# Bulk Modulus (GPa) = 33.56715 46.50116 40.03415
# Shear Modulus (GPa) = 18.84598 22.23593 20.54096
#
# Velocity S-wave (km/s) = 3.24212 3.52166 3.38478
# Velocity P-wave (km/s) = 5.72165 6.51707 6.13227
#
# Compressibility (1/GPa) = 0.02979103
#
# Stress axis : x y z
#
# Youngs Moduli (GPa) = 25.24372 94.08976 44.08323
#
# Poissons Ratio (x) = 0.69412 0.46138
# Poissons Ratio (y) = 0.18623 0.16418
# Poissons Ratio (z) = 0.26420 0.35043
#
# Static dielectric constant tensor:
#      x y z
#    x 1.600330 0.000000 0.000000 
#    y 0.000000 1.614500 0.000000 
#    z 0.000000 0.000000 1.582990 
# 
# From -- ./inp_files/26948.got.cif
#   From: 2010.05.17/outbox.cif.g08.bks.cpg/sg53_14_cif.got.tgz:26948.got - 2010.06.03 12:45:16.
