data_PCOD9416217
_publ_section_title
;
Structure prediction by ZEFSAII (Michael W. Deem and Ramdas Pophale) SiO2 
 PCOD9416217
Probable space group: P M N A
;
_chemical_formula_sum "Si O2"
_cell_formula_units_Z 56
_cell_length_a 17.184494
_cell_length_b 15.542828
_cell_length_c 11.658026
_cell_angle_alpha 90.000000
_cell_angle_beta 90.000000
_cell_angle_gamma 90.000000
_cell_volume 3113.807852
_symmetry_space_group_name_H-M "P M N A"
_symmetry_group_IT_number 53
_symmetry_cell_setting 'orthorhombic'
loop_
_space_group_symop_operation_xyz
x,y,z
1/2-x,-y,1/2+z
x,-y,-z
1/2-x,y,1/2-z
-x,-y,-z
1/2+x,y,1/2-z
-x,y,z
1/2+x,-y,1/2+z
loop_
_atom_site_type_symbol
_atom_site_label
_atom_site_fract_x
_atom_site_fract_y
_atom_site_fract_z
Si Si1 0.659356 0.823255 0.258064
Si Si2 0.588901 0.337092 0.861284
Si Si3 0.697245 0.503891 0.865657
Si Si4 0.406503 0.898613 0.489409
Si Si5 0.905497 0.158841 0.239884
Si Si6 0.408839 0.014842 0.864899
Si Si7 0.908602 0.326680 0.374822
O O1 0.750000 0.803316 0.250000
O O2 0.611762 0.738833 0.223777
O O3 0.635997 0.856600 0.382902
O O4 0.637602 0.901646 0.173687
O O5 0.500000 0.364944 0.843410
O O6 0.645406 0.418220 0.853489
O O7 0.594734 0.301300 0.991210
O O8 0.750000 0.507312 0.750000
O O9 0.642152 0.587885 0.861402
O O10 0.729782 0.500000 0.000000
O O11 0.500000 0.892723 0.473112
O O12 0.385408 0.851118 0.607126
O O13 0.388126 0.000000 0.500000
O O14 0.879547 0.246977 0.298658
O O15 0.000000 0.158855 0.249117
O O16 0.879676 0.071825 0.303424
O O17 0.500000 0.027995 0.831557
O O18 0.405795 0.000000 0.000000
O O19 0.000000 0.343824 0.348223
#
# Coordination Sequence:
#
# PCOD9416217 Si02
#       7
#     8   8   8   8   8   8   8
#     4  12  24  36  52  81 120 153 187 237 295 356
#     4  10  20  38  64  86 110 150 202 246 280 334
#     4  10  21  40  63  90 123 157 187 233 299 360
#     4  10  19  36  59  78 108 157 200 233 280 342
#     4   9  17  32  56  84 109 141 191 241 280 328
#     4  10  19  34  57  80 107 146 196 248 285 323
#     4   9  18  36  62  90 113 144 196 246 285 335
#
# _framework density 17.984411000000001
#
# number of rings (size 3 to 8) (size 9 to 14) (size 15 to 20)
#    0.000    2.000    1.429    3.000    0.000    4.571 
#    7.714    0.714    0.000    0.857    0.000    0.000 
#    0.000    0.000    0.000    0.000    0.000    0.000 
#
# Total GULP energy -312450.099768 kJ/mol
# GULP energy per Si atom -5579.466067 kJ/mol
# Density = 1.794348 g / cm^3
# Si number density = 17.984411 Si / 1000 Ang^3
#
#
#
# Elastic Constant Matrix: (Units=GPa)
#
#
# Indices 1 2 3 4 5 6 
#
# 1 38.1839 11.4935 40.7930 0.0000 0.0000 0.0000
# 2 11.4935 68.2156 26.5313 0.0000 0.0000 0.0000
# 3 40.7930 26.5313 88.4569 0.0000 0.0000 0.0000
# 4 0.0000 0.0000 0.0000 26.9053 0.0000 0.0000
# 5 0.0000 0.0000 0.0000 0.0000 21.2215 0.0000
# 6 0.0000 0.0000 0.0000 0.0000 0.0000 -25.3869
#
#
#
# Elastic Compliance Matrix: (Units=1/GPa)
#
#
# Indices 1 2 3 4 5 6 
#
# 1 0.051646 0.000636 -0.024008 0.000000 0.000000 0.000000
# 2 0.000636 0.016603 -0.005273 0.000000 0.000000 0.000000
# 3 -0.024008 -0.005273 0.023958 0.000000 0.000000 0.000000
# 4 0.000000 0.000000 0.000000 0.037167 0.000000 0.000000
# 5 0.000000 0.000000 0.000000 0.000000 0.047122 0.000000
# 6 0.000000 0.000000 0.000000 0.000000 0.000000 -0.039390
#
#
# Mechanical properties :
#
#
# Convention : Reuss Voigt Hill
#
# Bulk Modulus (GPa) = 28.63946 39.16580 33.90263
# Shear Modulus (GPa) = 24.26761 12.28388 18.27575
#
# Velocity S-wave (km/s) = 3.67736 2.61632 3.19125
# Velocity P-wave (km/s) = 5.83008 5.56343 5.69831
#
# Compressibility (1/GPa) = 0.03491686
#
# Stress axis : x y z
#
# Youngs Moduli (GPa) = 19.36253 60.22955 41.73953
#
# Poissons Ratio (x) = -0.03829 1.00208
# Poissons Ratio (y) = -0.01231 0.22010
# Poissons Ratio (z) = 0.46486 0.31759
#
# Static dielectric constant tensor:
#      x y z
#    x 1.601430 0.000000 0.000000 
#    y 0.000000 1.583220 0.000000 
#    z 0.000000 0.000000 1.624320 
# 
# From -- ./inp_files/16059.got.cif
#   From: 2010.05.17/outbox.cif.g08.bks.cpg/sg53_9_cif.got.tgz:16059.got - 2010.06.03 12:45:16.
