data_PCOD9416876
_publ_section_title
;
Structure prediction by ZEFSAII (Michael W. Deem and Ramdas Pophale) SiO2 
 PCOD9416876
Probable space group: P M N A
;
_chemical_formula_sum "Si O2"
_cell_formula_units_Z 64
_cell_length_a 14.989221
_cell_length_b 7.562784
_cell_length_c 24.577533
_cell_angle_alpha 90.000000
_cell_angle_beta 90.000000
_cell_angle_gamma 90.000000
_cell_volume 2786.115058
_symmetry_space_group_name_H-M "P M N A"
_symmetry_group_IT_number 53
_symmetry_cell_setting 'orthorhombic'
loop_
_space_group_symop_operation_xyz
x,y,z
1/2-x,-y,1/2+z
x,-y,-z
1/2-x,y,1/2-z
-x,-y,-z
1/2+x,y,1/2-z
-x,y,z
1/2+x,-y,1/2+z
loop_
_atom_site_type_symbol
_atom_site_label
_atom_site_fract_x
_atom_site_fract_y
_atom_site_fract_z
Si Si1 0.102311 0.641836 0.250122
Si Si2 0.396526 0.745786 0.367339
Si Si3 0.727343 0.123093 0.543843
Si Si4 0.648673 0.037233 0.230387
Si Si5 0.785287 0.810529 0.620440
Si Si6 0.103597 0.505860 0.364250
Si Si7 0.097500 0.308329 0.528118
Si Si8 0.903774 0.167586 0.161127
O O1 0.137909 0.647684 0.187751
O O2 0.102512 0.847845 0.268123
O O3 0.140592 0.543748 0.303382
O O4 0.000000 0.583899 0.244444
O O5 0.500000 0.695018 0.377562
O O6 0.333453 0.745266 0.420278
O O7 0.399259 0.956469 0.352247
O O8 0.809897 0.215465 0.513808
O O9 0.675373 0.000000 0.500000
O O10 0.771584 0.981811 0.584259
O O11 0.750000 0.003455 0.250000
O O12 0.659308 0.122759 0.172460
O O13 0.605141 0.169395 0.273786
O O14 0.840128 0.640542 0.604183
O O15 0.684573 0.751557 0.635785
O O16 0.103541 0.669558 0.405996
O O17 0.000000 0.452621 0.359072
O O18 0.094621 0.500000 0.500000
O O19 0.000000 0.224964 0.515496
O O20 0.000000 0.235814 0.143241
#
# Coordination Sequence:
#
# PCOD9416876 Si02
#       8
#     8   8   8   8   8   8   8   8
#     4   9  17  32  54  78 109 150 188 222 276 352
#     4   8  16  33  57  85 115 145 182 233 287 344
#     4  11  22  36  60  88 110 145 198 247 294 347
#     4   9  16  28  48  73 100 135 179 224 271 324
#     4  10  20  33  51  81 115 144 184 239 290 332
#     4  10  21  35  53  81 115 151 188 229 286 352
#     4  10  22  41  60  78 109 152 195 243 297 348
#     4   8  15  30  51  75 106 143 182 225 277 336
#
# _framework density 22.971052
#
# number of rings (size 3 to 8) (size 9 to 14) (size 15 to 20)
#    0.000    2.625    0.000    3.375    0.000    2.000 
#    0.000    5.625    0.000    2.625    0.000    3.500 
#    0.000    0.000    0.000    0.000    0.000    0.000 
#
# Total GULP energy -356899.705959 kJ/mol
# GULP energy per Si atom -5576.557906 kJ/mol
# Density = 2.291877 g / cm^3
# Si number density = 22.971052 Si / 1000 Ang^3
#
#
#
# Elastic Constant Matrix: (Units=GPa)
#
#
# Indices 1 2 3 4 5 6 
#
# 1 107.1441 25.6533 24.2650 0.0000 0.0000 0.0000
# 2 25.6533 36.9308 13.7998 0.0000 0.0000 0.0000
# 3 24.2650 13.7998 77.5854 0.0000 0.0000 0.0000
# 4 0.0000 0.0000 0.0000 28.9373 0.0000 0.0000
# 5 0.0000 0.0000 0.0000 0.0000 14.0356 0.0000
# 6 0.0000 0.0000 0.0000 0.0000 0.0000 21.2890
#
#
#
# Elastic Compliance Matrix: (Units=1/GPa)
#
#
# Indices 1 2 3 4 5 6 
#
# 1 0.011581 -0.007167 -0.002347 0.000000 0.000000 0.000000
# 2 -0.007167 0.033441 -0.003706 0.000000 0.000000 0.000000
# 3 -0.002347 -0.003706 0.014282 0.000000 0.000000 0.000000
# 4 0.000000 0.000000 0.000000 0.034557 0.000000 0.000000
# 5 0.000000 0.000000 0.000000 0.000000 0.071247 0.000000
# 6 0.000000 0.000000 0.000000 0.000000 0.000000 0.046973
#
#
# Mechanical properties :
#
#
# Convention : Reuss Voigt Hill
#
# Bulk Modulus (GPa) = 30.42971 38.78851 34.60911
# Shear Modulus (GPa) = 20.04186 23.38187 21.71187
#
# Velocity S-wave (km/s) = 2.95699 3.19389 3.07772
# Velocity P-wave (km/s) = 4.99341 5.52483 5.26583
#
# Compressibility (1/GPa) = 0.03286262
#
# Stress axis : x y z
#
# Youngs Moduli (GPa) = 86.34941 29.90313 70.01662
#
# Poissons Ratio (x) = 0.21433 0.16434
# Poissons Ratio (y) = 0.61890 0.25951
# Poissons Ratio (z) = 0.20267 0.11083
#
# Static dielectric constant tensor:
#      x y z
#    x 1.683030 0.000000 0.000000 
#    y 0.000000 1.876880 0.000000 
#    z 0.000000 0.000000 1.917530 
# 
# From -- ./inp_files/35312.got.cif
#   From: 2010.05.17/outbox.cif.g08.bks.cpg/sg53_18_cif.got.tgz:35312.got - 2010.06.03 12:45:16.
