data_PCOD9416335
_publ_section_title
;
Structure prediction by ZEFSAII (Michael W. Deem and Ramdas Pophale) SiO2 
 PCOD9416335
Probable space group: P M N A
;
_chemical_formula_sum "Si O2"
_cell_formula_units_Z 56
_cell_length_a 8.857708
_cell_length_b 19.360063
_cell_length_c 18.463072
_cell_angle_alpha 90.000000
_cell_angle_beta 90.000000
_cell_angle_gamma 90.000000
_cell_volume 3166.154394
_symmetry_space_group_name_H-M "P M N A"
_symmetry_group_IT_number 53
_symmetry_cell_setting 'orthorhombic'
loop_
_space_group_symop_operation_xyz
x,y,z
1/2-x,-y,1/2+z
x,-y,-z
1/2-x,y,1/2-z
-x,-y,-z
1/2+x,y,1/2-z
-x,y,z
1/2+x,-y,1/2+z
loop_
_atom_site_type_symbol
_atom_site_label
_atom_site_fract_x
_atom_site_fract_y
_atom_site_fract_z
Si Si1 0.180114 0.840426 0.462924
Si Si2 0.181189 0.331862 0.328973
Si Si3 0.676600 0.425871 0.960549
Si Si4 0.178435 0.708319 0.974164
Si Si5 0.681846 0.057406 0.830149
Si Si6 0.672546 0.946901 0.567667
Si Si7 0.681313 0.508053 0.827272
O O1 0.256732 0.766446 0.472351
O O2 0.220199 0.882184 0.389012
O O3 0.235387 0.884062 0.532848
O O4 0.000000 0.834189 0.464351
O O5 0.250000 0.316161 0.250000
O O6 0.246635 0.287091 0.394495
O O7 0.221830 0.412470 0.346220
O O8 0.000000 0.326757 0.326508
O O9 0.500000 0.403810 0.961388
O O10 0.730402 0.448302 0.881428
O O11 0.681162 0.500000 0.000000
O O12 0.774501 0.366263 0.995093
O O13 0.000000 0.714940 0.967722
O O14 0.750000 0.068389 0.750000
O O15 0.500000 0.053207 0.825955
O O16 0.748360 0.987621 0.866740
O O17 0.500000 0.927617 0.586003
O O18 0.666547 0.000000 0.500000
O O19 0.750000 0.494853 0.750000
O O20 0.500000 0.506820 0.826560
#
# Coordination Sequence:
#
# PCOD9416335 Si02
#       7
#     8   8   8   8   8   8   8
#     4  10  21  38  58  81 113 154 193 231 278 335
#     4  10  19  35  55  78 105 137 176 223 278 338
#     4  10  19  36  56  76 104 142 185 232 287 340
#     4  12  24  36  54  82 112 148 190 235 285 341
#     4  10  20  35  59  89 118 151 191 231 275 326
#     4   9  17  32  56  84 113 143 178 222 267 316
#     4   9  18  32  53  76 101 133 171 222 281 336
#
# _framework density 17.687071
#
# number of rings (size 3 to 8) (size 9 to 14) (size 15 to 20)
#    0.000    2.000    1.429    3.000    0.000    4.857 
#    0.000    1.429    0.000    0.000    0.000    0.000 
#    0.000    0.000    0.000    0.000    0.000    0.000 
#
# Total GULP energy -312272.686609 kJ/mol
# GULP energy per Si atom -5576.297975 kJ/mol
# Density = 1.764681 g / cm^3
# Si number density = 17.687071 Si / 1000 Ang^3
#
#
#
# Elastic Constant Matrix: (Units=GPa)
#
#
# Indices 1 2 3 4 5 6 
#
# 1 82.3726 31.0485 51.8948 0.0000 0.0000 0.0000
# 2 31.0485 54.8640 43.0939 0.0000 0.0000 0.0000
# 3 51.8948 43.0939 123.7778 0.0000 0.0000 0.0000
# 4 0.0000 0.0000 0.0000 23.3911 0.0000 0.0000
# 5 0.0000 0.0000 0.0000 0.0000 27.5331 0.0000
# 6 0.0000 0.0000 0.0000 0.0000 0.0000 13.1727
#
#
#
# Elastic Compliance Matrix: (Units=1/GPa)
#
#
# Indices 1 2 3 4 5 6 
#
# 1 0.017734 -0.005775 -0.005425 0.000000 0.000000 0.000000
# 2 -0.005775 0.026968 -0.006968 0.000000 0.000000 0.000000
# 3 -0.005425 -0.006968 0.012779 0.000000 0.000000 0.000000
# 4 0.000000 0.000000 0.000000 0.042751 0.000000 0.000000
# 5 0.000000 0.000000 0.000000 0.000000 0.036320 0.000000
# 6 0.000000 0.000000 0.000000 0.000000 0.000000 0.075915
#
#
# Mechanical properties :
#
#
# Convention : Reuss Voigt Hill
#
# Bulk Modulus (GPa) = 47.28951 57.00988 52.14969
# Shear Modulus (GPa) = 19.54257 21.81785 20.68021
#
# Velocity S-wave (km/s) = 3.32762 3.51600 3.42311
# Velocity P-wave (km/s) = 6.44662 6.98466 6.72103
#
# Compressibility (1/GPa) = 0.02114634
#
# Stress axis : x y z
#
# Youngs Moduli (GPa) = 56.38792 37.08069 78.25265
#
# Poissons Ratio (x) = 0.21416 0.42448
# Poissons Ratio (y) = 0.32566 0.54525
# Poissons Ratio (z) = 0.30588 0.25837
#
# Static dielectric constant tensor:
#      x y z
#    x 1.590470 0.000000 0.000000 
#    y 0.000000 1.608780 0.000000 
#    z 0.000000 0.000000 1.632270 
# 
# From -- ./inp_files/26718.got.cif
#   From: 2010.05.17/outbox.cif.g08.bks.cpg/sg53_14_cif.got.tgz:26718.got - 2010.06.03 12:45:16.
