data_PCOD9416216
_publ_section_title
;
Structure prediction by ZEFSAII (Michael W. Deem and Ramdas Pophale) SiO2 
 PCOD9416216
Probable space group: P M N A
;
_chemical_formula_sum "Si O2"
_cell_formula_units_Z 64
_cell_length_a 7.595942
_cell_length_b 13.145862
_cell_length_c 29.339410
_cell_angle_alpha 90.000000
_cell_angle_beta 90.000000
_cell_angle_gamma 90.000000
_cell_volume 2929.692809
_symmetry_space_group_name_H-M "P M N A"
_symmetry_group_IT_number 53
_symmetry_cell_setting 'orthorhombic'
loop_
_space_group_symop_operation_xyz
x,y,z
1/2-x,-y,1/2+z
x,-y,-z
1/2-x,y,1/2-z
-x,-y,-z
1/2+x,y,1/2-z
-x,y,z
1/2+x,-y,1/2+z
loop_
_atom_site_type_symbol
_atom_site_label
_atom_site_fract_x
_atom_site_fract_y
_atom_site_fract_z
Si Si1 0.288094 0.996171 0.801455
Si Si2 0.211053 0.434667 0.303114
Si Si3 0.284555 0.614797 0.132768
Si Si4 0.787682 0.890494 0.019038
Si Si5 0.703610 0.216615 0.165658
Si Si6 0.287108 0.475069 0.050360
Si Si7 0.709730 0.156533 0.875799
Si Si8 0.705943 0.758054 0.565068
O O1 0.250000 0.029884 0.750000
O O2 0.500000 0.991017 0.806497
O O3 0.217508 0.881900 0.809909
O O4 0.220755 0.072382 0.840521
O O5 0.250000 0.438775 0.250000
O O6 0.275743 0.535769 0.328612
O O7 0.281512 0.327374 0.322761
O O8 0.000000 0.434198 0.310580
O O9 0.500000 0.618005 0.133693
O O10 0.231746 0.561447 0.085553
O O11 0.221059 0.730311 0.134811
O O12 0.735891 0.870414 0.071111
O O13 0.000000 0.889825 0.018874
O O14 0.726475 0.806469 0.982166
O O15 0.728853 0.000000 0.000000
O O16 0.500000 0.222479 0.180269
O O17 0.709198 0.200506 0.111303
O O18 0.500000 0.473624 0.050308
O O19 0.229348 0.362955 0.064548
O O20 0.223745 0.500000 0.000000
O O21 0.500000 0.160352 0.868656
O O22 0.500000 0.782860 0.568342
#
# Coordination Sequence:
#
# PCOD9416216 Si02
#       8
#     8   8   8   8   8   8   8   8
#     4  10  22  38  59  87 114 145 186 238 291 340
#     4  10  20  35  55  78 108 145 185 231 278 331
#     4   9  18  35  55  78 110 146 183 228 276 327
#     4  10  22  39  56  80 116 155 189 227 286 344
#     4  10  20  37  58  81 113 149 188 233 282 340
#     4  10  19  34  57  80 106 149 192 224 275 338
#     4  10  21  38  60  85 112 146 195 240 274 329
#     4  11  22  34  54  84 116 147 185 237 288 336
#
# _framework density 21.845296000000001
#
# number of rings (size 3 to 8) (size 9 to 14) (size 15 to 20)
#    0.000    2.000    1.250    2.250    0.000    4.500 
#    0.000    1.250    0.000    0.000    0.000    0.000 
#    0.000    0.000    0.000    0.000    0.000    0.000 
#
# Total GULP energy -357588.414813 kJ/mol
# GULP energy per Si atom -5587.318981 kJ/mol
# Density = 2.179557 g / cm^3
# Si number density = 21.845296 Si / 1000 Ang^3
#
#
#
# Elastic Constant Matrix: (Units=GPa)
#
#
# Indices 1 2 3 4 5 6 
#
# 1 44.7191 7.8589 -11.4570 0.0000 0.0000 0.0000
# 2 7.8589 166.1368 77.4144 0.0000 0.0000 0.0000
# 3 -11.4570 77.4144 154.4807 0.0000 0.0000 0.0000
# 4 0.0000 0.0000 0.0000 37.4525 0.0000 0.0000
# 5 0.0000 0.0000 0.0000 0.0000 33.2647 0.0000
# 6 0.0000 0.0000 0.0000 0.0000 0.0000 17.4986
#
#
#
# Elastic Compliance Matrix: (Units=1/GPa)
#
#
# Indices 1 2 3 4 5 6 
#
# 1 0.023576 -0.002518 0.003010 0.000000 0.000000 0.000000
# 2 -0.002518 0.008122 -0.004257 0.000000 0.000000 0.000000
# 3 0.003010 -0.004257 0.008830 0.000000 0.000000 0.000000
# 4 0.000000 0.000000 0.000000 0.026700 0.000000 0.000000
# 5 0.000000 0.000000 0.000000 0.000000 0.030062 0.000000
# 6 0.000000 0.000000 0.000000 0.000000 0.000000 0.057147
#
#
# Mechanical properties :
#
#
# Convention : Reuss Voigt Hill
#
# Bulk Modulus (GPa) = 30.30468 56.99658 43.65063
# Shear Modulus (GPa) = 28.90757 37.07785 32.99271
#
# Velocity S-wave (km/s) = 3.64165 4.12429 3.89046
# Velocity P-wave (km/s) = 5.62002 6.98766 6.34082
#
# Compressibility (1/GPa) = 0.03299820
#
# Stress axis : x y z
#
# Youngs Moduli (GPa) = 42.41687 123.12601 113.25364
#
# Poissons Ratio (x) = 0.31002 -0.34092
# Poissons Ratio (y) = 0.10680 0.48209
# Poissons Ratio (z) = -0.12769 0.52412
#
# Static dielectric constant tensor:
#      x y z
#    x 1.818660 0.000000 0.000000 
#    y 0.000000 1.796120 0.000000 
#    z 0.000000 0.000000 1.715360 
# 
# From -- ./inp_files/38215.got.cif
#   From: 2010.05.17/outbox.cif.g08.bks.cpg/sg53_20_cif.got.tgz:38215.got - 2010.06.03 12:45:16.
