data_PCOD9416790
_publ_section_title
;
Structure prediction by ZEFSAII (Michael W. Deem and Ramdas Pophale) SiO2 
 PCOD9416790
Probable space group: P M N A
;
_chemical_formula_sum "Si O2"
_cell_formula_units_Z 52
_cell_length_a 14.265393
_cell_length_b 8.714416
_cell_length_c 20.643935
_cell_angle_alpha 90.000000
_cell_angle_beta 90.000000
_cell_angle_gamma 90.000000
_cell_volume 2566.341882
_symmetry_space_group_name_H-M "P M N A"
_symmetry_group_IT_number 53
_symmetry_cell_setting 'orthorhombic'
loop_
_space_group_symop_operation_xyz
x,y,z
1/2-x,-y,1/2+z
x,-y,-z
1/2-x,y,1/2-z
-x,-y,-z
1/2+x,y,1/2-z
-x,y,z
1/2+x,-y,1/2+z
loop_
_atom_site_type_symbol
_atom_site_label
_atom_site_fract_x
_atom_site_fract_y
_atom_site_fract_z
Si Si1 0.896791 0.939339 0.703813
Si Si2 0.204965 0.704023 0.095959
Si Si3 0.109002 0.484846 0.795825
Si Si4 0.750000 0.261391 0.250000
Si Si5 0.892405 0.991855 0.857278
Si Si6 0.606505 0.290674 0.835193
Si Si7 0.107446 0.820380 0.977137
O O1 0.805102 0.836485 0.695314
O O2 0.892956 0.963400 0.781328
O O3 0.000000 0.872969 0.687511
O O4 0.890742 0.106670 0.672724
O O5 0.140239 0.589514 0.136847
O O6 0.311638 0.666234 0.115000
O O7 0.177440 0.871260 0.125214
O O8 0.176521 0.720135 0.020923
O O9 0.171770 0.629494 0.779773
O O10 0.124585 0.365165 0.735789
O O11 0.000000 0.523458 0.796821
O O12 0.874717 0.842003 0.901038
O O13 0.000000 0.042188 0.873736
O O14 0.500000 0.334388 0.853764
O O15 0.000000 0.769634 0.987207
O O16 0.114167 0.000000 0.000000
#
# Coordination Sequence:
#
# PCOD9416790 Si02
#       7
#     8   8   8   4   8   8   8
#     4  10  20  33  50  71 102 136 168 205 248 299
#     4  11  16  28  49  74 100 133 163 201 251 303
#     4  11  21  33  48  72 102 131 163 204 248 299
#     4  12  22  32  46  72 104 136 166 198 248 308
#     4   9  16  28  49  75 100 129 165 207 252 302
#     4  10  20  33  50  74 100 132 171 208 247 295
#     4   8  15  25  43  74 103 126 158 203 256 303
#
# _framework density 20.262304
#
# number of rings (size 3 to 8) (size 9 to 14) (size 15 to 20)
#    0.000    2.000    3.077    3.692    0.000    0.000 
#    0.000    0.000    0.000    5.077    0.000    4.308 
#    0.000    2.462    0.000    0.923    0.000    0.000 
#
# Total GULP energy -290226.904473 kJ/mol
# GULP energy per Si atom -5581.286624 kJ/mol
# Density = 2.021619 g / cm^3
# Si number density = 20.262304 Si / 1000 Ang^3
#
#
#
# Elastic Constant Matrix: (Units=GPa)
#
#
# Indices 1 2 3 4 5 6 
#
# 1 131.5868 22.3023 4.7966 0.0000 0.0000 0.0000
# 2 22.3023 41.3222 -17.6768 0.0000 0.0000 0.0000
# 3 4.7966 -17.6768 31.0827 0.0000 0.0000 0.0000
# 4 0.0000 0.0000 0.0000 9.4121 0.0000 0.0000
# 5 0.0000 0.0000 0.0000 0.0000 17.5518 0.0000
# 6 0.0000 0.0000 0.0000 0.0000 0.0000 30.2714
#
#
#
# Elastic Compliance Matrix: (Units=1/GPa)
#
#
# Indices 1 2 3 4 5 6 
#
# 1 0.009024 -0.007224 -0.005501 0.000000 0.000000 0.000000
# 2 -0.007224 0.037763 0.022590 0.000000 0.000000 0.000000
# 3 -0.005501 0.022590 0.045868 0.000000 0.000000 0.000000
# 4 0.000000 0.000000 0.000000 0.106246 0.000000 0.000000
# 5 0.000000 0.000000 0.000000 0.000000 0.056974 0.000000
# 6 0.000000 0.000000 0.000000 0.000000 0.000000 0.033034
#
#
# Mechanical properties :
#
#
# Convention : Reuss Voigt Hill
#
# Bulk Modulus (GPa) = 8.89782 24.75955 16.82868
# Shear Modulus (GPa) = 16.30574 24.41838 20.36206
#
# Velocity S-wave (km/s) = 2.83986 3.47524 3.17349
# Velocity P-wave (km/s) = 3.89280 5.32439 4.66385
#
# Compressibility (1/GPa) = 0.11238706
#
# Stress axis : x y z
#
# Youngs Moduli (GPa) = 110.81084 26.48127 21.80153
#
# Poissons Ratio (x) = 0.19129 0.11993
# Poissons Ratio (y) = 0.80047 -0.49251
# Poissons Ratio (z) = 0.60955 -0.59822
#
# Static dielectric constant tensor:
#      x y z
#    x 1.773210 0.000000 0.000000 
#    y 0.000000 1.773440 0.000000 
#    z 0.000000 0.000000 1.750110 
# 
# From -- ./inp_files/35232.got.cif
#   From: 2010.05.17/outbox.cif.g08.bks.cpg/sg53_18_cif.got.tgz:35232.got - 2010.06.03 12:45:16.
