data_PCOD9416855
_publ_section_title
;
Structure prediction by ZEFSAII (Michael W. Deem and Ramdas Pophale) SiO2 
 PCOD9416855
Probable space group: P M N A
;
_chemical_formula_sum "Si O2"
_cell_formula_units_Z 48
_cell_length_a 8.713219
_cell_length_b 32.208176
_cell_length_c 9.224576
_cell_angle_alpha 90.000000
_cell_angle_beta 90.000000
_cell_angle_gamma 90.000000
_cell_volume 2588.756330
_symmetry_space_group_name_H-M "P M N A"
_symmetry_group_IT_number 53
_symmetry_cell_setting 'orthorhombic'
loop_
_space_group_symop_operation_xyz
x,y,z
1/2-x,-y,1/2+z
x,-y,-z
1/2-x,y,1/2-z
-x,-y,-z
1/2+x,y,1/2-z
-x,y,z
1/2+x,-y,1/2+z
loop_
_atom_site_type_symbol
_atom_site_label
_atom_site_fract_x
_atom_site_fract_y
_atom_site_fract_z
Si Si1 0.314580 0.041020 0.588274
Si Si2 0.184385 0.795046 0.088802
Si Si3 0.683487 0.374300 0.086691
Si Si4 0.315744 0.282145 0.086690
Si Si5 0.185138 0.877207 0.911526
Si Si6 0.316227 0.541060 0.587719
O O1 0.250000 0.040643 0.750000
O O2 0.500000 0.041134 0.595755
O O3 0.265594 0.082293 0.501993
O O4 0.266795 0.000000 0.500000
O O5 0.250000 0.798397 0.250000
O O6 0.000000 0.793748 0.094090
O O7 0.246578 0.753890 0.011135
O O8 0.231346 0.835327 0.995157
O O9 0.750000 0.373478 0.250000
O O10 0.500000 0.378358 0.092213
O O11 0.721396 0.328514 0.027352
O O12 0.753651 0.415978 0.019431
O O13 0.250000 0.278677 0.250000
O O14 0.500000 0.278501 0.093464
O O15 0.250000 0.878028 0.750000
O O16 0.000000 0.877735 0.903760
O O17 0.271610 0.500000 0.500000
O O18 0.250000 0.537897 0.750000
O O19 0.500000 0.543408 0.594961
#
# Coordination Sequence:
#
# PCOD9416855 Si02
#       6
#     8   8   8   8   8   8
#     4  10  21  37  57  83 114 147 185 227 272 323
#     4  11  23  38  56  79 109 144 180 221 271 325
#     4   9  17  30  51  76 102 134 171 213 260 310
#     4  10  20  35  56  82 108 137 177 221 266 318
#     4  10  22  38  57  83 111 142 183 227 271 322
#     4  10  20  33  51  76 104 136 174 215 260 311
#
# _framework density 18.541723000000001
#
# number of rings (size 3 to 8) (size 9 to 14) (size 15 to 20)
#    0.000    2.000    0.000    4.500    0.000    7.000 
#    0.000    0.833    0.000    2.000    0.000    0.000 
#    0.000    0.000    0.000    0.000    0.000    0.000 
#
# Total GULP energy -267968.759524 kJ/mol
# GULP energy per Si atom -5582.682490 kJ/mol
# Density = 1.849952 g / cm^3
# Si number density = 18.541723 Si / 1000 Ang^3
#
#
#
# Elastic Constant Matrix: (Units=GPa)
#
#
# Indices 1 2 3 4 5 6 
#
# 1 45.4257 58.7282 34.8217 0.0000 0.0000 0.0000
# 2 58.7282 227.8936 101.4541 0.0000 0.0000 0.0000
# 3 34.8217 101.4541 129.2176 0.0000 0.0000 0.0000
# 4 0.0000 0.0000 0.0000 34.4864 0.0000 0.0000
# 5 0.0000 0.0000 0.0000 0.0000 31.3490 0.0000
# 6 0.0000 0.0000 0.0000 0.0000 0.0000 31.7718
#
#
#
# Elastic Compliance Matrix: (Units=1/GPa)
#
#
# Indices 1 2 3 4 5 6 
#
# 1 0.034019 -0.007203 -0.003512 0.000000 0.000000 0.000000
# 2 -0.007203 0.008271 -0.004553 0.000000 0.000000 0.000000
# 3 -0.003512 -0.004553 0.012260 0.000000 0.000000 0.000000
# 4 0.000000 0.000000 0.000000 0.028997 0.000000 0.000000
# 5 0.000000 0.000000 0.000000 0.000000 0.031899 0.000000
# 6 0.000000 0.000000 0.000000 0.000000 0.000000 0.031474
#
#
# Mechanical properties :
#
#
# Convention : Reuss Voigt Hill
#
# Bulk Modulus (GPa) = 41.64268 88.06055 64.85161
# Shear Modulus (GPa) = 26.95991 33.35696 30.15843
#
# Velocity S-wave (km/s) = 3.81729 4.24609 4.03739
# Velocity P-wave (km/s) = 6.47585 8.46376 7.53565
#
# Compressibility (1/GPa) = 0.02401383
#
# Stress axis : x y z
#
# Youngs Moduli (GPa) = 29.39565 120.90231 81.56657
#
# Poissons Ratio (x) = 0.87088 0.28645
# Poissons Ratio (y) = 0.21174 0.37136
# Poissons Ratio (z) = 0.10323 0.55046
#
# Static dielectric constant tensor:
#      x y z
#    x 1.626130 0.000000 0.000000 
#    y 0.000000 1.671480 0.000000 
#    z 0.000000 0.000000 1.587850 
# 
# From -- ./inp_files/6639.got.cif
#   From: 2010.05.17/outbox.cif.g08.bks.cpg/sg53_4_cif.got.tgz:6639.got - 2010.06.03 12:45:16.
