data_PCOD9416391
_publ_section_title
;
Structure prediction by ZEFSAII (Michael W. Deem and Ramdas Pophale) SiO2 
 PCOD9416391
Probable space group: P M N A
;
_chemical_formula_sum "Si O2"
_cell_formula_units_Z 64
_cell_length_a 7.776353
_cell_length_b 12.370775
_cell_length_c 31.502976
_cell_angle_alpha 90.000000
_cell_angle_beta 90.000000
_cell_angle_gamma 90.000000
_cell_volume 3030.570958
_symmetry_space_group_name_H-M "P M N A"
_symmetry_group_IT_number 53
_symmetry_cell_setting 'orthorhombic'
loop_
_space_group_symop_operation_xyz
x,y,z
1/2-x,-y,1/2+z
x,-y,-z
1/2-x,y,1/2-z
-x,-y,-z
1/2+x,y,1/2-z
-x,y,z
1/2+x,-y,1/2+z
loop_
_atom_site_type_symbol
_atom_site_label
_atom_site_fract_x
_atom_site_fract_y
_atom_site_fract_z
Si Si1 0.708468 0.132970 0.622988
Si Si2 0.210451 0.114546 0.123313
Si Si3 0.699863 0.276904 0.449068
Si Si4 0.699669 0.502172 0.086619
Si Si5 0.792962 0.726857 0.203246
Si Si6 0.793212 0.744974 0.796628
Si Si7 0.296626 0.279726 0.956738
Si Si8 0.800538 0.509312 0.817214
O O1 0.500000 0.132571 0.623879
O O2 0.769026 0.199285 0.664394
O O3 0.763087 0.195031 0.580595
O O4 0.768358 0.009194 0.623214
O O5 0.264805 0.183060 0.082142
O O6 0.267722 0.179421 0.165134
O O7 0.000000 0.112063 0.123447
O O8 0.500000 0.293903 0.438485
O O9 0.788173 0.390975 0.439033
O O10 0.716617 0.248905 0.498326
O O11 0.500000 0.524804 0.096399
O O12 0.768139 0.603570 0.059836
O O13 0.792131 0.490791 0.131710
O O14 0.750000 0.768720 0.250000
O O15 0.723964 0.604037 0.198507
O O16 0.000000 0.721898 0.199325
O O17 0.750000 0.786662 0.750000
O O18 0.723148 0.622482 0.801575
O O19 0.000000 0.739331 0.800795
O O20 0.500000 0.289468 0.964052
O O21 0.000000 0.509371 0.803796
#
# Coordination Sequence:
#
# PCOD9416391 Si02
#       8
#     8   8   8   8   8   8   8   8
#     4  10  21  40  63  84 110 153 202 240 281 340
#     4   9  20  39  61  84 113 149 195 246 284 327
#     4  11  22  39  63  87 115 154 194 234 284 347
#     4  11  22  36  58  87 120 151 184 233 293 345
#     4  10  21  35  57  86 116 150 191 236 285 342
#     4  10  20  36  57  84 118 150 188 237 286 342
#     4  11  24  40  58  87 122 151 185 239 295 342
#     4  10  19  35  58  84 114 151 194 234 282 347
#
# _framework density 21.118134000000001
#
# number of rings (size 3 to 8) (size 9 to 14) (size 15 to 20)
#    0.000    1.750    2.500    1.875    0.000    5.500 
#    0.000    4.375    0.000    0.000    0.000    0.000 
#    0.000    0.000    0.000    0.000    0.000    0.000 
#
# Total GULP energy -357687.351621 kJ/mol
# GULP energy per Si atom -5588.864869 kJ/mol
# Density = 2.107007 g / cm^3
# Si number density = 21.118134 Si / 1000 Ang^3
#
#
#
# Elastic Constant Matrix: (Units=GPa)
#
#
# Indices 1 2 3 4 5 6 
#
# 1 29.1975 0.8979 -15.4069 0.0000 0.0000 0.0000
# 2 0.8979 157.5739 75.8854 0.0000 0.0000 0.0000
# 3 -15.4069 75.8854 164.0291 0.0000 0.0000 0.0000
# 4 0.0000 0.0000 0.0000 2.0236 0.0000 0.0000
# 5 0.0000 0.0000 0.0000 0.0000 23.9569 0.0000
# 6 0.0000 0.0000 0.0000 0.0000 0.0000 -2.6272
#
#
#
# Elastic Compliance Matrix: (Units=1/GPa)
#
#
# Indices 1 2 3 4 5 6 
#
# 1 0.036732 -0.002407 0.004564 0.000000 0.000000 0.000000
# 2 -0.002407 0.008323 -0.004077 0.000000 0.000000 0.000000
# 3 0.004564 -0.004077 0.008411 0.000000 0.000000 0.000000
# 4 0.000000 0.000000 0.000000 0.494180 0.000000 0.000000
# 5 0.000000 0.000000 0.000000 0.000000 0.041742 0.000000
# 6 0.000000 0.000000 0.000000 0.000000 0.000000 -0.380636
#
#
# Mechanical properties :
#
#
# Convention : Reuss Voigt Hill
#
# Bulk Modulus (GPa) = 20.15077 52.61702 36.38389
# Shear Modulus (GPa) = 21.82137 23.96559 22.89348
#
# Velocity S-wave (km/s) = 3.21799 3.37239 3.29609
# Velocity P-wave (km/s) = 4.83424 6.33511 5.63487
#
# Compressibility (1/GPa) = 0.04962589
#
# Stress axis : x y z
#
# Youngs Moduli (GPa) = 27.22446 120.14568 118.88958
#
# Poissons Ratio (x) = 0.28921 -0.54258
# Poissons Ratio (y) = 0.06553 0.48468
# Poissons Ratio (z) = -0.12425 0.48980
#
# Static dielectric constant tensor:
#      x y z
#    x 1.774750 0.000000 0.000000 
#    y 0.000000 1.749280 0.000000 
#    z 0.000000 0.000000 1.726760 
# 
# From -- ./inp_files/38169.got.cif
#   From: 2010.05.17/outbox.cif.g08.bks.cpg/sg53_20_cif.got.tgz:38169.got - 2010.06.03 12:45:16.
