data_PCOD9416676
_publ_section_title
;
Structure prediction by ZEFSAII (Michael W. Deem and Ramdas Pophale) SiO2 
 PCOD9416676
Probable space group: P M N A
;
_chemical_formula_sum "Si O2"
_cell_formula_units_Z 60
_cell_length_a 23.103989
_cell_length_b 6.613659
_cell_length_c 21.914050
_cell_angle_alpha 90.000000
_cell_angle_beta 90.000000
_cell_angle_gamma 90.000000
_cell_volume 3348.508582
_symmetry_space_group_name_H-M "P M N A"
_symmetry_group_IT_number 53
_symmetry_cell_setting 'orthorhombic'
loop_
_space_group_symop_operation_xyz
x,y,z
1/2-x,-y,1/2+z
x,-y,-z
1/2-x,y,1/2-z
-x,-y,-z
1/2+x,y,1/2-z
-x,y,z
1/2+x,-y,1/2+z
loop_
_atom_site_type_symbol
_atom_site_label
_atom_site_fract_x
_atom_site_fract_y
_atom_site_fract_z
Si Si1 0.244270 0.446266 0.429213
Si Si2 0.250000 0.575792 0.750000
Si Si3 0.567993 0.345670 0.757331
Si Si4 0.564511 0.697699 0.668286
Si Si5 0.878354 0.435871 0.931054
Si Si6 0.244136 0.080385 0.350440
Si Si7 0.866796 0.094151 0.848404
Si Si8 0.672643 0.301721 0.830041
O O1 0.235179 0.500000 0.500000
O O2 0.312006 0.498410 0.415770
O O3 0.201498 0.582687 0.387581
O O4 0.236029 0.208153 0.412741
O O5 0.199927 0.424474 0.727696
O O6 0.241939 0.734209 0.804844
O O7 0.500000 0.290351 0.760576
O O8 0.570809 0.573232 0.730719
O O9 0.602454 0.214756 0.706454
O O10 0.604199 0.322135 0.819329
O O11 0.500000 0.782076 0.665161
O O12 0.576554 0.544096 0.613333
O O13 0.610162 0.870705 0.658755
O O14 0.882256 0.201652 0.912210
O O15 0.888830 0.500000 0.000000
O O16 0.297848 0.926884 0.347455
O O17 0.191372 0.933827 0.332000
#
# Coordination Sequence:
#
# PCOD9416676 Si02
#       8
#     8   4   8   8   8   8   8   8
#     4  10  22  39  55  82 115 143 183 241 291 334
#     4  10  20  30  52  84 120 136 176 230 280 334
#     4  10  22  37  56  81 117 149 182 232 282 341
#     4  10  21  37  55  78 109 152 192 228 277 331
#     4  10  21  37  52  74 110 148 191 244 284 321
#     4  11  20  33  57  85 110 152 180 229 282 343
#     4  11  19  34  55  80 109 149 190 229 282 336
#     4  11  21  35  56  84 111 145 187 227 283 349
#
# _framework density 17.918426
#
# number of rings (size 3 to 8) (size 9 to 14) (size 15 to 20)
#    0.000    1.600    2.667    3.200    3.733    2.933 
#    0.000    0.667    0.000    0.400    0.000    0.933 
#    0.000    0.000    0.000    0.000    0.000    0.000 
#
# Total GULP energy -334360.325197 kJ/mol
# GULP energy per Si atom -5572.672087 kJ/mol
# Density = 1.787764 g / cm^3
# Si number density = 17.918426 Si / 1000 Ang^3
#
#
#
# Elastic Constant Matrix: (Units=GPa)
#
#
# Indices 1 2 3 4 5 6 
#
# 1 82.2534 19.2877 34.1090 0.0000 0.0000 0.0000
# 2 19.2877 70.0527 11.7812 0.0000 0.0000 0.0000
# 3 34.1090 11.7812 60.0860 0.0000 0.0000 0.0000
# 4 0.0000 0.0000 0.0000 16.7763 0.0000 0.0000
# 5 0.0000 0.0000 0.0000 0.0000 16.9224 0.0000
# 6 0.0000 0.0000 0.0000 0.0000 0.0000 16.2675
#
#
#
# Elastic Compliance Matrix: (Units=1/GPa)
#
#
# Indices 1 2 3 4 5 6 
#
# 1 0.016516 -0.003072 -0.008773 0.000000 0.000000 0.000000
# 2 -0.003072 0.015333 -0.001263 0.000000 0.000000 0.000000
# 3 -0.008773 -0.001263 0.021871 0.000000 0.000000 0.000000
# 4 0.000000 0.000000 0.000000 0.059608 0.000000 0.000000
# 5 0.000000 0.000000 0.000000 0.000000 0.059093 0.000000
# 6 0.000000 0.000000 0.000000 0.000000 0.000000 0.061472
#
#
# Mechanical properties :
#
#
# Convention : Reuss Voigt Hill
#
# Bulk Modulus (GPa) = 36.35803 38.08308 37.22055
# Shear Modulus (GPa) = 18.56825 19.80752 19.18789
#
# Velocity S-wave (km/s) = 3.22260 3.32840 3.27593
# Velocity P-wave (km/s) = 5.84652 6.00589 5.92674
#
# Compressibility (1/GPa) = 0.02750424
#
# Stress axis : x y z
#
# Youngs Moduli (GPa) = 60.54728 65.21841 45.72325
#
# Poissons Ratio (x) = 0.20035 0.40114
# Poissons Ratio (y) = 0.18600 0.05773
# Poissons Ratio (z) = 0.53120 0.08234
#
# Static dielectric constant tensor:
#      x y z
#    x 1.620770 0.000000 0.000000 
#    y 0.000000 1.646050 0.000000 
#    z 0.000000 0.000000 1.643640 
# 
# From -- ./inp_files/33209.got.cif
#   From: 2010.05.17/outbox.cif.g08.bks.cpg/sg53_17_cif.got.tgz:33209.got - 2010.06.03 12:45:16.
