data_PCOD9416565
_publ_section_title
;
Structure prediction by ZEFSAII (Michael W. Deem and Ramdas Pophale) SiO2 
 PCOD9416565
Probable space group: P M N A
;
_chemical_formula_sum "Si O2"
_cell_formula_units_Z 36
_cell_length_a 14.732919
_cell_length_b 7.379256
_cell_length_c 14.975817
_cell_angle_alpha 90.000000
_cell_angle_beta 90.000000
_cell_angle_gamma 90.000000
_cell_volume 1628.140587
_symmetry_space_group_name_H-M "P M N A"
_symmetry_group_IT_number 53
_symmetry_cell_setting 'orthorhombic'
loop_
_space_group_symop_operation_xyz
x,y,z
1/2-x,-y,1/2+z
x,-y,-z
1/2-x,y,1/2-z
-x,-y,-z
1/2+x,y,1/2-z
-x,y,z
1/2+x,-y,1/2+z
loop_
_atom_site_type_symbol
_atom_site_label
_atom_site_fract_x
_atom_site_fract_y
_atom_site_fract_z
Si Si1 0.000000 0.795406 0.226143
Si Si2 0.194443 0.119393 0.833731
Si Si3 0.304298 0.775191 0.008715
Si Si4 0.294713 0.309678 0.343619
Si Si5 0.500000 0.441651 0.392423
Si Si6 0.000000 0.183631 0.560908
O O1 0.089505 0.877449 0.184999
O O2 0.000000 0.594684 0.185215
O O3 0.000000 0.835285 0.331688
O O4 0.250000 0.192431 0.750000
O O5 0.225580 0.235455 0.917528
O O6 0.215608 0.908423 0.841632
O O7 0.404966 0.722884 0.038363
O O8 0.273178 0.656108 0.925434
O O9 0.309787 0.000000 0.000000
O O10 0.250000 0.376693 0.250000
O O11 0.400292 0.350387 0.370270
O O12 0.500000 0.500000 0.500000
O O13 0.000000 0.000000 0.500000
#
# Coordination Sequence:
#
# PCOD9416565 Si02
#       6
#     4   8   8   8   4   4
#     4  12  23  37  66  98 130 172 211 279 334 399
#     4  10  19  36  65  98 126 162 216 273 338 390
#     4   9  18  35  60  96 129 158 209 276 334 388
#     4  10  23  42  66  91 128 177 220 268 326 404
#     4  12  27  47  62  92 138 186 226 269 330 403
#     4  10  20  34  61 103 136 156 209 291 350 391
#
# _framework density 22.111111999999999
#
# number of rings (size 3 to 8) (size 9 to 14) (size 15 to 20)
#    0.000    1.778    2.222    2.000    3.111    1.778 
#    4.000    4.444    0.000    1.333    0.000    0.000 
#    0.000    0.000    0.000    0.000    0.000    0.000 
#
# Total GULP energy -200418.636690 kJ/mol
# GULP energy per Si atom -5567.184352 kJ/mol
# Density = 2.206079 g / cm^3
# Si number density = 22.111112 Si / 1000 Ang^3
#
#
#
# Elastic Constant Matrix: (Units=GPa)
#
#
# Indices 1 2 3 4 5 6 
#
# 1 170.5494 -12.9291 83.8635 0.0000 0.0000 0.0000
# 2 -12.9291 54.6579 20.8405 0.0000 0.0000 0.0000
# 3 83.8635 20.8405 169.1840 0.0000 0.0000 0.0000
# 4 0.0000 0.0000 0.0000 -7.9819 0.0000 0.0000
# 5 0.0000 0.0000 0.0000 0.0000 47.7613 0.0000
# 6 0.0000 0.0000 0.0000 0.0000 0.0000 -246.0494
#
#
#
# Elastic Compliance Matrix: (Units=1/GPa)
#
#
# Indices 1 2 3 4 5 6 
#
# 1 0.008432 0.003765 -0.004644 0.000000 0.000000 0.000000
# 2 0.003765 0.020879 -0.004438 0.000000 0.000000 0.000000
# 3 -0.004644 -0.004438 0.008759 0.000000 0.000000 0.000000
# 4 0.000000 0.000000 0.000000 -0.125283 0.000000 0.000000
# 5 0.000000 0.000000 0.000000 0.000000 0.020937 0.000000
# 6 0.000000 0.000000 0.000000 0.000000 0.000000 -0.004064
#
#
# Mechanical properties :
#
#
# Convention : Reuss Voigt Hill
#
# Bulk Modulus (GPa) = 36.44765 64.21569 50.33167
# Shear Modulus (GPa) = -98.89088 -21.07957 -59.98522
#
# Velocity S-wave (km/s) = -6.69489 -3.09098 -5.21420
# Velocity P-wave (km/s) = 6.57590 4.04554 3.66579
#
# Compressibility (1/GPa) = 0.02743661
#
# Stress axis : x y z
#
# Youngs Moduli (GPa) = 118.59291 47.89615 114.16520
#
# Poissons Ratio (x) = -0.18034 0.53014
# Poissons Ratio (y) = -0.44652 0.50669
# Poissons Ratio (z) = 0.55070 0.21257
#
# Static dielectric constant tensor:
#      x y z
#    x 1.918390 0.000000 0.000000 
#    y 0.000000 1.997270 0.000000 
#    z 0.000000 0.000000 1.467830 
# 
# From -- ./inp_files/22352.got.cif
#   From: 2010.05.17/outbox.cif.g08.bks.cpg/sg53_12_cif.got.tgz:22352.got - 2010.06.03 12:45:16.
