data_PCOD9416973
_publ_section_title
;
Structure prediction by ZEFSAII (Michael W. Deem and Ramdas Pophale) SiO2 
 PCOD9416973
Probable space group: P M N A
;
_chemical_formula_sum "Si O2"
_cell_formula_units_Z 48
_cell_length_a 8.923946
_cell_length_b 12.222502
_cell_length_c 25.866055
_cell_angle_alpha 90.000000
_cell_angle_beta 90.000000
_cell_angle_gamma 90.000000
_cell_volume 2821.286868
_symmetry_space_group_name_H-M "P M N A"
_symmetry_group_IT_number 53
_symmetry_cell_setting 'orthorhombic'
loop_
_space_group_symop_operation_xyz
x,y,z
1/2-x,-y,1/2+z
x,-y,-z
1/2-x,y,1/2-z
-x,-y,-z
1/2+x,y,1/2-z
-x,y,z
1/2+x,-y,1/2+z
loop_
_atom_site_type_symbol
_atom_site_label
_atom_site_fract_x
_atom_site_fract_y
_atom_site_fract_z
Si Si1 0.329354 0.850185 0.471441
Si Si2 0.326669 0.331375 0.618454
Si Si3 0.823174 0.219717 0.426081
Si Si4 0.180842 0.528479 0.559322
Si Si5 0.677373 0.017187 0.381466
Si Si6 0.678984 0.160492 0.806640
O O1 0.500000 0.857372 0.492372
O O2 0.324671 0.751023 0.430538
O O3 0.215389 0.824553 0.516734
O O4 0.298375 0.956765 0.436857
O O5 0.500000 0.346021 0.633719
O O6 0.253882 0.442894 0.598524
O O7 0.237201 0.268005 0.663010
O O8 0.777883 0.347015 0.426682
O O9 0.000000 0.212651 0.416523
O O10 0.736578 0.139969 0.387084
O O11 0.225683 0.500000 0.500000
O O12 0.000000 0.519047 0.561457
O O13 0.500000 0.012653 0.371208
O O14 0.762622 0.943650 0.339555
O O15 0.750000 0.157369 0.750000
O O16 0.500000 0.159967 0.804358
#
# Coordination Sequence:
#
# PCOD9416973 Si02
#       6
#     8   8   8   8   8   8
#     4   9  18  31  47  70 104 143 179 222 267 316
#     4  10  20  34  54  81 110 143 186 228 272 321
#     4  11  21  31  48  74 107 148 189 223 265 319
#     4  10  20  34  50  74 111 153 192 229 268 318
#     4  10  21  36  52  76 108 140 179 224 272 324
#     4  11  22  39  63  86 109 136 173 223 279 330
#
# _framework density 17.013513
#
# number of rings (size 3 to 8) (size 9 to 14) (size 15 to 20)
#    0.000    1.833    1.667    4.500    0.000    7.000 
#    0.000    0.000    0.000    1.000    0.000    0.000 
#    0.000    0.000    0.000    0.000    0.000    0.000 
#
# Total GULP energy -268002.454218 kJ/mol
# GULP energy per Si atom -5583.384463 kJ/mol
# Density = 1.697479 g / cm^3
# Si number density = 17.013513 Si / 1000 Ang^3
#
#
#
# Elastic Constant Matrix: (Units=GPa)
#
#
# Indices 1 2 3 4 5 6 
#
# 1 98.5708 71.0348 54.2274 0.0000 0.0000 0.0000
# 2 71.0348 154.8261 53.1593 0.0000 0.0000 0.0000
# 3 54.2274 53.1593 81.2745 0.0000 0.0000 0.0000
# 4 0.0000 0.0000 0.0000 8.8910 0.0000 0.0000
# 5 0.0000 0.0000 0.0000 0.0000 27.4849 0.0000
# 6 0.0000 0.0000 0.0000 0.0000 0.0000 23.6556
#
#
#
# Elastic Compliance Matrix: (Units=1/GPa)
#
#
# Indices 1 2 3 4 5 6 
#
# 1 0.019285 -0.005713 -0.009131 0.000000 0.000000 0.000000
# 2 -0.005713 0.010022 -0.002743 0.000000 0.000000 0.000000
# 3 -0.009131 -0.002743 0.020190 0.000000 0.000000 0.000000
# 4 0.000000 0.000000 0.000000 0.112473 0.000000 0.000000
# 5 0.000000 0.000000 0.000000 0.000000 0.036384 0.000000
# 6 0.000000 0.000000 0.000000 0.000000 0.000000 0.042273
#
#
# Mechanical properties :
#
#
# Convention : Reuss Voigt Hill
#
# Bulk Modulus (GPa) = 69.81463 76.83493 73.32478
# Shear Modulus (GPa) = 17.82050 22.42297 20.12173
#
# Velocity S-wave (km/s) = 3.23992 3.63430 3.44276
# Velocity P-wave (km/s) = 7.42428 7.92906 7.68082
#
# Compressibility (1/GPa) = 0.01432365
#
# Stress axis : x y z
#
# Youngs Moduli (GPa) = 51.85320 99.78106 49.52895
#
# Poissons Ratio (x) = 0.57007 0.45223
# Poissons Ratio (y) = 0.29625 0.13587
# Poissons Ratio (z) = 0.47345 0.27372
#
# Static dielectric constant tensor:
#      x y z
#    x 1.571960 0.000000 0.000000 
#    y 0.000000 1.590130 0.000000 
#    z 0.000000 0.000000 1.553490 
# 
# From -- ./inp_files/33886.got.cif
#   From: 2010.05.17/outbox.cif.g08.bks.cpg/sg53_17_cif.got.tgz:33886.got - 2010.06.03 12:45:16.
