data_PCOD9416373
_publ_section_title
;
Structure prediction by ZEFSAII (Michael W. Deem and Ramdas Pophale) SiO2 
 PCOD9416373
Probable space group: P M N A
;
_chemical_formula_sum "Si O2"
_cell_formula_units_Z 64
_cell_length_a 17.786761
_cell_length_b 9.219718
_cell_length_c 20.583471
_cell_angle_alpha 90.000000
_cell_angle_beta 90.000000
_cell_angle_gamma 90.000000
_cell_volume 3375.461191
_symmetry_space_group_name_H-M "P M N A"
_symmetry_group_IT_number 53
_symmetry_cell_setting 'orthorhombic'
loop_
_space_group_symop_operation_xyz
x,y,z
1/2-x,-y,1/2+z
x,-y,-z
1/2-x,y,1/2-z
-x,-y,-z
1/2+x,y,1/2-z
-x,y,z
1/2+x,-y,1/2+z
loop_
_atom_site_type_symbol
_atom_site_label
_atom_site_fract_x
_atom_site_fract_y
_atom_site_fract_z
Si Si1 0.914516 0.807912 0.820929
Si Si2 0.368835 0.509518 0.351579
Si Si3 0.084307 0.294828 0.972889
Si Si4 0.343470 0.042643 0.597729
Si Si5 0.764958 0.619223 0.950261
Si Si6 0.836541 0.774500 0.230133
Si Si7 0.410276 0.022473 0.192262
Si Si8 0.315615 0.072755 0.062991
O O1 0.908754 0.637462 0.830379
O O2 0.887774 0.866431 0.750729
O O3 0.000000 0.858744 0.826371
O O4 0.870613 0.886592 0.878710
O O5 0.408886 0.601053 0.409272
O O6 0.288701 0.458886 0.382890
O O7 0.361501 0.614285 0.289932
O O8 0.102842 0.131402 0.950067
O O9 0.000000 0.307452 0.000085
O O10 0.153822 0.338703 0.018268
O O11 0.342345 0.136419 0.663181
O O12 0.259602 0.024844 0.571984
O O13 0.713738 0.761779 0.944969
O O14 0.732080 0.500000 0.000000
O O15 0.750000 0.774548 0.250000
O O16 0.885294 0.863674 0.282006
O O17 0.500000 0.029623 0.183620
O O18 0.366162 0.059765 0.126890
O O19 0.353773 0.000000 0.000000
#
# Coordination Sequence:
#
# PCOD9416373 Si02
#       8
#     8   8   8   8   8   8   8   8
#     4  10  20  35  55  86 123 155 191 239 294 358
#     4  10  21  33  55  86 123 161 202 224 296 356
#     4  10  20  35  53  80 125 165 199 238 283 344
#     4  10  19  35  57  86 110 152 196 239 290 346
#     4  10  22  37  53  85 124 164 203 239 287 350
#     4  10  20  37  62  88 118 150 189 237 295 355
#     4  10  24  42  63  89 117 149 198 256 307 351
#     4  12  22  40  65  82 113 154 206 257 297 348
#
# _framework density 18.960374000000002
#
# number of rings (size 3 to 8) (size 9 to 14) (size 15 to 20)
#    0.000    1.750    3.750    0.750    0.000    7.500 
#    0.000    0.625    0.000    0.375    0.000    0.000 
#    0.000    0.000    0.000    0.000    0.000    0.000 
#
# Total GULP energy -357286.933503 kJ/mol
# GULP energy per Si atom -5582.608336 kJ/mol
# Density = 1.891722 g / cm^3
# Si number density = 18.960374 Si / 1000 Ang^3
#
#
#
# Elastic Constant Matrix: (Units=GPa)
#
#
# Indices 1 2 3 4 5 6 
#
# 1 54.6305 32.7561 31.8477 0.0000 0.0000 0.0000
# 2 32.7561 123.3135 49.3028 0.0000 0.0000 0.0000
# 3 31.8477 49.3028 96.2459 0.0000 0.0000 0.0000
# 4 0.0000 0.0000 0.0000 20.2344 0.0000 0.0000
# 5 0.0000 0.0000 0.0000 0.0000 17.9922 0.0000
# 6 0.0000 0.0000 0.0000 0.0000 0.0000 -4.4670
#
#
#
# Elastic Compliance Matrix: (Units=1/GPa)
#
#
# Indices 1 2 3 4 5 6 
#
# 1 0.024192 -0.004056 -0.005927 0.000000 0.000000 0.000000
# 2 -0.004056 0.010878 -0.004230 0.000000 0.000000 0.000000
# 3 -0.005927 -0.004230 0.014518 0.000000 0.000000 0.000000
# 4 0.000000 0.000000 0.000000 0.049421 0.000000 0.000000
# 5 0.000000 0.000000 0.000000 0.000000 0.055580 0.000000
# 6 0.000000 0.000000 0.000000 0.000000 0.000000 -0.223862
#
#
# Mechanical properties :
#
#
# Convention : Reuss Voigt Hill
#
# Bulk Modulus (GPa) = 47.25651 55.77812 51.51732
# Shear Modulus (GPa) = -147.96779 17.43746 -65.26516
#
# Velocity S-wave (km/s) = -8.84364 3.03591 -5.87338
# Velocity P-wave (km/s) = 8.90517 6.46306 4.33191
#
# Compressibility (1/GPa) = 0.02116110
#
# Stress axis : x y z
#
# Youngs Moduli (GPa) = 41.33522 91.92662 68.87829
#
# Poissons Ratio (x) = 0.37290 0.40826
# Poissons Ratio (y) = 0.16767 0.29137
# Poissons Ratio (z) = 0.24501 0.38887
#
# Static dielectric constant tensor:
#      x y z
#    x 1.629070 0.000000 0.000000 
#    y 0.000000 1.707010 0.000000 
#    z 0.000000 0.000000 1.696890 
# 
# From -- ./inp_files/32847.got.cif
#   From: 2010.05.17/outbox.cif.g08.bks.cpg/sg53_17_cif.got.tgz:32847.got - 2010.06.03 12:45:16.
