data_PCOD9416270
_publ_section_title
;
Structure prediction by ZEFSAII (Michael W. Deem and Ramdas Pophale) SiO2 
 PCOD9416270
Probable space group: P M N A
;
_chemical_formula_sum "Si O2"
_cell_formula_units_Z 64
_cell_length_a 8.662312
_cell_length_b 22.206800
_cell_length_c 18.173048
_cell_angle_alpha 90.000000
_cell_angle_beta 90.000000
_cell_angle_gamma 90.000000
_cell_volume 3495.808041
_symmetry_space_group_name_H-M "P M N A"
_symmetry_group_IT_number 53
_symmetry_cell_setting 'orthorhombic'
loop_
_space_group_symop_operation_xyz
x,y,z
1/2-x,-y,1/2+z
x,-y,-z
1/2-x,y,1/2-z
-x,-y,-z
1/2+x,y,1/2-z
-x,y,z
1/2+x,-y,1/2+z
loop_
_atom_site_type_symbol
_atom_site_label
_atom_site_fract_x
_atom_site_fract_y
_atom_site_fract_z
Si Si1 0.312339 0.066124 0.978756
Si Si2 0.684405 0.503791 0.169885
Si Si3 0.685606 0.611497 0.927145
Si Si4 0.184446 0.722681 0.832326
Si Si5 0.685360 0.243958 0.598853
Si Si6 0.814915 0.128001 0.672408
Si Si7 0.814166 0.810544 0.551484
Si Si8 0.684800 0.620014 0.408111
O O1 0.500000 0.064517 0.979205
O O2 0.266266 0.086898 0.896883
O O3 0.268863 0.120414 0.033746
O O4 0.255615 0.000000 0.000000
O O5 0.750000 0.489118 0.250000
O O6 0.500000 0.506323 0.173665
O O7 0.726772 0.451185 0.112589
O O8 0.747553 0.567435 0.141889
O O9 0.500000 0.616577 0.930093
O O10 0.751832 0.666105 0.878832
O O11 0.752057 0.613201 0.009115
O O12 0.250000 0.720919 0.750000
O O13 0.241518 0.781707 0.876141
O O14 0.000000 0.720548 0.830853
O O15 0.500000 0.238879 0.594744
O O16 0.751088 0.194508 0.654463
O O17 0.755834 0.227462 0.519066
O O18 0.726000 0.312548 0.617972
O O19 0.750000 0.106688 0.750000
O O20 0.000000 0.130032 0.674175
O O21 0.000000 0.806756 0.554818
O O22 0.500000 0.615371 0.409329
#
# Coordination Sequence:
#
# PCOD9416270 Si02
#       8
#     8   8   8   8   8   8   8   8
#     4   8  16  33  58  86 115 152 195 234 280 338
#     4  11  25  42  59  81 111 149 190 240 293 347
#     4  11  23  40  62  86 113 147 191 239 290 349
#     4  12  24  38  58  85 116 151 191 239 292 344
#     4  10  20  35  56  83 113 147 187 231 280 337
#     4  10  20  34  56  84 115 153 192 238 290 339
#     4  10  19  34  58  85 115 150 186 230 281 336
#     4  11  23  38  60  87 114 150 189 234 287 344
#
# _framework density 18.307641
#
# number of rings (size 3 to 8) (size 9 to 14) (size 15 to 20)
#    0.000    1.625    1.250    4.875    0.000    6.500 
#    0.000    0.625    0.000   15.000    0.000    0.000 
#    0.000    0.000    0.000    0.000    0.000    0.000 
#
# Total GULP energy -357598.322211 kJ/mol
# GULP energy per Si atom -5587.473785 kJ/mol
# Density = 1.826597 g / cm^3
# Si number density = 18.307641 Si / 1000 Ang^3
#
#
#
# Elastic Constant Matrix: (Units=GPa)
#
#
# Indices 1 2 3 4 5 6 
#
# 1 42.9898 25.6057 1.1629 0.0000 0.0000 0.0000
# 2 25.6057 114.9394 7.4780 0.0000 0.0000 0.0000
# 3 1.1629 7.4780 33.1822 0.0000 0.0000 0.0000
# 4 0.0000 0.0000 0.0000 16.7801 0.0000 0.0000
# 5 0.0000 0.0000 0.0000 0.0000 33.9618 0.0000
# 6 0.0000 0.0000 0.0000 0.0000 0.0000 -1.6292
#
#
#
# Elastic Compliance Matrix: (Units=1/GPa)
#
#
# Indices 1 2 3 4 5 6 
#
# 1 0.026826 -0.006003 0.000413 0.000000 0.000000 0.000000
# 2 -0.006003 0.010173 -0.002082 0.000000 0.000000 0.000000
# 3 0.000413 -0.002082 0.030591 0.000000 0.000000 0.000000
# 4 0.000000 0.000000 0.000000 0.059594 0.000000 0.000000
# 5 0.000000 0.000000 0.000000 0.000000 0.029445 0.000000
# 6 0.000000 0.000000 0.000000 0.000000 0.000000 -0.613816
#
#
# Mechanical properties :
#
#
# Convention : Reuss Voigt Hill
#
# Bulk Modulus (GPa) = 19.14053 28.84495 23.99274
# Shear Modulus (GPa) = -11.78059 20.28021 4.24981
#
# Velocity S-wave (km/s) = -2.53944 3.33189 1.52524
# Velocity P-wave (km/s) = 1.37087 5.53099 4.02934
#
# Compressibility (1/GPa) = 0.05224515
#
# Stress axis : x y z
#
# Youngs Moduli (GPa) = 37.27776 98.29923 32.68887
#
# Poissons Ratio (x) = 0.59008 -0.01349
# Poissons Ratio (y) = 0.22378 0.06807
# Poissons Ratio (z) = -0.01538 0.20468
#
# Static dielectric constant tensor:
#      x y z
#    x 1.613330 0.000000 0.000000 
#    y 0.000000 1.631200 0.000000 
#    z 0.000000 0.000000 1.609820 
# 
# From -- ./inp_files/26953.got.cif
#   From: 2010.05.17/outbox.cif.g08.bks.cpg/sg53_14_cif.got.tgz:26953.got - 2010.06.03 12:45:16.
