data_PCOD9416066
_publ_section_title
;
Structure prediction by ZEFSAII (Michael W. Deem and Ramdas Pophale) SiO2 
 PCOD9416066
Probable space group: P M N A
;
_chemical_formula_sum "Si O2"
_cell_formula_units_Z 64
_cell_length_a 9.091717
_cell_length_b 15.262156
_cell_length_c 24.669538
_cell_angle_alpha 90.000000
_cell_angle_beta 90.000000
_cell_angle_gamma 90.000000
_cell_volume 3423.125435
_symmetry_space_group_name_H-M "P M N A"
_symmetry_group_IT_number 53
_symmetry_cell_setting 'orthorhombic'
loop_
_space_group_symop_operation_xyz
x,y,z
1/2-x,-y,1/2+z
x,-y,-z
1/2-x,y,1/2-z
-x,-y,-z
1/2+x,y,1/2-z
-x,y,z
1/2+x,-y,1/2+z
loop_
_atom_site_type_symbol
_atom_site_label
_atom_site_fract_x
_atom_site_fract_y
_atom_site_fract_z
Si Si1 0.674765 0.886462 0.596387
Si Si2 0.331513 0.868747 0.013685
Si Si3 0.823315 0.542237 0.808256
Si Si4 0.325576 0.945661 0.133461
Si Si5 0.323582 0.317092 0.396132
Si Si6 0.676589 0.213027 0.692854
Si Si7 0.176082 0.622354 0.117111
Si Si8 0.329742 0.341668 0.992615
O O1 0.500000 0.897327 0.601551
O O2 0.724489 0.899387 0.533919
O O3 0.714852 0.785563 0.609272
O O4 0.758945 0.957198 0.632618
O O5 0.500000 0.890737 0.997790
O O6 0.302449 0.908816 0.072361
O O7 0.320940 0.763572 0.017124
O O8 0.750000 0.541350 0.750000
O O9 0.781965 0.626822 0.843842
O O10 0.782448 0.456943 0.843337
O O11 0.000000 0.541481 0.802095
O O12 0.500000 0.945608 0.144243
O O13 0.242499 0.879241 0.173140
O O14 0.500000 0.322156 0.402962
O O15 0.249750 0.355718 0.450152
O O16 0.750000 0.237343 0.750000
O O17 0.500000 0.208860 0.698103
O O18 0.712496 0.286846 0.647835
O O19 0.252899 0.615627 0.059109
O O20 0.000000 0.620283 0.109164
O O21 0.500000 0.366676 0.995875
#
# Coordination Sequence:
#
# PCOD9416066 Si02
#       8
#     8   8   8   8   8   8   8   8
#     4  10  20  33  53  81 111 146 189 234 279 332
#     4   9  18  32  50  77 112 149 184 225 277 332
#     4  10  22  41  63  86 111 146 191 237 286 339
#     4  11  21  35  54  78 111 149 188 231 279 332
#     4   9  20  39  59  81 116 155 190 235 289 343
#     4  11  23  38  57  81 112 149 190 235 283 340
#     4  10  21  37  59  86 116 149 185 228 284 347
#     4  10  19  33  56  86 119 153 189 231 280 338
#
# _framework density 18.696363000000002
#
# number of rings (size 3 to 8) (size 9 to 14) (size 15 to 20)
#    0.000    2.000    1.250    2.250    0.000    5.500 
#    0.000    3.125    0.000    1.500    0.000    0.000 
#    0.000    0.000    0.000    0.000    0.000    0.000 
#
# Total GULP energy -357505.307603 kJ/mol
# GULP energy per Si atom -5586.020431 kJ/mol
# Density = 1.865381 g / cm^3
# Si number density = 18.696363 Si / 1000 Ang^3
#
#
#
# Elastic Constant Matrix: (Units=GPa)
#
#
# Indices 1 2 3 4 5 6 
#
# 1 28.9214 26.0413 9.4256 0.0000 0.0000 0.0000
# 2 26.0413 63.3488 34.3639 0.0000 0.0000 0.0000
# 3 9.4256 34.3639 30.7175 0.0000 0.0000 0.0000
# 4 0.0000 0.0000 0.0000 24.0970 0.0000 0.0000
# 5 0.0000 0.0000 0.0000 0.0000 36.0797 0.0000
# 6 0.0000 0.0000 0.0000 0.0000 0.0000 33.5756
#
#
#
# Elastic Compliance Matrix: (Units=1/GPa)
#
#
# Indices 1 2 3 4 5 6 
#
# 1 0.061025 -0.037971 0.023754 0.000000 0.000000 0.000000
# 2 -0.037971 0.063779 -0.059698 0.000000 0.000000 0.000000
# 3 0.023754 -0.059698 0.092051 0.000000 0.000000 0.000000
# 4 0.000000 0.000000 0.000000 0.041499 0.000000 0.000000
# 5 0.000000 0.000000 0.000000 0.000000 0.027716 0.000000
# 6 0.000000 0.000000 0.000000 0.000000 0.000000 0.029784
#
#
# Mechanical properties :
#
#
# Convention : Reuss Voigt Hill
#
# Bulk Modulus (GPa) = 14.48802 29.18327 21.83565
# Shear Modulus (GPa) = 10.27341 22.29426 16.28384
#
# Velocity S-wave (km/s) = 2.34666 3.45692 2.95441
# Velocity P-wave (km/s) = 3.88694 5.61931 4.83141
#
# Compressibility (1/GPa) = 0.06902252
#
# Stress axis : x y z
#
# Youngs Moduli (GPa) = 16.38670 15.67925 10.86354
#
# Poissons Ratio (x) = 0.59536 -0.25805
# Poissons Ratio (y) = 0.62223 0.64853
# Poissons Ratio (z) = -0.38924 0.93602
#
# Static dielectric constant tensor:
#      x y z
#    x 1.626030 0.000000 0.000000 
#    y 0.000000 1.671760 0.000000 
#    z 0.000000 0.000000 1.607640 
# 
# From -- ./inp_files/34176.got.cif
#   From: 2010.05.17/outbox.cif.g08.bks.cpg/sg53_18_cif.got.tgz:34176.got - 2010.06.03 12:45:16.
