data_PCOD9416636
_publ_section_title
;
Structure prediction by ZEFSAII (Michael W. Deem and Ramdas Pophale) SiO2 
 PCOD9416636
Probable space group: P M N A
;
_chemical_formula_sum "Si O2"
_cell_formula_units_Z 32
_cell_length_a 26.372514
_cell_length_b 6.867984
_cell_length_c 7.462198
_cell_angle_alpha 90.000000
_cell_angle_beta 90.000000
_cell_angle_gamma 90.000000
_cell_volume 1351.598106
_symmetry_space_group_name_H-M "P M N A"
_symmetry_group_IT_number 53
_symmetry_cell_setting 'orthorhombic'
loop_
_space_group_symop_operation_xyz
x,y,z
1/2-x,-y,1/2+z
x,-y,-z
1/2-x,y,1/2-z
-x,-y,-z
1/2+x,y,1/2-z
-x,y,z
1/2+x,-y,1/2+z
loop_
_atom_site_type_symbol
_atom_site_label
_atom_site_fract_x
_atom_site_fract_y
_atom_site_fract_z
Si Si1 0.132613 0.811465 0.588245
Si Si2 0.307759 0.470640 0.711646
Si Si3 0.943181 0.232412 0.139540
Si Si4 0.913030 0.679902 0.246156
O O1 0.172213 0.648804 0.660358
O O2 0.101705 0.879867 0.762838
O O3 0.148245 0.685816 0.236093
O O4 0.157628 0.000000 0.500000
O O5 0.310650 0.500000 0.500000
O O6 0.250000 0.420960 0.750000
O O7 0.430782 0.543693 0.704575
O O8 0.938510 0.219945 0.924720
O O9 0.913770 0.259209 0.545624
O O10 0.000000 0.182520 0.193205
#
# Coordination Sequence:
#
# PCOD9416636 Si02
#       4
#     8   8   8   8
#     4  11  24  40  58  92 137 163 197 261 324 379
#     4  11  20  40  68  92 116 160 220 264 308 376
#     4  10  20  38  64  92 121 165 218 263 307 362
#     4  10  19  38  63  89 120 160 210 265 306 362
#
# _framework density 23.675678000000001
#
# number of rings (size 3 to 8) (size 9 to 14) (size 15 to 20)
#    0.000    1.500    5.000    6.000    0.000    4.500 
#    0.000    5.000    0.000    0.000    0.000    0.000 
#    0.000    0.000    0.000    0.000    0.000    0.000 
#
# Total GULP energy -178221.535934 kJ/mol
# GULP energy per Si atom -5569.422998 kJ/mol
# Density = 2.362179 g / cm^3
# Si number density = 23.675678 Si / 1000 Ang^3
#
#
#
# Elastic Constant Matrix: (Units=GPa)
#
#
# Indices 1 2 3 4 5 6 
#
# 1 141.8040 13.3743 -2.3170 0.0000 0.0000 0.0000
# 2 13.3743 39.9293 27.4164 0.0000 0.0000 0.0000
# 3 -2.3170 27.4164 113.6409 0.0000 0.0000 0.0000
# 4 0.0000 0.0000 0.0000 44.4407 0.0000 0.0000
# 5 0.0000 0.0000 0.0000 0.0000 51.5885 0.0000
# 6 0.0000 0.0000 0.0000 0.0000 0.0000 -27.2900
#
#
#
# Elastic Compliance Matrix: (Units=1/GPa)
#
#
# Indices 1 2 3 4 5 6 
#
# 1 0.007357 -0.003077 0.000892 0.000000 0.000000 0.000000
# 2 -0.003077 0.031303 -0.007615 0.000000 0.000000 0.000000
# 3 0.000892 -0.007615 0.010655 0.000000 0.000000 0.000000
# 4 0.000000 0.000000 0.000000 0.022502 0.000000 0.000000
# 5 0.000000 0.000000 0.000000 0.000000 0.019384 0.000000
# 6 0.000000 0.000000 0.000000 0.000000 0.000000 -0.036643
#
#
# Mechanical properties :
#
#
# Convention : Reuss Voigt Hill
#
# Bulk Modulus (GPa) = 33.65144 41.36907 37.51026
# Shear Modulus (GPa) = 59.48001 30.87453 45.17727
#
# Velocity S-wave (km/s) = 5.01771 3.61510 4.37300
# Velocity P-wave (km/s) = 6.91478 5.91070 6.43236
#
# Compressibility (1/GPa) = 0.02971641
#
# Stress axis : x y z
#
# Youngs Moduli (GPa) = 135.92939 31.94542 93.85311
#
# Poissons Ratio (x) = 0.09829 -0.08374
# Poissons Ratio (y) = 0.41823 0.71467
# Poissons Ratio (z) = -0.12129 0.24326
#
# Static dielectric constant tensor:
#      x y z
#    x 2.046450 0.000000 0.000000 
#    y 0.000000 2.403480 0.000000 
#    z 0.000000 0.000000 4.236700 
# 
# From -- ./inp_files/12833.got.cif
#   From: 2010.05.17/outbox.cif.g08.bks.cpg/sg53_7_cif.got.tgz:12833.got - 2010.06.03 12:45:16.
