data_PCOD9416123
_publ_section_title
;
Structure prediction by ZEFSAII (Michael W. Deem and Ramdas Pophale) SiO2 
 PCOD9416123
Probable space group: P M N A
;
_chemical_formula_sum "Si O2"
_cell_formula_units_Z 48
_cell_length_a 8.655444
_cell_length_b 9.458958
_cell_length_c 33.403659
_cell_angle_alpha 90.000000
_cell_angle_beta 90.000000
_cell_angle_gamma 90.000000
_cell_volume 2734.807042
_symmetry_space_group_name_H-M "P M N A"
_symmetry_group_IT_number 53
_symmetry_cell_setting 'orthorhombic'
loop_
_space_group_symop_operation_xyz
x,y,z
1/2-x,-y,1/2+z
x,-y,-z
1/2-x,y,1/2-z
-x,-y,-z
1/2+x,y,1/2-z
-x,y,z
1/2+x,-y,1/2+z
loop_
_atom_site_type_symbol
_atom_site_label
_atom_site_fract_x
_atom_site_fract_y
_atom_site_fract_z
Si Si1 0.816364 0.424469 0.206627
Si Si2 0.177822 0.837339 0.665006
Si Si3 0.188025 0.064005 0.457046
Si Si4 0.813202 0.407214 0.630901
Si Si5 0.822685 0.338669 0.418663
Si Si6 0.815719 0.905847 0.120621
O O1 0.750000 0.460634 0.250000
O O2 0.766967 0.264280 0.195326
O O3 0.744705 0.523783 0.172225
O O4 0.000000 0.436929 0.206101
O O5 0.176480 0.751024 0.622820
O O6 0.000000 0.854735 0.677445
O O7 0.254820 0.986344 0.654671
O O8 0.243417 0.226334 0.450272
O O9 0.000000 0.064092 0.453003
O O10 0.227124 0.000000 0.500000
O O11 0.256492 0.969908 0.421440
O O12 0.755573 0.510889 0.594859
O O13 0.752773 0.249574 0.626277
O O14 0.000000 0.410265 0.630600
O O15 0.000000 0.365529 0.430874
O O16 0.000000 0.902543 0.121186
#
# Coordination Sequence:
#
# PCOD9416123 Si02
#       6
#     8   8   8   8   8   8
#     4  11  21  35  55  81 109 138 172 211 256 304
#     4   9  17  33  54  75  99 132 172 210 250 302
#     4   9  17  32  54  77 101 133 175 222 269 317
#     4  10  19  34  54  75 103 141 180 218 261 313
#     4   7  13  27  49  73  95 125 168 210 249 300
#     4  11  21  33  51  77 106 136 172 217 267 315
#
# _framework density 17.551513
#
# number of rings (size 3 to 8) (size 9 to 14) (size 15 to 20)
#    0.000    2.500    0.000    6.000    0.000    0.333 
#    0.000    2.500    0.000    5.000    0.000    0.000 
#    0.000    0.000    0.000    0.000    0.000    0.000 
#
# Total GULP energy -267478.227804 kJ/mol
# GULP energy per Si atom -5572.463079 kJ/mol
# Density = 1.751156 g / cm^3
# Si number density = 17.551513 Si / 1000 Ang^3
#
#
#
# Elastic Constant Matrix: (Units=GPa)
#
#
# Indices 1 2 3 4 5 6 
#
# 1 87.1563 39.8390 19.1511 0.0000 0.0000 0.0000
# 2 39.8390 144.5104 29.6584 0.0000 0.0000 0.0000
# 3 19.1511 29.6584 48.6511 0.0000 0.0000 0.0000
# 4 0.0000 0.0000 0.0000 15.5128 0.0000 0.0000
# 5 0.0000 0.0000 0.0000 0.0000 20.0700 0.0000
# 6 0.0000 0.0000 0.0000 0.0000 0.0000 25.3978
#
#
#
# Elastic Compliance Matrix: (Units=1/GPa)
#
#
# Indices 1 2 3 4 5 6 
#
# 1 0.013634 -0.003037 -0.003516 0.000000 0.000000 0.000000
# 2 -0.003037 0.008586 -0.004039 0.000000 0.000000 0.000000
# 3 -0.003516 -0.004039 0.024400 0.000000 0.000000 0.000000
# 4 0.000000 0.000000 0.000000 0.064463 0.000000 0.000000
# 5 0.000000 0.000000 0.000000 0.000000 0.049826 0.000000
# 6 0.000000 0.000000 0.000000 0.000000 0.000000 0.039374
#
#
# Mechanical properties :
#
#
# Convention : Reuss Voigt Hill
#
# Bulk Modulus (GPa) = 39.31108 50.84609 45.07858
# Shear Modulus (GPa) = 21.74430 24.97406 23.35918
#
# Velocity S-wave (km/s) = 3.52360 3.77623 3.65210
# Velocity P-wave (km/s) = 6.24504 6.93150 6.59720
#
# Compressibility (1/GPa) = 0.02543812
#
# Stress axis : x y z
#
# Youngs Moduli (GPa) = 73.34370 116.46733 40.98294
#
# Poissons Ratio (x) = 0.35374 0.14408
# Poissons Ratio (y) = 0.22276 0.16551
# Poissons Ratio (z) = 0.25784 0.47037
#
# Static dielectric constant tensor:
#      x y z
#    x 1.592350 0.000000 0.000000 
#    y 0.000000 1.612830 0.000000 
#    z 0.000000 0.000000 1.592390 
# 
# From -- ./inp_files/37749.got.cif
#   From: 2010.05.17/outbox.cif.g08.bks.cpg/sg53_19_cif.got.tgz:37749.got - 2010.06.03 12:45:16.
