data_PCOD9416300
_publ_section_title
;
Structure prediction by ZEFSAII (Michael W. Deem and Ramdas Pophale) SiO2 
 PCOD9416300
Probable space group: P M N A
;
_chemical_formula_sum "Si O2"
_cell_formula_units_Z 48
_cell_length_a 7.975157
_cell_length_b 15.638362
_cell_length_c 19.617309
_cell_angle_alpha 90.000000
_cell_angle_beta 90.000000
_cell_angle_gamma 90.000000
_cell_volume 2446.639237
_symmetry_space_group_name_H-M "P M N A"
_symmetry_group_IT_number 53
_symmetry_cell_setting 'orthorhombic'
loop_
_space_group_symop_operation_xyz
x,y,z
1/2-x,-y,1/2+z
x,-y,-z
1/2-x,y,1/2-z
-x,-y,-z
1/2+x,y,1/2-z
-x,y,z
1/2+x,-y,1/2+z
loop_
_atom_site_type_symbol
_atom_site_label
_atom_site_fract_x
_atom_site_fract_y
_atom_site_fract_z
Si Si1 0.297769 0.720341 0.424793
Si Si2 0.797798 0.526208 0.424397
Si Si3 0.298370 0.221552 0.425514
Si Si4 0.199693 0.374623 0.328426
Si Si5 0.295123 0.971643 0.576297
Si Si6 0.797724 0.873856 0.171227
O O1 0.500000 0.724742 0.426184
O O2 0.249547 0.623401 0.408864
O O3 0.236443 0.745815 0.500603
O O4 0.238028 0.790065 0.369970
O O5 0.736995 0.500000 0.500000
O O6 0.734187 0.457180 0.369808
O O7 0.000000 0.521737 0.425588
O O8 0.500000 0.217239 0.430122
O O9 0.254632 0.289533 0.367897
O O10 0.238052 0.125312 0.411206
O O11 0.250000 0.374919 0.250000
O O12 0.000000 0.377877 0.331667
O O13 0.500000 0.971832 0.577600
O O14 0.246740 0.000000 0.500000
O O15 0.238040 0.041449 0.631216
O O16 0.750000 0.873056 0.250000
O O17 0.000000 0.873963 0.167341
#
# Coordination Sequence:
#
# PCOD9416300 Si02
#       6
#     8   8   8   8   8   8
#     4  10  20  34  58  87 112 145 192 234 274 332
#     4  10  21  38  59  83 112 147 185 230 285 334
#     4  10  19  34  60  89 112 145 191 236 279 329
#     4  11  24  41  59  82 116 151 185 231 286 340
#     4   9  16  32  59  85 111 147 191 233 274 329
#     4  10  21  37  56  83 117 151 187 230 282 334
#
# _framework density 19.618749000000001
#
# number of rings (size 3 to 8) (size 9 to 14) (size 15 to 20)
#    0.000    2.000    3.333    0.500    0.000    3.667 
#    0.000    5.833    0.000    1.000    0.000    0.000 
#    0.000    0.000    0.000    0.000    0.000    0.000 
#
# Total GULP energy -268059.825435 kJ/mol
# GULP energy per Si atom -5584.579697 kJ/mol
# Density = 1.957410 g / cm^3
# Si number density = 19.618749 Si / 1000 Ang^3
#
#
#
# Elastic Constant Matrix: (Units=GPa)
#
#
# Indices 1 2 3 4 5 6 
#
# 1 14.4093 11.7655 7.7561 0.0000 0.0000 0.0000
# 2 11.7655 240.4345 130.9090 0.0000 0.0000 0.0000
# 3 7.7561 130.9090 194.6430 0.0000 0.0000 0.0000
# 4 0.0000 0.0000 0.0000 36.5321 0.0000 0.0000
# 5 0.0000 0.0000 0.0000 0.0000 12.5645 0.0000
# 6 0.0000 0.0000 0.0000 0.0000 0.0000 230.4297
#
#
#
# Elastic Compliance Matrix: (Units=1/GPa)
#
#
# Indices 1 2 3 4 5 6 
#
# 1 0.072365 -0.003110 -0.000792 0.000000 0.000000 0.000000
# 2 -0.003110 0.006696 -0.004379 0.000000 0.000000 0.000000
# 3 -0.000792 -0.004379 0.008115 0.000000 0.000000 0.000000
# 4 0.000000 0.000000 0.000000 0.027373 0.000000 0.000000
# 5 0.000000 0.000000 0.000000 0.000000 0.079589 0.000000
# 6 0.000000 0.000000 0.000000 0.000000 0.000000 0.004340
#
#
# Mechanical properties :
#
#
# Convention : Reuss Voigt Hill
#
# Bulk Modulus (GPa) = 14.16172 83.37198 48.76685
# Shear Modulus (GPa) = 20.95754 75.84234 48.39994
#
# Velocity S-wave (km/s) = 3.27194 6.22431 4.97230
# Velocity P-wave (km/s) = 4.63770 9.70795 7.60765
#
# Compressibility (1/GPa) = 0.07061290
#
# Stress axis : x y z
#
# Youngs Moduli (GPa) = 13.81881 149.34867 123.23542
#
# Poissons Ratio (x) = 0.46446 0.09760
# Poissons Ratio (y) = 0.04298 0.53969
# Poissons Ratio (z) = 0.01094 0.65405
#
# Static dielectric constant tensor:
#      x y z
#    x 1.712650 0.000000 0.000000 
#    y 0.000000 1.678210 0.000000 
#    z 0.000000 0.000000 1.638730 
# 
# From -- ./inp_files/26188.got.cif
#   From: 2010.05.17/outbox.cif.g08.bks.cpg/sg53_14_cif.got.tgz:26188.got - 2010.06.03 12:45:16.
