data_PCOD9416204
_publ_section_title
;
Structure prediction by ZEFSAII (Michael W. Deem and Ramdas Pophale) SiO2 
 PCOD9416204
Probable space group: P M N A
;
_chemical_formula_sum "Si O2"
_cell_formula_units_Z 64
_cell_length_a 8.530321
_cell_length_b 21.088185
_cell_length_c 19.982534
_cell_angle_alpha 90.000000
_cell_angle_beta 90.000000
_cell_angle_gamma 90.000000
_cell_volume 3594.637806
_symmetry_space_group_name_H-M "P M N A"
_symmetry_group_IT_number 53
_symmetry_cell_setting 'orthorhombic'
loop_
_space_group_symop_operation_xyz
x,y,z
1/2-x,-y,1/2+z
x,-y,-z
1/2-x,y,1/2-z
-x,-y,-z
1/2+x,y,1/2-z
-x,y,z
1/2+x,-y,1/2+z
loop_
_atom_site_type_symbol
_atom_site_label
_atom_site_fract_x
_atom_site_fract_y
_atom_site_fract_z
Si Si1 0.689766 0.189071 0.535678
Si Si2 0.688981 0.139782 0.677411
Si Si3 0.812384 0.685486 0.535676
Si Si4 0.811212 0.364034 0.322489
Si Si5 0.311232 0.007757 0.321933
Si Si6 0.312005 0.487943 0.822677
Si Si7 0.191237 0.937451 0.959279
Si Si8 0.687674 0.437130 0.541065
O O1 0.500000 0.189403 0.535758
O O2 0.740686 0.179952 0.612967
O O3 0.747787 0.252015 0.499717
O O4 0.743039 0.126874 0.494617
O O5 0.750000 0.160471 0.750000
O O6 0.500000 0.140623 0.679082
O O7 0.737266 0.065898 0.667247
O O8 0.757660 0.675167 0.612617
O O9 0.760220 0.624120 0.493793
O O10 0.000000 0.688285 0.536712
O O11 0.750000 0.342842 0.250000
O O12 0.763411 0.437977 0.331933
O O13 0.000000 0.362824 0.320650
O O14 0.250000 0.028205 0.250000
O O15 0.500000 0.007867 0.321324
O O16 0.257976 0.051398 0.383103
O O17 0.250000 0.468001 0.750000
O O18 0.500000 0.485340 0.824005
O O19 0.243274 0.447337 0.883136
O O20 0.000000 0.936589 0.960288
O O21 0.239138 0.000000 0.000000
O O22 0.736337 0.500000 0.500000
O O23 0.500000 0.432383 0.538814
#
# Coordination Sequence:
#
# PCOD9416204 Si02
#       8
#     8   8   8   8   8   8   8   8
#     4  10  20  35  55  80 107 141 186 230 268 323
#     4   9  17  30  51  77 105 135 175 222 269 323
#     4  11  23  39  56  80 114 150 183 224 279 331
#     4   9  19  34  55  80 107 141 181 222 268 324
#     4   9  16  28  49  77 105 136 173 219 269 321
#     4  10  19  34  56  84 116 147 183 228 278 329
#     4   9  15  29  54  78 101 134 178 221 265 317
#     4  11  22  36  58  86 112 142 184 230 275 328
#
# _framework density 17.804296000000001
#
# number of rings (size 3 to 8) (size 9 to 14) (size 15 to 20)
#    0.000    2.250    2.500    1.125    0.000    2.500 
#    0.000    1.875    0.000    5.250    0.000    0.000 
#    0.000    0.000    0.000    0.000    0.000    0.000 
#
# Total GULP energy -357037.641175 kJ/mol
# GULP energy per Si atom -5578.713143 kJ/mol
# Density = 1.776377 g / cm^3
# Si number density = 17.804296 Si / 1000 Ang^3
#
#
#
# Elastic Constant Matrix: (Units=GPa)
#
#
# Indices 1 2 3 4 5 6 
#
# 1 12.8276 19.3685 26.1386 0.0000 0.0000 0.0000
# 2 19.3685 111.0326 86.2784 0.0000 0.0000 0.0000
# 3 26.1386 86.2784 199.4702 0.0000 0.0000 0.0000
# 4 0.0000 0.0000 0.0000 26.3650 0.0000 0.0000
# 5 0.0000 0.0000 0.0000 0.0000 29.4476 0.0000
# 6 0.0000 0.0000 0.0000 0.0000 0.0000 22.7724
#
#
#
# Elastic Compliance Matrix: (Units=1/GPa)
#
#
# Indices 1 2 3 4 5 6 
#
# 1 0.117364 -0.012837 -0.009827 0.000000 0.000000 0.000000
# 2 -0.012837 0.014970 -0.004793 0.000000 0.000000 0.000000
# 3 -0.009827 -0.004793 0.008374 0.000000 0.000000 0.000000
# 4 0.000000 0.000000 0.000000 0.037929 0.000000 0.000000
# 5 0.000000 0.000000 0.000000 0.000000 0.033959 0.000000
# 6 0.000000 0.000000 0.000000 0.000000 0.000000 0.043913
#
#
# Mechanical properties :
#
#
# Convention : Reuss Voigt Hill
#
# Bulk Modulus (GPa) = 11.65576 65.21126 38.43351
# Shear Modulus (GPa) = 14.70502 28.48667 21.59584
#
# Velocity S-wave (km/s) = 2.87701 4.00433 3.48653
# Velocity P-wave (km/s) = 4.19488 7.62140 6.15153
#
# Compressibility (1/GPa) = 0.08579451
#
# Stress axis : x y z
#
# Youngs Moduli (GPa) = 8.52051 66.80032 119.41526
#
# Poissons Ratio (x) = 0.85750 1.17349
# Poissons Ratio (y) = 0.10938 0.57235
# Poissons Ratio (z) = 0.08373 0.32017
#
# Static dielectric constant tensor:
#      x y z
#    x 1.608870 0.000000 0.000000 
#    y 0.000000 1.581230 0.000000 
#    z 0.000000 0.000000 1.617550 
# 
# From -- ./inp_files/26909.got.cif
#   From: 2010.05.17/outbox.cif.g08.bks.cpg/sg53_14_cif.got.tgz:26909.got - 2010.06.03 12:45:16.
