data_PCOD9416423
_publ_section_title
;
Structure prediction by ZEFSAII (Michael W. Deem and Ramdas Pophale) SiO2 
 PCOD9416423
Probable space group: P M N A
;
_chemical_formula_sum "Si O2"
_cell_formula_units_Z 64
_cell_length_a 15.959767
_cell_length_b 22.749801
_cell_length_c 8.490193
_cell_angle_alpha 90.000000
_cell_angle_beta 90.000000
_cell_angle_gamma 90.000000
_cell_volume 3082.632207
_symmetry_space_group_name_H-M "P M N A"
_symmetry_group_IT_number 53
_symmetry_cell_setting 'orthorhombic'
loop_
_space_group_symop_operation_xyz
x,y,z
1/2-x,-y,1/2+z
x,-y,-z
1/2-x,y,1/2-z
-x,-y,-z
1/2+x,y,1/2-z
-x,y,z
1/2+x,-y,1/2+z
loop_
_atom_site_type_symbol
_atom_site_label
_atom_site_fract_x
_atom_site_fract_y
_atom_site_fract_z
Si Si1 0.099746 0.685263 0.924389
Si Si2 0.350981 0.563592 0.433458
Si Si3 0.402080 0.258557 0.748461
Si Si4 0.843845 0.993937 0.182258
Si Si5 0.647931 0.563424 0.067119
Si Si6 0.400656 0.315065 0.072110
Si Si7 0.404822 0.065662 0.069664
Si Si8 0.345111 0.130438 0.802684
O O1 0.133066 0.699400 0.747938
O O2 0.000000 0.696932 0.918504
O O3 0.114203 0.616709 0.962717
O O4 0.133974 0.718307 0.081505
O O5 0.375979 0.500000 0.500000
O O6 0.249451 0.566610 0.438950
O O7 0.376933 0.570277 0.250514
O O8 0.500000 0.276027 0.747459
O O9 0.393970 0.188622 0.759760
O O10 0.365307 0.284017 0.913099
O O11 0.750000 0.994953 0.250000
O O12 0.880346 0.929885 0.226454
O O13 0.891192 0.050544 0.250061
O O14 0.838393 0.000000 0.000000
O O15 0.622941 0.500000 0.000000
O O16 0.612077 0.616042 0.962881
O O17 0.500000 0.301552 0.076319
O O18 0.500000 0.081422 0.035176
O O19 0.348214 0.113928 0.987660
O O20 0.387415 0.000000 0.000000
O O21 0.250000 0.138100 0.750000
#
# Coordination Sequence:
#
# PCOD9416423 Si02
#       8
#     8   8   8   8   8   8   8   8
#     4  10  21  38  59  82 109 145 190 236 287 347
#     4  10  20  34  54  81 112 144 181 231 289 344
#     4  10  21  39  59  79 115 155 191 242 292 340
#     4  10  19  35  59  87 123 160 196 245 297 349
#     4  10  20  34  54  81 112 145 182 229 287 348
#     4  10  21  38  59  81 107 146 190 233 290 348
#     4   9  18  34  57  84 116 154 193 236 290 345
#     4  10  20  36  59  86 116 154 196 236 288 349
#
# _framework density 20.761479000000001
#
# number of rings (size 3 to 8) (size 9 to 14) (size 15 to 20)
#    0.000    2.125    1.250    3.000    0.000    3.750 
#    2.250    0.000    0.000    0.000    0.000    0.000 
#    0.000    0.000    0.000    0.000    0.000    0.000 
#
# Total GULP energy -356878.165092 kJ/mol
# GULP energy per Si atom -5576.221330 kJ/mol
# Density = 2.071422 g / cm^3
# Si number density = 20.761479 Si / 1000 Ang^3
#
#
#
# Elastic Constant Matrix: (Units=GPa)
#
#
# Indices 1 2 3 4 5 6 
#
# 1 24.4893 -4.5809 14.4163 0.0000 0.0000 0.0000
# 2 -4.5809 82.3452 48.2023 0.0000 0.0000 0.0000
# 3 14.4163 48.2023 185.9727 0.0000 0.0000 0.0000
# 4 0.0000 0.0000 0.0000 21.3444 0.0000 0.0000
# 5 0.0000 0.0000 0.0000 0.0000 11.0009 0.0000
# 6 0.0000 0.0000 0.0000 0.0000 0.0000 55.1500
#
#
#
# Elastic Compliance Matrix: (Units=1/GPa)
#
#
# Indices 1 2 3 4 5 6 
#
# 1 0.044680 0.005320 -0.004842 0.000000 0.000000 0.000000
# 2 0.005320 0.014950 -0.004287 0.000000 0.000000 0.000000
# 3 -0.004842 -0.004287 0.006864 0.000000 0.000000 0.000000
# 4 0.000000 0.000000 0.000000 0.046851 0.000000 0.000000
# 5 0.000000 0.000000 0.000000 0.000000 0.090901 0.000000
# 6 0.000000 0.000000 0.000000 0.000000 0.000000 0.018132
#
#
# Mechanical properties :
#
#
# Convention : Reuss Voigt Hill
#
# Bulk Modulus (GPa) = 16.98531 45.43140 31.20835
# Shear Modulus (GPa) = 20.03032 33.15037 26.59034
#
# Velocity S-wave (km/s) = 3.10947 4.00024 3.58264
# Velocity P-wave (km/s) = 4.59245 6.57768 5.67259
#
# Compressibility (1/GPa) = 0.05887442
#
# Stress axis : x y z
#
# Youngs Moduli (GPa) = 22.38134 66.89169 145.69381
#
# Poissons Ratio (x) = -0.35588 0.70552
# Poissons Ratio (y) = -0.11907 0.62462
# Poissons Ratio (z) = 0.10838 0.28678
#
# Static dielectric constant tensor:
#      x y z
#    x 1.756550 0.000000 0.000000 
#    y 0.000000 1.708960 0.000000 
#    z 0.000000 0.000000 1.853920 
# 
# From -- ./inp_files/10201.got.cif
#   From: 2010.05.17/outbox.cif.g08.bks.cpg/sg53_6_cif.got.tgz:10201.got - 2010.06.03 12:45:16.
