data_PCOD9416120
_publ_section_title
;
Structure prediction by ZEFSAII (Michael W. Deem and Ramdas Pophale) SiO2 
 PCOD9416120
Probable space group: P M N A
;
_chemical_formula_sum "Si O2"
_cell_formula_units_Z 64
_cell_length_a 7.671602
_cell_length_b 13.658493
_cell_length_c 28.220765
_cell_angle_alpha 90.000000
_cell_angle_beta 90.000000
_cell_angle_gamma 90.000000
_cell_volume 2957.042936
_symmetry_space_group_name_H-M "P M N A"
_symmetry_group_IT_number 53
_symmetry_cell_setting 'orthorhombic'
loop_
_space_group_symop_operation_xyz
x,y,z
1/2-x,-y,1/2+z
x,-y,-z
1/2-x,y,1/2-z
-x,-y,-z
1/2+x,y,1/2-z
-x,y,z
1/2+x,-y,1/2+z
loop_
_atom_site_type_symbol
_atom_site_label
_atom_site_fract_x
_atom_site_fract_y
_atom_site_fract_z
Si Si1 0.802105 0.905989 0.636348
Si Si2 0.696009 0.767323 0.046294
Si Si3 0.291706 0.306597 0.805036
Si Si4 0.289891 0.522329 0.805929
Si Si5 0.199495 0.601101 0.982344
Si Si6 0.791230 0.687263 0.621060
Si Si7 0.214060 0.881884 0.361856
Si Si8 0.699864 0.905791 0.532416
O O1 0.723767 0.795960 0.636215
O O2 0.799251 0.927395 0.580272
O O3 0.000000 0.899429 0.655028
O O4 0.722667 0.009825 0.653661
O O5 0.500000 0.740043 0.060993
O O6 0.768145 0.840216 0.086399
O O7 0.792207 0.670917 0.028590
O O8 0.697074 0.828092 0.998054
O O9 0.250000 0.302158 0.750000
O O10 0.500000 0.307032 0.812152
O O11 0.225903 0.413693 0.820950
O O12 0.227464 0.207440 0.828881
O O13 0.250000 0.538198 0.750000
O O14 0.500000 0.521134 0.809413
O O15 0.226040 0.605934 0.841698
O O16 0.263752 0.652628 0.933521
O O17 0.000000 0.579797 0.970643
O O18 0.286215 0.500000 0.000000
O O19 0.000000 0.694618 0.625908
O O20 0.000000 0.888879 0.362027
O O21 0.500000 0.872380 0.541994
O O22 0.688917 0.000000 0.500000
#
# Coordination Sequence:
#
# PCOD9416120 Si02
#       8
#     8   8   8   8   8   8   8   8
#     4  10  19  34  53  76 107 145 188 224 263 321
#     4  11  21  34  55  79 104 143 192 232 265 316
#     4   9  18  36  58  80 106 135 171 224 280 332
#     4   9  19  36  59  84 107 134 180 230 281 333
#     4  11  25  40  52  76 116 154 184 225 283 337
#     4  10  21  36  58  83 108 146 190 232 271 325
#     4   9  19  33  54  81 108 140 180 227 272 317
#     4  11  21  32  48  73 109 147 181 225 270 312
#
# _framework density 21.643242999999998
#
# number of rings (size 3 to 8) (size 9 to 14) (size 15 to 20)
#    0.000    2.000    2.500    1.125    1.750    2.000 
#    0.000    2.500    0.000    0.000    0.000    0.000 
#    0.000    0.000    0.000    0.000    0.000    0.000 
#
# Total GULP energy -356428.990597 kJ/mol
# GULP energy per Si atom -5569.202978 kJ/mol
# Density = 2.159398 g / cm^3
# Si number density = 21.643243 Si / 1000 Ang^3
#
#
#
# Elastic Constant Matrix: (Units=GPa)
#
#
# Indices 1 2 3 4 5 6 
#
# 1 48.0625 7.7694 -0.1266 0.0000 0.0000 0.0000
# 2 7.7694 224.7363 67.9543 0.0000 0.0000 0.0000
# 3 -0.1266 67.9543 50.6750 0.0000 0.0000 0.0000
# 4 0.0000 0.0000 0.0000 42.0375 0.0000 0.0000
# 5 0.0000 0.0000 0.0000 0.0000 14.3727 0.0000
# 6 0.0000 0.0000 0.0000 0.0000 0.0000 13.8834
#
#
#
# Elastic Compliance Matrix: (Units=1/GPa)
#
#
# Indices 1 2 3 4 5 6 
#
# 1 0.021013 -0.001249 0.001727 0.000000 0.000000 0.000000
# 2 -0.001249 0.007559 -0.010139 0.000000 0.000000 0.000000
# 3 0.001727 -0.010139 0.033334 0.000000 0.000000 0.000000
# 4 0.000000 0.000000 0.000000 0.023788 0.000000 0.000000
# 5 0.000000 0.000000 0.000000 0.000000 0.069576 0.000000
# 6 0.000000 0.000000 0.000000 0.000000 0.000000 0.072029
#
#
# Mechanical properties :
#
#
# Convention : Reuss Voigt Hill
#
# Bulk Modulus (GPa) = 23.48309 52.74089 38.11199
# Shear Modulus (GPa) = 19.17067 30.58382 24.87724
#
# Velocity S-wave (km/s) = 2.97940 3.76319 3.39399
# Velocity P-wave (km/s) = 4.76544 6.58052 5.74511
#
# Compressibility (1/GPa) = 0.04258384
#
# Stress axis : x y z
#
# Youngs Moduli (GPa) = 47.59043 132.29933 29.99915
#
# Poissons Ratio (x) = 0.16519 -0.05180
# Poissons Ratio (y) = 0.05942 0.30416
# Poissons Ratio (z) = -0.08218 1.34140
#
# Static dielectric constant tensor:
#      x y z
#    x 1.823330 0.000000 0.000000 
#    y 0.000000 1.897980 0.000000 
#    z 0.000000 0.000000 1.746790 
# 
# From -- ./inp_files/38181.got.cif
#   From: 2010.05.17/outbox.cif.g08.bks.cpg/sg53_20_cif.got.tgz:38181.got - 2010.06.03 12:45:16.
