data_PCOD9416191
_publ_section_title
;
Structure prediction by ZEFSAII (Michael W. Deem and Ramdas Pophale) SiO2 
 PCOD9416191
Probable space group: P M N A
;
_chemical_formula_sum "Si O2"
_cell_formula_units_Z 40
_cell_length_a 17.789375
_cell_length_b 10.206198
_cell_length_c 10.192871
_cell_angle_alpha 90.000000
_cell_angle_beta 90.000000
_cell_angle_gamma 90.000000
_cell_volume 1850.636858
_symmetry_space_group_name_H-M "P M N A"
_symmetry_group_IT_number 53
_symmetry_cell_setting 'orthorhombic'
loop_
_space_group_symop_operation_xyz
x,y,z
1/2-x,-y,1/2+z
x,-y,-z
1/2-x,y,1/2-z
-x,-y,-z
1/2+x,y,1/2-z
-x,y,z
1/2+x,-y,1/2+z
loop_
_atom_site_type_symbol
_atom_site_label
_atom_site_fract_x
_atom_site_fract_y
_atom_site_fract_z
Si Si1 0.234989 0.106224 0.600901
Si Si2 0.414612 0.747457 0.709567
Si Si3 0.119329 0.239547 0.910031
Si Si4 0.321825 0.507671 0.341130
Si Si5 0.585458 0.035993 0.811643
O O1 0.250000 0.063487 0.750000
O O2 0.289322 0.227048 0.578438
O O3 0.263250 0.000000 0.500000
O O4 0.145255 0.109004 0.594381
O O5 0.500000 0.714227 0.750895
O O6 0.415156 0.770358 0.552548
O O7 0.356766 0.626898 0.717322
O O8 0.393568 0.884788 0.779721
O O9 0.113696 0.379254 0.838711
O O10 0.091104 0.121022 0.821378
O O11 0.306263 0.500000 0.500000
O O12 0.250000 0.538449 0.250000
O O13 0.500000 0.039913 0.857531
#
# Coordination Sequence:
#
# PCOD9416191 Si02
#       5
#     8   8   8   8   8
#     4  10  20  34  55  81 109 141 183 226 272 326
#     4  10  21  36  56  84 114 146 187 233 279 326
#     4  10  19  34  56  81 109 143 186 232 276 326
#     4  10  22  37  56  82 113 147 185 230 279 331
#     4  10  20  33  52  79 112 145 179 224 279 335
#
# _framework density 21.614180000000001
#
# number of rings (size 3 to 8) (size 9 to 14) (size 15 to 20)
#    0.000    2.000    0.000    5.400    0.000   12.000 
#    0.000    0.000    0.000    0.600    0.000    0.000 
#    0.000    0.000    0.000    0.000    0.000    0.000 
#
# Total GULP energy -222896.077213 kJ/mol
# GULP energy per Si atom -5572.401930 kJ/mol
# Density = 2.156498 g / cm^3
# Si number density = 21.614180 Si / 1000 Ang^3
#
#
#
# Elastic Constant Matrix: (Units=GPa)
#
#
# Indices 1 2 3 4 5 6 
#
# 1 108.0549 22.9985 2.2353 0.0000 0.0000 0.0000
# 2 22.9985 87.3979 10.3738 0.0000 0.0000 0.0000
# 3 2.2353 10.3738 37.6513 0.0000 0.0000 0.0000
# 4 0.0000 0.0000 0.0000 20.4380 0.0000 0.0000
# 5 0.0000 0.0000 0.0000 0.0000 36.2777 0.0000
# 6 0.0000 0.0000 0.0000 0.0000 0.0000 14.9162
#
#
#
# Elastic Compliance Matrix: (Units=1/GPa)
#
#
# Indices 1 2 3 4 5 6 
#
# 1 0.009804 -0.002596 0.000133 0.000000 0.000000 0.000000
# 2 -0.002596 0.012516 -0.003294 0.000000 0.000000 0.000000
# 3 0.000133 -0.003294 0.027459 0.000000 0.000000 0.000000
# 4 0.000000 0.000000 0.000000 0.048929 0.000000 0.000000
# 5 0.000000 0.000000 0.000000 0.000000 0.027565 0.000000
# 6 0.000000 0.000000 0.000000 0.000000 0.000000 0.067041
#
#
# Mechanical properties :
#
#
# Convention : Reuss Voigt Hill
#
# Bulk Modulus (GPa) = 26.13313 33.81327 29.97320
# Shear Modulus (GPa) = 22.97968 27.49281 25.23625
#
# Velocity S-wave (km/s) = 3.26418 3.57035 3.42069
# Velocity P-wave (km/s) = 5.13064 5.71616 5.43130
#
# Compressibility (1/GPa) = 0.03826561
#
# Stress axis : x y z
#
# Youngs Moduli (GPa) = 101.99620 79.89763 36.41754
#
# Poissons Ratio (x) = 0.20740 -0.00485
# Poissons Ratio (y) = 0.26476 0.11997
# Poissons Ratio (z) = -0.01358 0.26321
#
# Static dielectric constant tensor:
#      x y z
#    x 1.877830 0.000000 0.000000 
#    y 0.000000 1.848140 0.000000 
#    z 0.000000 0.000000 1.812510 
# 
# From -- ./inp_files/16707.got.cif
#   From: 2010.05.17/outbox.cif.g08.bks.cpg/sg53_9_cif.got.tgz:16707.got - 2010.06.03 12:45:16.
