data_PCOD9416084
_publ_section_title
;
Structure prediction by ZEFSAII (Michael W. Deem and Ramdas Pophale) SiO2 
 PCOD9416084
Probable space group: P M N A
;
_chemical_formula_sum "Si O2"
_cell_formula_units_Z 56
_cell_length_a 20.579087
_cell_length_b 11.276824
_cell_length_c 12.060804
_cell_angle_alpha 90.000000
_cell_angle_beta 90.000000
_cell_angle_gamma 90.000000
_cell_volume 2798.911492
_symmetry_space_group_name_H-M "P M N A"
_symmetry_group_IT_number 53
_symmetry_cell_setting 'orthorhombic'
loop_
_space_group_symop_operation_xyz
x,y,z
1/2-x,-y,1/2+z
x,-y,-z
1/2-x,y,1/2-z
-x,-y,-z
1/2+x,y,1/2-z
-x,y,z
1/2+x,-y,1/2+z
loop_
_atom_site_type_symbol
_atom_site_label
_atom_site_fract_x
_atom_site_fract_y
_atom_site_fract_z
Si Si1 0.241776 0.370776 0.061526
Si Si2 0.924215 0.428303 0.615050
Si Si3 0.644254 0.618936 0.757578
Si Si4 0.576806 0.854225 0.806609
Si Si5 0.850979 0.065445 0.735710
Si Si6 0.423932 0.177002 0.945668
Si Si7 0.268886 0.121459 0.570293
O O1 0.300781 0.359927 0.148946
O O2 0.177290 0.375424 0.138100
O O3 0.248051 0.500000 0.000000
O O4 0.240307 0.247873 0.990826
O O5 0.922036 0.500000 0.500000
O O6 0.886171 0.492838 0.711748
O O7 0.893581 0.302975 0.583476
O O8 0.000000 0.415946 0.645906
O O9 0.589365 0.717663 0.777187
O O10 0.500000 0.880808 0.792222
O O11 0.629878 0.930077 0.738809
O O12 0.598060 0.871819 0.936099
O O13 0.913547 0.103785 0.665208
O O14 0.830264 0.130707 0.846674
O O15 0.793135 0.089809 0.648346
O O16 0.500000 0.195713 0.965697
O O17 0.277185 0.000000 0.500000
#
# Coordination Sequence:
#
# PCOD9416084 Si02
#       7
#     8   8   8   8   8   8   8
#     4  11  26  40  61  92 122 164 210 252 298 362
#     4  10  19  33  57  89 120 154 190 240 305 361
#     4  11  22  38  63  85 123 158 201 248 308 360
#     4  11  21  37  63  95 122 155 199 252 313 375
#     4  11  23  36  63  85 119 158 194 247 310 362
#     4  10  20  33  55  89 122 148 188 246 306 360
#     4  11  24  42  60  86 123 162 207 247 305 361
#
# _framework density 20.007777000000001
#
# number of rings (size 3 to 8) (size 9 to 14) (size 15 to 20)
#    0.000    1.286    1.429    5.143    4.000    4.571 
#    0.000    0.000    0.000   11.143    0.000    0.000 
#    0.000    0.000    0.000    0.000    0.000    0.000 
#
# Total GULP energy -312268.899440 kJ/mol
# GULP energy per Si atom -5576.230347 kJ/mol
# Density = 1.996224 g / cm^3
# Si number density = 20.007777 Si / 1000 Ang^3
#
#
#
# Elastic Constant Matrix: (Units=GPa)
#
#
# Indices 1 2 3 4 5 6 
#
# 1 64.8997 21.7574 27.9591 0.0000 0.0000 0.0000
# 2 21.7574 116.6404 43.1255 0.0000 0.0000 0.0000
# 3 27.9591 43.1255 70.4929 0.0000 0.0000 0.0000
# 4 0.0000 0.0000 0.0000 23.9938 0.0000 0.0000
# 5 0.0000 0.0000 0.0000 0.0000 19.2481 0.0000
# 6 0.0000 0.0000 0.0000 0.0000 0.0000 34.1481
#
#
#
# Elastic Compliance Matrix: (Units=1/GPa)
#
#
# Indices 1 2 3 4 5 6 
#
# 1 0.018667 -0.000962 -0.006815 0.000000 0.000000 0.000000
# 2 -0.000962 0.011129 -0.006427 0.000000 0.000000 0.000000
# 3 -0.006815 -0.006427 0.020821 0.000000 0.000000 0.000000
# 4 0.000000 0.000000 0.000000 0.041677 0.000000 0.000000
# 5 0.000000 0.000000 0.000000 0.000000 0.051953 0.000000
# 6 0.000000 0.000000 0.000000 0.000000 0.000000 0.029284
#
#
# Mechanical properties :
#
#
# Convention : Reuss Voigt Hill
#
# Bulk Modulus (GPa) = 45.02811 48.63521 46.83166
# Shear Modulus (GPa) = 23.88435 26.09074 24.98754
#
# Velocity S-wave (km/s) = 3.45882 3.61505 3.53780
# Velocity P-wave (km/s) = 6.20527 6.46419 6.33605
#
# Compressibility (1/GPa) = 0.02220835
#
# Stress axis : x y z
#
# Youngs Moduli (GPa) = 53.57061 89.85513 48.02950
#
# Poissons Ratio (x) = 0.08647 0.32732
# Poissons Ratio (y) = 0.05155 0.30867
# Poissons Ratio (z) = 0.36509 0.57748
#
# Static dielectric constant tensor:
#      x y z
#    x 1.750290 0.000000 0.000000 
#    y 0.000000 1.837060 0.000000 
#    z 0.000000 0.000000 1.702790 
# 
# From -- ./inp_files/17834.got.cif
#   From: 2010.05.17/outbox.cif.g08.bks.cpg/sg53_9_cif.got.tgz:17834.got - 2010.06.03 12:45:16.
