data_PCOD9416714
_publ_section_title
;
Structure prediction by ZEFSAII (Michael W. Deem and Ramdas Pophale) SiO2 
 PCOD9416714
Probable space group: P M N A
;
_chemical_formula_sum "Si O2"
_cell_formula_units_Z 64
_cell_length_a 9.146651
_cell_length_b 30.448830
_cell_length_c 13.960011
_cell_angle_alpha 90.000000
_cell_angle_beta 90.000000
_cell_angle_gamma 90.000000
_cell_volume 3887.930370
_symmetry_space_group_name_H-M "P M N A"
_symmetry_group_IT_number 53
_symmetry_cell_setting 'orthorhombic'
loop_
_space_group_symop_operation_xyz
x,y,z
1/2-x,-y,1/2+z
x,-y,-z
1/2-x,y,1/2-z
-x,-y,-z
1/2+x,y,1/2-z
-x,y,z
1/2+x,-y,1/2+z
loop_
_atom_site_type_symbol
_atom_site_label
_atom_site_fract_x
_atom_site_fract_y
_atom_site_fract_z
Si Si1 0.174735 0.050850 0.491146
Si Si2 0.328662 0.356391 0.150295
Si Si3 0.176354 0.126229 0.645738
Si Si4 0.831364 0.811143 0.997607
Si Si5 0.665197 0.110132 0.344738
Si Si6 0.672821 0.748478 0.851700
Si Si7 0.675519 0.571129 0.535229
Si Si8 0.324789 0.516780 0.350479
O O1 0.209084 0.082335 0.582220
O O2 0.253213 0.071253 0.399457
O O3 0.000000 0.053229 0.478392
O O4 0.216377 0.000000 0.500000
O O5 0.250000 0.367929 0.250000
O O6 0.500000 0.366324 0.157556
O O7 0.312221 0.304094 0.136425
O O8 0.255643 0.385110 0.067669
O O9 0.250000 0.123338 0.750000
O O10 0.244576 0.167307 0.586590
O O11 0.000000 0.130299 0.652742
O O12 0.836458 0.849755 0.918603
O O13 0.748222 0.772433 0.941503
O O14 0.000000 0.799951 0.022448
O O15 0.750000 0.123067 0.250000
O O16 0.500000 0.097740 0.320779
O O17 0.750000 0.760053 0.750000
O O18 0.500000 0.759452 0.846439
O O19 0.500000 0.576946 0.538931
O O20 0.713927 0.531223 0.607430
O O21 0.714788 0.552792 0.430536
O O22 0.250000 0.524523 0.250000
O O23 0.500000 0.517510 0.341054
#
# Coordination Sequence:
#
# PCOD9416714 Si02
#       8
#     8   8   8   8   8   8   8   8
#     4   9  19  35  52  72  99 130 164 201 240 283
#     4  10  20  32  48  72 101 132 165 200 241 293
#     4  10  20  35  55  76 101 132 167 208 250 292
#     4  10  20  34  53  76 100 127 162 202 244 290
#     4  10  20  32  48  71  98 127 158 193 234 282
#     4  10  20  33  50  75 105 134 163 198 244 297
#     4   9  18  32  48  68  97 130 164 204 249 294
#     4   9  18  31  47  69  96 127 164 206 249 293
#
# _framework density 16.461199000000001
#
# number of rings (size 3 to 8) (size 9 to 14) (size 15 to 20)
#    0.000    2.375    0.000    3.375    0.000    7.250 
#    0.000    2.500    0.000    0.750    0.000    1.750 
#    0.000    0.000    0.000    0.000    0.000    0.000 
#
# Total GULP energy -356947.410935 kJ/mol
# GULP energy per Si atom -5577.303296 kJ/mol
# Density = 1.642373 g / cm^3
# Si number density = 16.461199 Si / 1000 Ang^3
#
#
#
# Elastic Constant Matrix: (Units=GPa)
#
#
# Indices 1 2 3 4 5 6 
#
# 1 77.2605 42.8085 53.8775 0.0000 0.0000 0.0000
# 2 42.8085 56.5644 33.7278 0.0000 0.0000 0.0000
# 3 53.8775 33.7278 100.0810 0.0000 0.0000 0.0000
# 4 0.0000 0.0000 0.0000 16.6239 0.0000 0.0000
# 5 0.0000 0.0000 0.0000 0.0000 32.2138 0.0000
# 6 0.0000 0.0000 0.0000 0.0000 0.0000 20.4182
#
#
#
# Elastic Compliance Matrix: (Units=1/GPa)
#
#
# Indices 1 2 3 4 5 6 
#
# 1 0.028727 -0.015668 -0.010185 0.000000 0.000000 0.000000
# 2 -0.015668 0.030670 -0.001901 0.000000 0.000000 0.000000
# 3 -0.010185 -0.001901 0.016115 0.000000 0.000000 0.000000
# 4 0.000000 0.000000 0.000000 0.060155 0.000000 0.000000
# 5 0.000000 0.000000 0.000000 0.000000 0.031043 0.000000
# 6 0.000000 0.000000 0.000000 0.000000 0.000000 0.048976
#
#
# Mechanical properties :
#
#
# Convention : Reuss Voigt Hill
#
# Bulk Modulus (GPa) = 49.98808 54.97040 52.47924
# Shear Modulus (GPa) = 17.99459 20.75064 19.37262
#
# Velocity S-wave (km/s) = 3.30987 3.55432 3.43427
# Velocity P-wave (km/s) = 6.71120 7.09300 6.90474
#
# Compressibility (1/GPa) = 0.02000477
#
# Stress axis : x y z
#
# Youngs Moduli (GPa) = 34.81095 32.60479 62.05235
#
# Poissons Ratio (x) = 0.51085 0.63197
# Poissons Ratio (y) = 0.54541 0.11799
# Poissons Ratio (z) = 0.35453 0.06200
#
# Static dielectric constant tensor:
#      x y z
#    x 1.558410 0.000000 0.000000 
#    y 0.000000 1.547070 0.000000 
#    z 0.000000 0.000000 1.532540 
# 
# From -- ./inp_files/14246.got.cif
#   From: 2010.05.17/outbox.cif.g08.bks.cpg/sg53_8_cif.got.tgz:14246.got - 2010.06.03 12:45:16.
