data_PCOD9416174
_publ_section_title
;
Structure prediction by ZEFSAII (Michael W. Deem and Ramdas Pophale) SiO2 
 PCOD9416174
Probable space group: P M N A
;
_chemical_formula_sum "Si O2"
_cell_formula_units_Z 64
_cell_length_a 8.458270
_cell_length_b 11.031765
_cell_length_c 34.441100
_cell_angle_alpha 90.000000
_cell_angle_beta 90.000000
_cell_angle_gamma 90.000000
_cell_volume 3213.686881
_symmetry_space_group_name_H-M "P M N A"
_symmetry_group_IT_number 53
_symmetry_cell_setting 'orthorhombic'
loop_
_space_group_symop_operation_xyz
x,y,z
1/2-x,-y,1/2+z
x,-y,-z
1/2-x,y,1/2-z
-x,-y,-z
1/2+x,y,1/2-z
-x,y,z
1/2+x,-y,1/2+z
loop_
_atom_site_type_symbol
_atom_site_label
_atom_site_fract_x
_atom_site_fract_y
_atom_site_fract_z
Si Si1 0.814898 0.188395 0.013162
Si Si2 0.685221 0.577840 0.945976
Si Si3 0.311768 0.679632 0.629216
Si Si4 0.312038 0.707134 0.208022
Si Si5 0.809877 0.426403 0.292530
Si Si6 0.313937 0.694172 0.059755
Si Si7 0.308378 0.065097 0.410646
Si Si8 0.186673 0.823051 0.130946
O O1 0.790060 0.318000 0.034619
O O2 0.754555 0.092334 0.045166
O O3 0.000000 0.166555 0.005778
O O4 0.729039 0.206120 0.972438
O O5 0.500000 0.600368 0.955320
O O6 0.715542 0.593047 0.900005
O O7 0.724595 0.439822 0.956341
O O8 0.500000 0.661021 0.624141
O O9 0.262608 0.652176 0.672952
O O10 0.274057 0.816036 0.615061
O O11 0.250000 0.747851 0.250000
O O12 0.500000 0.705391 0.209435
O O13 0.258454 0.567272 0.201961
O O14 0.258248 0.788164 0.172126
O O15 0.750000 0.388943 0.250000
O O16 0.000000 0.420995 0.293917
O O17 0.500000 0.695206 0.067869
O O18 0.222057 0.720088 0.099208
O O19 0.500000 0.056008 0.413438
O O20 0.248795 0.945712 0.389136
O O21 0.000000 0.836839 0.136002
#
# Coordination Sequence:
#
# PCOD9416174 Si02
#       8
#     8   8   8   8   8   8   8   8
#     4  10  20  36  57  79 105 140 183 227 272 322
#     4  10  20  34  52  76 109 143 174 217 273 327
#     4  10  19  34  56  79 105 138 178 220 265 319
#     4  10  21  38  59  85 115 143 174 215 265 318
#     4  10  20  34  54  82 114 142 170 211 264 321
#     4  11  23  36  51  78 114 145 177 222 273 323
#     4   8  19  38  56  76 104 140 181 227 271 312
#     4  11  22  38  59  80 106 143 186 226 267 315
#
# _framework density 19.914819999999999
#
# number of rings (size 3 to 8) (size 9 to 14) (size 15 to 20)
#    0.000    2.000    0.000    4.500    0.000    8.500 
#    0.000   10.625    0.000    0.000    0.000    0.000 
#    0.000    0.000    0.000    0.000    0.000    0.000 
#
# Total GULP energy -357527.460790 kJ/mol
# GULP energy per Si atom -5586.366575 kJ/mol
# Density = 1.986949 g / cm^3
# Si number density = 19.914820 Si / 1000 Ang^3
#
#
#
# Elastic Constant Matrix: (Units=GPa)
#
#
# Indices 1 2 3 4 5 6 
#
# 1 24.8360 4.4832 1.3995 0.0000 0.0000 0.0000
# 2 4.4832 47.8318 5.7865 0.0000 0.0000 0.0000
# 3 1.3995 5.7865 95.5372 0.0000 0.0000 0.0000
# 4 0.0000 0.0000 0.0000 26.4792 0.0000 0.0000
# 5 0.0000 0.0000 0.0000 0.0000 22.7415 0.0000
# 6 0.0000 0.0000 0.0000 0.0000 0.0000 -13.6428
#
#
#
# Elastic Compliance Matrix: (Units=1/GPa)
#
#
# Indices 1 2 3 4 5 6 
#
# 1 0.040970 -0.003795 -0.000370 0.000000 0.000000 0.000000
# 2 -0.003795 0.021412 -0.001241 0.000000 0.000000 0.000000
# 3 -0.000370 -0.001241 0.010548 0.000000 0.000000 0.000000
# 4 0.000000 0.000000 0.000000 0.037765 0.000000 0.000000
# 5 0.000000 0.000000 0.000000 0.000000 0.043972 0.000000
# 6 0.000000 0.000000 0.000000 0.000000 0.000000 -0.073299
#
#
# Mechanical properties :
#
#
# Convention : Reuss Voigt Hill
#
# Bulk Modulus (GPa) = 16.09876 21.28260 18.69068
# Shear Modulus (GPa) = 44.29150 17.55132 30.92141
#
# Velocity S-wave (km/s) = 4.72110 2.97192 3.94468
# Velocity P-wave (km/s) = 6.14977 4.74199 5.49118
#
# Compressibility (1/GPa) = 0.06211658
#
# Stress axis : x y z
#
# Youngs Moduli (GPa) = 24.40806 46.70172 94.80705
#
# Poissons Ratio (x) = 0.17725 0.03511
# Poissons Ratio (y) = 0.09263 0.11769
# Poissons Ratio (z) = 0.00904 0.05797
#
# Static dielectric constant tensor:
#      x y z
#    x 1.672640 0.000000 0.000000 
#    y 0.000000 1.727520 0.000000 
#    z 0.000000 0.000000 1.695620 
# 
# From -- ./inp_files/38197.got.cif
#   From: 2010.05.17/outbox.cif.g08.bks.cpg/sg53_20_cif.got.tgz:38197.got - 2010.06.03 12:45:16.
