data_PCOD9416489
_publ_section_title
;
Structure prediction by ZEFSAII (Michael W. Deem and Ramdas Pophale) SiO2 
 PCOD9416489
Probable space group: P M N A
;
_chemical_formula_sum "Si O2"
_cell_formula_units_Z 48
_cell_length_a 14.726799
_cell_length_b 9.689591
_cell_length_c 15.238682
_cell_angle_alpha 90.000000
_cell_angle_beta 90.000000
_cell_angle_gamma 90.000000
_cell_volume 2174.509010
_symmetry_space_group_name_H-M "P M N A"
_symmetry_group_IT_number 53
_symmetry_cell_setting 'orthorhombic'
loop_
_space_group_symop_operation_xyz
x,y,z
1/2-x,-y,1/2+z
x,-y,-z
1/2-x,y,1/2-z
-x,-y,-z
1/2+x,y,1/2-z
-x,y,z
1/2+x,-y,1/2+z
loop_
_atom_site_type_symbol
_atom_site_label
_atom_site_fract_x
_atom_site_fract_y
_atom_site_fract_z
Si Si1 0.605137 0.704910 0.749628
Si Si2 0.644298 0.979218 0.220363
Si Si3 0.109812 0.368418 0.438959
Si Si4 0.833017 0.720983 0.182326
Si Si5 0.395662 0.454948 0.406772
Si Si6 0.708300 0.865994 0.045452
O O1 0.500000 0.663176 0.743090
O O2 0.640062 0.627372 0.836895
O O3 0.646402 0.664029 0.655101
O O4 0.607341 0.868773 0.765209
O O5 0.750000 0.990100 0.250000
O O6 0.611163 0.848446 0.276613
O O7 0.642397 0.929683 0.120153
O O8 0.132073 0.500000 0.500000
O O9 0.154384 0.233586 0.481216
O O10 0.000000 0.355250 0.439159
O O11 0.750000 0.687654 0.250000
O O12 0.889326 0.588248 0.155931
O O13 0.783702 0.778715 0.095928
O O14 0.353553 0.500000 0.500000
O O15 0.500000 0.415427 0.427629
O O16 0.750116 0.000000 0.000000
#
# Coordination Sequence:
#
# PCOD9416489 Si02
#       6
#     8   8   8   8   8   8
#     4  10  21  38  60  86 117 153 196 243 288 345
#     4   9  20  37  54  82 118 153 189 237 289 347
#     4  10  22  36  55  89 126 156 192 236 291 363
#     4   9  22  39  58  87 116 150 196 242 293 351
#     4  10  23  43  62  83 116 158 202 247 294 345
#     4  10  19  36  58  83 123 157 190 238 296 359
#
# _framework density 22.073948999999999
#
# number of rings (size 3 to 8) (size 9 to 14) (size 15 to 20)
#    0.000    2.667    1.667    0.000    4.667    5.667 
#    0.000    0.000    0.000    3.500    0.000    0.000 
#    0.000    0.000    0.000    0.000    0.000    0.000 
#
# Total GULP energy -267739.630666 kJ/mol
# GULP energy per Si atom -5577.908972 kJ/mol
# Density = 2.202371 g / cm^3
# Si number density = 22.073949 Si / 1000 Ang^3
#
#
#
# Elastic Constant Matrix: (Units=GPa)
#
#
# Indices 1 2 3 4 5 6 
#
# 1 53.7053 -11.6953 -1.8437 0.0000 0.0000 0.0000
# 2 -11.6953 81.4249 24.2209 0.0000 0.0000 0.0000
# 3 -1.8437 24.2209 127.1651 0.0000 0.0000 0.0000
# 4 0.0000 0.0000 0.0000 34.6439 0.0000 0.0000
# 5 0.0000 0.0000 0.0000 0.0000 -3.4590 0.0000
# 6 0.0000 0.0000 0.0000 0.0000 0.0000 21.8410
#
#
#
# Elastic Compliance Matrix: (Units=1/GPa)
#
#
# Indices 1 2 3 4 5 6 
#
# 1 0.019230 0.002840 -0.000262 0.000000 0.000000 0.000000
# 2 0.002840 0.013438 -0.002518 0.000000 0.000000 0.000000
# 3 -0.000262 -0.002518 0.008340 0.000000 0.000000 0.000000
# 4 0.000000 0.000000 0.000000 0.028865 0.000000 0.000000
# 5 0.000000 0.000000 0.000000 0.000000 -0.289102 0.000000
# 6 0.000000 0.000000 0.000000 0.000000 0.000000 0.045785
#
#
# Mechanical properties :
#
#
# Convention : Reuss Voigt Hill
#
# Bulk Modulus (GPa) = 24.31523 31.51767 27.91645
# Shear Modulus (GPa) = -31.27851 27.37943 -1.94954
#
# Velocity S-wave (km/s) = -3.76837 3.52568 -0.94080
# Velocity P-wave (km/s) = 2.80979 5.55726 3.39030
#
# Compressibility (1/GPa) = 0.04112649
#
# Stress axis : x y z
#
# Youngs Moduli (GPa) = 52.00318 74.41423 119.90894
#
# Poissons Ratio (x) = -0.21134 0.03143
# Poissons Ratio (y) = -0.14769 0.30198
# Poissons Ratio (z) = 0.01363 0.18740
#
# Static dielectric constant tensor:
#      x y z
#    x 1.822530 0.000000 0.000000 
#    y 0.000000 1.819890 0.000000 
#    z 0.000000 0.000000 1.914860 
# 
# From -- ./inp_files/23602.got.cif
#   From: 2010.05.17/outbox.cif.g08.bks.cpg/sg53_12_cif.got.tgz:23602.got - 2010.06.03 12:45:16.
