data_PCOD9416073
_publ_section_title
;
Structure prediction by ZEFSAII (Michael W. Deem and Ramdas Pophale) SiO2 
 PCOD9416073
Probable space group: P M N A
;
_chemical_formula_sum "Si O2"
_cell_formula_units_Z 48
_cell_length_a 16.411763
_cell_length_b 16.657135
_cell_length_c 8.356664
_cell_angle_alpha 90.000000
_cell_angle_beta 90.000000
_cell_angle_gamma 90.000000
_cell_volume 2284.485906
_symmetry_space_group_name_H-M "P M N A"
_symmetry_group_IT_number 53
_symmetry_cell_setting 'orthorhombic'
loop_
_space_group_symop_operation_xyz
x,y,z
1/2-x,-y,1/2+z
x,-y,-z
1/2-x,y,1/2-z
-x,-y,-z
1/2+x,y,1/2-z
-x,y,z
1/2+x,-y,1/2+z
loop_
_atom_site_type_symbol
_atom_site_label
_atom_site_fract_x
_atom_site_fract_y
_atom_site_fract_z
Si Si1 0.156777 0.915199 0.700222
Si Si2 0.343324 0.408467 0.310752
Si Si3 0.656006 0.583046 0.307275
Si Si4 0.404523 0.917969 0.163632
Si Si5 0.842351 0.749807 0.312635
Si Si6 0.593214 0.750383 0.840900
O O1 0.250000 0.910732 0.750000
O O2 0.142098 0.916461 0.507537
O O3 0.113427 0.832644 0.752843
O O4 0.121794 0.001322 0.754874
O O5 0.250000 0.400989 0.250000
O O6 0.343488 0.411429 0.501972
O O7 0.376985 0.495748 0.255610
O O8 0.392112 0.331046 0.254202
O O9 0.750000 0.582271 0.250000
O O10 0.618776 0.665622 0.242847
O O11 0.500000 0.923144 0.128916
O O12 0.384542 0.832414 0.242203
O O13 0.750000 0.752723 0.250000
O O14 0.848142 0.747178 0.504806
O O15 0.500000 0.755758 0.897560
#
# Coordination Sequence:
#
# PCOD9416073 Si02
#       6
#     8   8   8   8   8   8
#     4  10  19  33  57  84 108 145 194 235 273 335
#     4  10  19  36  60  84 112 152 196 239 287 346
#     4   9  19  34  57  86 114 146 193 245 288 333
#     4  10  20  37  57  83 117 151 183 232 293 344
#     4  10  19  34  58  86 113 149 197 240 281 341
#     4  11  23  39  57  85 119 154 191 239 296 347
#
# _framework density 21.011292999999998
#
# number of rings (size 3 to 8) (size 9 to 14) (size 15 to 20)
#    0.000    2.000    0.000    6.500    0.000    4.667 
#    0.000    5.833    0.000    0.000    0.000   23.333 
#    0.000    0.000    0.000    0.000    0.000    0.000 
#
# Total GULP energy -267703.678735 kJ/mol
# GULP energy per Si atom -5577.159974 kJ/mol
# Density = 2.096347 g / cm^3
# Si number density = 21.011293 Si / 1000 Ang^3
#
#
#
# Elastic Constant Matrix: (Units=GPa)
#
#
# Indices 1 2 3 4 5 6 
#
# 1 91.9989 32.0064 18.7417 0.0000 0.0000 0.0000
# 2 32.0064 249.3973 29.5253 0.0000 0.0000 0.0000
# 3 18.7417 29.5253 25.5942 0.0000 0.0000 0.0000
# 4 0.0000 0.0000 0.0000 20.5425 0.0000 0.0000
# 5 0.0000 0.0000 0.0000 0.0000 120.4608 0.0000
# 6 0.0000 0.0000 0.0000 0.0000 0.0000 -39.4404
#
#
#
# Elastic Compliance Matrix: (Units=1/GPa)
#
#
# Indices 1 2 3 4 5 6 
#
# 1 0.012858 -0.000620 -0.008700 0.000000 0.000000 0.000000
# 2 -0.000620 0.004674 -0.004938 0.000000 0.000000 0.000000
# 3 -0.008700 -0.004938 0.051138 0.000000 0.000000 0.000000
# 4 0.000000 0.000000 0.000000 0.048680 0.000000 0.000000
# 5 0.000000 0.000000 0.000000 0.000000 0.008301 0.000000
# 6 0.000000 0.000000 0.000000 0.000000 0.000000 -0.025355
#
#
# Mechanical properties :
#
#
# Convention : Reuss Voigt Hill
#
# Bulk Modulus (GPa) = 24.90397 58.61524 41.75960
# Shear Modulus (GPa) = 35.16291 39.42706 37.29498
#
# Velocity S-wave (km/s) = 4.09531 4.33652 4.21764
# Velocity P-wave (km/s) = 5.85154 7.28227 6.60575
#
# Compressibility (1/GPa) = 0.04015424
#
# Stress axis : x y z
#
# Youngs Moduli (GPa) = 77.77413 213.95902 19.55503
#
# Poissons Ratio (x) = 0.13269 0.17013
# Poissons Ratio (y) = 0.04823 0.09655
# Poissons Ratio (z) = 0.67662 1.05643
#
# Static dielectric constant tensor:
#      x y z
#    x 1.720190 0.000000 0.000000 
#    y 0.000000 1.871850 0.000000 
#    z 0.000000 0.000000 1.736320 
# 
# From -- ./inp_files/8643.got.cif
#   From: 2010.05.17/outbox.cif.g08.bks.cpg/sg53_5_cif.got.tgz:8643.got - 2010.06.03 12:45:16.
