data_PCOD9416000
_publ_section_title
;
Structure prediction by ZEFSAII (Michael W. Deem and Ramdas Pophale) SiO2 
 PCOD9416000
Probable space group: P M N A
;
_chemical_formula_sum "Si O2"
_cell_formula_units_Z 48
_cell_length_a 9.320621
_cell_length_b 8.914102
_cell_length_c 31.725085
_cell_angle_alpha 90.000000
_cell_angle_beta 90.000000
_cell_angle_gamma 90.000000
_cell_volume 2635.877618
_symmetry_space_group_name_H-M "P M N A"
_symmetry_group_IT_number 53
_symmetry_cell_setting 'orthorhombic'
loop_
_space_group_symop_operation_xyz
x,y,z
1/2-x,-y,1/2+z
x,-y,-z
1/2-x,y,1/2-z
-x,-y,-z
1/2+x,y,1/2-z
-x,y,z
1/2+x,-y,1/2+z
loop_
_atom_site_type_symbol
_atom_site_label
_atom_site_fract_x
_atom_site_fract_y
_atom_site_fract_z
Si Si1 0.663912 0.074161 0.291216
Si Si2 0.333004 0.076878 0.126065
Si Si3 0.666519 0.440274 0.292098
Si Si4 0.170172 0.586057 0.043939
Si Si5 0.169928 0.564083 0.622464
Si Si6 0.168722 0.103831 0.540728
O O1 0.750000 0.024502 0.250000
O O2 0.500000 0.025632 0.289007
O O3 0.737249 0.026750 0.334723
O O4 0.666532 0.257193 0.291303
O O5 0.500000 0.053594 0.137062
O O6 0.314047 0.255278 0.119335
O O7 0.302214 0.989938 0.083092
O O8 0.750000 0.489697 0.250000
O O9 0.500000 0.487742 0.292503
O O10 0.751196 0.484398 0.334402
O O11 0.255266 0.509446 0.082246
O O12 0.230469 0.752946 0.039049
O O13 0.000000 0.584271 0.052477
O O14 0.195651 0.500000 0.000000
O O15 0.000000 0.530262 0.624035
O O16 0.000000 0.149146 0.541376
O O17 0.189647 0.000000 0.500000
#
# Coordination Sequence:
#
# PCOD9416000 Si02
#       6
#     8   8   8   8   8   8
#     4   9  16  26  44  71 104 140 176 215 258 304
#     4   9  18  32  52  79 108 137 174 219 263 309
#     4   9  16  27  45  73 108 142 178 219 261 307
#     4  11  24  39  55  78 108 140 175 217 265 318
#     4  10  19  33  55  80 107 141 179 220 266 313
#     4  10  21  38  59  81 105 136 175 217 262 315
#
# _framework density 18.210253000000002
#
# number of rings (size 3 to 8) (size 9 to 14) (size 15 to 20)
#    0.000    2.333    0.000    3.000    0.000    8.333 
#    0.000    0.000    0.000    1.000    0.000    2.333 
#    0.000    0.000    0.000    0.000    0.000    0.000 
#
# Total GULP energy -267938.132065 kJ/mol
# GULP energy per Si atom -5582.044418 kJ/mol
# Density = 1.816881 g / cm^3
# Si number density = 18.210253 Si / 1000 Ang^3
#
#
#
# Elastic Constant Matrix: (Units=GPa)
#
#
# Indices 1 2 3 4 5 6 
#
# 1 156.6905 54.6844 125.0115 0.0000 0.0000 0.0000
# 2 54.6844 31.1118 44.1672 0.0000 0.0000 0.0000
# 3 125.0115 44.1672 174.5485 0.0000 0.0000 0.0000
# 4 0.0000 0.0000 0.0000 20.4480 0.0000 0.0000
# 5 0.0000 0.0000 0.0000 0.0000 35.6104 0.0000
# 6 0.0000 0.0000 0.0000 0.0000 0.0000 14.0557
#
#
#
# Elastic Compliance Matrix: (Units=1/GPa)
#
#
# Indices 1 2 3 4 5 6 
#
# 1 0.024690 -0.028549 -0.010459 0.000000 0.000000 0.000000
# 2 -0.028549 0.083172 -0.000599 0.000000 0.000000 0.000000
# 3 -0.010459 -0.000599 0.013371 0.000000 0.000000 0.000000
# 4 0.000000 0.000000 0.000000 0.048904 0.000000 0.000000
# 5 0.000000 0.000000 0.000000 0.000000 0.028082 0.000000
# 6 0.000000 0.000000 0.000000 0.000000 0.000000 0.071146
#
#
# Mechanical properties :
#
#
# Convention : Reuss Voigt Hill
#
# Bulk Modulus (GPa) = 23.79832 90.00855 56.90343
# Shear Modulus (GPa) = 13.78986 23.25534 18.52260
#
# Velocity S-wave (km/s) = 2.75482 3.57746 3.19274
# Velocity P-wave (km/s) = 4.81827 8.16082 6.70129
#
# Compressibility (1/GPa) = 0.04201977
#
# Stress axis : x y z
#
# Youngs Moduli (GPa) = 40.50238 12.02326 74.78705
#
# Poissons Ratio (x) = 0.34325 0.78219
# Poissons Ratio (y) = 1.15630 0.04479
# Poissons Ratio (z) = 0.42361 0.00720
#
# Static dielectric constant tensor:
#      x y z
#    x 1.611270 0.000000 0.000000 
#    y 0.000000 1.613490 0.000000 
#    z 0.000000 0.000000 1.598610 
# 
# From -- ./inp_files/37675.got.cif
#   From: 2010.05.17/outbox.cif.g08.bks.cpg/sg53_19_cif.got.tgz:37675.got - 2010.06.03 12:45:16.
