data_PCOD9416075
_publ_section_title
;
Structure prediction by ZEFSAII (Michael W. Deem and Ramdas Pophale) SiO2 
 PCOD9416075
Probable space group: P M N A
;
_chemical_formula_sum "Si O2"
_cell_formula_units_Z 48
_cell_length_a 8.729871
_cell_length_b 10.501110
_cell_length_c 28.849139
_cell_angle_alpha 90.000000
_cell_angle_beta 90.000000
_cell_angle_gamma 90.000000
_cell_volume 2644.696803
_symmetry_space_group_name_H-M "P M N A"
_symmetry_group_IT_number 53
_symmetry_cell_setting 'orthorhombic'
loop_
_space_group_symop_operation_xyz
x,y,z
1/2-x,-y,1/2+z
x,-y,-z
1/2-x,y,1/2-z
-x,-y,-z
1/2+x,y,1/2-z
-x,y,z
1/2+x,-y,1/2+z
loop_
_atom_site_type_symbol
_atom_site_label
_atom_site_fract_x
_atom_site_fract_y
_atom_site_fract_z
Si Si1 0.182663 0.605949 0.799153
Si Si2 0.315778 0.254278 0.947671
Si Si3 0.316580 0.109664 0.201241
Si Si4 0.683114 0.510767 0.892197
Si Si5 0.683975 0.009806 0.101860
Si Si6 0.681827 0.746103 0.550332
O O1 0.250000 0.561411 0.750000
O O2 0.247326 0.749304 0.806388
O O3 0.238805 0.523009 0.842225
O O4 0.000000 0.611191 0.797047
O O5 0.500000 0.253961 0.955524
O O6 0.278114 0.380329 0.918526
O O7 0.276380 0.126986 0.919236
O O8 0.233535 0.255064 0.997031
O O9 0.250000 0.061637 0.250000
O O10 0.500000 0.121280 0.204969
O O11 0.279253 0.025929 0.156231
O O12 0.500000 0.517461 0.886568
O O13 0.738333 0.629850 0.922826
O O14 0.500000 0.026872 0.097161
O O15 0.764794 0.122422 0.073775
O O16 0.500000 0.732636 0.554309
#
# Coordination Sequence:
#
# PCOD9416075 Si02
#       6
#     8   8   8   8   8   8
#     4  11  21  35  58  87 117 148 189 237 286 338
#     4  10  23  41  60  82 114 156 196 236 288 347
#     4  10  19  33  57  85 114 147 186 233 283 336
#     4  11  22  39  61  85 115 153 196 239 286 341
#     4  10  21  39  61  84 114 153 194 234 286 346
#     4  12  24  37  58  87 116 150 195 242 289 341
#
# _framework density 18.149528
#
# number of rings (size 3 to 8) (size 9 to 14) (size 15 to 20)
#    0.000    1.333    1.667    6.000    0.000    6.667 
#    0.000    0.833    0.000    2.000    0.000    0.000 
#    0.000    0.000    0.000    0.000    0.000    0.000 
#
# Total GULP energy -268332.763310 kJ/mol
# GULP energy per Si atom -5590.265902 kJ/mol
# Density = 1.810822 g / cm^3
# Si number density = 18.149528 Si / 1000 Ang^3
#
#
#
# Elastic Constant Matrix: (Units=GPa)
#
#
# Indices 1 2 3 4 5 6 
#
# 1 77.8446 43.4139 63.8289 0.0000 0.0000 0.0000
# 2 43.4139 105.2723 58.4423 0.0000 0.0000 0.0000
# 3 63.8289 58.4423 160.7990 0.0000 0.0000 0.0000
# 4 0.0000 0.0000 0.0000 -10.8409 0.0000 0.0000
# 5 0.0000 0.0000 0.0000 0.0000 35.8846 0.0000
# 6 0.0000 0.0000 0.0000 0.0000 0.0000 1.4053
#
#
#
# Elastic Compliance Matrix: (Units=1/GPa)
#
#
# Indices 1 2 3 4 5 6 
#
# 1 0.020989 -0.005049 -0.006496 0.000000 0.000000 0.000000
# 2 -0.005049 0.013115 -0.002762 0.000000 0.000000 0.000000
# 3 -0.006496 -0.002762 0.009802 0.000000 0.000000 0.000000
# 4 0.000000 0.000000 0.000000 -0.092243 0.000000 0.000000
# 5 0.000000 0.000000 0.000000 0.000000 0.027867 0.000000
# 6 0.000000 0.000000 0.000000 0.000000 0.000000 0.711611
#
#
# Mechanical properties :
#
#
# Convention : Reuss Voigt Hill
#
# Bulk Modulus (GPa) = 65.40405 75.03176 70.21791
# Shear Modulus (GPa) = 6.89796 17.17186 12.03491
#
# Velocity S-wave (km/s) = 1.95163 3.07926 2.57786
# Velocity P-wave (km/s) = 6.41817 7.35344 6.90167
#
# Compressibility (1/GPa) = 0.01528957
#
# Stress axis : x y z
#
# Youngs Moduli (GPa) = 47.64464 76.24863 102.02400
#
# Poissons Ratio (x) = 0.38500 0.66278
# Poissons Ratio (y) = 0.24057 0.28183
# Poissons Ratio (z) = 0.30951 0.21063
#
# Static dielectric constant tensor:
#      x y z
#    x 1.609680 0.000000 0.000000 
#    y 0.000000 1.589620 0.000000 
#    z 0.000000 0.000000 1.618750 
# 
# From -- ./inp_files/37762.got.cif
#   From: 2010.05.17/outbox.cif.g08.bks.cpg/sg53_19_cif.got.tgz:37762.got - 2010.06.03 12:45:16.
