data_PCOD9416103
_publ_section_title
;
Structure prediction by ZEFSAII (Michael W. Deem and Ramdas Pophale) SiO2 
 PCOD9416103
Probable space group: P M N A
;
_chemical_formula_sum "Si O2"
_cell_formula_units_Z 48
_cell_length_a 14.412734
_cell_length_b 17.150046
_cell_length_c 7.734483
_cell_angle_alpha 90.000000
_cell_angle_beta 90.000000
_cell_angle_gamma 90.000000
_cell_volume 1911.802169
_symmetry_space_group_name_H-M "P M N A"
_symmetry_group_IT_number 53
_symmetry_cell_setting 'orthorhombic'
loop_
_space_group_symop_operation_xyz
x,y,z
1/2-x,-y,1/2+z
x,-y,-z
1/2-x,y,1/2-z
-x,-y,-z
1/2+x,y,1/2-z
-x,y,z
1/2+x,-y,1/2+z
loop_
_atom_site_type_symbol
_atom_site_label
_atom_site_fract_x
_atom_site_fract_y
_atom_site_fract_z
Si Si1 0.397481 0.884024 0.131236
Si Si2 0.603469 0.460765 0.309891
Si Si3 0.391785 0.821278 0.494603
Si Si4 0.789430 0.326559 0.024460
Si Si5 0.611522 0.625482 0.167205
Si Si6 0.853841 0.945088 0.724694
O O1 0.500000 0.850981 0.101857
O O2 0.359618 0.839907 0.298592
O O3 0.405214 0.974646 0.186613
O O4 0.352353 0.889205 0.943562
O O5 0.597459 0.500000 0.500000
O O6 0.500000 0.434030 0.260045
O O7 0.670508 0.389368 0.342396
O O8 0.629914 0.532077 0.184790
O O9 0.500000 0.794915 0.490850
O O10 0.322316 0.758936 0.576720
O O11 0.388828 0.898820 0.610138
O O12 0.850499 0.340905 0.848791
O O13 0.682140 0.339129 0.973203
O O14 0.500000 0.636753 0.148605
O O15 0.750000 0.972565 0.750000
#
# Coordination Sequence:
#
# PCOD9416103 Si02
#       6
#     8   8   8   8   8   8
#     4  10  23  43  66  94 135 184 233 294 353 418
#     4   8  14  29  55  83 116 162 218 269 321 396
#     4  11  23  40  68 101 138 185 237 291 366 437
#     4  10  19  33  61  94 125 165 228 288 344 421
#     4   9  18  33  56  87 125 171 221 280 342 413
#     4  11  24  39  65  97 136 183 237 293 345 426
#
# _framework density 25.107202000000001
#
# number of rings (size 3 to 8) (size 9 to 14) (size 15 to 20)
#    0.000    2.167    0.000    5.000    4.667    4.000 
#    0.000    0.000   14.667   16.500    0.000    0.000 
#    0.000    0.000    0.000    0.000    0.000    0.000 
#
# Total GULP energy -268488.369351 kJ/mol
# GULP energy per Si atom -5593.507695 kJ/mol
# Density = 2.505006 g / cm^3
# Si number density = 25.107202 Si / 1000 Ang^3
#
#
#
# Elastic Constant Matrix: (Units=GPa)
#
#
# Indices 1 2 3 4 5 6 
#
# 1 160.9050 29.6427 18.2290 0.0000 0.0000 0.0000
# 2 29.6427 71.3924 -0.3444 0.0000 0.0000 0.0000
# 3 18.2290 -0.3444 82.2444 0.0000 0.0000 0.0000
# 4 0.0000 0.0000 0.0000 -3.2855 0.0000 0.0000
# 5 0.0000 0.0000 0.0000 0.0000 22.1276 0.0000
# 6 0.0000 0.0000 0.0000 0.0000 0.0000 31.5560
#
#
#
# Elastic Compliance Matrix: (Units=1/GPa)
#
#
# Indices 1 2 3 4 5 6 
#
# 1 0.006921 -0.002881 -0.001546 0.000000 0.000000 0.000000
# 2 -0.002881 0.015207 0.000702 0.000000 0.000000 0.000000
# 3 -0.001546 0.000702 0.012504 0.000000 0.000000 0.000000
# 4 0.000000 0.000000 0.000000 -0.304370 0.000000 0.000000
# 5 0.000000 0.000000 0.000000 0.000000 0.045192 0.000000
# 6 0.000000 0.000000 0.000000 0.000000 0.000000 0.031690
#
#
# Mechanical properties :
#
#
# Convention : Reuss Voigt Hill
#
# Bulk Modulus (GPa) = 36.78854 45.51071 41.14963
# Shear Modulus (GPa) = -28.35345 27.88059 -0.23643
#
# Velocity S-wave (km/s) = -3.36415 3.33597 -0.30720
# Velocity P-wave (km/s) = 0.63684 5.74493 4.03724
#
# Compressibility (1/GPa) = 0.02718238
#
# Stress axis : x y z
#
# Youngs Moduli (GPa) = 144.49296 65.76047 79.97127
#
# Poissons Ratio (x) = 0.18946 0.12364
# Poissons Ratio (y) = 0.41629 -0.05616
# Poissons Ratio (z) = 0.22339 -0.04618
#
# Static dielectric constant tensor:
#      x y z
#    x 1.962240 0.000000 0.000000 
#    y 0.000000 2.014530 0.000000 
#    z 0.000000 0.000000 2.033340 
# 
# From -- ./inp_files/8699.got.cif
#   From: 2010.05.17/outbox.cif.g08.bks.cpg/sg53_5_cif.got.tgz:8699.got - 2010.06.03 12:45:16.
