data_PCOD9416460
_publ_section_title
;
Structure prediction by ZEFSAII (Michael W. Deem and Ramdas Pophale) SiO2 
 PCOD9416460
Probable space group: P M N A
;
_chemical_formula_sum "Si O2"
_cell_formula_units_Z 64
_cell_length_a 18.739109
_cell_length_b 17.454917
_cell_length_c 12.439423
_cell_angle_alpha 90.000000
_cell_angle_beta 90.000000
_cell_angle_gamma 90.000000
_cell_volume 4068.805797
_symmetry_space_group_name_H-M "P M N A"
_symmetry_group_IT_number 53
_symmetry_cell_setting 'orthorhombic'
loop_
_space_group_symop_operation_xyz
x,y,z
1/2-x,-y,1/2+z
x,-y,-z
1/2-x,y,1/2-z
-x,-y,-z
1/2+x,y,1/2-z
-x,y,z
1/2+x,-y,1/2+z
loop_
_atom_site_type_symbol
_atom_site_label
_atom_site_fract_x
_atom_site_fract_y
_atom_site_fract_z
Si Si1 0.326039 0.818390 0.304910
Si Si2 0.833483 0.809224 0.779019
Si Si3 0.634086 0.091682 0.084907
Si Si4 0.301348 0.086911 0.476955
Si Si5 0.582323 0.923960 0.146424
Si Si6 0.415802 0.328622 0.628586
Si Si7 0.086652 0.496683 0.875574
Si Si8 0.084093 0.664809 0.867967
O O1 0.250000 0.802779 0.250000
O O2 0.313636 0.861851 0.417765
O O3 0.370040 0.874726 0.226853
O O4 0.369625 0.740626 0.325831
O O5 0.750000 0.798713 0.750000
O O6 0.871036 0.843068 0.673711
O O7 0.837222 0.871938 0.874795
O O8 0.869091 0.731318 0.817592
O O9 0.717036 0.083939 0.050774
O O10 0.609472 0.011383 0.136469
O O11 0.591162 0.106294 0.975729
O O12 0.325492 0.000000 0.500000
O O13 0.500000 0.922214 0.178891
O O14 0.500000 0.317821 0.653350
O O15 0.392290 0.413485 0.668750
O O16 0.409959 0.330871 0.498206
O O17 0.106817 0.579509 0.829395
O O18 0.000000 0.495732 0.876610
O O19 0.109877 0.500000 0.000000
O O20 0.000000 0.675033 0.843367
#
# Coordination Sequence:
#
# PCOD9416460 Si02
#       8
#     8   8   8   8   8   8   8   8
#     4  12  21  33  52  75 103 132 166 209 254 306
#     4  10  21  32  51  76 100 132 165 208 256 299
#     4  10  19  36  52  69  95 134 177 213 237 293
#     4  11  19  34  52  71  97 132 173 207 255 301
#     4  11  22  36  53  73  98 134 176 216 249 286
#     4   9  17  31  51  75 102 127 158 204 250 296
#     4   7  12  25  48  73  96 127 160 191 239 301
#     4   9  16  30  51  75 101 127 159 201 250 301
#
# _framework density 15.729431
#
# number of rings (size 3 to 8) (size 9 to 14) (size 15 to 20)
#    0.000    2.125    3.750    3.375    0.000    2.000 
#    0.000    0.625    0.000    1.875    0.000    0.875 
#    0.000    4.000    0.000    0.000    0.000    0.000 
#
# Total GULP energy -356601.839764 kJ/mol
# GULP energy per Si atom -5571.903746 kJ/mol
# Density = 1.569363 g / cm^3
# Si number density = 15.729431 Si / 1000 Ang^3
#
#
#
# Elastic Constant Matrix: (Units=GPa)
#
#
# Indices 1 2 3 4 5 6 
#
# 1 65.6398 49.3637 25.9267 0.0000 0.0000 0.0000
# 2 49.3637 118.1952 41.2172 0.0000 0.0000 0.0000
# 3 25.9267 41.2172 52.4477 0.0000 0.0000 0.0000
# 4 0.0000 0.0000 0.0000 17.5855 0.0000 0.0000
# 5 0.0000 0.0000 0.0000 0.0000 7.3176 0.0000
# 6 0.0000 0.0000 0.0000 0.0000 0.0000 13.3237
#
#
#
# Elastic Compliance Matrix: (Units=1/GPa)
#
#
# Indices 1 2 3 4 5 6 
#
# 1 0.023240 -0.007852 -0.005318 0.000000 0.000000 0.000000
# 2 -0.007852 0.014307 -0.007362 0.000000 0.000000 0.000000
# 3 -0.005318 -0.007362 0.027481 0.000000 0.000000 0.000000
# 4 0.000000 0.000000 0.000000 0.056865 0.000000 0.000000
# 5 0.000000 0.000000 0.000000 0.000000 0.136657 0.000000
# 6 0.000000 0.000000 0.000000 0.000000 0.000000 0.075054
#
#
# Mechanical properties :
#
#
# Convention : Reuss Voigt Hill
#
# Bulk Modulus (GPa) = 41.72806 52.14421 46.93613
# Shear Modulus (GPa) = 13.06655 15.63035 14.34845
#
# Velocity S-wave (km/s) = 2.88533 3.15572 3.02355
# Velocity P-wave (km/s) = 6.13892 6.81915 6.48796
#
# Compressibility (1/GPa) = 0.02396469
#
# Stress axis : x y z
#
# Youngs Moduli (GPa) = 43.02951 69.89525 36.38838
#
# Poissons Ratio (x) = 0.54879 0.19351
# Poissons Ratio (y) = 0.33785 0.26790
# Poissons Ratio (z) = 0.22883 0.51459
#
# Static dielectric constant tensor:
#      x y z
#    x 1.515520 0.000000 0.000000 
#    y 0.000000 1.534920 0.000000 
#    z 0.000000 0.000000 1.515040 
# 
# From -- ./inp_files/17166.got.cif
#   From: 2010.05.17/outbox.cif.g08.bks.cpg/sg53_9_cif.got.tgz:17166.got - 2010.06.03 12:45:16.
