data_PCOD9416827
_publ_section_title
;
Structure prediction by ZEFSAII (Michael W. Deem and Ramdas Pophale) SiO2 
 PCOD9416827
Probable space group: P M N A
;
_chemical_formula_sum "Si O2"
_cell_formula_units_Z 64
_cell_length_a 8.362437
_cell_length_b 15.930648
_cell_length_c 25.975104
_cell_angle_alpha 90.000000
_cell_angle_beta 90.000000
_cell_angle_gamma 90.000000
_cell_volume 3460.378426
_symmetry_space_group_name_H-M "P M N A"
_symmetry_group_IT_number 53
_symmetry_cell_setting 'orthorhombic'
loop_
_space_group_symop_operation_xyz
x,y,z
1/2-x,-y,1/2+z
x,-y,-z
1/2-x,y,1/2-z
-x,-y,-z
1/2+x,y,1/2-z
-x,y,z
1/2+x,-y,1/2+z
loop_
_atom_site_type_symbol
_atom_site_label
_atom_site_fract_x
_atom_site_fract_y
_atom_site_fract_z
Si Si1 0.184858 0.642042 0.930775
Si Si2 0.312955 0.885622 0.693710
Si Si3 0.191432 0.516005 0.695995
Si Si4 0.185781 0.705859 0.671763
Si Si5 0.316480 0.297584 0.966378
Si Si6 0.806887 0.877445 0.029449
Si Si7 0.687337 0.454683 0.589881
Si Si8 0.694353 0.054813 0.419248
O O1 0.287601 0.691418 0.888974
O O2 0.235761 0.544360 0.935178
O O3 0.000000 0.642259 0.913388
O O4 0.203195 0.684877 0.985192
O O5 0.250000 0.914120 0.750000
O O6 0.500000 0.903961 0.693595
O O7 0.284162 0.785431 0.690347
O O8 0.247263 0.921009 0.638363
O O9 0.250000 0.481733 0.750000
O O10 0.234691 0.615089 0.693522
O O11 0.280758 0.471025 0.649662
O O12 0.000000 0.510298 0.689531
O O13 0.000000 0.720881 0.683582
O O14 0.500000 0.299147 0.983085
O O15 0.270726 0.205533 0.947153
O O16 0.284501 0.374604 0.928454
O O17 0.000000 0.870844 0.029721
O O18 0.765570 0.960476 0.062217
O O19 0.756034 0.889546 0.969204
O O20 0.500000 0.441501 0.578701
O O21 0.500000 0.061271 0.417781
#
# Coordination Sequence:
#
# PCOD9416827 Si02
#       8
#     8   8   8   8   8   8   8   8
#     4  10  20  34  52  74 103 141 179 212 250 301
#     4  11  21  33  50  76 109 144 177 210 253 308
#     4  10  20  34  52  73 100 134 173 216 259 303
#     4  10  20  33  50  76 107 139 175 214 256 301
#     4  12  23  33  49  77 109 137 168 209 259 310
#     4   9  17  35  60  80  98 128 171 218 266 314
#     4  10  21  36  53  73  99 135 177 216 256 302
#     4   8  17  34  57  80 101 129 170 216 261 311
#
# _framework density 18.495085
#
# number of rings (size 3 to 8) (size 9 to 14) (size 15 to 20)
#    0.000    2.000    0.000    5.250    0.000    6.500 
#    0.000    3.125    0.000    0.750    0.000    3.500 
#    0.000    0.000    0.000    0.000    0.000    0.000 
#
# Total GULP energy -357060.895956 kJ/mol
# GULP energy per Si atom -5579.076499 kJ/mol
# Density = 1.845299 g / cm^3
# Si number density = 18.495085 Si / 1000 Ang^3
#
#
#
# Elastic Constant Matrix: (Units=GPa)
#
#
# Indices 1 2 3 4 5 6 
#
# 1 24.1833 10.6647 4.0841 0.0000 0.0000 0.0000
# 2 10.6647 67.6305 22.2389 0.0000 0.0000 0.0000
# 3 4.0841 22.2389 80.3543 0.0000 0.0000 0.0000
# 4 0.0000 0.0000 0.0000 0.6763 0.0000 0.0000
# 5 0.0000 0.0000 0.0000 0.0000 25.7601 0.0000
# 6 0.0000 0.0000 0.0000 0.0000 0.0000 13.9082
#
#
#
# Elastic Compliance Matrix: (Units=1/GPa)
#
#
# Indices 1 2 3 4 5 6 
#
# 1 0.044450 -0.006894 -0.000351 0.000000 0.000000 0.000000
# 2 -0.006894 0.017336 -0.004447 0.000000 0.000000 0.000000
# 3 -0.000351 -0.004447 0.013694 0.000000 0.000000 0.000000
# 4 0.000000 0.000000 0.000000 1.478535 0.000000 0.000000
# 5 0.000000 0.000000 0.000000 0.000000 0.038820 0.000000
# 6 0.000000 0.000000 0.000000 0.000000 0.000000 0.071900
#
#
# Mechanical properties :
#
#
# Convention : Reuss Voigt Hill
#
# Bulk Modulus (GPa) = 19.19593 27.34929 23.27261
# Shear Modulus (GPa) = 2.93172 17.08095 10.00634
#
# Velocity S-wave (km/s) = 1.26039 3.04228 2.32852
# Velocity P-wave (km/s) = 3.53830 5.21153 4.45419
#
# Compressibility (1/GPa) = 0.05209439
#
# Stress axis : x y z
#
# Youngs Moduli (GPa) = 22.49706 57.68419 73.02673
#
# Poissons Ratio (x) = 0.39767 0.02566
# Poissons Ratio (y) = 0.15509 0.32478
# Poissons Ratio (z) = 0.00790 0.25655
#
# Static dielectric constant tensor:
#      x y z
#    x 1.628240 0.000000 0.000000 
#    y 0.000000 1.633730 0.000000 
#    z 0.000000 0.000000 1.662040 
# 
# From -- ./inp_files/34340.got.cif
#   From: 2010.05.17/outbox.cif.g08.bks.cpg/sg53_18_cif.got.tgz:34340.got - 2010.06.03 12:45:16.
