data_PCOD9416274
_publ_section_title
;
Structure prediction by ZEFSAII (Michael W. Deem and Ramdas Pophale) SiO2 
 PCOD9416274
Probable space group: P M N A
;
_chemical_formula_sum "Si O2"
_cell_formula_units_Z 64
_cell_length_a 27.600975
_cell_length_b 19.307912
_cell_length_c 5.542298
_cell_angle_alpha 90.000000
_cell_angle_beta 90.000000
_cell_angle_gamma 90.000000
_cell_volume 2953.585912
_symmetry_space_group_name_H-M "P M N A"
_symmetry_group_IT_number 53
_symmetry_cell_setting 'orthorhombic'
loop_
_space_group_symop_operation_xyz
x,y,z
1/2-x,-y,1/2+z
x,-y,-z
1/2-x,y,1/2-z
-x,-y,-z
1/2+x,y,1/2-z
-x,y,z
1/2+x,-y,1/2+z
loop_
_atom_site_type_symbol
_atom_site_label
_atom_site_fract_x
_atom_site_fract_y
_atom_site_fract_z
Si Si1 0.385673 0.717445 0.646918
Si Si2 0.931226 0.036103 0.247943
Si Si3 0.850287 0.821029 0.250616
Si Si4 0.641595 0.574695 0.474580
Si Si5 0.202330 0.424709 0.477208
Si Si6 0.711722 0.725083 0.941960
Si Si7 0.823353 0.018967 0.753429
Si Si8 0.553509 0.813682 0.919910
O O1 0.365680 0.780400 0.486668
O O2 0.388686 0.645255 0.506070
O O3 0.341779 0.709036 0.835953
O O4 0.434462 0.745140 0.766780
O O5 0.944747 0.116346 0.260678
O O6 0.947084 0.000000 0.500000
O O7 0.873196 0.026118 0.246933
O O8 0.947698 0.000000 0.000000
O O9 0.803968 0.778834 0.354166
O O10 0.836285 0.900495 0.231894
O O11 0.899781 0.819958 0.407954
O O12 0.615912 0.500000 0.500000
O O13 0.677632 0.574016 0.709869
O O14 0.666411 0.577574 0.209980
O O15 0.227526 0.500000 0.500000
O O16 0.230869 0.352185 0.501941
O O17 0.750000 0.754535 0.750000
O O18 0.800667 0.000000 0.500000
O O19 0.797927 0.000000 0.000000
O O20 0.500000 0.810224 0.033076
#
# Coordination Sequence:
#
# PCOD9416274 Si02
#       8
#     8   8   8   8   8   8   8   8
#     4  10  21  38  61  85 119 163 203 254 307 373
#     4  10  19  36  55  82 120 154 190 239 297 374
#     4  11  21  39  61  86 122 165 208 256 313 372
#     4   9  17  33  59  88 117 157 205 251 303 364
#     4   9  17  34  56  86 126 162 194 242 303 371
#     4  10  22  38  59  93 125 164 210 255 305 372
#     4  10  19  34  58  87 113 154 204 247 302 367
#     4  11  24  38  57  88 125 163 204 253 313 383
#
# _framework density 21.668576000000002
#
# number of rings (size 3 to 8) (size 9 to 14) (size 15 to 20)
#    0.000    2.000    3.750    1.500    1.750    1.500 
#    0.000    5.000    0.000    0.750    3.250    0.875 
#    0.000    0.000    0.000    0.000    0.000    0.000 
#
# Total GULP energy -356825.011222 kJ/mol
# GULP energy per Si atom -5575.390800 kJ/mol
# Density = 2.161926 g / cm^3
# Si number density = 21.668576 Si / 1000 Ang^3
#
#
#
# Elastic Constant Matrix: (Units=GPa)
#
#
# Indices 1 2 3 4 5 6 
#
# 1 97.2467 28.7894 21.1489 0.0000 0.0000 0.0000
# 2 28.7894 137.9006 30.3220 0.0000 0.0000 0.0000
# 3 21.1489 30.3220 126.4747 0.0000 0.0000 0.0000
# 4 0.0000 0.0000 0.0000 31.1625 0.0000 0.0000
# 5 0.0000 0.0000 0.0000 0.0000 -9.4850 0.0000
# 6 0.0000 0.0000 0.0000 0.0000 0.0000 10.0480
#
#
#
# Elastic Compliance Matrix: (Units=1/GPa)
#
#
# Indices 1 2 3 4 5 6 
#
# 1 0.011185 -0.002031 -0.001383 0.000000 0.000000 0.000000
# 2 -0.002031 0.008024 -0.001584 0.000000 0.000000 0.000000
# 3 -0.001383 -0.001584 0.008518 0.000000 0.000000 0.000000
# 4 0.000000 0.000000 0.000000 0.032090 0.000000 0.000000
# 5 0.000000 0.000000 0.000000 0.000000 -0.105430 0.000000
# 6 0.000000 0.000000 0.000000 0.000000 0.000000 0.099522
#
#
# Mechanical properties :
#
#
# Convention : Reuss Voigt Hill
#
# Bulk Modulus (GPa) = 56.40160 58.01584 57.20872
# Shear Modulus (GPa) = 71.61625 25.10254 48.35940
#
# Velocity S-wave (km/s) = 5.75521 3.40733 4.72929
# Velocity P-wave (km/s) = 8.38147 6.50478 7.50204
#
# Compressibility (1/GPa) = 0.01772999
#
# Stress axis : x y z
#
# Youngs Moduli (GPa) = 89.40352 124.62751 117.40057
#
# Poissons Ratio (x) = 0.25311 0.16242
# Poissons Ratio (y) = 0.18157 0.18597
# Poissons Ratio (z) = 0.12369 0.19742
#
# Static dielectric constant tensor:
#      x y z
#    x 1.776160 0.000000 0.000000 
#    y 0.000000 1.929250 0.000000 
#    z 0.000000 0.000000 1.880010 
# 
# From -- ./inp_files/5460.got.cif
#   From: 2010.05.17/outbox.cif.g08.bks.cpg/sg53_3_cif.got.tgz:5460.got - 2010.06.03 12:45:16.
