data_PCOD9416895
_publ_section_title
;
Structure prediction by ZEFSAII (Michael W. Deem and Ramdas Pophale) SiO2 
 PCOD9416895
Probable space group: P M N A
;
_chemical_formula_sum "Si O2"
_cell_formula_units_Z 56
_cell_length_a 8.802248
_cell_length_b 19.290113
_cell_length_c 17.429551
_cell_angle_alpha 90.000000
_cell_angle_beta 90.000000
_cell_angle_gamma 90.000000
_cell_volume 2959.474291
_symmetry_space_group_name_H-M "P M N A"
_symmetry_group_IT_number 53
_symmetry_cell_setting 'orthorhombic'
loop_
_space_group_symop_operation_xyz
x,y,z
1/2-x,-y,1/2+z
x,-y,-z
1/2-x,y,1/2-z
-x,-y,-z
1/2+x,y,1/2-z
-x,y,z
1/2+x,-y,1/2+z
loop_
_atom_site_type_symbol
_atom_site_label
_atom_site_fract_x
_atom_site_fract_y
_atom_site_fract_z
Si Si1 0.680953 0.163657 0.666259
Si Si2 0.321021 0.646574 0.831924
Si Si3 0.182853 0.577441 0.982755
Si Si4 0.677631 0.789526 0.913139
Si Si5 0.317935 0.716106 0.440493
Si Si6 0.181835 0.036418 0.580531
Si Si7 0.320600 0.086893 0.330102
O O1 0.750000 0.150500 0.750000
O O2 0.500000 0.154592 0.669866
O O3 0.714765 0.241928 0.637094
O O4 0.746239 0.109916 0.603307
O O5 0.250000 0.629873 0.750000
O O6 0.500000 0.632799 0.831269
O O7 0.246141 0.605456 0.902284
O O8 0.300518 0.728171 0.851218
O O9 0.000000 0.575322 0.977448
O O10 0.238113 0.500000 0.000000
O O11 0.221101 0.635139 0.047685
O O12 0.500000 0.809529 0.914895
O O13 0.778732 0.854991 0.892122
O O14 0.728692 0.755952 0.992703
O O15 0.500000 0.722491 0.454101
O O16 0.000000 0.042979 0.579805
O O17 0.228240 0.000000 0.500000
O O18 0.237701 0.983471 0.645591
O O19 0.250000 0.111089 0.250000
O O20 0.500000 0.076810 0.324280
#
# Coordination Sequence:
#
# PCOD9416895 Si02
#       7
#     8   8   8   8   8   8   8
#     4  11  23  39  59  82 111 147 190 238 286 336
#     4  10  20  33  52  79 111 146 183 224 271 326
#     4   9  18  35  59  84 113 148 184 225 276 334
#     4  10  20  34  54  81 111 143 180 222 270 325
#     4   9  19  36  58  83 110 144 184 224 271 329
#     4  11  24  41  60  81 107 140 181 229 281 336
#     4  12  24  37  54  77 108 142 177 219 268 320
#
# _framework density 18.922277999999999
#
# number of rings (size 3 to 8) (size 9 to 14) (size 15 to 20)
#    0.000    1.714    0.000    4.714    0.000    7.714 
#    0.000    0.714    0.000    1.714    0.000    0.000 
#    0.000    0.000    0.000    0.000    0.000    0.000 
#
# Total GULP energy -312734.527039 kJ/mol
# GULP energy per Si atom -5584.545126 kJ/mol
# Density = 1.887921 g / cm^3
# Si number density = 18.922278 Si / 1000 Ang^3
#
#
#
# Elastic Constant Matrix: (Units=GPa)
#
#
# Indices 1 2 3 4 5 6 
#
# 1 39.3182 37.1497 29.3251 0.0000 0.0000 0.0000
# 2 37.1497 112.0500 35.2779 0.0000 0.0000 0.0000
# 3 29.3251 35.2779 73.6280 0.0000 0.0000 0.0000
# 4 0.0000 0.0000 0.0000 19.4618 0.0000 0.0000
# 5 0.0000 0.0000 0.0000 0.0000 22.2746 0.0000
# 6 0.0000 0.0000 0.0000 0.0000 0.0000 15.8225
#
#
#
# Elastic Compliance Matrix: (Units=1/GPa)
#
#
# Indices 1 2 3 4 5 6 
#
# 1 0.045391 -0.011020 -0.012799 0.000000 0.000000 0.000000
# 2 -0.011020 0.013185 -0.001929 0.000000 0.000000 0.000000
# 3 -0.012799 -0.001929 0.019603 0.000000 0.000000 0.000000
# 4 0.000000 0.000000 0.000000 0.051383 0.000000 0.000000
# 5 0.000000 0.000000 0.000000 0.000000 0.044894 0.000000
# 6 0.000000 0.000000 0.000000 0.000000 0.000000 0.063201
#
#
# Mechanical properties :
#
#
# Convention : Reuss Voigt Hill
#
# Bulk Modulus (GPa) = 37.47303 47.61128 42.54216
# Shear Modulus (GPa) = 16.77584 19.72800 18.25192
#
# Velocity S-wave (km/s) = 2.98076 3.23240 3.10913
# Velocity P-wave (km/s) = 5.62967 6.25679 5.95149
#
# Compressibility (1/GPa) = 0.02668586
#
# Stress axis : x y z
#
# Youngs Moduli (GPa) = 22.03068 75.84198 51.01143
#
# Poissons Ratio (x) = 0.83575 0.65289
# Poissons Ratio (y) = 0.24277 0.09838
# Poissons Ratio (z) = 0.28197 0.14627
#
# Static dielectric constant tensor:
#      x y z
#    x 1.625980 0.000000 0.000000 
#    y 0.000000 1.682210 0.000000 
#    z 0.000000 0.000000 1.826450 
# 
# From -- ./inp_files/20451.got.cif
#   From: 2010.05.17/outbox.cif.g08.bks.cpg/sg53_11_cif.got.tgz:20451.got - 2010.06.03 12:45:16.
