data_PCOD9416141
_publ_section_title
;
Structure prediction by ZEFSAII (Michael W. Deem and Ramdas Pophale) SiO2 
 PCOD9416141
Probable space group: P M N A
;
_chemical_formula_sum "Si O2"
_cell_formula_units_Z 44
_cell_length_a 29.163553
_cell_length_b 5.282249
_cell_length_c 13.374517
_cell_angle_alpha 90.000000
_cell_angle_beta 90.000000
_cell_angle_gamma 90.000000
_cell_volume 2060.332958
_symmetry_space_group_name_H-M "P M N A"
_symmetry_group_IT_number 53
_symmetry_cell_setting 'orthorhombic'
loop_
_space_group_symop_operation_xyz
x,y,z
1/2-x,-y,1/2+z
x,-y,-z
1/2-x,y,1/2-z
-x,-y,-z
1/2+x,y,1/2-z
-x,y,z
1/2+x,-y,1/2+z
loop_
_atom_site_type_symbol
_atom_site_label
_atom_site_fract_x
_atom_site_fract_y
_atom_site_fract_z
Si Si1 0.413972 0.000000 0.000000
Si Si2 0.190264 0.758056 0.061941
Si Si3 0.701619 0.423767 0.260001
Si Si4 0.131545 0.641543 0.368143
Si Si5 0.125485 0.027510 0.188349
Si Si6 0.052330 0.743520 0.694305
O O1 0.381054 0.233926 0.972857
O O2 0.443435 0.927740 0.902885
O O3 0.211223 0.666854 0.168370
O O4 0.139311 0.848383 0.096978
O O5 0.191466 0.500000 0.000000
O O6 0.209556 0.000000 0.000000
O O7 0.750000 0.287571 0.250000
O O8 0.678326 0.494130 0.154253
O O9 0.662158 0.255915 0.312362
O O10 0.087607 0.480739 0.332027
O O11 0.135111 0.874615 0.290369
O O12 0.074416 0.127597 0.207345
O O13 0.000000 0.665411 0.706382
#
# Coordination Sequence:
#
# PCOD9416141 Si02
#       6
#     4   8   8   8   8   8
#     4  10  19  34  54  82 124 164 208 252 303 362
#     4  11  21  40  66  93 119 156 211 253 308 376
#     4  10  21  40  62  90 123 163 205 259 317 373
#     4   9  20  35  54  83 118 168 204 252 308 366
#     4   9  20  38  61  84 120 161 201 257 313 366
#     4  10  20  35  58  88 121 162 210 253 311 377
#
# _framework density 21.355771000000001
#
# number of rings (size 3 to 8) (size 9 to 14) (size 15 to 20)
#    0.000    2.182    1.818    0.818    0.000    7.273 
#    1.636    3.636    0.000    1.091    0.000    0.000 
#    0.000    0.000    0.000    0.000    0.000    0.000 
#
# Total GULP energy -244993.590741 kJ/mol
# GULP energy per Si atom -5568.036153 kJ/mol
# Density = 2.130716 g / cm^3
# Si number density = 21.355771 Si / 1000 Ang^3
#
#
#
# Elastic Constant Matrix: (Units=GPa)
#
#
# Indices 1 2 3 4 5 6 
#
# 1 128.9771 18.6659 16.3111 0.0000 0.0000 0.0000
# 2 18.6659 87.8474 9.9275 0.0000 0.0000 0.0000
# 3 16.3111 9.9275 40.5196 0.0000 0.0000 0.0000
# 4 0.0000 0.0000 0.0000 42.7094 0.0000 0.0000
# 5 0.0000 0.0000 0.0000 0.0000 14.2979 0.0000
# 6 0.0000 0.0000 0.0000 0.0000 0.0000 12.9562
#
#
#
# Elastic Compliance Matrix: (Units=1/GPa)
#
#
# Indices 1 2 3 4 5 6 
#
# 1 0.008341 -0.001432 -0.003007 0.000000 0.000000 0.000000
# 2 -0.001432 0.011954 -0.002352 0.000000 0.000000 0.000000
# 3 -0.003007 -0.002352 0.026466 0.000000 0.000000 0.000000
# 4 0.000000 0.000000 0.000000 0.023414 0.000000 0.000000
# 5 0.000000 0.000000 0.000000 0.000000 0.069940 0.000000
# 6 0.000000 0.000000 0.000000 0.000000 0.000000 0.077183
#
#
# Mechanical properties :
#
#
# Convention : Reuss Voigt Hill
#
# Bulk Modulus (GPa) = 30.14037 38.57257 34.35647
# Shear Modulus (GPa) = 20.66632 28.15534 24.41083
#
# Velocity S-wave (km/s) = 3.11419 3.63491 3.38458
# Velocity P-wave (km/s) = 5.20336 5.97644 5.60325
#
# Compressibility (1/GPa) = 0.03317809
#
# Stress axis : x y z
#
# Youngs Moduli (GPa) = 119.89168 83.65712 37.78431
#
# Poissons Ratio (x) = 0.11984 0.11360
# Poissons Ratio (y) = 0.17174 0.08887
# Poissons Ratio (z) = 0.36047 0.19676
#
# Static dielectric constant tensor:
#      x y z
#    x 1.761770 0.000000 0.000000 
#    y 0.000000 1.897260 0.000000 
#    z 0.000000 0.000000 1.864780 
# 
# From -- ./inp_files/24833.got.cif
#   From: 2010.05.17/outbox.cif.g08.bks.cpg/sg53_13_cif.got.tgz:24833.got - 2010.06.03 12:45:16.
