data_PCOD9416156
_publ_section_title
;
Structure prediction by ZEFSAII (Michael W. Deem and Ramdas Pophale) SiO2 
 PCOD9416156
Probable space group: P M N A
;
_chemical_formula_sum "Si O2"
_cell_formula_units_Z 64
_cell_length_a 8.817366
_cell_length_b 22.243624
_cell_length_c 18.131558
_cell_angle_alpha 90.000000
_cell_angle_beta 90.000000
_cell_angle_gamma 90.000000
_cell_volume 3556.145625
_symmetry_space_group_name_H-M "P M N A"
_symmetry_group_IT_number 53
_symmetry_cell_setting 'orthorhombic'
loop_
_space_group_symop_operation_xyz
x,y,z
1/2-x,-y,1/2+z
x,-y,-z
1/2-x,y,1/2-z
-x,-y,-z
1/2+x,y,1/2-z
-x,y,z
1/2+x,-y,1/2+z
loop_
_atom_site_type_symbol
_atom_site_label
_atom_site_fract_x
_atom_site_fract_y
_atom_site_fract_z
Si Si1 0.182760 0.933068 0.980342
Si Si2 0.681386 0.125926 0.326116
Si Si3 0.682731 0.503855 0.669987
Si Si4 0.318362 0.816743 0.047302
Si Si5 0.817076 0.387684 0.923176
Si Si6 0.817784 0.722706 0.331459
Si Si7 0.816979 0.627811 0.904992
Si Si8 0.318876 0.755981 0.891286
O O1 0.227010 0.913252 0.897485
O O2 0.000000 0.932077 0.983801
O O3 0.244723 0.881400 0.034083
O O4 0.235130 0.000000 0.000000
O O5 0.750000 0.102767 0.250000
O O6 0.500000 0.127423 0.322078
O O7 0.744081 0.192865 0.341126
O O8 0.750000 0.490626 0.750000
O O9 0.500000 0.504015 0.674801
O O10 0.724717 0.451950 0.611843
O O11 0.730867 0.569401 0.641172
O O12 0.500000 0.823536 0.048088
O O13 0.271595 0.780854 0.120180
O O14 0.280768 0.775816 0.975608
O O15 0.741065 0.335336 0.875624
O O16 0.000000 0.381668 0.918248
O O17 0.775630 0.382222 0.009083
O O18 0.750000 0.723879 0.250000
O O19 0.000000 0.720888 0.328031
O O20 0.744082 0.689684 0.877944
O O21 0.000000 0.632627 0.901187
O O22 0.000000 0.757406 0.617126
#
# Coordination Sequence:
#
# PCOD9416156 Si02
#       8
#     8   8   8   8   8   8   8   8
#     4   9  19  36  59  85 112 146 187 226 266 318
#     4  10  20  35  56  83 114 148 185 225 272 323
#     4  10  22  38  53  74 104 139 179 226 276 332
#     4   9  19  35  54  78 110 142 177 221 265 317
#     4  10  20  36  58  79 102 138 182 228 277 328
#     4  11  22  36  54  81 112 142 180 226 276 327
#     4  10  20  35  56  79 105 139 182 225 274 333
#     4  10  19  34  55  80 109 140 177 224 273 321
#
# _framework density 17.997015000000001
#
# number of rings (size 3 to 8) (size 9 to 14) (size 15 to 20)
#    0.000    2.125    1.250    1.875    0.000    6.250 
#    0.000    1.875    0.000    5.250    0.000    0.000 
#    0.000    0.000    0.000    0.000    0.000    0.000 
#
# Total GULP energy -357329.455038 kJ/mol
# GULP energy per Si atom -5583.272735 kJ/mol
# Density = 1.795605 g / cm^3
# Si number density = 17.997015 Si / 1000 Ang^3
#
#
#
# Elastic Constant Matrix: (Units=GPa)
#
#
# Indices 1 2 3 4 5 6 
#
# 1 18.5165 22.7730 14.9655 0.0000 0.0000 0.0000
# 2 22.7730 123.7100 14.6758 0.0000 0.0000 0.0000
# 3 14.9655 14.6758 49.5192 0.0000 0.0000 0.0000
# 4 0.0000 0.0000 0.0000 16.8185 0.0000 0.0000
# 5 0.0000 0.0000 0.0000 0.0000 17.6094 0.0000
# 6 0.0000 0.0000 0.0000 0.0000 0.0000 21.7123
#
#
#
# Elastic Compliance Matrix: (Units=1/GPa)
#
#
# Indices 1 2 3 4 5 6 
#
# 1 0.089474 -0.013746 -0.022967 0.000000 0.000000 0.000000
# 2 -0.013746 0.010490 0.001045 0.000000 0.000000 0.000000
# 3 -0.022967 0.001045 0.026825 0.000000 0.000000 0.000000
# 4 0.000000 0.000000 0.000000 0.059458 0.000000 0.000000
# 5 0.000000 0.000000 0.000000 0.000000 0.056788 0.000000
# 6 0.000000 0.000000 0.000000 0.000000 0.000000 0.046057
#
#
# Mechanical properties :
#
#
# Convention : Reuss Voigt Hill
#
# Bulk Modulus (GPa) = 18.03280 32.95272 25.49276
# Shear Modulus (GPa) = 13.19569 20.51681 16.85625
#
# Velocity S-wave (km/s) = 2.71073 3.38007 3.06373
# Velocity P-wave (km/s) = 4.45411 5.79508 5.16827
#
# Compressibility (1/GPa) = 0.05545450
#
# Stress axis : x y z
#
# Youngs Moduli (GPa) = 11.17642 95.33018 37.27837
#
# Poissons Ratio (x) = 1.31043 0.85616
# Poissons Ratio (y) = 0.15363 -0.03897
# Poissons Ratio (z) = 0.25668 -0.09967
#
# Static dielectric constant tensor:
#      x y z
#    x 1.603070 0.000000 0.000000 
#    y 0.000000 1.596320 0.000000 
#    z 0.000000 0.000000 1.607230 
# 
# From -- ./inp_files/27052.got.cif
#   From: 2010.05.17/outbox.cif.g08.bks.cpg/sg53_14_cif.got.tgz:27052.got - 2010.06.03 12:45:16.
