data_PCOD9416403
_publ_section_title
;
Structure prediction by ZEFSAII (Michael W. Deem and Ramdas Pophale) SiO2 
 PCOD9416403
Probable space group: P M N A
;
_chemical_formula_sum "Si O2"
_cell_formula_units_Z 48
_cell_length_a 8.479726
_cell_length_b 10.250968
_cell_length_c 29.479733
_cell_angle_alpha 90.000000
_cell_angle_beta 90.000000
_cell_angle_gamma 90.000000
_cell_volume 2562.537579
_symmetry_space_group_name_H-M "P M N A"
_symmetry_group_IT_number 53
_symmetry_cell_setting 'orthorhombic'
loop_
_space_group_symop_operation_xyz
x,y,z
1/2-x,-y,1/2+z
x,-y,-z
1/2-x,y,1/2-z
-x,-y,-z
1/2+x,y,1/2-z
-x,y,z
1/2+x,-y,1/2+z
loop_
_atom_site_type_symbol
_atom_site_label
_atom_site_fract_x
_atom_site_fract_y
_atom_site_fract_z
Si Si1 0.689513 0.008026 0.801202
Si Si2 0.192765 0.137910 0.520669
Si Si3 0.184725 0.385672 0.462931
Si Si4 0.810335 0.722138 0.800864
Si Si5 0.686263 0.502889 0.629023
Si Si6 0.810101 0.788935 0.377874
O O1 0.750000 0.032374 0.750000
O O2 0.500000 0.007900 0.799932
O O3 0.744397 0.115884 0.837472
O O4 0.746744 0.863911 0.815470
O O5 0.241678 0.254613 0.487375
O O6 0.245870 0.164875 0.572226
O O7 0.000000 0.139964 0.521530
O O8 0.242450 0.000000 0.500000
O O9 0.192192 0.500000 0.500000
O O10 0.278453 0.429936 0.419046
O O11 0.000000 0.369349 0.450243
O O12 0.750000 0.700972 0.750000
O O13 0.756598 0.604138 0.832807
O O14 0.000000 0.727303 0.801107
O O15 0.500000 0.485251 0.634857
O O16 0.763690 0.360671 0.630140
O O17 0.000000 0.796103 0.378674
#
# Coordination Sequence:
#
# PCOD9416403 Si02
#       6
#     8   8   8   8   8   8
#     4  10  21  37  61  87 114 148 186 233 286 341
#     4   9  18  33  55  83 111 140 184 237 276 317
#     4  10  19  35  59  82 110 149 190 231 273 327
#     4  10  22  40  60  84 114 148 189 234 282 339
#     4  11  24  38  56  84 118 152 186 233 289 338
#     4  10  21  38  58  84 113 147 193 233 276 336
#
# _framework density 18.731432999999999
#
# number of rings (size 3 to 8) (size 9 to 14) (size 15 to 20)
#    0.000    2.000    1.667    2.500    2.333    5.000 
#    0.000    3.333    0.000    1.000    0.000    0.000 
#    0.000    0.000    0.000    0.000    0.000    0.000 
#
# Total GULP energy -267990.013015 kJ/mol
# GULP energy per Si atom -5583.125271 kJ/mol
# Density = 1.868880 g / cm^3
# Si number density = 18.731433 Si / 1000 Ang^3
#
#
#
# Elastic Constant Matrix: (Units=GPa)
#
#
# Indices 1 2 3 4 5 6 
#
# 1 16.3496 16.9325 14.5586 0.0000 0.0000 0.0000
# 2 16.9325 185.4150 102.4641 0.0000 0.0000 0.0000
# 3 14.5586 102.4641 110.0094 0.0000 0.0000 0.0000
# 4 0.0000 0.0000 0.0000 39.7923 0.0000 0.0000
# 5 0.0000 0.0000 0.0000 0.0000 -13.2493 0.0000
# 6 0.0000 0.0000 0.0000 0.0000 0.0000 38.2028
#
#
#
# Elastic Compliance Matrix: (Units=1/GPa)
#
#
# Indices 1 2 3 4 5 6 
#
# 1 0.069947 -0.002622 -0.006815 0.000000 0.000000 0.000000
# 2 -0.002622 0.011212 -0.010096 0.000000 0.000000 0.000000
# 3 -0.006815 -0.010096 0.019396 0.000000 0.000000 0.000000
# 4 0.000000 0.000000 0.000000 0.025130 0.000000 0.000000
# 5 0.000000 0.000000 0.000000 0.000000 -0.075476 0.000000
# 6 0.000000 0.000000 0.000000 0.000000 0.000000 0.026176
#
#
# Mechanical properties :
#
#
# Convention : Reuss Voigt Hill
#
# Bulk Modulus (GPa) = 16.26292 64.40938 40.33615
# Shear Modulus (GPa) = 36.77879 24.80374 30.79126
#
# Velocity S-wave (km/s) = 4.43592 3.64287 4.05881
# Velocity P-wave (km/s) = 5.91080 7.22180 6.59894
#
# Compressibility (1/GPa) = 0.06148958
#
# Stress axis : x y z
#
# Youngs Moduli (GPa) = 14.29647 89.19006 51.55799
#
# Poissons Ratio (x) = 0.23382 0.35137
# Poissons Ratio (y) = 0.03748 0.52053
# Poissons Ratio (z) = 0.09743 0.90047
#
# Static dielectric constant tensor:
#      x y z
#    x 1.652150 0.000000 0.000000 
#    y 0.000000 1.631790 0.000000 
#    z 0.000000 0.000000 1.733830 
# 
# From -- ./inp_files/37784.got.cif
#   From: 2010.05.17/outbox.cif.g08.bks.cpg/sg53_19_cif.got.tgz:37784.got - 2010.06.03 12:45:16.
