data_PCOD9416104
_publ_section_title
;
Structure prediction by ZEFSAII (Michael W. Deem and Ramdas Pophale) SiO2 
 PCOD9416104
Probable space group: P M N A
;
_chemical_formula_sum "Si O2"
_cell_formula_units_Z 28
_cell_length_a 23.384426
_cell_length_b 11.247090
_cell_length_c 5.041286
_cell_angle_alpha 90.000000
_cell_angle_beta 90.000000
_cell_angle_gamma 90.000000
_cell_volume 1325.892216
_symmetry_space_group_name_H-M "P M N A"
_symmetry_group_IT_number 53
_symmetry_cell_setting 'orthorhombic'
loop_
_space_group_symop_operation_xyz
x,y,z
1/2-x,-y,1/2+z
x,-y,-z
1/2-x,y,1/2-z
-x,-y,-z
1/2+x,y,1/2-z
-x,y,z
1/2+x,-y,1/2+z
loop_
_atom_site_type_symbol
_atom_site_label
_atom_site_fract_x
_atom_site_fract_y
_atom_site_fract_z
Si Si1 0.637115 0.285061 0.955505
Si Si2 0.309927 0.895987 0.657241
Si Si3 0.250000 0.286772 0.750000
Si Si4 0.434121 0.641200 0.544143
O O1 0.657190 0.160707 0.093336
O O2 0.598079 0.340940 0.180591
O O3 0.698180 0.349775 0.902185
O O4 0.600048 0.290643 0.688146
O O5 0.250000 0.951985 0.750000
O O6 0.286505 0.792424 0.460426
O O7 0.342049 0.000000 0.500000
O O8 0.433507 0.500000 0.500000
O O9 0.500000 0.680806 0.554351
#
# Coordination Sequence:
#
# PCOD9416104 Si02
#       4
#     8   8   4   8
#     4  11  22  39  64  94 129 156 206 265 319 372
#     4  10  19  33  62  93 129 168 207 245 306 388
#     4  10  20  38  60  96 128 164 198 248 312 390
#     4  11  24  44  68  88 113 164 227 270 310 373
#
# _framework density 21.117856
#
# number of rings (size 3 to 8) (size 9 to 14) (size 15 to 20)
#    0.000    1.429    4.286    1.714    0.000    2.286 
#    0.000    2.857    3.143    5.143    0.000    0.000 
#    0.000    0.000    0.000    0.000    0.000    0.000 
#
# Total GULP energy -156107.574773 kJ/mol
# GULP energy per Si atom -5575.270528 kJ/mol
# Density = 2.106979 g / cm^3
# Si number density = 21.117856 Si / 1000 Ang^3
#
#
#
# Elastic Constant Matrix: (Units=GPa)
#
#
# Indices 1 2 3 4 5 6 
#
# 1 191.6807 34.5299 72.9823 0.0000 0.0000 0.0000
# 2 34.5299 25.4987 3.8338 0.0000 0.0000 0.0000
# 3 72.9823 3.8338 124.7813 0.0000 0.0000 0.0000
# 4 0.0000 0.0000 0.0000 20.1346 0.0000 0.0000
# 5 0.0000 0.0000 0.0000 0.0000 31.0496 0.0000
# 6 0.0000 0.0000 0.0000 0.0000 0.0000 16.0967
#
#
#
# Elastic Compliance Matrix: (Units=1/GPa)
#
#
# Indices 1 2 3 4 5 6 
#
# 1 0.009266 -0.011788 -0.005057 0.000000 0.000000 0.000000
# 2 -0.011788 0.054395 0.005223 0.000000 0.000000 0.000000
# 3 -0.005057 0.005223 0.010812 0.000000 0.000000 0.000000
# 4 0.000000 0.000000 0.000000 0.049666 0.000000 0.000000
# 5 0.000000 0.000000 0.000000 0.000000 0.032206 0.000000
# 6 0.000000 0.000000 0.000000 0.000000 0.000000 0.062125
#
#
# Mechanical properties :
#
#
# Convention : Reuss Voigt Hill
#
# Bulk Modulus (GPa) = 19.52031 62.73919 41.12975
# Shear Modulus (GPa) = 19.32075 28.83050 24.07563
#
# Velocity S-wave (km/s) = 3.02801 3.69890 3.38014
# Velocity P-wave (km/s) = 4.63560 6.92936 5.89511
#
# Compressibility (1/GPa) = 0.05122869
#
# Stress axis : x y z
#
# Youngs Moduli (GPa) = 107.92105 18.38413 92.49401
#
# Poissons Ratio (x) = 0.21670 0.46778
# Poissons Ratio (y) = 1.27212 -0.48310
# Poissons Ratio (z) = 0.54580 -0.09602
#
# Static dielectric constant tensor:
#      x y z
#    x 1.763390 0.000000 0.000000 
#    y 0.000000 1.808120 0.000000 
#    z 0.000000 0.000000 1.889800 
# 
# From -- ./inp_files/2567.got.cif
#   From: 2010.05.17/outbox.cif.g08.bks.cpg/sg53_2_cif.got.tgz:2567.got - 2010.06.03 12:45:16.
