data_PCOD9416238
_publ_section_title
;
Structure prediction by ZEFSAII (Michael W. Deem and Ramdas Pophale) SiO2 
 PCOD9416238
Probable space group: P M N A
;
_chemical_formula_sum "Si O2"
_cell_formula_units_Z 56
_cell_length_a 15.308596
_cell_length_b 19.572675
_cell_length_c 8.970550
_cell_angle_alpha 90.000000
_cell_angle_beta 90.000000
_cell_angle_gamma 90.000000
_cell_volume 2687.847459
_symmetry_space_group_name_H-M "P M N A"
_symmetry_group_IT_number 53
_symmetry_cell_setting 'orthorhombic'
loop_
_space_group_symop_operation_xyz
x,y,z
1/2-x,-y,1/2+z
x,-y,-z
1/2-x,y,1/2-z
-x,-y,-z
1/2+x,y,1/2-z
-x,y,z
1/2+x,-y,1/2+z
loop_
_atom_site_type_symbol
_atom_site_label
_atom_site_fract_x
_atom_site_fract_y
_atom_site_fract_z
Si Si1 0.263932 0.425727 0.922656
Si Si2 0.597758 0.205432 0.130890
Si Si3 0.591059 0.578924 0.549911
Si Si4 0.845954 0.356375 0.327485
Si Si5 0.398566 0.096693 0.395926
Si Si6 0.736135 0.144936 0.903166
Si Si7 0.099066 0.971295 0.330556
O O1 0.250000 0.436253 0.750000
O O2 0.270182 0.500000 0.000000
O O3 0.174015 0.389532 0.971750
O O4 0.337668 0.381371 0.002370
O O5 0.500000 0.194040 0.066012
O O6 0.608626 0.283648 0.178371
O O7 0.603972 0.157326 0.274960
O O8 0.676783 0.185282 0.021913
O O9 0.589574 0.500000 0.500000
O O10 0.500000 0.611337 0.505905
O O11 0.605070 0.588005 0.725639
O O12 0.750000 0.351358 0.250000
O O13 0.500000 0.091918 0.451377
O O14 0.322933 0.114645 0.515432
O O15 0.381521 0.028427 0.296111
O O16 0.750000 0.187140 0.750000
O O17 0.673304 0.084886 0.842139
O O18 0.000000 0.946234 0.301701
O O19 0.097400 0.000000 0.500000
#
# Coordination Sequence:
#
# PCOD9416238 Si02
#       7
#     8   8   8   8   8   8   8
#     4  10  19  34  57  84 117 154 192 235 289 355
#     4  11  23  42  64  86 117 159 209 256 306 370
#     4   9  17  32  54  82 115 147 185 236 293 348
#     4  10  20  35  60  88 116 155 200 245 299 367
#     4  10  23  42  64  91 124 163 210 260 310 375
#     4  12  26  38  64  92 126 166 208 259 318 372
#     4  10  21  38  62  92 124 160 206 259 319 374
#
# _framework density 20.834517000000002
#
# number of rings (size 3 to 8) (size 9 to 14) (size 15 to 20)
#    0.000    1.714    1.429    4.286    2.000    1.714 
#    0.000    2.857    0.000    6.429    0.000    0.000 
#    0.000    0.000    0.000    0.000    0.000    0.000 
#
# Total GULP energy -312211.149245 kJ/mol
# GULP energy per Si atom -5575.199094 kJ/mol
# Density = 2.078710 g / cm^3
# Si number density = 20.834517 Si / 1000 Ang^3
#
#
#
# Elastic Constant Matrix: (Units=GPa)
#
#
# Indices 1 2 3 4 5 6 
#
# 1 101.7450 21.4654 36.9302 0.0000 0.0000 0.0000
# 2 21.4654 66.1922 28.1247 0.0000 0.0000 0.0000
# 3 36.9302 28.1247 136.8878 0.0000 0.0000 0.0000
# 4 0.0000 0.0000 0.0000 5.2905 0.0000 0.0000
# 5 0.0000 0.0000 0.0000 0.0000 6.3494 0.0000
# 6 0.0000 0.0000 0.0000 0.0000 0.0000 17.2303
#
#
#
# Elastic Compliance Matrix: (Units=1/GPa)
#
#
# Indices 1 2 3 4 5 6 
#
# 1 0.011287 -0.002593 -0.002512 0.000000 0.000000 0.000000
# 2 -0.002593 0.017148 -0.002824 0.000000 0.000000 0.000000
# 3 -0.002512 -0.002824 0.008563 0.000000 0.000000 0.000000
# 4 0.000000 0.000000 0.000000 0.189018 0.000000 0.000000
# 5 0.000000 0.000000 0.000000 0.000000 0.157495 0.000000
# 6 0.000000 0.000000 0.000000 0.000000 0.000000 0.058037
#
#
# Mechanical properties :
#
#
# Convention : Reuss Voigt Hill
#
# Bulk Modulus (GPa) = 47.30198 53.09618 50.19908
# Shear Modulus (GPa) = 10.76534 20.32769 15.54652
#
# Velocity S-wave (km/s) = 2.27558 3.12697 2.73461
# Velocity P-wave (km/s) = 5.44585 6.21106 5.84100
#
# Compressibility (1/GPa) = 0.02114077
#
# Stress axis : x y z
#
# Youngs Moduli (GPa) = 88.59392 58.31538 116.77841
#
# Poissons Ratio (x) = 0.15120 0.29340
# Poissons Ratio (y) = 0.22971 0.32975
# Poissons Ratio (z) = 0.22259 0.16467
#
# Static dielectric constant tensor:
#      x y z
#    x 1.828810 0.000000 0.000000 
#    y 0.000000 1.733240 0.000000 
#    z 0.000000 0.000000 1.835610 
# 
# From -- ./inp_files/8847.got.cif
#   From: 2010.05.17/outbox.cif.g08.bks.cpg/sg53_5_cif.got.tgz:8847.got - 2010.06.03 12:45:16.
