data_PCOD9416930
_publ_section_title
;
Structure prediction by ZEFSAII (Michael W. Deem and Ramdas Pophale) SiO2 
 PCOD9416930
Probable space group: P M N A
;
_chemical_formula_sum "Si O2"
_cell_formula_units_Z 64
_cell_length_a 8.741005
_cell_length_b 20.544159
_cell_length_c 20.554759
_cell_angle_alpha 90.000000
_cell_angle_beta 90.000000
_cell_angle_gamma 90.000000
_cell_volume 3691.153664
_symmetry_space_group_name_H-M "P M N A"
_symmetry_group_IT_number 53
_symmetry_cell_setting 'orthorhombic'
loop_
_space_group_symop_operation_xyz
x,y,z
1/2-x,-y,1/2+z
x,-y,-z
1/2-x,y,1/2-z
-x,-y,-z
1/2+x,y,1/2-z
-x,y,z
1/2+x,-y,1/2+z
loop_
_atom_site_type_symbol
_atom_site_label
_atom_site_fract_x
_atom_site_fract_y
_atom_site_fract_z
Si Si1 0.817497 0.669254 0.955059
Si Si2 0.684507 0.468706 0.068895
Si Si3 0.684864 0.830858 0.082924
Si Si4 0.815282 0.191981 0.434325
Si Si5 0.317137 0.692279 0.393950
Si Si6 0.816670 0.428738 0.679558
Si Si7 0.315409 0.944603 0.179343
Si Si8 0.815178 0.905636 0.679315
O O1 0.751727 0.603296 0.925306
O O2 0.749574 0.735538 0.925857
O O3 0.000000 0.670258 0.949807
O O4 0.776783 0.670710 0.032101
O O5 0.500000 0.464421 0.068115
O O6 0.730475 0.516884 0.126829
O O7 0.733624 0.500000 0.000000
O O8 0.500000 0.826806 0.084972
O O9 0.753457 0.765079 0.113153
O O10 0.732929 0.893855 0.123945
O O11 0.730371 0.832068 0.006763
O O12 0.765191 0.142826 0.377820
O O13 0.000000 0.195042 0.433346
O O14 0.500000 0.692163 0.387665
O O15 0.244477 0.640679 0.345215
O O16 0.750000 0.443656 0.750000
O O17 0.000000 0.427030 0.681818
O O18 0.250000 0.926584 0.250000
O O19 0.500000 0.943134 0.182597
O O20 0.269385 0.019373 0.165625
O O21 0.750000 0.887757 0.750000
O O22 0.000000 0.903868 0.682208
#
# Coordination Sequence:
#
# PCOD9416930 Si02
#       8
#     8   8   8   8   8   8   8   8
#     4  10  20  33  54  82 108 134 171 218 260 306
#     4  10  20  36  59  82 104 137 177 215 259 313
#     4   9  18  32  51  75 104 138 174 216 261 307
#     4   9  18  33  53  76 104 136 173 217 263 312
#     4  10  20  34  52  76 106 139 174 212 257 310
#     4  11  23  38  56  79 109 141 175 217 262 311
#     4   9  18  32  50  73 101 134 174 215 260 313
#     4   9  18  33  53  76 101 134 174 217 265 318
#
# _framework density 17.338751999999999
#
# number of rings (size 3 to 8) (size 9 to 14) (size 15 to 20)
#    0.000    2.375    1.250    1.125    0.000    4.250 
#    0.000    4.375    0.000    0.000    0.000    7.000 
#    0.000    0.000    0.000    0.000    0.000    0.000 
#
# Total GULP energy -357082.304590 kJ/mol
# GULP energy per Si atom -5579.411009 kJ/mol
# Density = 1.729929 g / cm^3
# Si number density = 17.338752 Si / 1000 Ang^3
#
#
#
# Elastic Constant Matrix: (Units=GPa)
#
#
# Indices 1 2 3 4 5 6 
#
# 1 14.3051 29.8980 32.3422 0.0000 0.0000 0.0000
# 2 29.8980 147.1817 105.2418 0.0000 0.0000 0.0000
# 3 32.3422 105.2418 130.0019 0.0000 0.0000 0.0000
# 4 0.0000 0.0000 0.0000 30.4411 0.0000 0.0000
# 5 0.0000 0.0000 0.0000 0.0000 26.3858 0.0000
# 6 0.0000 0.0000 0.0000 0.0000 0.0000 17.8289
#
#
#
# Elastic Compliance Matrix: (Units=1/GPa)
#
#
# Indices 1 2 3 4 5 6 
#
# 1 0.165666 -0.009931 -0.033175 0.000000 0.000000 0.000000
# 2 -0.009931 0.016728 -0.011072 0.000000 0.000000 0.000000
# 3 -0.033175 -0.011072 0.024909 0.000000 0.000000 0.000000
# 4 0.000000 0.000000 0.000000 0.032850 0.000000 0.000000
# 5 0.000000 0.000000 0.000000 0.000000 0.037899 0.000000
# 6 0.000000 0.000000 0.000000 0.000000 0.000000 0.056089
#
#
# Mechanical properties :
#
#
# Convention : Reuss Voigt Hill
#
# Bulk Modulus (GPa) = 10.10642 69.60584 39.85613
# Shear Modulus (GPa) = 10.51571 23.19827 16.85699
#
# Velocity S-wave (km/s) = 2.46537 3.66176 3.12142
# Velocity P-wave (km/s) = 3.73437 7.62298 6.00230
#
# Compressibility (1/GPa) = 0.09894704
#
# Stress axis : x y z
#
# Youngs Moduli (GPa) = 6.03625 59.77844 40.14683
#
# Poissons Ratio (x) = 0.59366 1.33188
# Poissons Ratio (y) = 0.05995 0.44449
# Poissons Ratio (z) = 0.20025 0.66185
#
# Static dielectric constant tensor:
#      x y z
#    x 1.582590 0.000000 0.000000 
#    y 0.000000 1.571250 0.000000 
#    z 0.000000 0.000000 1.576510 
# 
# From -- ./inp_files/31277.got.cif
#   From: 2010.05.17/outbox.cif.g08.bks.cpg/sg53_16_cif.got.tgz:31277.got - 2010.06.03 12:45:16.
