data_PCOD9416467
_publ_section_title
;
Structure prediction by ZEFSAII (Michael W. Deem and Ramdas Pophale) SiO2 
 PCOD9416467
Probable space group: P M N A
;
_chemical_formula_sum "Si O2"
_cell_formula_units_Z 60
_cell_length_a 20.695693
_cell_length_b 6.091383
_cell_length_c 24.095146
_cell_angle_alpha 90.000000
_cell_angle_beta 90.000000
_cell_angle_gamma 90.000000
_cell_volume 3037.564038
_symmetry_space_group_name_H-M "P M N A"
_symmetry_group_IT_number 53
_symmetry_cell_setting 'orthorhombic'
loop_
_space_group_symop_operation_xyz
x,y,z
1/2-x,-y,1/2+z
x,-y,-z
1/2-x,y,1/2-z
-x,-y,-z
1/2+x,y,1/2-z
-x,y,z
1/2+x,-y,1/2+z
loop_
_atom_site_type_symbol
_atom_site_label
_atom_site_fract_x
_atom_site_fract_y
_atom_site_fract_z
Si Si1 0.928282 0.290753 0.303264
Si Si2 0.212970 0.839516 0.353765
Si Si3 0.155634 0.599599 0.244607
Si Si4 0.635332 0.196666 0.090397
Si Si5 0.925399 0.967040 0.203653
Si Si6 0.500000 0.752205 0.972666
Si Si7 0.241431 0.535984 0.937365
Si Si8 0.816781 0.227193 0.160782
O O1 0.911892 0.495648 0.265611
O O2 0.874494 0.307579 0.349850
O O3 0.000000 0.299825 0.326609
O O4 0.923158 0.073182 0.265834
O O5 0.191163 0.716041 0.296878
O O6 0.243599 0.675645 0.399020
O O7 0.154753 0.952681 0.389351
O O8 0.261768 0.037007 0.336281
O O9 0.127765 0.777067 0.202342
O O10 0.191242 0.406132 0.210539
O O11 0.568061 0.230993 0.059665
O O12 0.693276 0.316084 0.059251
O O13 0.000000 0.919408 0.190987
O O14 0.890344 0.147417 0.166290
O O15 0.500000 0.500000 0.000000
O O16 0.500000 0.000000 0.000000
O O17 0.192763 0.669686 0.899201
O O18 0.219750 0.500000 0.000000
#
# Coordination Sequence:
#
# PCOD9416467 Si02
#       8
#     8   8   8   8   8   4   8   8
#     4  10  19  36  55  88 125 166 211 258 317 394
#     4  11  24  41  63  95 129 177 220 282 340 414
#     4  11  21  38  63  92 132 167 212 260 338 415
#     4  11  23  41  61  89 129 177 234 289 345 394
#     4  10  21  38  62  94 131 166 206 253 329 408
#     4  12  30  46  68  98 136 196 262 318 357 402
#     4  11  25  44  66  88 124 172 231 284 343 397
#     4  10  25  41  62  96 128 169 212 275 336 414
#
# _framework density 19.752669000000001
#
# number of rings (size 3 to 8) (size 9 to 14) (size 15 to 20)
#    0.000    1.333    3.333    1.600    3.733    5.333 
#    1.200    0.000    0.000    0.400    0.000    3.733 
#    0.000    0.000    0.000    0.000    0.000    0.000 
#
# Total GULP energy -334139.015895 kJ/mol
# GULP energy per Si atom -5568.983598 kJ/mol
# Density = 1.970771 g / cm^3
# Si number density = 19.752669 Si / 1000 Ang^3
#
#
#
# Elastic Constant Matrix: (Units=GPa)
#
#
# Indices 1 2 3 4 5 6 
#
# 1 69.9501 35.0751 40.4520 0.0000 0.0000 0.0000
# 2 35.0751 91.8896 48.2495 0.0000 0.0000 0.0000
# 3 40.4520 48.2495 88.2514 0.0000 0.0000 0.0000
# 4 0.0000 0.0000 0.0000 25.1202 0.0000 0.0000
# 5 0.0000 0.0000 0.0000 0.0000 31.5461 0.0000
# 6 0.0000 0.0000 0.0000 0.0000 0.0000 21.8269
#
#
#
# Elastic Compliance Matrix: (Units=1/GPa)
#
#
# Indices 1 2 3 4 5 6 
#
# 1 0.020473 -0.004050 -0.007170 0.000000 0.000000 0.000000
# 2 -0.004050 0.016066 -0.006927 0.000000 0.000000 0.000000
# 3 -0.007170 -0.006927 0.018405 0.000000 0.000000 0.000000
# 4 0.000000 0.000000 0.000000 0.039809 0.000000 0.000000
# 5 0.000000 0.000000 0.000000 0.000000 0.031700 0.000000
# 6 0.000000 0.000000 0.000000 0.000000 0.000000 0.045815
#
#
# Mechanical properties :
#
#
# Convention : Reuss Voigt Hill
#
# Bulk Modulus (GPa) = 53.62054 55.29380 54.45717
# Shear Modulus (GPa) = 23.27976 24.11958 23.69967
#
# Velocity S-wave (km/s) = 3.43674 3.49819 3.46760
# Velocity P-wave (km/s) = 6.55387 6.66110 6.60770
#
# Compressibility (1/GPa) = 0.01864957
#
# Stress axis : x y z
#
# Youngs Moduli (GPa) = 48.84460 62.24353 54.33245
#
# Poissons Ratio (x) = 0.25208 0.38957
# Poissons Ratio (y) = 0.19782 0.37638
# Poissons Ratio (z) = 0.35022 0.43118
#
# Static dielectric constant tensor:
#      x y z
#    x 1.695310 0.000000 0.000000 
#    y 0.000000 1.831160 0.000000 
#    z 0.000000 0.000000 1.689890 
# 
# From -- ./inp_files/35633.got.cif
#   From: 2010.05.17/outbox.cif.g08.bks.cpg/sg53_18_cif.got.tgz:35633.got - 2010.06.03 12:45:16.
