data_PCOD9416597
_publ_section_title
;
Structure prediction by ZEFSAII (Michael W. Deem and Ramdas Pophale) SiO2 
 PCOD9416597
Probable space group: P M N A
;
_chemical_formula_sum "Si O2"
_cell_formula_units_Z 64
_cell_length_a 8.680502
_cell_length_b 24.427951
_cell_length_c 15.842448
_cell_angle_alpha 90.000000
_cell_angle_beta 90.000000
_cell_angle_gamma 90.000000
_cell_volume 3359.341631
_symmetry_space_group_name_H-M "P M N A"
_symmetry_group_IT_number 53
_symmetry_cell_setting 'orthorhombic'
loop_
_space_group_symop_operation_xyz
x,y,z
1/2-x,-y,1/2+z
x,-y,-z
1/2-x,y,1/2-z
-x,-y,-z
1/2+x,y,1/2-z
-x,y,z
1/2+x,-y,1/2+z
loop_
_atom_site_type_symbol
_atom_site_label
_atom_site_fract_x
_atom_site_fract_y
_atom_site_fract_z
Si Si1 0.686731 0.813674 0.003988
Si Si2 0.815051 0.383715 0.340207
Si Si3 0.316454 0.499299 0.399322
Si Si4 0.685616 0.117610 0.160045
Si Si5 0.184688 0.002699 0.600460
Si Si6 0.684929 0.614640 0.160069
Si Si7 0.682787 0.117183 0.659373
Si Si8 0.812554 0.687557 0.499147
O O1 0.500000 0.815540 0.007600
O O2 0.750425 0.845685 0.084503
O O3 0.736651 0.750517 0.002919
O O4 0.734577 0.844678 0.918293
O O5 0.750000 0.366019 0.250000
O O6 0.755732 0.444653 0.360563
O O7 0.763545 0.344271 0.416484
O O8 0.000000 0.384186 0.337653
O O9 0.286634 0.500000 0.500000
O O10 0.500000 0.499070 0.385752
O O11 0.244909 0.553693 0.359384
O O12 0.750000 0.135486 0.250000
O O13 0.500000 0.118484 0.162636
O O14 0.732936 0.054937 0.140914
O O15 0.267050 0.054785 0.640193
O O16 0.000000 0.009260 0.611470
O O17 0.213938 0.000000 0.500000
O O18 0.750000 0.632935 0.250000
O O19 0.500000 0.614027 0.162556
O O20 0.736210 0.653854 0.083502
O O21 0.750000 0.133533 0.750000
O O22 0.500000 0.121044 0.660961
O O23 0.000000 0.687374 0.499437
#
# Coordination Sequence:
#
# PCOD9416597 Si02
#       8
#     8   8   8   8   8   8   8   8
#     4  10  21  43  65  85 116 159 204 250 297 351
#     4  11  22  39  61  90 122 158 198 241 294 354
#     4  11  22  37  60  90 120 155 194 242 296 352
#     4  10  21  36  60  88 120 156 193 240 294 352
#     4  10  19  37  62  90 120 158 196 240 301 358
#     4  11  22  39  61  89 119 154 193 241 295 356
#     4  12  25  40  61  91 122 159 199 247 300 358
#     4   9  21  40  64  86 114 156 202 244 295 350
#
# _framework density 19.051354
#
# number of rings (size 3 to 8) (size 9 to 14) (size 15 to 20)
#    0.000    1.500    2.500    3.000    0.000    3.750 
#    0.000    3.750    0.000    0.000    0.000    0.000 
#    0.000    0.000    0.000    0.000    0.000    0.000 
#
# Total GULP energy -357816.518890 kJ/mol
# GULP energy per Si atom -5590.883108 kJ/mol
# Density = 1.900799 g / cm^3
# Si number density = 19.051354 Si / 1000 Ang^3
#
#
#
# Elastic Constant Matrix: (Units=GPa)
#
#
# Indices 1 2 3 4 5 6 
#
# 1 45.3838 30.9448 51.7221 0.0000 0.0000 0.0000
# 2 30.9448 156.7076 96.3287 0.0000 0.0000 0.0000
# 3 51.7221 96.3287 199.2420 0.0000 0.0000 0.0000
# 4 0.0000 0.0000 0.0000 -13.5125 0.0000 0.0000
# 5 0.0000 0.0000 0.0000 0.0000 32.5339 0.0000
# 6 0.0000 0.0000 0.0000 0.0000 0.0000 2.9573
#
#
#
# Elastic Compliance Matrix: (Units=1/GPa)
#
#
# Indices 1 2 3 4 5 6 
#
# 1 0.031609 -0.001704 -0.007381 0.000000 0.000000 0.000000
# 2 -0.001704 0.009172 -0.003992 0.000000 0.000000 0.000000
# 3 -0.007381 -0.003992 0.008865 0.000000 0.000000 0.000000
# 4 0.000000 0.000000 0.000000 -0.074006 0.000000 0.000000
# 5 0.000000 0.000000 0.000000 0.000000 0.030737 0.000000
# 6 0.000000 0.000000 0.000000 0.000000 0.000000 0.338151
#
#
# Mechanical properties :
#
#
# Convention : Reuss Voigt Hill
#
# Bulk Modulus (GPa) = 42.57069 84.36939 63.47004
# Shear Modulus (GPa) = 13.20958 19.21825 16.21391
#
# Velocity S-wave (km/s) = 2.63604 3.17954 2.92046
# Velocity P-wave (km/s) = 5.62661 7.60662 6.69027
#
# Compressibility (1/GPa) = 0.02349034
#
# Stress axis : x y z
#
# Youngs Moduli (GPa) = 31.63681 109.03144 112.80099
#
# Poissons Ratio (x) = 0.18582 0.83264
# Poissons Ratio (y) = 0.05392 0.45028
# Poissons Ratio (z) = 0.23353 0.43524
#
# Static dielectric constant tensor:
#      x y z
#    x 1.640200 0.000000 0.000000 
#    y 0.000000 1.634390 0.000000 
#    z 0.000000 0.000000 1.651710 
# 
# From -- ./inp_files/20847.got.cif
#   From: 2010.05.17/outbox.cif.g08.bks.cpg/sg53_11_cif.got.tgz:20847.got - 2010.06.03 12:45:16.
