data_PCOD9416586
_publ_section_title
;
Structure prediction by ZEFSAII (Michael W. Deem and Ramdas Pophale) SiO2 
 PCOD9416586
Probable space group: P M N A
;
_chemical_formula_sum "Si O2"
_cell_formula_units_Z 48
_cell_length_a 18.407359
_cell_length_b 11.698615
_cell_length_c 12.363765
_cell_angle_alpha 90.000000
_cell_angle_beta 90.000000
_cell_angle_gamma 90.000000
_cell_volume 2662.420649
_symmetry_space_group_name_H-M "P M N A"
_symmetry_group_IT_number 53
_symmetry_cell_setting 'orthorhombic'
loop_
_space_group_symop_operation_xyz
x,y,z
1/2-x,-y,1/2+z
x,-y,-z
1/2-x,y,1/2-z
-x,-y,-z
1/2+x,y,1/2-z
-x,y,z
1/2+x,-y,1/2+z
loop_
_atom_site_type_symbol
_atom_site_label
_atom_site_fract_x
_atom_site_fract_y
_atom_site_fract_z
Si Si1 0.417457 0.613022 0.849486
Si Si2 0.835311 0.210408 0.777970
Si Si3 0.130946 0.362828 0.586735
Si Si4 0.676080 0.765995 0.690568
Si Si5 0.085519 0.988779 0.870276
Si Si6 0.800480 0.373211 0.971026
O O1 0.500000 0.630997 0.814605
O O2 0.401048 0.478371 0.861981
O O3 0.363106 0.674361 0.768025
O O4 0.405768 0.659502 0.971391
O O5 0.750000 0.191032 0.750000
O O6 0.872948 0.260692 0.671305
O O7 0.838145 0.307280 0.871750
O O8 0.873577 0.096366 0.818240
O O9 0.216207 0.385112 0.563443
O O10 0.750000 0.803048 0.750000
O O11 0.623955 0.872866 0.668571
O O12 0.694326 0.704818 0.577317
O O13 0.000000 0.988570 0.843447
O O14 0.092347 0.000000 0.000000
O O15 0.828448 0.500000 0.000000
#
# Coordination Sequence:
#
# PCOD9416586 Si02
#       6
#     8   8   8   8   8   8
#     4  11  22  37  59  92 129 164 194 233 303 369
#     4  10  22  39  63  91 116 155 206 251 297 348
#     4  10  19  37  60  89 124 162 190 242 296 357
#     4  12  22  39  64  89 118 157 205 254 296 349
#     4  11  24  43  62  82 117 161 201 250 309 357
#     4  11  19  35  61  93 122 151 203 250 294 350
#
# _framework density 18.028707000000001
#
# number of rings (size 3 to 8) (size 9 to 14) (size 15 to 20)
#    0.000    1.167    5.000    3.000    0.000    2.667 
#    0.000    0.833    0.000    4.500    0.000    0.000 
#    0.000    0.000    0.000    0.000    0.000    0.000 
#
# Total GULP energy -268154.129434 kJ/mol
# GULP energy per Si atom -5586.544363 kJ/mol
# Density = 1.798767 g / cm^3
# Si number density = 18.028707 Si / 1000 Ang^3
#
#
#
# Elastic Constant Matrix: (Units=GPa)
#
#
# Indices 1 2 3 4 5 6 
#
# 1 72.0989 18.2269 19.3205 0.0000 0.0000 0.0000
# 2 18.2269 73.2312 25.5180 0.0000 0.0000 0.0000
# 3 19.3205 25.5180 66.4265 0.0000 0.0000 0.0000
# 4 0.0000 0.0000 0.0000 30.6030 0.0000 0.0000
# 5 0.0000 0.0000 0.0000 0.0000 13.5610 0.0000
# 6 0.0000 0.0000 0.0000 0.0000 0.0000 17.5766
#
#
#
# Elastic Compliance Matrix: (Units=1/GPa)
#
#
# Indices 1 2 3 4 5 6 
#
# 1 0.015471 -0.002635 -0.003487 0.000000 0.000000 0.000000
# 2 -0.002635 0.016215 -0.005462 0.000000 0.000000 0.000000
# 3 -0.003487 -0.005462 0.018167 0.000000 0.000000 0.000000
# 4 0.000000 0.000000 0.000000 0.032677 0.000000 0.000000
# 5 0.000000 0.000000 0.000000 0.000000 0.073741 0.000000
# 6 0.000000 0.000000 0.000000 0.000000 0.000000 0.056894
#
#
# Mechanical properties :
#
#
# Convention : Reuss Voigt Hill
#
# Bulk Modulus (GPa) = 37.47842 37.54304 37.51073
# Shear Modulus (GPa) = 20.38924 22.26089 21.32506
#
# Velocity S-wave (km/s) = 3.36658 3.51771 3.44297
# Velocity P-wave (km/s) = 5.99543 6.11296 6.05448
#
# Compressibility (1/GPa) = 0.02668202
#
# Stress axis : x y z
#
# Youngs Moduli (GPa) = 64.63889 61.67222 55.04502
#
# Poissons Ratio (x) = 0.16253 0.19196
# Poissons Ratio (y) = 0.17035 0.30068
# Poissons Ratio (z) = 0.22542 0.33688
#
# Static dielectric constant tensor:
#      x y z
#    x 1.605600 0.000000 0.000000 
#    y 0.000000 1.588270 0.000000 
#    z 0.000000 0.000000 1.608810 
# 
# From -- ./inp_files/16897.got.cif
#   From: 2010.05.17/outbox.cif.g08.bks.cpg/sg53_9_cif.got.tgz:16897.got - 2010.06.03 12:45:16.
