data_PCOD9416227
_publ_section_title
;
Structure prediction by ZEFSAII (Michael W. Deem and Ramdas Pophale) SiO2 
 PCOD9416227
Probable space group: P M N A
;
_chemical_formula_sum "Si O2"
_cell_formula_units_Z 48
_cell_length_a 8.470316
_cell_length_b 15.337075
_cell_length_c 19.412939
_cell_angle_alpha 90.000000
_cell_angle_beta 90.000000
_cell_angle_gamma 90.000000
_cell_volume 2521.932416
_symmetry_space_group_name_H-M "P M N A"
_symmetry_group_IT_number 53
_symmetry_cell_setting 'orthorhombic'
loop_
_space_group_symop_operation_xyz
x,y,z
1/2-x,-y,1/2+z
x,-y,-z
1/2-x,y,1/2-z
-x,-y,-z
1/2+x,y,1/2-z
-x,y,z
1/2+x,-y,1/2+z
loop_
_atom_site_type_symbol
_atom_site_label
_atom_site_fract_x
_atom_site_fract_y
_atom_site_fract_z
Si Si1 0.309128 0.529995 0.172715
Si Si2 0.690375 0.874247 0.446501
Si Si3 0.190170 0.939890 0.901437
Si Si4 0.312129 0.781600 0.824017
Si Si5 0.307467 0.629110 0.924737
Si Si6 0.309490 0.681777 0.075990
O O1 0.250000 0.516213 0.250000
O O2 0.500000 0.527983 0.174263
O O3 0.257189 0.454566 0.119374
O O4 0.257656 0.622129 0.139799
O O5 0.500000 0.870974 0.445697
O O6 0.738592 0.897349 0.525091
O O7 0.754641 0.781479 0.423289
O O8 0.740137 0.959039 0.402430
O O9 0.255984 0.878386 0.842460
O O10 0.000000 0.938277 0.899178
O O11 0.250000 0.753406 0.750000
O O12 0.500000 0.779177 0.823382
O O13 0.256076 0.714913 0.882905
O O14 0.500000 0.627294 0.926003
O O15 0.255907 0.637648 0.003809
O O16 0.500000 0.681373 0.075225
#
# Coordination Sequence:
#
# PCOD9416227 Si02
#       6
#     8   8   8   8   8   8
#     4  10  21  37  56  77 108 145 179 221 270 323
#     4   9  18  33  55  80 107 137 172 220 271 315
#     4   9  18  34  53  76 107 142 176 214 267 322
#     4  11  21  33  52  79 111 145 181 224 272 324
#     4   9  18  34  55  80 106 139 181 222 268 319
#     4  10  19  34  57  83 107 138 183 227 266 316
#
# _framework density 19.033024999999999
#
# number of rings (size 3 to 8) (size 9 to 14) (size 15 to 20)
#    0.000    2.333    1.667    2.500    0.000    3.333 
#    0.000    4.167    0.000    4.000    0.000    0.000 
#    0.000    0.000    0.000    0.000    0.000    0.000 
#
# Total GULP energy -267798.289679 kJ/mol
# GULP energy per Si atom -5579.131035 kJ/mol
# Density = 1.898970 g / cm^3
# Si number density = 19.033025 Si / 1000 Ang^3
#
#
#
# Elastic Constant Matrix: (Units=GPa)
#
#
# Indices 1 2 3 4 5 6 
#
# 1 7.6552 13.1888 7.0069 0.0000 0.0000 0.0000
# 2 13.1888 123.8543 21.3826 0.0000 0.0000 0.0000
# 3 7.0069 21.3826 41.6556 0.0000 0.0000 0.0000
# 4 0.0000 0.0000 0.0000 13.1320 0.0000 0.0000
# 5 0.0000 0.0000 0.0000 0.0000 -37.6472 0.0000
# 6 0.0000 0.0000 0.0000 0.0000 0.0000 10.0911
#
#
#
# Elastic Compliance Matrix: (Units=1/GPa)
#
#
# Indices 1 2 3 4 5 6 
#
# 1 0.176634 -0.015010 -0.022007 0.000000 0.000000 0.000000
# 2 -0.015010 0.010135 -0.002677 0.000000 0.000000 0.000000
# 3 -0.022007 -0.002677 0.029083 0.000000 0.000000 0.000000
# 4 0.000000 0.000000 0.000000 0.076150 0.000000 0.000000
# 5 0.000000 0.000000 0.000000 0.000000 -0.026562 0.000000
# 6 0.000000 0.000000 0.000000 0.000000 0.000000 0.099097
#
#
# Mechanical properties :
#
#
# Convention : Reuss Voigt Hill
#
# Bulk Modulus (GPa) = 7.32802 28.48019 17.90410
# Shear Modulus (GPa) = 10.21635 5.88763 8.05199
#
# Velocity S-wave (km/s) = 2.31934 1.76071 2.05906
# Velocity P-wave (km/s) = 3.32129 4.37373 3.88333
#
# Compressibility (1/GPa) = 0.13646257
#
# Stress axis : x y z
#
# Youngs Moduli (GPa) = 5.66144 98.67212 34.38481
#
# Poissons Ratio (x) = 1.48104 0.75670
# Poissons Ratio (y) = 0.08498 0.09207
# Poissons Ratio (z) = 0.12459 0.26419
#
# Static dielectric constant tensor:
#      x y z
#    x 1.658980 0.000000 0.000000 
#    y 0.000000 1.671780 0.000000 
#    z 0.000000 0.000000 1.645940 
# 
# From -- ./inp_files/26160.got.cif
#   From: 2010.05.17/outbox.cif.g08.bks.cpg/sg53_14_cif.got.tgz:26160.got - 2010.06.03 12:45:16.
