data_PCOD9416329
_publ_section_title
;
Structure prediction by ZEFSAII (Michael W. Deem and Ramdas Pophale) SiO2 
 PCOD9416329
Probable space group: P M N A
;
_chemical_formula_sum "Si O2"
_cell_formula_units_Z 48
_cell_length_a 25.416552
_cell_length_b 11.110069
_cell_length_c 8.993723
_cell_angle_alpha 90.000000
_cell_angle_beta 90.000000
_cell_angle_gamma 90.000000
_cell_volume 2539.644321
_symmetry_space_group_name_H-M "P M N A"
_symmetry_group_IT_number 53
_symmetry_cell_setting 'orthorhombic'
loop_
_space_group_symop_operation_xyz
x,y,z
1/2-x,-y,1/2+z
x,-y,-z
1/2-x,y,1/2-z
-x,-y,-z
1/2+x,y,1/2-z
-x,y,z
1/2+x,-y,1/2+z
loop_
_atom_site_type_symbol
_atom_site_label
_atom_site_fract_x
_atom_site_fract_y
_atom_site_fract_z
Si Si1 0.614702 0.412847 0.312725
Si Si2 0.805527 0.039535 0.171137
Si Si3 0.649608 0.797037 0.259649
Si Si4 0.205433 0.291296 0.056513
Si Si5 0.825305 0.358101 0.469149
Si Si6 0.437910 0.337420 0.603416
O O1 0.672785 0.405442 0.386497
O O2 0.589866 0.545556 0.321281
O O3 0.578117 0.341012 0.429208
O O4 0.626953 0.362005 0.150113
O O5 0.750000 0.029144 0.250000
O O6 0.817466 0.180433 0.155346
O O7 0.841021 0.939799 0.250830
O O8 0.801138 0.000000 0.000000
O O9 0.689212 0.742623 0.387081
O O10 0.659220 0.722480 0.110432
O O11 0.591416 0.773373 0.321563
O O12 0.267523 0.307849 0.075981
O O13 0.816547 0.500000 0.500000
O O14 0.500000 0.342656 0.620899
#
# Coordination Sequence:
#
# PCOD9416329 Si02
#       6
#     8   8   8   8   8   8
#     4  10  20  35  53  81 111 150 195 232 288 356
#     4  10  19  35  54  80 118 158 196 231 278 351
#     4  10  21  37  55  82 115 155 195 242 293 344
#     4  10  22  34  54  81 121 163 194 219 275 359
#     4  12  22  32  53  91 130 153 190 239 302 359
#     4  10  21  40  60  77 107 152 200 250 305 360
#
# _framework density 18.900285
#
# number of rings (size 3 to 8) (size 9 to 14) (size 15 to 20)
#    0.000    1.667    1.667    5.000    4.667    1.333 
#    0.000    2.500    0.000   13.500    0.000    0.000 
#    0.000   39.333    0.000    0.000    0.000    0.000 
#
# Total GULP energy -267512.004722 kJ/mol
# GULP energy per Si atom -5573.166765 kJ/mol
# Density = 1.885727 g / cm^3
# Si number density = 18.900285 Si / 1000 Ang^3
#
#
#
# Elastic Constant Matrix: (Units=GPa)
#
#
# Indices 1 2 3 4 5 6 
#
# 1 121.0468 48.4947 38.9933 0.0000 0.0000 0.0000
# 2 48.4947 103.7383 52.7447 0.0000 0.0000 0.0000
# 3 38.9933 52.7447 91.6833 0.0000 0.0000 0.0000
# 4 0.0000 0.0000 0.0000 39.1375 0.0000 0.0000
# 5 0.0000 0.0000 0.0000 0.0000 18.8036 0.0000
# 6 0.0000 0.0000 0.0000 0.0000 0.0000 7.0356
#
#
#
# Elastic Compliance Matrix: (Units=1/GPa)
#
#
# Indices 1 2 3 4 5 6 
#
# 1 0.010503 -0.003730 -0.002321 0.000000 0.000000 0.000000
# 2 -0.003730 0.014949 -0.007014 0.000000 0.000000 0.000000
# 3 -0.002321 -0.007014 0.015930 0.000000 0.000000 0.000000
# 4 0.000000 0.000000 0.000000 0.025551 0.000000 0.000000
# 5 0.000000 0.000000 0.000000 0.000000 0.053181 0.000000
# 6 0.000000 0.000000 0.000000 0.000000 0.000000 0.142134
#
#
# Mechanical properties :
#
#
# Convention : Reuss Voigt Hill
#
# Bulk Modulus (GPa) = 65.56541 66.32597 65.94569
# Shear Modulus (GPa) = 17.03792 24.74438 20.89115
#
# Velocity S-wave (km/s) = 3.00570 3.62222 3.32826
# Velocity P-wave (km/s) = 6.84186 7.25691 7.05244
#
# Compressibility (1/GPa) = 0.01525194
#
# Stress axis : x y z
#
# Youngs Moduli (GPa) = 95.20821 66.89248 62.77651
#
# Poissons Ratio (x) = 0.24949 0.14573
# Poissons Ratio (y) = 0.35510 0.44031
# Poissons Ratio (z) = 0.22102 0.46918
#
# Static dielectric constant tensor:
#      x y z
#    x 1.617370 0.000000 0.000000 
#    y 0.000000 1.722900 0.000000 
#    z 0.000000 0.000000 1.747150 
# 
# From -- ./inp_files/11792.got.cif
#   From: 2010.05.17/outbox.cif.g08.bks.cpg/sg53_6_cif.got.tgz:11792.got - 2010.06.03 12:45:16.
