data_PCOD9416303
_publ_section_title
;
Structure prediction by ZEFSAII (Michael W. Deem and Ramdas Pophale) SiO2 
 PCOD9416303
Probable space group: P M N A
;
_chemical_formula_sum "Si O2"
_cell_formula_units_Z 36
_cell_length_a 19.108402
_cell_length_b 7.375006
_cell_length_c 14.381170
_cell_angle_alpha 90.000000
_cell_angle_beta 90.000000
_cell_angle_gamma 90.000000
_cell_volume 2026.660334
_symmetry_space_group_name_H-M "P M N A"
_symmetry_group_IT_number 53
_symmetry_cell_setting 'orthorhombic'
loop_
_space_group_symop_operation_xyz
x,y,z
1/2-x,-y,1/2+z
x,-y,-z
1/2-x,y,1/2-z
-x,-y,-z
1/2+x,y,1/2-z
-x,y,z
1/2+x,-y,1/2+z
loop_
_atom_site_type_symbol
_atom_site_label
_atom_site_fract_x
_atom_site_fract_y
_atom_site_fract_z
Si Si1 0.269504 0.000000 0.500000
Si Si2 0.825655 0.961112 0.798735
Si Si3 0.353219 0.713962 0.988677
Si Si4 0.081877 0.327542 0.289125
Si Si5 0.918896 0.243499 0.685930
O O1 0.313848 0.991420 0.406032
O O2 0.217596 0.171489 0.490487
O O3 0.750000 0.942308 0.750000
O O4 0.869531 0.777479 0.783311
O O5 0.868536 0.116930 0.745503
O O6 0.393536 0.737850 0.891555
O O7 0.338987 0.500000 0.000000
O O8 0.399135 0.772717 0.077228
O O9 0.090790 0.544798 0.287767
O O10 0.000000 0.287489 0.275898
O O11 0.000000 0.195879 0.700027
#
# Coordination Sequence:
#
# PCOD9416303 Si02
#       5
#     4   8   8   8   8
#     4  12  24  38  52  88 118 150 192 232 278 340
#     4  12  23  38  59  82 119 155 191 231 283 338
#     4  10  19  34  60  89 118 144 179 238 296 342
#     4  10  21  38  61  88 116 149 190 237 289 340
#     4  10  21  38  61  88 116 149 190 237 289 340
#
# _framework density 17.763211999999999
#
# number of rings (size 3 to 8) (size 9 to 14) (size 15 to 20)
#    0.000    1.333    4.444    1.333    0.000    5.333 
#    0.000    5.556    0.000    2.667    0.000    0.000 
#    0.000    0.000    0.000    0.000    0.000    0.000 
#
# Total GULP energy -201176.300988 kJ/mol
# GULP energy per Si atom -5588.230583 kJ/mol
# Density = 1.772278 g / cm^3
# Si number density = 17.763212 Si / 1000 Ang^3
#
#
#
# Elastic Constant Matrix: (Units=GPa)
#
#
# Indices 1 2 3 4 5 6 
#
# 1 102.6959 33.8336 23.1133 0.0000 0.0000 0.0000
# 2 33.8336 40.6188 0.0911 0.0000 0.0000 0.0000
# 3 23.1133 0.0911 49.6289 0.0000 0.0000 0.0000
# 4 0.0000 0.0000 0.0000 20.8811 0.0000 0.0000
# 5 0.0000 0.0000 0.0000 0.0000 31.8642 0.0000
# 6 0.0000 0.0000 0.0000 0.0000 0.0000 21.1238
#
#
#
# Elastic Compliance Matrix: (Units=1/GPa)
#
#
# Indices 1 2 3 4 5 6 
#
# 1 0.015669 -0.013035 -0.007273 0.000000 0.000000 0.000000
# 2 -0.013035 0.035463 0.006006 0.000000 0.000000 0.000000
# 3 -0.007273 0.006006 0.023526 0.000000 0.000000 0.000000
# 4 0.000000 0.000000 0.000000 0.047890 0.000000 0.000000
# 5 0.000000 0.000000 0.000000 0.000000 0.031383 0.000000
# 6 0.000000 0.000000 0.000000 0.000000 0.000000 0.047340
#
#
# Mechanical properties :
#
#
# Convention : Reuss Voigt Hill
#
# Bulk Modulus (GPa) = 21.71442 34.11330 27.91386
# Shear Modulus (GPa) = 20.38914 23.83420 22.11167
#
# Velocity S-wave (km/s) = 3.39164 3.66700 3.53200
# Velocity P-wave (km/s) = 5.25248 6.09716 5.69051
#
# Compressibility (1/GPa) = 0.04605234
#
# Stress axis : x y z
#
# Youngs Moduli (GPa) = 63.82019 28.19807 42.50625
#
# Poissons Ratio (x) = 0.36757 0.30917
# Poissons Ratio (y) = 0.83191 -0.25528
# Poissons Ratio (z) = 0.46420 -0.16935
#
# Static dielectric constant tensor:
#      x y z
#    x 1.574880 0.000000 0.000000 
#    y 0.000000 1.626420 0.000000 
#    z 0.000000 0.000000 1.588860 
# 
# From -- ./inp_files/17572.got.cif
#   From: 2010.05.17/outbox.cif.g08.bks.cpg/sg53_9_cif.got.tgz:17572.got - 2010.06.03 12:45:16.
