data_PCOD9416503
_publ_section_title
;
Structure prediction by ZEFSAII (Michael W. Deem and Ramdas Pophale) SiO2 
 PCOD9416503
Probable space group: P M N A
;
_chemical_formula_sum "Si O2"
_cell_formula_units_Z 64
_cell_length_a 8.817346
_cell_length_b 22.020686
_cell_length_c 17.791679
_cell_angle_alpha 90.000000
_cell_angle_beta 90.000000
_cell_angle_gamma 90.000000
_cell_volume 3454.503697
_symmetry_space_group_name_H-M "P M N A"
_symmetry_group_IT_number 53
_symmetry_cell_setting 'orthorhombic'
loop_
_space_group_symop_operation_xyz
x,y,z
1/2-x,-y,1/2+z
x,-y,-z
1/2-x,y,1/2-z
-x,-y,-z
1/2+x,y,1/2-z
-x,y,z
1/2+x,-y,1/2+z
loop_
_atom_site_type_symbol
_atom_site_label
_atom_site_fract_x
_atom_site_fract_y
_atom_site_fract_z
Si Si1 0.181389 0.880997 0.104521
Si Si2 0.318810 0.106125 0.426398
Si Si3 0.319645 0.000232 0.169474
Si Si4 0.317012 0.430362 0.986029
Si Si5 0.818820 0.742671 0.108846
Si Si6 0.820150 0.624714 0.326495
Si Si7 0.181290 0.781571 0.666616
Si Si8 0.680868 0.687305 0.555347
O O1 0.270699 0.931798 0.149870
O O2 0.223960 0.811984 0.124331
O O3 0.000000 0.888581 0.116836
O O4 0.209322 0.889029 0.015381
O O5 0.500000 0.108066 0.415069
O O6 0.243996 0.161840 0.381787
O O7 0.251662 0.044359 0.392902
O O8 0.250000 0.017511 0.250000
O O9 0.500000 0.006466 0.171068
O O10 0.500000 0.424615 0.993402
O O11 0.274472 0.411982 0.900978
O O12 0.275191 0.500000 0.000000
O O13 0.239604 0.380652 0.039642
O O14 0.735971 0.693250 0.159276
O O15 0.000000 0.736732 0.118888
O O16 0.786920 0.724931 0.021787
O O17 0.750000 0.600463 0.250000
O O18 0.000000 0.623838 0.320961
O O19 0.250000 0.784101 0.750000
O O20 0.236555 0.721301 0.623129
O O21 0.000000 0.784056 0.670004
O O22 0.500000 0.688077 0.566858
#
# Coordination Sequence:
#
# PCOD9416503 Si02
#       8
#     8   8   8   8   8   8   8   8
#     4  10  21  39  62  86 113 149 187 233 291 348
#     4  11  22  41  64  86 114 149 190 237 293 351
#     4  12  26  42  58  81 112 150 194 242 293 348
#     4   9  19  37  60  86 117 157 201 243 289 341
#     4   9  18  35  58  83 112 147 185 228 281 341
#     4  10  20  34  55  84 116 153 192 237 287 338
#     4  12  24  38  59  87 119 153 193 240 292 346
#     4  10  19  36  59  86 117 150 190 235 285 343
#
# _framework density 18.526540000000001
#
# number of rings (size 3 to 8) (size 9 to 14) (size 15 to 20)
#    0.000    1.625    1.250    4.125    0.000    4.750 
#    0.000    0.625    0.000    1.500    0.000    0.000 
#    0.000    0.000    0.000    0.000    0.000    0.000 
#
# Total GULP energy -357715.783814 kJ/mol
# GULP energy per Si atom -5589.309122 kJ/mol
# Density = 1.848437 g / cm^3
# Si number density = 18.526540 Si / 1000 Ang^3
#
#
#
# Elastic Constant Matrix: (Units=GPa)
#
#
# Indices 1 2 3 4 5 6 
#
# 1 62.6621 18.8263 22.5584 0.0000 0.0000 0.0000
# 2 18.8263 93.4535 2.9520 0.0000 0.0000 0.0000
# 3 22.5584 2.9520 43.8555 0.0000 0.0000 0.0000
# 4 0.0000 0.0000 0.0000 10.1982 0.0000 0.0000
# 5 0.0000 0.0000 0.0000 0.0000 24.7059 0.0000
# 6 0.0000 0.0000 0.0000 0.0000 0.0000 30.5436
#
#
#
# Elastic Compliance Matrix: (Units=1/GPa)
#
#
# Indices 1 2 3 4 5 6 
#
# 1 0.020900 -0.003879 -0.010490 0.000000 0.000000 0.000000
# 2 -0.003879 0.011443 0.001225 0.000000 0.000000 0.000000
# 3 -0.010490 0.001225 0.028115 0.000000 0.000000 0.000000
# 4 0.000000 0.000000 0.000000 0.098056 0.000000 0.000000
# 5 0.000000 0.000000 0.000000 0.000000 0.040476 0.000000
# 6 0.000000 0.000000 0.000000 0.000000 0.000000 0.032740
#
#
# Mechanical properties :
#
#
# Convention : Reuss Voigt Hill
#
# Bulk Modulus (GPa) = 29.26400 32.07161 30.66780
# Shear Modulus (GPa) = 18.55914 23.46517 21.01215
#
# Velocity S-wave (km/s) = 3.16849 3.56275 3.37139
# Velocity P-wave (km/s) = 5.40516 5.85432 5.63422
#
# Compressibility (1/GPa) = 0.03417168
#
# Stress axis : x y z
#
# Youngs Moduli (GPa) = 47.84621 87.38776 35.56776
#
# Poissons Ratio (x) = 0.33898 0.37309
# Poissons Ratio (y) = 0.18560 -0.04357
# Poissons Ratio (z) = 0.50189 -0.10705
#
# Static dielectric constant tensor:
#      x y z
#    x 1.615910 0.000000 0.000000 
#    y 0.000000 1.626490 0.000000 
#    z 0.000000 0.000000 1.628490 
# 
# From -- ./inp_files/20948.got.cif
#   From: 2010.05.17/outbox.cif.g08.bks.cpg/sg53_11_cif.got.tgz:20948.got - 2010.06.03 12:45:16.
