data_PCOD9416737
_publ_section_title
;
Structure prediction by ZEFSAII (Michael W. Deem and Ramdas Pophale) SiO2 
 PCOD9416737
Probable space group: P M N A
;
_chemical_formula_sum "Si O2"
_cell_formula_units_Z 42
_cell_length_a 14.711684
_cell_length_b 15.037688
_cell_length_c 6.631659
_cell_angle_alpha 90.000000
_cell_angle_beta 90.000000
_cell_angle_gamma 90.000000
_cell_volume 1467.120024
_symmetry_space_group_name_H-M "P M N A"
_symmetry_group_IT_number 53
_symmetry_cell_setting 'orthorhombic'
loop_
_space_group_symop_operation_xyz
x,y,z
1/2-x,-y,1/2+z
x,-y,-z
1/2-x,y,1/2-z
-x,-y,-z
1/2+x,y,1/2-z
-x,y,z
1/2+x,-y,1/2+z
loop_
_atom_site_type_symbol
_atom_site_label
_atom_site_fract_x
_atom_site_fract_y
_atom_site_fract_z
Si Si1 0.352487 0.602401 0.513733
Si Si2 0.891570 0.977098 0.238072
Si Si3 0.890509 0.789099 0.120309
Si Si4 0.641703 0.641312 0.964938
Si Si5 0.389345 0.832060 0.840550
Si Si6 0.500000 0.500000 0.000000
O O1 0.381531 0.500000 0.500000
O O2 0.370281 0.684154 0.360128
O O3 0.243513 0.606225 0.522136
O O4 0.391845 0.629863 0.731222
O O5 0.000000 0.973200 0.279230
O O6 0.858143 0.064933 0.357229
O O7 0.857021 0.875572 0.244546
O O8 0.883195 0.000000 0.000000
O O9 0.860597 0.808083 0.888562
O O10 0.000000 0.795195 0.128708
O O11 0.638862 0.748524 0.979009
O O12 0.577881 0.571139 0.072209
O O13 0.500000 0.832837 0.848782
#
# Coordination Sequence:
#
# PCOD9416737 Si02
#       6
#     8   8   8   8   8   2
#     4  10  20  33  47  73 110 142 178 235 283 315
#     4   7  10  18  36  63  93 120 149 197 252 310
#     4   8  14  24  40  65  99 133 164 204 272 330
#     4  10  20  32  50  74 106 147 186 230 268 328
#     4   8  12  22  41  67  96 126 167 213 256 311
#     4  12  20  36  54  72 108 150 204 220 262 354
#
# _framework density 28.627514999999999
#
# number of rings (size 3 to 8) (size 9 to 14) (size 15 to 20)
#    0.000    3.238    1.905    2.286    1.333    0.381 
#    0.000    0.000    0.000    0.000    0.000   26.667 
#    0.000    3.238    0.381    0.000    0.000    0.190 
#
# Total GULP energy -234364.574698 kJ/mol
# GULP energy per Si atom -5580.108921 kJ/mol
# Density = 2.856236 g / cm^3
# Si number density = 28.627515 Si / 1000 Ang^3
#
#
#
# Elastic Constant Matrix: (Units=GPa)
#
#
# Indices 1 2 3 4 5 6 
#
# 1 74.3207 20.5375 -1.1623 0.0000 0.0000 0.0000
# 2 20.5375 393.1047 115.9315 0.0000 0.0000 0.0000
# 3 -1.1623 115.9315 82.7304 0.0000 0.0000 0.0000
# 4 0.0000 0.0000 0.0000 83.8216 0.0000 0.0000
# 5 0.0000 0.0000 0.0000 0.0000 -12.8941 0.0000
# 6 0.0000 0.0000 0.0000 0.0000 0.0000 35.1290
#
#
#
# Elastic Compliance Matrix: (Units=1/GPa)
#
#
# Indices 1 2 3 4 5 6 
#
# 1 0.013855 -0.001332 0.002061 0.000000 0.000000 0.000000
# 2 -0.001332 0.004464 -0.006274 0.000000 0.000000 0.000000
# 3 0.002061 -0.006274 0.020908 0.000000 0.000000 0.000000
# 4 0.000000 0.000000 0.000000 0.011930 0.000000 0.000000
# 5 0.000000 0.000000 0.000000 0.000000 -0.077555 0.000000
# 6 0.000000 0.000000 0.000000 0.000000 0.000000 0.028467
#
#
# Mechanical properties :
#
#
# Convention : Reuss Voigt Hill
#
# Bulk Modulus (GPa) = 35.53966 91.19657 63.36811
# Shear Modulus (GPa) = 221.86095 48.86790 135.36443
#
# Velocity S-wave (km/s) = 8.81291 4.13610 6.88385
# Velocity P-wave (km/s) = 10.77024 7.39832 9.23941
#
# Compressibility (1/GPa) = 0.02813758
#
# Stress axis : x y z
#
# Youngs Moduli (GPa) = 72.17405 224.03518 47.82921
#
# Poissons Ratio (x) = 0.29832 -0.09856
# Poissons Ratio (y) = 0.09610 0.30006
# Poissons Ratio (z) = -0.14872 1.40551
#
# Static dielectric constant tensor:
#      x y z
#    x 2.089130 0.000000 0.000000 
#    y 0.000000 2.233420 0.000000 
#    z 0.000000 0.000000 2.500440 
# 
# From -- ./inp_files/16829.got.cif
#   From: 2010.05.17/outbox.cif.g08.bks.cpg/sg53_9_cif.got.tgz:16829.got - 2010.06.03 12:45:16.
