data_PCOD9416951
_publ_section_title
;
Structure prediction by ZEFSAII (Michael W. Deem and Ramdas Pophale) SiO2 
 PCOD9416951
Probable space group: P M N A
;
_chemical_formula_sum "Si O2"
_cell_formula_units_Z 60
_cell_length_a 30.939770
_cell_length_b 9.222527
_cell_length_c 9.661683
_cell_angle_alpha 90.000000
_cell_angle_beta 90.000000
_cell_angle_gamma 90.000000
_cell_volume 2756.892300
_symmetry_space_group_name_H-M "P M N A"
_symmetry_group_IT_number 53
_symmetry_cell_setting 'orthorhombic'
loop_
_space_group_symop_operation_xyz
x,y,z
1/2-x,-y,1/2+z
x,-y,-z
1/2-x,y,1/2-z
-x,-y,-z
1/2+x,y,1/2-z
-x,y,z
1/2+x,-y,1/2+z
loop_
_atom_site_type_symbol
_atom_site_label
_atom_site_fract_x
_atom_site_fract_y
_atom_site_fract_z
Si Si1 0.076325 0.701947 0.716592
Si Si2 0.950240 0.185678 0.584992
Si Si3 0.888930 0.990421 0.760377
Si Si4 0.250000 0.674847 0.750000
Si Si5 0.688623 0.861911 0.599441
Si Si6 0.869185 0.711320 0.107278
Si Si7 0.546178 0.414774 0.665812
Si Si8 0.162228 0.485134 0.333642
O O1 0.059837 0.748572 0.564791
O O2 0.047652 0.579528 0.785098
O O3 0.122909 0.624245 0.699567
O O4 0.081821 0.852629 0.797845
O O5 0.914004 0.068923 0.633107
O O6 0.948180 0.316330 0.696164
O O7 0.000000 0.130607 0.591142
O O8 0.884144 0.125051 0.861710
O O9 0.840365 0.920428 0.770075
O O10 0.233321 0.786266 0.865398
O O11 0.291288 0.579544 0.792014
O O12 0.662887 0.734290 0.519018
O O13 0.694501 0.000000 0.500000
O O14 0.912748 0.626547 0.075740
O O15 0.847714 0.629045 0.239846
O O16 0.500000 0.377191 0.603404
O O17 0.161475 0.500000 0.500000
#
# Coordination Sequence:
#
# PCOD9416951 Si02
#       8
#     8   8   8   4   8   8   8   8
#     4  11  19  34  57  87 132 169 206 270 330 383
#     4  10  20  33  56  90 132 177 219 263 324 387
#     4  10  20  38  58  87 121 171 214 261 313 394
#     4  12  26  46  66 104 120 162 220 278 322 402
#     4  10  23  48  67  90 128 169 217 266 338 397
#     4   9  21  42  69  87 129 181 209 259 341 378
#     4   9  18  34  57  92 126 169 227 262 308 388
#     4  11  24  41  63  98 131 163 211 266 332 397
#
# _framework density 21.763636999999999
#
# number of rings (size 3 to 8) (size 9 to 14) (size 15 to 20)
#    0.000    1.867    1.333    3.600    1.867    2.667 
#    7.200    0.667    0.000    4.800    0.000    0.000 
#    0.000    0.000    0.000    0.000    0.000    0.000 
#
# Total GULP energy -334594.948797 kJ/mol
# GULP energy per Si atom -5576.582480 kJ/mol
# Density = 2.171410 g / cm^3
# Si number density = 21.763637 Si / 1000 Ang^3
#
#
#
# Elastic Constant Matrix: (Units=GPa)
#
#
# Indices 1 2 3 4 5 6 
#
# 1 138.8113 38.5583 36.3747 0.0000 0.0000 0.0000
# 2 38.5583 134.3346 39.0981 0.0000 0.0000 0.0000
# 3 36.3747 39.0981 88.4187 0.0000 0.0000 0.0000
# 4 0.0000 0.0000 0.0000 37.4436 0.0000 0.0000
# 5 0.0000 0.0000 0.0000 0.0000 12.4918 0.0000
# 6 0.0000 0.0000 0.0000 0.0000 0.0000 16.6536
#
#
#
# Elastic Compliance Matrix: (Units=1/GPa)
#
#
# Indices 1 2 3 4 5 6 
#
# 1 0.008366 -0.001606 -0.002731 0.000000 0.000000 0.000000
# 2 -0.001606 0.008852 -0.003254 0.000000 0.000000 0.000000
# 3 -0.002731 -0.003254 0.013872 0.000000 0.000000 0.000000
# 4 0.000000 0.000000 0.000000 0.026707 0.000000 0.000000
# 5 0.000000 0.000000 0.000000 0.000000 0.080053 0.000000
# 6 0.000000 0.000000 0.000000 0.000000 0.000000 0.060047
#
#
# Mechanical properties :
#
#
# Convention : Reuss Voigt Hill
#
# Bulk Modulus (GPa) = 62.86224 65.51410 64.18817
# Shear Modulus (GPa) = 22.89570 29.82004 26.35787
#
# Velocity S-wave (km/s) = 3.24700 3.70561 3.48386
# Velocity P-wave (km/s) = 6.55775 6.96251 6.76316
#
# Compressibility (1/GPa) = 0.01590780
#
# Stress axis : x y z
#
# Youngs Moduli (GPa) = 119.53190 112.96759 72.08680
#
# Poissons Ratio (x) = 0.18146 0.19690
# Poissons Ratio (y) = 0.19201 0.23453
# Poissons Ratio (z) = 0.32649 0.36754
#
# Static dielectric constant tensor:
#      x y z
#    x 1.793630 0.000000 0.000000 
#    y 0.000000 1.802630 0.000000 
#    z 0.000000 0.000000 1.838550 
# 
# From -- ./inp_files/18996.got.cif
#   From: 2010.05.17/outbox.cif.g08.bks.cpg/sg53_10_cif.got.tgz:18996.got - 2010.06.03 12:45:16.
