data_PCOD9416009
_publ_section_title
;
Structure prediction by ZEFSAII (Michael W. Deem and Ramdas Pophale) SiO2 
 PCOD9416009
Probable space group: P M N A
;
_chemical_formula_sum "Si O2"
_cell_formula_units_Z 56
_cell_length_a 15.178301
_cell_length_b 32.380251
_cell_length_c 5.156931
_cell_angle_alpha 90.000000
_cell_angle_beta 90.000000
_cell_angle_gamma 90.000000
_cell_volume 2534.513989
_symmetry_space_group_name_H-M "P M N A"
_symmetry_group_IT_number 53
_symmetry_cell_setting 'orthorhombic'
loop_
_space_group_symop_operation_xyz
x,y,z
1/2-x,-y,1/2+z
x,-y,-z
1/2-x,y,1/2-z
-x,-y,-z
1/2+x,y,1/2-z
-x,y,z
1/2+x,-y,1/2+z
loop_
_atom_site_type_symbol
_atom_site_label
_atom_site_fract_x
_atom_site_fract_y
_atom_site_fract_z
Si Si1 0.891756 0.678142 0.097938
Si Si2 0.106725 0.905442 0.418517
Si Si3 0.399929 0.766287 0.603400
Si Si4 0.343662 0.811851 0.114489
Si Si5 0.394692 0.368208 0.097539
Si Si6 0.107874 0.954426 0.917572
Si Si7 0.187693 0.454826 0.500122
O O1 0.862582 0.723141 0.003568
O O2 0.863301 0.644902 0.882157
O O3 0.000000 0.679300 0.107111
O O4 0.861094 0.663596 0.379489
O O5 0.137697 0.859025 0.461516
O O6 0.136678 0.937325 0.639950
O O7 0.000000 0.905010 0.424417
O O8 0.134410 0.922125 0.138662
O O9 0.500000 0.758469 0.694202
O O10 0.403370 0.796321 0.353850
O O11 0.352641 0.785147 0.853957
O O12 0.250000 0.808470 0.250000
O O13 0.500000 0.364291 0.103504
O O14 0.371915 0.414580 0.018345
O O15 0.000000 0.955815 0.912164
O O16 0.137553 0.000000 0.000000
O O17 0.142181 0.500000 0.500000
O O18 0.250000 0.454234 0.250000
O O19 0.250000 0.452023 0.750000
#
# Coordination Sequence:
#
# PCOD9416009 Si02
#       7
#     8   8   8   8   8   8   8
#     4   9  19  35  58  85 111 142 183 236 288 337
#     4  10  19  33  55  81 110 149 192 226 273 344
#     4  11  22  41  65  85 112 156 204 241 288 358
#     4  12  25  40  58  87 124 156 193 248 303 342
#     4  10  19  35  58  84 111 141 184 233 283 337
#     4   9  17  30  52  83 113 139 180 239 283 318
#     4  10  21  37  55  78 112 151 188 227 276 333
#
# _framework density 22.094967
#
# number of rings (size 3 to 8) (size 9 to 14) (size 15 to 20)
#    0.000    1.857    0.000    4.714    0.000    5.429 
#    0.000    7.143    0.000    6.857    0.000    0.000 
#    0.000    0.000    0.000    0.000    0.000    0.143 
#
# Total GULP energy -313076.476825 kJ/mol
# GULP energy per Si atom -5590.651372 kJ/mol
# Density = 2.204468 g / cm^3
# Si number density = 22.094967 Si / 1000 Ang^3
#
#
#
# Elastic Constant Matrix: (Units=GPa)
#
#
# Indices 1 2 3 4 5 6 
#
# 1 25.4357 0.0527 4.7038 0.0000 0.0000 0.0000
# 2 0.0527 90.2740 3.2552 0.0000 0.0000 0.0000
# 3 4.7038 3.2552 111.6392 0.0000 0.0000 0.0000
# 4 0.0000 0.0000 0.0000 41.2021 0.0000 0.0000
# 5 0.0000 0.0000 0.0000 0.0000 18.8327 0.0000
# 6 0.0000 0.0000 0.0000 0.0000 0.0000 -17.4850
#
#
#
# Elastic Compliance Matrix: (Units=1/GPa)
#
#
# Indices 1 2 3 4 5 6 
#
# 1 0.039624 0.000037 -0.001671 0.000000 0.000000 0.000000
# 2 0.000037 0.011089 -0.000325 0.000000 0.000000 0.000000
# 3 -0.001671 -0.000325 0.009037 0.000000 0.000000 0.000000
# 4 0.000000 0.000000 0.000000 0.024271 0.000000 0.000000
# 5 0.000000 0.000000 0.000000 0.000000 0.053099 0.000000
# 6 0.000000 0.000000 0.000000 0.000000 0.000000 -0.057192
#
#
# Mechanical properties :
#
#
# Convention : Reuss Voigt Hill
#
# Bulk Modulus (GPa) = 17.91049 27.04138 22.47593
# Shear Modulus (GPa) = 48.80150 23.13242 35.96696
#
# Velocity S-wave (km/s) = 4.70480 3.23918 4.03902
# Velocity P-wave (km/s) = 6.13492 5.12396 5.65209
#
# Compressibility (1/GPa) = 0.05583321
#
# Stress axis : x y z
#
# Youngs Moduli (GPa) = 25.23746 90.17883 110.65262
#
# Poissons Ratio (x) = -0.00334 0.18486
# Poissons Ratio (y) = -0.00094 0.03595
# Poissons Ratio (z) = 0.04216 0.02930
#
# Static dielectric constant tensor:
#      x y z
#    x 1.858380 0.000000 0.000000 
#    y 0.000000 1.791720 0.000000 
#    z 0.000000 0.000000 1.772510 
# 
# From -- ./inp_files/1477.got.cif
#   From: 2010.05.17/outbox.cif.g08.bks.cpg/sg53_1_cif.got.tgz:1477.got - 2010.06.03 12:45:16.
