data_PCOD9416197
_publ_section_title
;
Structure prediction by ZEFSAII (Michael W. Deem and Ramdas Pophale) SiO2 
 PCOD9416197
Probable space group: P M N A
;
_chemical_formula_sum "Si O2"
_cell_formula_units_Z 48
_cell_length_a 8.584535
_cell_length_b 32.342619
_cell_length_c 9.256989
_cell_angle_alpha 90.000000
_cell_angle_beta 90.000000
_cell_angle_gamma 90.000000
_cell_volume 2570.169160
_symmetry_space_group_name_H-M "P M N A"
_symmetry_group_IT_number 53
_symmetry_cell_setting 'orthorhombic'
loop_
_space_group_symop_operation_xyz
x,y,z
1/2-x,-y,1/2+z
x,-y,-z
1/2-x,y,1/2-z
-x,-y,-z
1/2+x,y,1/2-z
-x,y,z
1/2+x,-y,1/2+z
loop_
_atom_site_type_symbol
_atom_site_label
_atom_site_fract_x
_atom_site_fract_y
_atom_site_fract_z
Si Si1 0.813043 0.122203 0.911978
Si Si2 0.812445 0.799730 0.585705
Si Si3 0.188164 0.959326 0.912354
Si Si4 0.187443 0.709189 0.586556
Si Si5 0.313197 0.540752 0.411760
Si Si6 0.687474 0.381236 0.085859
O O1 0.750000 0.119480 0.750000
O O2 0.000000 0.122763 0.908783
O O3 0.753009 0.163435 0.989802
O O4 0.762139 0.082092 0.003825
O O5 0.750000 0.803467 0.750000
O O6 0.764853 0.754039 0.526571
O O7 0.000000 0.801919 0.589258
O O8 0.250000 0.959783 0.750000
O O9 0.000000 0.959579 0.907784
O O10 0.239395 0.000000 0.000000
O O11 0.250000 0.709151 0.750000
O O12 0.235211 0.664385 0.526081
O O13 0.000000 0.709194 0.589707
O O14 0.262854 0.500000 0.500000
O O15 0.250000 0.538718 0.250000
O O16 0.500000 0.541577 0.409058
O O17 0.252579 0.581630 0.491310
O O18 0.750000 0.384757 0.250000
O O19 0.500000 0.383336 0.089350
#
# Coordination Sequence:
#
# PCOD9416197 Si02
#       6
#     8   8   8   8   8   8
#     4  11  23  38  56  80 110 145 186 229 276 327
#     4  10  19  34  56  82 112 145 184 227 272 322
#     4  10  22  39  59  84 112 143 180 222 270 324
#     4   8  16  30  51  79 109 142 179 221 267 318
#     4  11  24  40  58  81 109 142 180 222 270 323
#     4  10  19  34  57  84 113 144 181 223 269 321
#
# _framework density 18.675812000000001
#
# number of rings (size 3 to 8) (size 9 to 14) (size 15 to 20)
#    0.000    2.000    0.000    3.500    0.000    7.000 
#    0.000    0.833    0.000    0.000    0.000    0.000 
#    0.000    0.000    0.000    0.000    0.000    0.000 
#
# Total GULP energy -267894.471517 kJ/mol
# GULP energy per Si atom -5581.134823 kJ/mol
# Density = 1.863330 g / cm^3
# Si number density = 18.675812 Si / 1000 Ang^3
#
#
#
# Elastic Constant Matrix: (Units=GPa)
#
#
# Indices 1 2 3 4 5 6 
#
# 1 39.8679 49.0196 32.4367 0.0000 0.0000 0.0000
# 2 49.0196 240.9230 110.7293 0.0000 0.0000 0.0000
# 3 32.4367 110.7293 134.6559 0.0000 0.0000 0.0000
# 4 0.0000 0.0000 0.0000 35.6259 0.0000 0.0000
# 5 0.0000 0.0000 0.0000 0.0000 33.4026 0.0000
# 6 0.0000 0.0000 0.0000 0.0000 0.0000 27.4015
#
#
#
# Elastic Compliance Matrix: (Units=1/GPa)
#
#
# Indices 1 2 3 4 5 6 
#
# 1 0.034816 -0.005191 -0.004118 0.000000 0.000000 0.000000
# 2 -0.005191 0.007447 -0.004873 0.000000 0.000000 0.000000
# 3 -0.004118 -0.004873 0.012425 0.000000 0.000000 0.000000
# 4 0.000000 0.000000 0.000000 0.028069 0.000000 0.000000
# 5 0.000000 0.000000 0.000000 0.000000 0.029938 0.000000
# 6 0.000000 0.000000 0.000000 0.000000 0.000000 0.036494
#
#
# Mechanical properties :
#
#
# Convention : Reuss Voigt Hill
#
# Bulk Modulus (GPa) = 37.98832 88.86866 63.42849
# Shear Modulus (GPa) = 26.83435 34.17006 30.50221
#
# Velocity S-wave (km/s) = 3.79469 4.28207 4.04573
# Velocity P-wave (km/s) = 6.29164 8.49331 7.47399
#
# Compressibility (1/GPa) = 0.02632388
#
# Stress axis : x y z
#
# Youngs Moduli (GPa) = 28.72238 134.29024 80.48090
#
# Poissons Ratio (x) = 0.69714 0.33141
# Poissons Ratio (y) = 0.14911 0.39217
# Poissons Ratio (z) = 0.11827 0.65438
#
# Static dielectric constant tensor:
#      x y z
#    x 1.634620 0.000000 0.000000 
#    y 0.000000 1.681050 0.000000 
#    z 0.000000 0.000000 1.590770 
# 
# From -- ./inp_files/6617.got.cif
#   From: 2010.05.17/outbox.cif.g08.bks.cpg/sg53_4_cif.got.tgz:6617.got - 2010.06.03 12:45:16.
