data_PCOD9416563
_publ_section_title
;
Structure prediction by ZEFSAII (Michael W. Deem and Ramdas Pophale) SiO2 
 PCOD9416563
Probable space group: P M N A
;
_chemical_formula_sum "Si O2"
_cell_formula_units_Z 64
_cell_length_a 15.395898
_cell_length_b 11.439702
_cell_length_c 18.348235
_cell_angle_alpha 90.000000
_cell_angle_beta 90.000000
_cell_angle_gamma 90.000000
_cell_volume 3231.573443
_symmetry_space_group_name_H-M "P M N A"
_symmetry_group_IT_number 53
_symmetry_cell_setting 'orthorhombic'
loop_
_space_group_symop_operation_xyz
x,y,z
1/2-x,-y,1/2+z
x,-y,-z
1/2-x,y,1/2-z
-x,-y,-z
1/2+x,y,1/2-z
-x,y,z
1/2+x,-y,1/2+z
loop_
_atom_site_type_symbol
_atom_site_label
_atom_site_fract_x
_atom_site_fract_y
_atom_site_fract_z
Si Si1 0.601395 0.135787 0.191707
Si Si2 0.096755 0.258096 0.777533
Si Si3 0.104888 0.880784 0.364414
Si Si4 0.099059 0.886906 0.076862
Si Si5 0.900773 0.138528 0.136481
Si Si6 0.779642 0.429177 0.832328
Si Si7 0.239716 0.308050 0.376766
Si Si8 0.268722 0.255087 0.960019
O O1 0.500000 0.164315 0.175848
O O2 0.606331 0.107690 0.277661
O O3 0.666581 0.239179 0.169346
O O4 0.625901 0.016335 0.150306
O O5 0.136591 0.197246 0.705268
O O6 0.099552 0.160001 0.839838
O O7 0.125432 0.374278 0.821294
O O8 0.000000 0.282652 0.752765
O O9 0.155806 0.831819 0.433587
O O10 0.000000 0.873292 0.371121
O O11 0.177418 0.816302 0.040072
O O12 0.000000 0.866497 0.049463
O O13 0.113883 0.025220 0.085845
O O14 0.828501 0.235052 0.125100
O O15 0.000000 0.178649 0.124923
O O16 0.750000 0.400992 0.750000
O O17 0.760910 0.563575 0.847237
O O18 0.739104 0.355177 0.898322
O O19 0.212538 0.308713 0.461360
#
# Coordination Sequence:
#
# PCOD9416563 Si02
#       8
#     8   8   8   8   8   8   8   8
#     4  10  21  39  64  92 124 162 206 257 306 358
#     4   9  17  34  62  93 113 137 195 264 306 336
#     4  10  19  36  65  94 119 152 203 260 309 357
#     4   9  18  34  60  89 118 152 200 250 300 356
#     4  10  20  37  61  89 122 161 204 255 306 362
#     4  11  22  41  64  84 109 156 212 257 295 342
#     4  12  26  40  55  88 131 167 200 241 309 383
#     4  11  24  39  59  87 125 165 200 253 312 364
#
# _framework density 19.804594000000002
#
# number of rings (size 3 to 8) (size 9 to 14) (size 15 to 20)
#    0.000    1.750    2.500    2.250    0.000    3.500 
#    0.000    3.750    0.000    5.250    0.000    0.000 
#    0.000    0.000    0.000    0.000    0.000    0.000 
#
# Total GULP energy -356845.523974 kJ/mol
# GULP energy per Si atom -5575.711312 kJ/mol
# Density = 1.975952 g / cm^3
# Si number density = 19.804594 Si / 1000 Ang^3
#
#
#
# Elastic Constant Matrix: (Units=GPa)
#
#
# Indices 1 2 3 4 5 6 
#
# 1 49.6164 62.4599 12.6682 0.0000 0.0000 0.0000
# 2 62.4599 124.5330 12.7528 0.0000 0.0000 0.0000
# 3 12.6682 12.7528 63.8194 0.0000 0.0000 0.0000
# 4 0.0000 0.0000 0.0000 28.2488 0.0000 0.0000
# 5 0.0000 0.0000 0.0000 0.0000 13.4166 0.0000
# 6 0.0000 0.0000 0.0000 0.0000 0.0000 -11.1803
#
#
#
# Elastic Compliance Matrix: (Units=1/GPa)
#
#
# Indices 1 2 3 4 5 6 
#
# 1 0.056625 -0.027818 -0.005681 0.000000 0.000000 0.000000
# 2 -0.027818 0.021864 0.001153 0.000000 0.000000 0.000000
# 3 -0.005681 0.001153 0.016567 0.000000 0.000000 0.000000
# 4 0.000000 0.000000 0.000000 0.035400 0.000000 0.000000
# 5 0.000000 0.000000 0.000000 0.000000 0.074535 0.000000
# 6 0.000000 0.000000 0.000000 0.000000 0.000000 -0.089443
#
#
# Mechanical properties :
#
#
# Convention : Reuss Voigt Hill
#
# Bulk Modulus (GPa) = 32.93584 45.97007 39.45296
# Shear Modulus (GPa) = 26.26583 16.10286 21.18435
#
# Velocity S-wave (km/s) = 3.64572 2.85456 3.27413
# Velocity P-wave (km/s) = 5.86415 5.84182 5.85300
#
# Compressibility (1/GPa) = 0.03036206
#
# Stress axis : x y z
#
# Youngs Moduli (GPa) = 17.66019 45.73657 60.36255
#
# Poissons Ratio (x) = 1.27232 0.34293
# Poissons Ratio (y) = 0.49128 -0.06959
# Poissons Ratio (z) = 0.10033 -0.05273
#
# Static dielectric constant tensor:
#      x y z
#    x 2.581390 0.000000 0.000000 
#    y 0.000000 1.662080 0.000000 
#    z 0.000000 0.000000 1.752420 
# 
# From -- ./inp_files/28513.got.cif
#   From: 2010.05.17/outbox.cif.g08.bks.cpg/sg53_15_cif.got.tgz:28513.got - 2010.06.03 12:45:16.
