data_PCOD9416053
_publ_section_title
;
Structure prediction by ZEFSAII (Michael W. Deem and Ramdas Pophale) SiO2 
 PCOD9416053
Probable space group: P M N A
;
_chemical_formula_sum "Si O2"
_cell_formula_units_Z 40
_cell_length_a 16.687262
_cell_length_b 14.746697
_cell_length_c 8.671179
_cell_angle_alpha 90.000000
_cell_angle_beta 90.000000
_cell_angle_gamma 90.000000
_cell_volume 2133.821040
_symmetry_space_group_name_H-M "P M N A"
_symmetry_group_IT_number 53
_symmetry_cell_setting 'orthorhombic'
loop_
_space_group_symop_operation_xyz
x,y,z
1/2-x,-y,1/2+z
x,-y,-z
1/2-x,y,1/2-z
-x,-y,-z
1/2+x,y,1/2-z
-x,y,z
1/2+x,-y,1/2+z
loop_
_atom_site_type_symbol
_atom_site_label
_atom_site_fract_x
_atom_site_fract_y
_atom_site_fract_z
Si Si1 0.095105 0.398277 0.437285
Si Si2 0.264140 0.899429 0.568027
Si Si3 0.825802 0.243335 0.638508
Si Si4 0.407408 0.214355 0.558466
Si Si5 0.902719 0.591478 0.916847
O O1 0.102423 0.500000 0.500000
O O2 0.143303 0.329032 0.543514
O O3 0.123444 0.398159 0.259960
O O4 0.000000 0.374339 0.441088
O O5 0.250000 0.899630 0.750000
O O6 0.201744 0.834343 0.479329
O O7 0.350201 0.855966 0.527162
O O8 0.258824 0.000000 0.500000
O O9 0.750000 0.263657 0.750000
O O10 0.892512 0.209032 0.758673
O O11 0.500000 0.201101 0.519594
O O12 0.383755 0.316745 0.507998
O O13 0.000000 0.584234 0.912766
O O14 0.872741 0.500000 0.000000
#
# Coordination Sequence:
#
# PCOD9416053 Si02
#       5
#     8   8   8   8   8
#     4  10  19  33  56  84 114 149 189 232 276 325
#     4  11  23  42  63  83 112 149 187 231 288 346
#     4  10  21  37  56  82 114 149 188 229 280 337
#     4  10  20  36  60  87 115 149 190 236 282 332
#     4   9  17  30  51  81 114 146 180 222 274 327
#
# _framework density 18.745714
#
# number of rings (size 3 to 8) (size 9 to 14) (size 15 to 20)
#    0.000    2.000    0.000    4.800    0.000    3.600 
#    0.000   10.000    0.000    4.200    0.000    0.000 
#    0.000    0.000    0.000    0.000    0.000    0.200 
#
# Total GULP energy -223399.142036 kJ/mol
# GULP energy per Si atom -5584.978551 kJ/mol
# Density = 1.870305 g / cm^3
# Si number density = 18.745714 Si / 1000 Ang^3
#
#
#
# Elastic Constant Matrix: (Units=GPa)
#
#
# Indices 1 2 3 4 5 6 
#
# 1 39.2486 60.0853 42.0642 0.0000 0.0000 0.0000
# 2 60.0853 143.7205 86.6403 0.0000 0.0000 0.0000
# 3 42.0642 86.6403 178.0023 0.0000 0.0000 0.0000
# 4 0.0000 0.0000 0.0000 37.6178 0.0000 0.0000
# 5 0.0000 0.0000 0.0000 0.0000 16.5736 0.0000
# 6 0.0000 0.0000 0.0000 0.0000 0.0000 18.2294
#
#
#
# Elastic Compliance Matrix: (Units=1/GPa)
#
#
# Indices 1 2 3 4 5 6 
#
# 1 0.072164 -0.028149 -0.003352 0.000000 0.000000 0.000000
# 2 -0.028149 0.020827 -0.003486 0.000000 0.000000 0.000000
# 3 -0.003352 -0.003486 0.008107 0.000000 0.000000 0.000000
# 4 0.000000 0.000000 0.000000 0.026583 0.000000 0.000000
# 5 0.000000 0.000000 0.000000 0.000000 0.060337 0.000000
# 6 0.000000 0.000000 0.000000 0.000000 0.000000 0.054856
#
#
# Mechanical properties :
#
#
# Convention : Reuss Voigt Hill
#
# Bulk Modulus (GPa) = 32.12859 82.06122 57.09490
# Shear Modulus (GPa) = 15.46922 25.96295 20.71608
#
# Velocity S-wave (km/s) = 2.87577 3.72561 3.32793
# Velocity P-wave (km/s) = 5.31066 7.89797 6.72982
#
# Compressibility (1/GPa) = 0.03112493
#
# Stress axis : x y z
#
# Youngs Moduli (GPa) = 13.85730 48.01375 123.35626
#
# Poissons Ratio (x) = 1.35153 0.41352
# Poissons Ratio (y) = 0.39007 0.42996
# Poissons Ratio (z) = 0.04645 0.16735
#
# Static dielectric constant tensor:
#      x y z
#    x 1.667530 0.000000 0.000000 
#    y 0.000000 1.612460 0.000000 
#    z 0.000000 0.000000 1.642680 
# 
# From -- ./inp_files/8412.got.cif
#   From: 2010.05.17/outbox.cif.g08.bks.cpg/sg53_5_cif.got.tgz:8412.got - 2010.06.03 12:45:16.
