data_PCOD9416381
_publ_section_title
;
Structure prediction by ZEFSAII (Michael W. Deem and Ramdas Pophale) SiO2 
 PCOD9416381
Probable space group: P M N A
;
_chemical_formula_sum "Si O2"
_cell_formula_units_Z 48
_cell_length_a 17.412174
_cell_length_b 16.538555
_cell_length_c 8.970737
_cell_angle_alpha 90.000000
_cell_angle_beta 90.000000
_cell_angle_gamma 90.000000
_cell_volume 2583.322846
_symmetry_space_group_name_H-M "P M N A"
_symmetry_group_IT_number 53
_symmetry_cell_setting 'orthorhombic'
loop_
_space_group_symop_operation_xyz
x,y,z
1/2-x,-y,1/2+z
x,-y,-z
1/2-x,y,1/2-z
-x,-y,-z
1/2+x,y,1/2-z
-x,y,z
1/2+x,-y,1/2+z
loop_
_atom_site_type_symbol
_atom_site_label
_atom_site_fract_x
_atom_site_fract_y
_atom_site_fract_z
Si Si1 0.913105 0.919090 0.602182
Si Si2 0.407811 0.172944 0.815779
Si Si3 0.414861 0.408523 0.558181
Si Si4 0.333808 0.345586 0.822006
Si Si5 0.669971 0.022521 0.671542
Si Si6 0.256211 0.410152 0.427119
O O1 0.884983 0.853281 0.484502
O O2 0.000000 0.900078 0.648626
O O3 0.915893 0.000000 0.500000
O O4 0.863199 0.944449 0.742034
O O5 0.500000 0.180999 0.812395
O O6 0.366328 0.257078 0.787180
O O7 0.383599 0.100072 0.705788
O O8 0.419650 0.500000 0.500000
O O9 0.500000 0.371532 0.537579
O O10 0.390853 0.404829 0.732434
O O11 0.340039 0.373464 0.472387
O O12 0.250000 0.355886 0.750000
O O13 0.314647 0.363561 0.994086
O O14 0.750000 0.042987 0.750000
O O15 0.679005 0.000000 0.500000
O O16 0.253974 0.500000 0.500000
O O17 0.250000 0.414702 0.250000
#
# Coordination Sequence:
#
# PCOD9416381 Si02
#       6
#     8   8   8   8   8   8
#     4   8  16  32  52  73 100 134 168 207 257 309
#     4  10  20  36  56  78 109 143 176 220 273 323
#     4   9  17  32  54  79 109 143 180 224 272 323
#     4  10  20  34  55  81 109 144 184 224 272 327
#     4  11  21  34  55  81 107 138 180 222 263 319
#     4  10  19  35  58  82 109 144 187 230 275 332
#
# _framework density 18.580719999999999
#
# number of rings (size 3 to 8) (size 9 to 14) (size 15 to 20)
#    0.000    2.333    0.000    6.500    0.000    1.333 
#    0.000    7.500    0.000    9.500    0.000    0.000 
#    0.000    0.000    0.000    0.000    0.000    0.000 
#
# Total GULP energy -267276.874102 kJ/mol
# GULP energy per Si atom -5568.268210 kJ/mol
# Density = 1.853843 g / cm^3
# Si number density = 18.580720 Si / 1000 Ang^3
#
#
#
# Elastic Constant Matrix: (Units=GPa)
#
#
# Indices 1 2 3 4 5 6 
#
# 1 81.8421 14.3161 35.7790 0.0000 0.0000 0.0000
# 2 14.3161 50.3429 16.1287 0.0000 0.0000 0.0000
# 3 35.7790 16.1287 130.1166 0.0000 0.0000 0.0000
# 4 0.0000 0.0000 0.0000 16.9097 0.0000 0.0000
# 5 0.0000 0.0000 0.0000 0.0000 24.3829 0.0000
# 6 0.0000 0.0000 0.0000 0.0000 0.0000 -1.8727
#
#
#
# Elastic Compliance Matrix: (Units=1/GPa)
#
#
# Indices 1 2 3 4 5 6 
#
# 1 0.014289 -0.002921 -0.003567 0.000000 0.000000 0.000000
# 2 -0.002921 0.021282 -0.001835 0.000000 0.000000 0.000000
# 3 -0.003567 -0.001835 0.008894 0.000000 0.000000 0.000000
# 4 0.000000 0.000000 0.000000 0.059138 0.000000 0.000000
# 5 0.000000 0.000000 0.000000 0.000000 0.041012 0.000000
# 6 0.000000 0.000000 0.000000 0.000000 0.000000 -0.533990
#
#
# Mechanical properties :
#
#
# Convention : Reuss Voigt Hill
#
# Bulk Modulus (GPa) = 35.94583 43.86100 39.90342
# Shear Modulus (GPa) = -13.75679 20.95583 3.59952
#
# Velocity S-wave (km/s) = -2.72394 3.36196 1.39336
# Velocity P-wave (km/s) = 3.08133 6.22312 4.91029
#
# Compressibility (1/GPa) = 0.02781964
#
# Stress axis : x y z
#
# Youngs Moduli (GPa) = 69.98413 46.98766 112.43864
#
# Poissons Ratio (x) = 0.13723 0.40108
# Poissons Ratio (y) = 0.20439 0.20632
# Poissons Ratio (z) = 0.24964 0.08622
#
# Static dielectric constant tensor:
#      x y z
#    x 1.681540 0.000000 0.000000 
#    y 0.000000 1.648420 0.000000 
#    z 0.000000 0.000000 1.682210 
# 
# From -- ./inp_files/10102.got.cif
#   From: 2010.05.17/outbox.cif.g08.bks.cpg/sg53_6_cif.got.tgz:10102.got - 2010.06.03 12:45:16.
