data_PCOD9416119
_publ_section_title
;
Structure prediction by ZEFSAII (Michael W. Deem and Ramdas Pophale) SiO2 
 PCOD9416119
Probable space group: P M N A
;
_chemical_formula_sum "Si O2"
_cell_formula_units_Z 64
_cell_length_a 9.145329
_cell_length_b 20.817531
_cell_length_c 20.076850
_cell_angle_alpha 90.000000
_cell_angle_beta 90.000000
_cell_angle_gamma 90.000000
_cell_volume 3822.294346
_symmetry_space_group_name_H-M "P M N A"
_symmetry_group_IT_number 53
_symmetry_cell_setting 'orthorhombic'
loop_
_space_group_symop_operation_xyz
x,y,z
1/2-x,-y,1/2+z
x,-y,-z
1/2-x,y,1/2-z
-x,-y,-z
1/2+x,y,1/2-z
-x,y,z
1/2+x,-y,1/2+z
loop_
_atom_site_type_symbol
_atom_site_label
_atom_site_fract_x
_atom_site_fract_y
_atom_site_fract_z
Si Si1 0.172180 0.364638 0.318640
Si Si2 0.173666 0.677951 0.952651
Si Si3 0.826449 0.981398 0.318054
Si Si4 0.673459 0.176185 0.453471
Si Si5 0.324746 0.560940 0.452669
Si Si6 0.325726 0.134858 0.180807
Si Si7 0.672457 0.480827 0.818791
Si Si8 0.324344 0.933406 0.038917
O O1 0.250000 0.344623 0.250000
O O2 0.242817 0.333372 0.383612
O O3 0.192109 0.441873 0.325485
O O4 0.000000 0.350997 0.314874
O O5 0.196316 0.750624 0.976480
O O6 0.000000 0.668925 0.939995
O O7 0.217441 0.624864 0.006942
O O8 0.750000 0.961050 0.250000
O O9 0.779451 0.944595 0.384578
O O10 0.000000 0.973346 0.311226
O O11 0.800811 0.057893 0.327388
O O12 0.500000 0.165096 0.446159
O O13 0.751599 0.167940 0.382206
O O14 0.742686 0.124512 0.503166
O O15 0.291775 0.500000 0.500000
O O16 0.500000 0.561642 0.441578
O O17 0.243991 0.551934 0.382930
O O18 0.250000 0.154339 0.250000
O O19 0.500000 0.145907 0.182658
O O20 0.750000 0.461507 0.750000
O O21 0.500000 0.468072 0.815501
O O22 0.500000 0.923018 0.035987
O O23 0.295572 0.000000 0.000000
#
# Coordination Sequence:
#
# PCOD9416119 Si02
#       8
#     8   8   8   8   8   8   8   8
#     4  10  20  33  52  77 107 143 181 218 261 313
#     4  10  22  38  53  75 109 143 179 220 267 319
#     4   9  18  32  53  79 106 135 169 215 264 309
#     4  11  23  36  52  78 109 143 180 221 265 316
#     4  10  19  34  58  80 103 141 180 221 271 317
#     4  10  19  34  53  76 107 143 180 217 260 313
#     4  10  20  33  53  82 112 138 173 222 268 318
#     4  10  19  36  57  78 106 141 178 221 268 313
#
# _framework density 16.743870999999999
#
# number of rings (size 3 to 8) (size 9 to 14) (size 15 to 20)
#    0.000    2.000    2.500    1.500    0.000    4.500 
#    0.000    0.000    0.000    0.750    0.000    1.750 
#    0.000    0.000    0.000    0.000    0.000    0.000 
#
# Total GULP energy -357311.046045 kJ/mol
# GULP energy per Si atom -5582.985094 kJ/mol
# Density = 1.670576 g / cm^3
# Si number density = 16.743871 Si / 1000 Ang^3
#
#
#
# Elastic Constant Matrix: (Units=GPa)
#
#
# Indices 1 2 3 4 5 6 
#
# 1 61.7321 57.4519 61.4633 0.0000 0.0000 0.0000
# 2 57.4519 86.4996 64.6044 0.0000 0.0000 0.0000
# 3 61.4633 64.6044 138.2501 0.0000 0.0000 0.0000
# 4 0.0000 0.0000 0.0000 16.6134 0.0000 0.0000
# 5 0.0000 0.0000 0.0000 0.0000 36.9689 0.0000
# 6 0.0000 0.0000 0.0000 0.0000 0.0000 16.4237
#
#
#
# Elastic Compliance Matrix: (Units=1/GPa)
#
#
# Indices 1 2 3 4 5 6 
#
# 1 0.050637 -0.025836 -0.010439 0.000000 0.000000 0.000000
# 2 -0.025836 0.030941 -0.002972 0.000000 0.000000 0.000000
# 3 -0.010439 -0.002972 0.013263 0.000000 0.000000 0.000000
# 4 0.000000 0.000000 0.000000 0.060192 0.000000 0.000000
# 5 0.000000 0.000000 0.000000 0.000000 0.027050 0.000000
# 6 0.000000 0.000000 0.000000 0.000000 0.000000 0.060888
#
#
# Mechanical properties :
#
#
# Convention : Reuss Voigt Hill
#
# Bulk Modulus (GPa) = 61.17619 72.61346 66.89482
# Shear Modulus (GPa) = 15.29448 20.86535 18.07992
#
# Velocity S-wave (km/s) = 3.02559 3.53391 3.28959
# Velocity P-wave (km/s) = 6.98723 7.75324 7.38018
#
# Compressibility (1/GPa) = 0.01634623
#
# Stress axis : x y z
#
# Youngs Moduli (GPa) = 19.74824 32.31992 75.39538
#
# Poissons Ratio (x) = 0.83501 0.78707
# Poissons Ratio (y) = 0.51021 0.22411
# Poissons Ratio (z) = 0.20616 0.09607
#
# Static dielectric constant tensor:
#      x y z
#    x 1.556110 0.000000 0.000000 
#    y 0.000000 1.562170 0.000000 
#    z 0.000000 0.000000 1.540090 
# 
# From -- ./inp_files/31135.got.cif
#   From: 2010.05.17/outbox.cif.g08.bks.cpg/sg53_16_cif.got.tgz:31135.got - 2010.06.03 12:45:16.
