data_PCOD9416598
_publ_section_title
;
Structure prediction by ZEFSAII (Michael W. Deem and Ramdas Pophale) SiO2 
 PCOD9416598
Probable space group: P M N A
;
_chemical_formula_sum "Si O2"
_cell_formula_units_Z 64
_cell_length_a 17.801065
_cell_length_b 12.081351
_cell_length_c 13.989676
_cell_angle_alpha 90.000000
_cell_angle_beta 90.000000
_cell_angle_gamma 90.000000
_cell_volume 3008.632513
_symmetry_space_group_name_H-M "P M N A"
_symmetry_group_IT_number 53
_symmetry_cell_setting 'orthorhombic'
loop_
_space_group_symop_operation_xyz
x,y,z
1/2-x,-y,1/2+z
x,-y,-z
1/2-x,y,1/2-z
-x,-y,-z
1/2+x,y,1/2-z
-x,y,z
1/2+x,-y,1/2+z
loop_
_atom_site_type_symbol
_atom_site_label
_atom_site_fract_x
_atom_site_fract_y
_atom_site_fract_z
Si Si1 0.092399 0.951621 0.306447
Si Si2 0.586410 0.963187 0.401088
Si Si3 0.083903 0.704754 0.060424
Si Si4 0.227762 0.372450 0.006437
Si Si5 0.411219 0.833137 0.913118
Si Si6 0.851427 0.732413 0.388116
Si Si7 0.912655 0.551649 0.246702
Si Si8 0.677684 0.661183 0.805577
O O1 0.114273 0.998710 0.202422
O O2 0.138090 0.838855 0.321147
O O3 0.000000 0.931350 0.307552
O O4 0.111188 0.041483 0.387285
O O5 0.500000 0.004916 0.404593
O O6 0.584812 0.830061 0.401801
O O7 0.624283 0.000000 0.500000
O O8 0.098713 0.621729 0.149266
O O9 0.000000 0.681673 0.023339
O O10 0.149416 0.691182 0.983230
O O11 0.287111 0.370295 0.091899
O O12 0.207167 0.500000 0.000000
O O13 0.270180 0.317479 0.915524
O O14 0.500000 0.833203 0.916263
O O15 0.382539 0.754538 0.828380
O O16 0.383785 0.781167 0.012559
O O17 0.895730 0.633243 0.336126
O O18 0.858706 0.445877 0.255909
O O19 0.000000 0.518104 0.250164
O O20 0.750000 0.704202 0.750000
#
# Coordination Sequence:
#
# PCOD9416598 Si02
#       8
#     8   8   8   8   8   8   8   8
#     4  10  19  37  62  93 132 168 209 262 322 383
#     4   9  18  35  59  87 119 160 212 268 317 366
#     4  10  22  40  64  93 122 162 224 277 317 378
#     4  11  23  41  59  89 125 165 204 257 335 382
#     4  10  22  38  62  94 129 170 210 257 323 396
#     4  11  21  36  63  95 130 165 206 262 323 392
#     4  11  21  37  66  94 121 163 217 272 314 376
#     4  11  24  42  60  85 129 171 209 262 324 393
#
# _framework density 21.272122
#
# number of rings (size 3 to 8) (size 9 to 14) (size 15 to 20)
#    0.000    1.625    2.500    2.625    0.000    2.250 
#    0.000    8.125    0.000    0.000    0.000    0.000 
#    0.000    0.000    0.000    0.000    0.000    0.000 
#
# Total GULP energy -357053.496838 kJ/mol
# GULP energy per Si atom -5578.960888 kJ/mol
# Density = 2.122371 g / cm^3
# Si number density = 21.272122 Si / 1000 Ang^3
#
#
#
# Elastic Constant Matrix: (Units=GPa)
#
#
# Indices 1 2 3 4 5 6 
#
# 1 62.9718 10.5657 7.5726 0.0000 0.0000 0.0000
# 2 10.5657 47.9111 12.3789 0.0000 0.0000 0.0000
# 3 7.5726 12.3789 63.9152 0.0000 0.0000 0.0000
# 4 0.0000 0.0000 0.0000 24.4053 0.0000 0.0000
# 5 0.0000 0.0000 0.0000 0.0000 25.1804 0.0000
# 6 0.0000 0.0000 0.0000 0.0000 0.0000 -9.1922
#
#
#
# Elastic Compliance Matrix: (Units=1/GPa)
#
#
# Indices 1 2 3 4 5 6 
#
# 1 0.016596 -0.003318 -0.001324 0.000000 0.000000 0.000000
# 2 -0.003318 0.022635 -0.003991 0.000000 0.000000 0.000000
# 3 -0.001324 -0.003991 0.016575 0.000000 0.000000 0.000000
# 4 0.000000 0.000000 0.000000 0.040975 0.000000 0.000000
# 5 0.000000 0.000000 0.000000 0.000000 0.039713 0.000000
# 6 0.000000 0.000000 0.000000 0.000000 0.000000 -0.108788
#
#
# Mechanical properties :
#
#
# Convention : Reuss Voigt Hill
#
# Bulk Modulus (GPa) = 25.94594 26.20360 26.07477
# Shear Modulus (GPa) = 86.47755 17.69742 52.08749
#
# Velocity S-wave (km/s) = 6.38289 2.88749 4.95373
# Velocity P-wave (km/s) = 8.15753 4.84374 6.70847
#
# Compressibility (1/GPa) = 0.03854168
#
# Stress axis : x y z
#
# Youngs Moduli (GPa) = 60.25558 44.17985 60.33010
#
# Poissons Ratio (x) = 0.14658 0.07986
# Poissons Ratio (y) = 0.19992 0.24076
# Poissons Ratio (z) = 0.07976 0.17631
#
# Static dielectric constant tensor:
#      x y z
#    x 1.762910 0.000000 0.000000 
#    y 0.000000 1.753250 0.000000 
#    z 0.000000 0.000000 1.893510 
# 
# From -- ./inp_files/23930.got.cif
#   From: 2010.05.17/outbox.cif.g08.bks.cpg/sg53_12_cif.got.tgz:23930.got - 2010.06.03 12:45:16.
