data_PCOD9416673
_publ_section_title
;
Structure prediction by ZEFSAII (Michael W. Deem and Ramdas Pophale) SiO2 
 PCOD9416673
Probable space group: P M N A
;
_chemical_formula_sum "Si O2"
_cell_formula_units_Z 40
_cell_length_a 22.680534
_cell_length_b 9.621852
_cell_length_c 10.442801
_cell_angle_alpha 90.000000
_cell_angle_beta 90.000000
_cell_angle_gamma 90.000000
_cell_volume 2278.919319
_symmetry_space_group_name_H-M "P M N A"
_symmetry_group_IT_number 53
_symmetry_cell_setting 'orthorhombic'
loop_
_space_group_symop_operation_xyz
x,y,z
1/2-x,-y,1/2+z
x,-y,-z
1/2-x,y,1/2-z
-x,-y,-z
1/2+x,y,1/2-z
-x,y,z
1/2+x,-y,1/2+z
loop_
_atom_site_type_symbol
_atom_site_label
_atom_site_fract_x
_atom_site_fract_y
_atom_site_fract_z
Si Si1 0.280157 0.147507 0.049521
Si Si2 0.655559 0.154826 0.303036
Si Si3 0.564593 0.071306 0.640293
Si Si4 0.240123 0.391260 0.893667
Si Si5 0.393336 0.346404 0.519286
O O1 0.214826 0.129748 0.112775
O O2 0.321810 0.200504 0.163841
O O3 0.272755 0.249383 0.929846
O O4 0.301151 0.000000 0.000000
O O5 0.618964 0.269941 0.382831
O O6 0.617301 0.013529 0.293040
O O7 0.500000 0.050761 0.700067
O O8 0.575187 0.233304 0.609338
O O9 0.563571 0.000000 0.500000
O O10 0.250000 0.438716 0.750000
O O11 0.170809 0.370505 0.917979
O O12 0.260574 0.500000 0.000000
O O13 0.420137 0.500000 0.500000
#
# Coordination Sequence:
#
# PCOD9416673 Si02
#       5
#     8   8   8   8   8
#     4  10  20  30  51  74 103 137 169 208 249 312
#     4   9  18  32  48  73 103 132 169 210 259 304
#     4   9  17  31  50  72  99 132 173 222 268 302
#     4  10  22  33  50  75 109 141 169 203 255 313
#     4   9  18  30  49  70 103 134 170 217 254 306
#
# _framework density 17.55218
#
# number of rings (size 3 to 8) (size 9 to 14) (size 15 to 20)
#    0.000    2.600    0.000    3.000   14.000    0.400 
#    0.000    0.000    0.000    0.600    0.000    0.000 
#    0.000    3.200    0.000    0.000    0.000    0.000 
#
# Total GULP energy -222796.603705 kJ/mol
# GULP energy per Si atom -5569.915093 kJ/mol
# Density = 1.751223 g / cm^3
# Si number density = 17.552180 Si / 1000 Ang^3
#
#
#
# Elastic Constant Matrix: (Units=GPa)
#
#
# Indices 1 2 3 4 5 6 
#
# 1 48.6879 18.7286 6.9012 0.0000 0.0000 0.0000
# 2 18.7286 99.0313 17.3478 0.0000 0.0000 0.0000
# 3 6.9012 17.3478 79.5119 0.0000 0.0000 0.0000
# 4 0.0000 0.0000 0.0000 19.0146 0.0000 0.0000
# 5 0.0000 0.0000 0.0000 0.0000 8.4577 0.0000
# 6 0.0000 0.0000 0.0000 0.0000 0.0000 -28.5080
#
#
#
# Elastic Compliance Matrix: (Units=1/GPa)
#
#
# Indices 1 2 3 4 5 6 
#
# 1 0.022235 -0.004021 -0.001053 0.000000 0.000000 0.000000
# 2 -0.004021 0.011226 -0.002100 0.000000 0.000000 0.000000
# 3 -0.001053 -0.002100 0.013126 0.000000 0.000000 0.000000
# 4 0.000000 0.000000 0.000000 0.052591 0.000000 0.000000
# 5 0.000000 0.000000 0.000000 0.000000 0.118235 0.000000
# 6 0.000000 0.000000 0.000000 0.000000 0.000000 -0.035078
#
#
# Mechanical properties :
#
#
# Convention : Reuss Voigt Hill
#
# Bulk Modulus (GPa) = 31.01728 34.79846 32.90787
# Shear Modulus (GPa) = 24.10453 12.07643 18.09048
#
# Velocity S-wave (km/s) = 3.70984 2.62588 3.21389
# Velocity P-wave (km/s) = 6.00503 5.39096 5.70626
#
# Compressibility (1/GPa) = 0.03224009
#
# Stress axis : x y z
#
# Youngs Moduli (GPa) = 44.97460 89.07801 76.18273
#
# Poissons Ratio (x) = 0.35815 0.08019
# Poissons Ratio (y) = 0.18082 0.16001
# Poissons Ratio (z) = 0.04734 0.18709
#
# Static dielectric constant tensor:
#      x y z
#    x 1.611780 0.000000 0.000000 
#    y 0.000000 1.674090 0.000000 
#    z 0.000000 0.000000 1.592810 
# 
# From -- ./inp_files/17653.got.cif
#   From: 2010.05.17/outbox.cif.g08.bks.cpg/sg53_9_cif.got.tgz:17653.got - 2010.06.03 12:45:16.
