data_PCOD9416568
_publ_section_title
;
Structure prediction by ZEFSAII (Michael W. Deem and Ramdas Pophale) SiO2 
 PCOD9416568
Probable space group: P M N A
;
_chemical_formula_sum "Si O2"
_cell_formula_units_Z 48
_cell_length_a 24.968522
_cell_length_b 8.731388
_cell_length_c 11.541219
_cell_angle_alpha 90.000000
_cell_angle_beta 90.000000
_cell_angle_gamma 90.000000
_cell_volume 2516.099462
_symmetry_space_group_name_H-M "P M N A"
_symmetry_group_IT_number 53
_symmetry_cell_setting 'orthorhombic'
loop_
_space_group_symop_operation_xyz
x,y,z
1/2-x,-y,1/2+z
x,-y,-z
1/2-x,y,1/2-z
-x,-y,-z
1/2+x,y,1/2-z
-x,y,z
1/2+x,-y,1/2+z
loop_
_atom_site_type_symbol
_atom_site_label
_atom_site_fract_x
_atom_site_fract_y
_atom_site_fract_z
Si Si1 0.645447 0.184517 0.197938
Si Si2 0.351699 0.298324 0.437749
Si Si3 0.378193 0.621269 0.325643
Si Si4 0.806755 0.859989 0.312918
Si Si5 0.227606 0.322345 0.465549
Si Si6 0.563365 0.438023 0.128221
O O1 0.636054 0.181772 0.335849
O O2 0.697533 0.281450 0.154068
O O3 0.596196 0.281053 0.146577
O O4 0.658193 0.010945 0.166668
O O5 0.353511 0.462913 0.373434
O O6 0.390312 0.299267 0.549558
O O7 0.289873 0.278864 0.469540
O O8 0.336893 0.734600 0.264982
O O9 0.419344 0.560295 0.228223
O O10 0.750000 0.898346 0.250000
O O11 0.798466 0.780539 0.435750
O O12 0.221652 0.500000 0.500000
O O13 0.500000 0.412889 0.135549
O O14 0.576624 0.500000 0.000000
#
# Coordination Sequence:
#
# PCOD9416568 Si02
#       6
#     8   8   8   8   8   8
#     4  11  24  35  54  85 122 162 200 249 311 376
#     4  10  19  37  54  83 120 161 204 245 300 371
#     4  10  20  37  59  86 117 157 208 257 303 360
#     4  12  22  35  54  89 132 166 198 242 309 389
#     4  12  20  34  56  81 120 167 207 248 295 371
#     4  10  22  44  69  89 113 157 218 278 318 355
#
# _framework density 19.077147
#
# number of rings (size 3 to 8) (size 9 to 14) (size 15 to 20)
#    0.000    1.167    3.333    5.500    0.000    0.667 
#    0.000    7.500    0.000    4.000    0.000   11.667 
#    0.000    0.000    0.000    0.000    0.000    0.000 
#
# Total GULP energy -267646.439191 kJ/mol
# GULP energy per Si atom -5575.967483 kJ/mol
# Density = 1.903373 g / cm^3
# Si number density = 19.077147 Si / 1000 Ang^3
#
#
#
# Elastic Constant Matrix: (Units=GPa)
#
#
# Indices 1 2 3 4 5 6 
#
# 1 75.7829 40.0880 41.7536 0.0000 0.0000 0.0000
# 2 40.0880 65.4403 44.3214 0.0000 0.0000 0.0000
# 3 41.7536 44.3214 134.5209 0.0000 0.0000 0.0000
# 4 0.0000 0.0000 0.0000 12.8375 0.0000 0.0000
# 5 0.0000 0.0000 0.0000 0.0000 24.7745 0.0000
# 6 0.0000 0.0000 0.0000 0.0000 0.0000 11.0124
#
#
#
# Elastic Compliance Matrix: (Units=1/GPa)
#
#
# Indices 1 2 3 4 5 6 
#
# 1 0.020331 -0.010531 -0.002841 0.000000 0.000000 0.000000
# 2 -0.010531 0.025125 -0.005009 0.000000 0.000000 0.000000
# 3 -0.002841 -0.005009 0.009966 0.000000 0.000000 0.000000
# 4 0.000000 0.000000 0.000000 0.077897 0.000000 0.000000
# 5 0.000000 0.000000 0.000000 0.000000 0.040364 0.000000
# 6 0.000000 0.000000 0.000000 0.000000 0.000000 0.090807
#
#
# Mechanical properties :
#
#
# Convention : Reuss Voigt Hill
#
# Bulk Modulus (GPa) = 53.59014 58.67446 56.13230
# Shear Modulus (GPa) = 16.26160 19.69693 17.97926
#
# Velocity S-wave (km/s) = 2.92278 3.21672 3.07327
# Velocity P-wave (km/s) = 6.28828 6.67979 6.48699
#
# Compressibility (1/GPa) = 0.01866015
#
# Stress axis : x y z
#
# Youngs Moduli (GPa) = 49.18491 39.80117 100.34012
#
# Poissons Ratio (x) = 0.41913 0.28507
# Poissons Ratio (y) = 0.51795 0.50265
# Poissons Ratio (z) = 0.13974 0.19938
#
# Static dielectric constant tensor:
#      x y z
#    x 1.638890 0.000000 0.000000 
#    y 0.000000 1.677910 0.000000 
#    z 0.000000 0.000000 1.774340 
# 
# From -- ./inp_files/18270.got.cif
#   From: 2010.05.17/outbox.cif.g08.bks.cpg/sg53_10_cif.got.tgz:18270.got - 2010.06.03 12:45:16.
