data_PCOD9416646
_publ_section_title
;
Structure prediction by ZEFSAII (Michael W. Deem and Ramdas Pophale) SiO2 
 PCOD9416646
Probable space group: P M N A
;
_chemical_formula_sum "Si O2"
_cell_formula_units_Z 36
_cell_length_a 14.416590
_cell_length_b 9.163113
_cell_length_c 14.464372
_cell_angle_alpha 90.000000
_cell_angle_beta 90.000000
_cell_angle_gamma 90.000000
_cell_volume 1910.755738
_symmetry_space_group_name_H-M "P M N A"
_symmetry_group_IT_number 53
_symmetry_cell_setting 'orthorhombic'
loop_
_space_group_symop_operation_xyz
x,y,z
1/2-x,-y,1/2+z
x,-y,-z
1/2-x,y,1/2-z
-x,-y,-z
1/2+x,y,1/2-z
-x,y,z
1/2+x,-y,1/2+z
loop_
_atom_site_type_symbol
_atom_site_label
_atom_site_fract_x
_atom_site_fract_y
_atom_site_fract_z
Si Si1 0.500000 0.103827 0.904637
Si Si2 0.500000 0.835497 0.775598
Si Si3 0.205956 0.148764 0.645532
Si Si4 0.500000 0.154171 0.446286
Si Si5 0.803542 0.193734 0.345524
Si Si6 0.816114 0.670877 0.998499
O O1 0.401213 0.185956 0.886977
O O2 0.500000 0.997352 0.816526
O O3 0.500000 0.000000 0.000000
O O4 0.500000 0.850534 0.665510
O O5 0.591621 0.767999 0.819548
O O6 0.250000 0.154617 0.750000
O O7 0.272243 0.255014 0.588588
O O8 0.208120 0.974879 0.620970
O O9 0.591227 0.241372 0.474908
O O10 0.500000 0.000000 0.500000
O O11 0.750000 0.202666 0.250000
O O12 0.758758 0.298497 0.419105
O O13 0.835549 0.500000 0.000000
#
# Coordination Sequence:
#
# PCOD9416646 Si02
#       6
#     4   4   8   4   8   8
#     4  10  20  38  64  99 134 157 213 284 327 375
#     4  10  20  37  67 101 121 163 218 275 324 367
#     4  10  22  39  66  95 126 170 224 277 323 374
#     4  12  25  41  71  98 126 166 222 274 322 381
#     4  10  19  38  66  92 125 164 220 269 317 376
#     4  12  26  42  62  94 137 175 210 261 336 401
#
# _framework density 18.840710999999999
#
# number of rings (size 3 to 8) (size 9 to 14) (size 15 to 20)
#    0.000    1.333    2.222    5.000    6.222    0.889 
#    0.000    2.222    0.000    0.000    0.000    0.000 
#    0.000    0.000    0.000    0.000    0.000    0.000 
#
# Total GULP energy -200543.376885 kJ/mol
# GULP energy per Si atom -5570.649358 kJ/mol
# Density = 1.879783 g / cm^3
# Si number density = 18.840711 Si / 1000 Ang^3
#
#
#
# Elastic Constant Matrix: (Units=GPa)
#
#
# Indices 1 2 3 4 5 6 
#
# 1 170.1252 53.7848 65.0364 0.0000 0.0000 0.0000
# 2 53.7848 97.1141 63.8799 0.0000 0.0000 0.0000
# 3 65.0364 63.8799 113.4159 0.0000 0.0000 0.0000
# 4 0.0000 0.0000 0.0000 1.0698 0.0000 0.0000
# 5 0.0000 0.0000 0.0000 0.0000 23.4325 0.0000
# 6 0.0000 0.0000 0.0000 0.0000 0.0000 130.8768
#
#
#
# Elastic Compliance Matrix: (Units=1/GPa)
#
#
# Indices 1 2 3 4 5 6 
#
# 1 0.007811 -0.002192 -0.003245 0.000000 0.000000 0.000000
# 2 -0.002192 0.016972 -0.008303 0.000000 0.000000 0.000000
# 3 -0.003245 -0.008303 0.015354 0.000000 0.000000 0.000000
# 4 0.000000 0.000000 0.000000 0.934734 0.000000 0.000000
# 5 0.000000 0.000000 0.000000 0.000000 0.042676 0.000000
# 6 0.000000 0.000000 0.000000 0.000000 0.000000 0.007641
#
#
# Mechanical properties :
#
#
# Convention : Reuss Voigt Hill
#
# Bulk Modulus (GPa) = 78.99240 82.89526 80.94383
# Shear Modulus (GPa) = 4.73088 44.27275 24.50181
#
# Velocity S-wave (km/s) = 1.58633 4.85278 3.61012
# Velocity P-wave (km/s) = 6.73593 8.68866 7.77385
#
# Compressibility (1/GPa) = 0.01265945
#
# Stress axis : x y z
#
# Youngs Moduli (GPa) = 128.01792 58.91939 65.12930
#
# Poissons Ratio (x) = 0.12914 0.21133
# Poissons Ratio (y) = 0.28059 0.54074
# Poissons Ratio (z) = 0.41539 0.48918
#
# Static dielectric constant tensor:
#      x y z
#    x 1.761040 0.000000 0.000000 
#    y 0.000000 1.624750 0.000000 
#    z 0.000000 0.000000 1.509270 
# 
# From -- ./inp_files/22356.got.cif
#   From: 2010.05.17/outbox.cif.g08.bks.cpg/sg53_12_cif.got.tgz:22356.got - 2010.06.03 12:45:16.
