data_PCOD9416826
_publ_section_title
;
Structure prediction by ZEFSAII (Michael W. Deem and Ramdas Pophale) SiO2 
 PCOD9416826
Probable space group: P M N A
;
_chemical_formula_sum "Si O2"
_cell_formula_units_Z 56
_cell_length_a 7.745210
_cell_length_b 17.896007
_cell_length_c 20.523332
_cell_angle_alpha 90.000000
_cell_angle_beta 90.000000
_cell_angle_gamma 90.000000
_cell_volume 2844.704823
_symmetry_space_group_name_H-M "P M N A"
_symmetry_group_IT_number 53
_symmetry_cell_setting 'orthorhombic'
loop_
_space_group_symop_operation_xyz
x,y,z
1/2-x,-y,1/2+z
x,-y,-z
1/2-x,y,1/2-z
-x,-y,-z
1/2+x,y,1/2-z
-x,y,z
1/2+x,-y,1/2+z
loop_
_atom_site_type_symbol
_atom_site_label
_atom_site_fract_x
_atom_site_fract_y
_atom_site_fract_z
Si Si1 0.208127 0.448025 0.676506
Si Si2 0.705975 0.813494 0.324607
Si Si3 0.289579 0.949982 0.405619
Si Si4 0.292072 0.106574 0.451207
Si Si5 0.207789 0.618638 0.676745
Si Si6 0.296279 0.678783 0.081294
Si Si7 0.206676 0.723002 0.560722
O O1 0.250000 0.422330 0.750000
O O2 0.271917 0.533187 0.669056
O O3 0.275971 0.391378 0.621857
O O4 0.000000 0.449412 0.671832
O O5 0.750000 0.798755 0.250000
O O6 0.500000 0.811254 0.331755
O O7 0.768045 0.895190 0.348350
O O8 0.777972 0.751011 0.372966
O O9 0.500000 0.951577 0.404779
O O10 0.238202 0.912188 0.474480
O O11 0.231731 0.036076 0.407956
O O12 0.500000 0.105652 0.451153
O O13 0.237423 0.188894 0.431253
O O14 0.250000 0.643678 0.750000
O O15 0.273746 0.673452 0.620556
O O16 0.000000 0.615870 0.671912
O O17 0.500000 0.664168 0.072570
O O18 0.223513 0.696260 0.009683
O O19 0.000000 0.713104 0.559114
#
# Coordination Sequence:
#
# PCOD9416826 Si02
#       7
#     8   8   8   8   8   8   8
#     4   9  18  33  52  72  98 136 175 208 248 300
#     4  11  21  34  51  74 105 140 173 210 255 303
#     4   8  16  31  52  73  95 129 172 208 242 295
#     4   9  16  32  55  75  96 129 170 207 248 301
#     4   9  19  36  55  74  99 133 171 212 257 307
#     4  10  20  33  50  76 106 135 170 210 255 306
#     4  10  20  33  51  79 109 131 163 214 263 304
#
# _framework density 19.685697999999999
#
# number of rings (size 3 to 8) (size 9 to 14) (size 15 to 20)
#    0.000    2.571    1.429    1.714    0.000    2.857 
#    0.000    6.429    0.000    3.429    0.000    6.000 
#    0.000    0.000    0.000    0.000    0.000    0.000 
#
# Total GULP energy -312374.668625 kJ/mol
# GULP energy per Si atom -5578.119083 kJ/mol
# Density = 1.964089 g / cm^3
# Si number density = 19.685698 Si / 1000 Ang^3
#
#
#
# Elastic Constant Matrix: (Units=GPa)
#
#
# Indices 1 2 3 4 5 6 
#
# 1 27.4416 0.2170 -1.7097 0.0000 0.0000 0.0000
# 2 0.2170 141.0938 100.2101 0.0000 0.0000 0.0000
# 3 -1.7097 100.2101 142.9211 0.0000 0.0000 0.0000
# 4 0.0000 0.0000 0.0000 35.8099 0.0000 0.0000
# 5 0.0000 0.0000 0.0000 0.0000 9.9927 0.0000
# 6 0.0000 0.0000 0.0000 0.0000 0.0000 30.6036
#
#
#
# Elastic Compliance Matrix: (Units=1/GPa)
#
#
# Indices 1 2 3 4 5 6 
#
# 1 0.036506 -0.000730 0.000948 0.000000 0.000000 0.000000
# 2 -0.000730 0.014133 -0.009918 0.000000 0.000000 0.000000
# 3 0.000948 -0.009918 0.013962 0.000000 0.000000 0.000000
# 4 0.000000 0.000000 0.000000 0.027925 0.000000 0.000000
# 5 0.000000 0.000000 0.000000 0.000000 0.100073 0.000000
# 6 0.000000 0.000000 0.000000 0.000000 0.000000 0.032676
#
#
# Mechanical properties :
#
#
# Convention : Reuss Voigt Hill
#
# Bulk Modulus (GPa) = 22.12286 56.54350 39.33318
# Shear Modulus (GPa) = 19.24994 29.46384 24.35689
#
# Velocity S-wave (km/s) = 3.13047 3.87293 3.52133
# Velocity P-wave (km/s) = 4.93244 6.98462 6.04624
#
# Compressibility (1/GPa) = 0.04520212
#
# Stress axis : x y z
#
# Youngs Moduli (GPa) = 27.39289 70.75771 71.62151
#
# Poissons Ratio (x) = 0.05163 -0.06792
# Poissons Ratio (y) = 0.01999 0.71034
# Poissons Ratio (z) = -0.02598 0.70177
#
# Static dielectric constant tensor:
#      x y z
#    x 1.736600 0.000000 0.000000 
#    y 0.000000 1.698680 0.000000 
#    z 0.000000 0.000000 1.672710 
# 
# From -- ./inp_files/31031.got.cif
#   From: 2010.05.17/outbox.cif.g08.bks.cpg/sg53_16_cif.got.tgz:31031.got - 2010.06.03 12:45:16.
