data_PCOD9416510
_publ_section_title
;
Structure prediction by ZEFSAII (Michael W. Deem and Ramdas Pophale) SiO2 
 PCOD9416510
Probable space group: P M N A
;
_chemical_formula_sum "Si O2"
_cell_formula_units_Z 64
_cell_length_a 8.567031
_cell_length_b 20.363799
_cell_length_c 20.520428
_cell_angle_alpha 90.000000
_cell_angle_beta 90.000000
_cell_angle_gamma 90.000000
_cell_volume 3579.938409
_symmetry_space_group_name_H-M "P M N A"
_symmetry_group_IT_number 53
_symmetry_cell_setting 'orthorhombic'
loop_
_space_group_symop_operation_xyz
x,y,z
1/2-x,-y,1/2+z
x,-y,-z
1/2-x,y,1/2-z
-x,-y,-z
1/2+x,y,1/2-z
-x,y,z
1/2+x,-y,1/2+z
loop_
_atom_site_type_symbol
_atom_site_label
_atom_site_fract_x
_atom_site_fract_y
_atom_site_fract_z
Si Si1 0.813527 0.313831 0.563228
Si Si2 0.686580 0.551820 0.820965
Si Si3 0.811738 0.339977 0.081079
Si Si4 0.687210 0.030502 0.930135
Si Si5 0.312646 0.932533 0.678939
Si Si6 0.186802 0.404617 0.821354
Si Si7 0.812598 0.828623 0.044146
Si Si8 0.811189 0.805737 0.894428
O O1 0.744478 0.338121 0.493834
O O2 0.750568 0.358086 0.621942
O O3 0.758225 0.238542 0.571897
O O4 0.000000 0.316777 0.560449
O O5 0.750000 0.573431 0.750000
O O6 0.500000 0.548553 0.818709
O O7 0.742255 0.601199 0.876886
O O8 0.754065 0.478996 0.832645
O O9 0.760814 0.269711 0.111880
O O10 0.000000 0.343286 0.081714
O O11 0.500000 0.031147 0.927671
O O12 0.750502 0.104455 0.925231
O O13 0.753284 0.984471 0.873767
O O14 0.735856 0.000000 0.000000
O O15 0.250000 0.948183 0.750000
O O16 0.500000 0.932679 0.678972
O O17 0.256144 0.859944 0.656513
O O18 0.250000 0.384734 0.750000
O O19 0.000000 0.403924 0.820652
O O20 0.000000 0.825612 0.048399
O O21 0.768282 0.828867 0.967321
O O22 0.000000 0.805007 0.891960
#
# Coordination Sequence:
#
# PCOD9416510 Si02
#       8
#     8   8   8   8   8   8   8   8
#     4  11  22  38  59  89 122 153 190 240 291 346
#     4  11  22  38  58  84 115 154 197 244 293 350
#     4  10  20  37  58  86 119 155 196 242 290 344
#     4  11  22  36  58  88 115 147 192 241 287 342
#     4  11  22  38  56  81 115 154 193 239 290 344
#     4  11  22  40  63  87 114 152 195 241 292 352
#     4  10  19  36  60  86 113 149 192 235 283 342
#     4   8  17  33  55  79 109 147 188 229 279 338
#
# _framework density 17.877403000000001
#
# number of rings (size 3 to 8) (size 9 to 14) (size 15 to 20)
#    0.000    1.625    1.250    6.375    0.000    1.500 
#    0.000    6.250    0.000    0.000    0.000    0.000 
#    0.000    0.000    0.000    0.000    0.000    0.000 
#
# Total GULP energy -357499.160121 kJ/mol
# GULP energy per Si atom -5585.924377 kJ/mol
# Density = 1.783671 g / cm^3
# Si number density = 17.877403 Si / 1000 Ang^3
#
#
#
# Elastic Constant Matrix: (Units=GPa)
#
#
# Indices 1 2 3 4 5 6 
#
# 1 116.9930 49.2360 48.7935 0.0000 0.0000 0.0000
# 2 49.2360 124.7015 94.9954 0.0000 0.0000 0.0000
# 3 48.7935 94.9954 129.3161 0.0000 0.0000 0.0000
# 4 0.0000 0.0000 0.0000 73.3363 0.0000 0.0000
# 5 0.0000 0.0000 0.0000 0.0000 28.3489 0.0000
# 6 0.0000 0.0000 0.0000 0.0000 0.0000 24.8371
#
#
#
# Elastic Compliance Matrix: (Units=1/GPa)
#
#
# Indices 1 2 3 4 5 6 
#
# 1 0.010491 -0.002558 -0.002079 0.000000 0.000000 0.000000
# 2 -0.002558 0.018833 -0.012869 0.000000 0.000000 0.000000
# 3 -0.002079 -0.012869 0.017971 0.000000 0.000000 0.000000
# 4 0.000000 0.000000 0.000000 0.013636 0.000000 0.000000
# 5 0.000000 0.000000 0.000000 0.000000 0.035275 0.000000
# 6 0.000000 0.000000 0.000000 0.000000 0.000000 0.040262
#
#
# Mechanical properties :
#
#
# Convention : Reuss Voigt Hill
#
# Bulk Modulus (GPa) = 81.42162 84.11783 82.76973
# Shear Modulus (GPa) = 28.47767 37.17016 32.82392
#
# Velocity S-wave (km/s) = 3.99550 4.56474 4.28957
# Velocity P-wave (km/s) = 8.18099 8.65663 8.42217
#
# Compressibility (1/GPa) = 0.01228175
#
# Stress axis : x y z
#
# Youngs Moduli (GPa) = 95.31641 53.09862 55.64444
#
# Poissons Ratio (x) = 0.13585 0.11570
# Poissons Ratio (y) = 0.24386 0.71610
# Poissons Ratio (z) = 0.19818 0.68334
#
# Static dielectric constant tensor:
#      x y z
#    x 1.598300 0.000000 0.000000 
#    y 0.000000 1.601890 0.000000 
#    z 0.000000 0.000000 1.584740 
# 
# From -- ./inp_files/26754.got.cif
#   From: 2010.05.17/outbox.cif.g08.bks.cpg/sg53_14_cif.got.tgz:26754.got - 2010.06.03 12:45:16.
