data_PCOD9416557
_publ_section_title
;
Structure prediction by ZEFSAII (Michael W. Deem and Ramdas Pophale) SiO2 
 PCOD9416557
Probable space group: P M N A
;
_chemical_formula_sum "Si O2"
_cell_formula_units_Z 54
_cell_length_a 27.833395
_cell_length_b 4.715980
_cell_length_c 15.879508
_cell_angle_alpha 90.000000
_cell_angle_beta 90.000000
_cell_angle_gamma 90.000000
_cell_volume 2084.371758
_symmetry_space_group_name_H-M "P M N A"
_symmetry_group_IT_number 53
_symmetry_cell_setting 'orthorhombic'
loop_
_space_group_symop_operation_xyz
x,y,z
1/2-x,-y,1/2+z
x,-y,-z
1/2-x,y,1/2-z
-x,-y,-z
1/2+x,y,1/2-z
-x,y,z
1/2+x,-y,1/2+z
loop_
_atom_site_type_symbol
_atom_site_label
_atom_site_fract_x
_atom_site_fract_y
_atom_site_fract_z
Si Si1 0.207676 0.702730 0.920599
Si Si2 0.117015 0.000000 0.000000
Si Si3 0.407896 0.650550 0.251452
Si Si4 0.087314 0.294450 0.418764
Si Si5 0.808846 0.294489 0.418976
Si Si6 0.500000 0.000000 0.000000
Si Si7 0.054519 0.120488 0.152126
Si Si8 0.198533 0.341305 0.751203
O O1 0.258287 0.874300 0.917818
O O2 0.202417 0.542647 0.832688
O O3 0.215864 0.500000 0.000000
O O4 0.157037 0.832911 0.945404
O O5 0.079736 0.947856 0.076018
O O6 0.415054 0.494019 0.162962
O O7 0.417316 0.402922 0.319932
O O8 0.354362 0.789356 0.259549
O O9 0.443514 0.905660 0.269724
O O10 0.085437 0.500000 0.500000
O O11 0.139650 0.142101 0.415129
O O12 0.042416 0.093414 0.432710
O O13 0.811697 0.500000 0.500000
O O14 0.805398 0.482582 0.334815
O O15 0.000000 0.195931 0.130394
O O16 0.250000 0.180565 0.750000
#
# Coordination Sequence:
#
# PCOD9416557 Si02
#       8
#     8   4   8   8   8   2   8   8
#     4  10  19  36  64  93 133 176 222 285 353 427
#     4  12  25  41  68 100 137 177 236 296 364 418
#     4  11  25  47  73 102 143 186 241 291 358 428
#     4  10  24  42  65  99 139 182 233 295 350 428
#     4   8  17  36  63  92 132 177 223 278 352 425
#     4  12  26  38  68  98 134 182 240 292 360 404
#     4  12  28  47  72 102 139 191 242 304 353 424
#     4   9  17  37  67  97 139 176 226 285 350 422
#
# _framework density 25.907086
#
# number of rings (size 3 to 8) (size 9 to 14) (size 15 to 20)
#    0.000    1.778    1.481    1.778    4.148    0.593 
#    0.000    2.222   16.296    0.000    0.000    0.000 
#    0.000    0.000    0.000    0.000    0.000    0.000 
#
# Total GULP energy -300956.961022 kJ/mol
# GULP energy per Si atom -5573.277056 kJ/mol
# Density = 2.584812 g / cm^3
# Si number density = 25.907086 Si / 1000 Ang^3
#
#
#
# Elastic Constant Matrix: (Units=GPa)
#
#
# Indices 1 2 3 4 5 6 
#
# 1 236.0180 20.4507 39.4858 0.0000 0.0000 0.0000
# 2 20.4507 53.9280 38.3256 0.0000 0.0000 0.0000
# 3 39.4858 38.3256 178.2478 0.0000 0.0000 0.0000
# 4 0.0000 0.0000 0.0000 40.5985 0.0000 0.0000
# 5 0.0000 0.0000 0.0000 0.0000 15.2357 0.0000
# 6 0.0000 0.0000 0.0000 0.0000 0.0000 54.1241
#
#
#
# Elastic Compliance Matrix: (Units=1/GPa)
#
#
# Indices 1 2 3 4 5 6 
#
# 1 0.004462 -0.001168 -0.000737 0.000000 0.000000 0.000000
# 2 -0.001168 0.022194 -0.004513 0.000000 0.000000 0.000000
# 3 -0.000737 -0.004513 0.006744 0.000000 0.000000 0.000000
# 4 0.000000 0.000000 0.000000 0.024631 0.000000 0.000000
# 5 0.000000 0.000000 0.000000 0.000000 0.065635 0.000000
# 6 0.000000 0.000000 0.000000 0.000000 0.000000 0.018476
#
#
# Mechanical properties :
#
#
# Convention : Reuss Voigt Hill
#
# Bulk Modulus (GPa) = 48.63283 73.85755 61.24519
# Shear Modulus (GPa) = 30.89612 46.65377 38.77494
#
# Velocity S-wave (km/s) = 3.45711 4.24820 3.87291
# Velocity P-wave (km/s) = 5.89477 7.25489 6.60991
#
# Compressibility (1/GPa) = 0.02056224
#
# Stress axis : x y z
#
# Youngs Moduli (GPa) = 224.13980 45.05803 148.28298
#
# Poissons Ratio (x) = 0.05263 0.10931
# Poissons Ratio (y) = 0.26179 0.66923
# Poissons Ratio (z) = 0.16523 0.20335
#
# Static dielectric constant tensor:
#      x y z
#    x 2.190010 0.000000 0.000000 
#    y 0.000000 2.082980 0.000000 
#    z 0.000000 0.000000 1.947950 
# 
# From -- ./inp_files/25176.got.cif
#   From: 2010.05.17/outbox.cif.g08.bks.cpg/sg53_13_cif.got.tgz:25176.got - 2010.06.03 12:45:16.
