data_PCOD9416934
_publ_section_title
;
Structure prediction by ZEFSAII (Michael W. Deem and Ramdas Pophale) SiO2 
 PCOD9416934
Probable space group: P M N A
;
_chemical_formula_sum "Si O2"
_cell_formula_units_Z 64
_cell_length_a 8.801637
_cell_length_b 12.142769
_cell_length_c 32.536695
_cell_angle_alpha 90.000000
_cell_angle_beta 90.000000
_cell_angle_gamma 90.000000
_cell_volume 3477.399783
_symmetry_space_group_name_H-M "P M N A"
_symmetry_group_IT_number 53
_symmetry_cell_setting 'orthorhombic'
loop_
_space_group_symop_operation_xyz
x,y,z
1/2-x,-y,1/2+z
x,-y,-z
1/2-x,y,1/2-z
-x,-y,-z
1/2+x,y,1/2-z
-x,y,z
1/2+x,-y,1/2+z
loop_
_atom_site_type_symbol
_atom_site_label
_atom_site_fract_x
_atom_site_fract_y
_atom_site_fract_z
Si Si1 0.818706 0.012344 0.548134
Si Si2 0.672968 0.631115 0.004983
Si Si3 0.178472 0.240962 0.924518
Si Si4 0.318728 0.559895 0.793512
Si Si5 0.681926 0.819004 0.794292
Si Si6 0.816994 0.563607 0.129963
Si Si7 0.824068 0.869426 0.878605
Si Si8 0.175912 0.644734 0.923340
O O1 0.771627 0.132351 0.564875
O O2 0.000000 0.998792 0.548134
O O3 0.767383 0.000000 0.500000
O O4 0.747478 0.929941 0.581837
O O5 0.500000 0.659666 0.016775
O O6 0.716421 0.677805 0.960625
O O7 0.684273 0.500000 0.000000
O O8 0.791136 0.677634 0.037392
O O9 0.226924 0.314850 0.885421
O O10 0.000000 0.214694 0.921020
O O11 0.250000 0.526480 0.750000
O O12 0.500000 0.554852 0.792774
O O13 0.276400 0.689005 0.799664
O O14 0.255452 0.481119 0.828666
O O15 0.750000 0.853499 0.750000
O O16 0.500000 0.826904 0.792750
O O17 0.743266 0.882422 0.834506
O O18 0.775601 0.471440 0.095898
O O19 0.000000 0.561029 0.133188
O O20 0.818593 0.739796 0.889568
O O21 0.000000 0.902823 0.875174
O O22 0.000000 0.635368 0.937507
#
# Coordination Sequence:
#
# PCOD9416934 Si02
#       8
#     8   8   8   8   8   8   8   8
#     4  11  25  44  63  84 114 153 200 253 303 353
#     4  11  22  33  49  76 111 147 184 229 278 331
#     4  11  23  39  60  82 110 149 193 238 285 342
#     4  10  20  33  54  83 119 159 193 232 283 345
#     4  10  20  34  55  86 122 157 194 239 292 348
#     4  10  20  35  55  82 115 148 186 232 283 341
#     4  11  22  37  60  86 115 153 196 241 291 348
#     4  10  20  34  53  79 112 149 187 230 279 337
#
# _framework density 18.404558000000002
#
# number of rings (size 3 to 8) (size 9 to 14) (size 15 to 20)
#    0.000    1.500    2.500    3.000    0.000    7.000 
#    0.000    0.000    0.000    0.750    0.000    1.750 
#    0.000    0.000    0.000    0.000    0.000    0.000 
#
# Total GULP energy -357195.942705 kJ/mol
# GULP energy per Si atom -5581.186605 kJ/mol
# Density = 1.836267 g / cm^3
# Si number density = 18.404558 Si / 1000 Ang^3
#
#
#
# Elastic Constant Matrix: (Units=GPa)
#
#
# Indices 1 2 3 4 5 6 
#
# 1 38.0241 18.8548 44.8229 0.0000 0.0000 0.0000
# 2 18.8548 64.8771 36.6410 0.0000 0.0000 0.0000
# 3 44.8229 36.6410 141.4205 0.0000 0.0000 0.0000
# 4 0.0000 0.0000 0.0000 59.5987 0.0000 0.0000
# 5 0.0000 0.0000 0.0000 0.0000 32.9585 0.0000
# 6 0.0000 0.0000 0.0000 0.0000 0.0000 24.2170
#
#
#
# Elastic Compliance Matrix: (Units=1/GPa)
#
#
# Indices 1 2 3 4 5 6 
#
# 1 0.043724 -0.005717 -0.012377 0.000000 0.000000 0.000000
# 2 -0.005717 0.018803 -0.003060 0.000000 0.000000 0.000000
# 3 -0.012377 -0.003060 0.011787 0.000000 0.000000 0.000000
# 4 0.000000 0.000000 0.000000 0.016779 0.000000 0.000000
# 5 0.000000 0.000000 0.000000 0.000000 0.030341 0.000000
# 6 0.000000 0.000000 0.000000 0.000000 0.000000 0.041293
#
#
# Mechanical properties :
#
#
# Convention : Reuss Voigt Hill
#
# Bulk Modulus (GPa) = 31.24372 49.43993 40.34182
# Shear Modulus (GPa) = 23.17993 32.95503 28.06748
#
# Velocity S-wave (km/s) = 3.55275 4.23613 3.90940
# Velocity P-wave (km/s) = 5.81741 7.13075 6.50730
#
# Compressibility (1/GPa) = 0.03200643
#
# Stress axis : x y z
#
# Youngs Moduli (GPa) = 22.87077 53.18199 84.84113
#
# Poissons Ratio (x) = 0.30404 1.05008
# Poissons Ratio (y) = 0.13075 0.25960
# Poissons Ratio (z) = 0.28307 0.16273
#
# Static dielectric constant tensor:
#      x y z
#    x 1.623960 0.000000 0.000000 
#    y 0.000000 1.656140 0.000000 
#    z 0.000000 0.000000 1.626320 
# 
# From -- ./inp_files/38114.got.cif
#   From: 2010.05.17/outbox.cif.g08.bks.cpg/sg53_20_cif.got.tgz:38114.got - 2010.06.03 12:45:16.
