data_PCOD9416419
_publ_section_title
;
Structure prediction by ZEFSAII (Michael W. Deem and Ramdas Pophale) SiO2 
 PCOD9416419
Probable space group: P M N A
;
_chemical_formula_sum "Si O2"
_cell_formula_units_Z 56
_cell_length_a 13.808816
_cell_length_b 13.208824
_cell_length_c 14.703653
_cell_angle_alpha 90.000000
_cell_angle_beta 90.000000
_cell_angle_gamma 90.000000
_cell_volume 2681.920138
_symmetry_space_group_name_H-M "P M N A"
_symmetry_group_IT_number 53
_symmetry_cell_setting 'orthorhombic'
loop_
_space_group_symop_operation_xyz
x,y,z
1/2-x,-y,1/2+z
x,-y,-z
1/2-x,y,1/2-z
-x,-y,-z
1/2+x,y,1/2-z
-x,y,z
1/2+x,-y,1/2+z
loop_
_atom_site_type_symbol
_atom_site_label
_atom_site_fract_x
_atom_site_fract_y
_atom_site_fract_z
Si Si1 0.805624 0.238989 0.118483
Si Si2 0.281955 0.894511 0.458504
Si Si3 0.637852 0.949268 0.274662
Si Si4 0.103763 0.169676 0.298234
Si Si5 0.108278 0.773421 0.359104
Si Si6 0.241889 0.470817 0.104980
Si Si7 0.614546 0.557116 0.236157
O O1 0.699087 0.193113 0.143386
O O2 0.875405 0.226291 0.203913
O O3 0.794994 0.356708 0.101814
O O4 0.836055 0.172341 0.033261
O O5 0.357776 0.930419 0.381666
O O6 0.194467 0.822977 0.419673
O O7 0.241371 0.000000 0.500000
O O8 0.750000 0.955292 0.250000
O O9 0.599584 0.852140 0.223338
O O10 0.599795 0.052773 0.232815
O O11 0.000000 0.197691 0.339415
O O12 0.133727 0.665493 0.313322
O O13 0.000000 0.765273 0.402293
O O14 0.168970 0.538751 0.167535
O O15 0.340086 0.477404 0.164556
O O16 0.255137 0.500000 0.000000
O O17 0.500000 0.546859 0.247698
#
# Coordination Sequence:
#
# PCOD9416419 Si02
#       7
#     8   8   8   8   8   8   8
#     4  11  23  40  58  94 119 154 213 246 306 373
#     4  11  21  37  62  87 127 163 196 257 309 364
#     4  10  19  35  59  86 121 160 195 242 297 364
#     4  11  21  39  62  85 122 162 198 246 305 366
#     4  10  22  37  61  91 120 163 209 251 310 375
#     4  11  25  41  68  93 125 171 215 268 328 383
#     4  10  23  44  65  94 130 166 218 273 325 380
#
# _framework density 20.880562999999999
#
# number of rings (size 3 to 8) (size 9 to 14) (size 15 to 20)
#    0.000    1.429    2.857    3.857    8.000    3.714 
#    0.000    2.143    0.000    0.000    0.000    0.000 
#    0.000    0.000    0.000    0.000    0.000    0.000 
#
# Total GULP energy -312334.881874 kJ/mol
# GULP energy per Si atom -5577.408605 kJ/mol
# Density = 2.083304 g / cm^3
# Si number density = 20.880563 Si / 1000 Ang^3
#
#
#
# Elastic Constant Matrix: (Units=GPa)
#
#
# Indices 1 2 3 4 5 6 
#
# 1 70.5074 -20.0113 -9.5576 0.0000 0.0000 0.0000
# 2 -20.0113 63.6022 -6.4370 0.0000 0.0000 0.0000
# 3 -9.5576 -6.4370 86.2847 0.0000 0.0000 0.0000
# 4 0.0000 0.0000 0.0000 22.5552 0.0000 0.0000
# 5 0.0000 0.0000 0.0000 0.0000 14.6754 0.0000
# 6 0.0000 0.0000 0.0000 0.0000 0.0000 4133.3161
#
#
#
# Elastic Compliance Matrix: (Units=1/GPa)
#
#
# Indices 1 2 3 4 5 6 
#
# 1 0.015963 0.005241 0.002159 0.000000 0.000000 0.000000
# 2 0.005241 0.017563 0.001891 0.000000 0.000000 0.000000
# 3 0.002159 0.001891 0.011970 0.000000 0.000000 0.000000
# 4 0.000000 0.000000 0.000000 0.044336 0.000000 0.000000
# 5 0.000000 0.000000 0.000000 0.000000 0.068141 0.000000
# 6 0.000000 0.000000 0.000000 0.000000 0.000000 0.000242
#
#
# Mechanical properties :
#
#
# Convention : Reuss Voigt Hill
#
# Bulk Modulus (GPa) = 15.60601 16.48697 16.04649
# Shear Modulus (GPa) = 31.05745 851.20270 441.13008
#
# Velocity S-wave (km/s) = 3.86085 20.21233 14.55067
# Velocity P-wave (km/s) = 5.23116 23.50809 17.02932
#
# Compressibility (1/GPa) = 0.06407787
#
# Stress axis : x y z
#
# Youngs Moduli (GPa) = 62.64453 56.93761 83.54388
#
# Poissons Ratio (x) = -0.29841 -0.18039
# Poissons Ratio (y) = -0.32832 -0.15796
# Poissons Ratio (z) = -0.13526 -0.10766
#
# Static dielectric constant tensor:
#      x y z
#    x 1.777850 0.000000 0.000000 
#    y 0.000000 1.803750 0.000000 
#    z 0.000000 0.000000 1.793640 
# 
# From -- ./inp_files/22833.got.cif
#   From: 2010.05.17/outbox.cif.g08.bks.cpg/sg53_12_cif.got.tgz:22833.got - 2010.06.03 12:45:16.
