data_PCOD9416026
_publ_section_title
;
Structure prediction by ZEFSAII (Michael W. Deem and Ramdas Pophale) SiO2 
 PCOD9416026
Probable space group: P M N A
;
_chemical_formula_sum "Si O2"
_cell_formula_units_Z 64
_cell_length_a 7.648233
_cell_length_b 15.716237
_cell_length_c 21.759075
_cell_angle_alpha 90.000000
_cell_angle_beta 90.000000
_cell_angle_gamma 90.000000
_cell_volume 2615.472202
_symmetry_space_group_name_H-M "P M N A"
_symmetry_group_IT_number 53
_symmetry_cell_setting 'orthorhombic'
loop_
_space_group_symop_operation_xyz
x,y,z
1/2-x,-y,1/2+z
x,-y,-z
1/2-x,y,1/2-z
-x,-y,-z
1/2+x,y,1/2-z
-x,y,z
1/2+x,-y,1/2+z
loop_
_atom_site_type_symbol
_atom_site_label
_atom_site_fract_x
_atom_site_fract_y
_atom_site_fract_z
Si Si1 0.697590 0.219502 0.337487
Si Si2 0.797661 0.178275 0.472409
Si Si3 0.795708 0.081746 0.584744
Si Si4 0.197266 0.035180 0.315921
Si Si5 0.213617 0.598697 0.862604
Si Si6 0.709142 0.230422 0.679355
Si Si7 0.212577 0.415370 0.864541
Si Si8 0.211667 0.360426 0.997743
O O1 0.500000 0.218293 0.313723
O O2 0.697113 0.201024 0.410584
O O3 0.792124 0.136488 0.313297
O O4 0.774498 0.314068 0.330317
O O5 0.721677 0.108561 0.518640
O O6 0.790834 0.266834 0.509449
O O7 0.000000 0.159456 0.455152
O O8 0.783382 0.161105 0.632056
O O9 0.000000 0.066421 0.569761
O O10 0.714510 0.004028 0.623529
O O11 0.250000 0.000439 0.250000
O O12 0.000000 0.008727 0.323180
O O13 0.271878 0.506695 0.838641
O O14 0.000000 0.602172 0.860622
O O15 0.262864 0.606134 0.934929
O O16 0.750000 0.209787 0.750000
O O17 0.500000 0.229184 0.670399
O O18 0.772441 0.327062 0.665531
O O19 0.258390 0.412503 0.937052
O O20 0.000000 0.415422 0.860765
O O21 0.000000 0.354139 0.997928
#
# Coordination Sequence:
#
# PCOD9416026 Si02
#       8
#     8   8   8   8   8   8   8   8
#     4  10  21  38  60  86 116 151 190 235 281 333
#     4  10  19  33  55  84 120 154 183 224 281 340
#     4  10  22  39  60  85 114 148 185 227 282 341
#     4  11  24  43  64  85 109 142 187 236 286 340
#     4   8  15  28  51  80 110 141 181 228 272 324
#     4  11  22  35  54  78 110 148 188 232 278 332
#     4   9  16  28  49  78 107 142 185 228 273 324
#     4   9  15  27  49  79 110 143 185 226 270 326
#
# _framework density 24.46977
#
# number of rings (size 3 to 8) (size 9 to 14) (size 15 to 20)
#    0.000    2.250    1.250    3.000    0.000    4.500 
#    0.000    3.125    0.000   15.750    0.000    0.000 
#    0.000    0.000    0.000    0.000    0.000    0.000 
#
# Total GULP energy -357392.423933 kJ/mol
# GULP energy per Si atom -5584.256624 kJ/mol
# Density = 2.441408 g / cm^3
# Si number density = 24.469770 Si / 1000 Ang^3
#
#
#
# Elastic Constant Matrix: (Units=GPa)
#
#
# Indices 1 2 3 4 5 6 
#
# 1 51.0899 -1.5540 -7.8489 0.0000 0.0000 0.0000
# 2 -1.5540 128.8505 16.3060 0.0000 0.0000 0.0000
# 3 -7.8489 16.3060 54.5179 0.0000 0.0000 0.0000
# 4 0.0000 0.0000 0.0000 4.4044 0.0000 0.0000
# 5 0.0000 0.0000 0.0000 0.0000 13.8733 0.0000
# 6 0.0000 0.0000 0.0000 0.0000 0.0000 72.1634
#
#
#
# Elastic Compliance Matrix: (Units=1/GPa)
#
#
# Indices 1 2 3 4 5 6 
#
# 1 0.020018 -0.000128 0.002920 0.000000 0.000000 0.000000
# 2 -0.000128 0.008067 -0.002431 0.000000 0.000000 0.000000
# 3 0.002920 -0.002431 0.019490 0.000000 0.000000 0.000000
# 4 0.000000 0.000000 0.000000 0.227044 0.000000 0.000000
# 5 0.000000 0.000000 0.000000 0.000000 0.072081 0.000000
# 6 0.000000 0.000000 0.000000 0.000000 0.000000 0.013857
#
#
# Mechanical properties :
#
#
# Convention : Reuss Voigt Hill
#
# Bulk Modulus (GPa) = 20.70513 27.58494 24.14504
# Shear Modulus (GPa) = 13.30016 33.25858 23.27937
#
# Velocity S-wave (km/s) = 2.33391 3.69069 3.08775
# Velocity P-wave (km/s) = 3.96771 5.42763 4.75405
#
# Compressibility (1/GPa) = 0.04829720
#
# Stress axis : x y z
#
# Youngs Moduli (GPa) = 49.95482 123.96081 51.30781
#
# Poissons Ratio (x) = 0.01588 -0.14984
# Poissons Ratio (y) = 0.00640 0.12474
# Poissons Ratio (z) = -0.14588 0.30138
#
# Static dielectric constant tensor:
#      x y z
#    x 1.890590 0.000000 0.000000 
#    y 0.000000 1.988900 0.000000 
#    z 0.000000 0.000000 2.035270 
# 
# From -- ./inp_files/34327.got.cif
#   From: 2010.05.17/outbox.cif.g08.bks.cpg/sg53_18_cif.got.tgz:34327.got - 2010.06.03 12:45:16.
