data_PCOD9416416
_publ_section_title
;
Structure prediction by ZEFSAII (Michael W. Deem and Ramdas Pophale) SiO2 
 PCOD9416416
Probable space group: P M N A
;
_chemical_formula_sum "Si O2"
_cell_formula_units_Z 44
_cell_length_a 14.663892
_cell_length_b 11.615194
_cell_length_c 13.560710
_cell_angle_alpha 90.000000
_cell_angle_beta 90.000000
_cell_angle_gamma 90.000000
_cell_volume 2309.713697
_symmetry_space_group_name_H-M "P M N A"
_symmetry_group_IT_number 53
_symmetry_cell_setting 'orthorhombic'
loop_
_space_group_symop_operation_xyz
x,y,z
1/2-x,-y,1/2+z
x,-y,-z
1/2-x,y,1/2-z
-x,-y,-z
1/2+x,y,1/2-z
-x,y,z
1/2+x,-y,1/2+z
loop_
_atom_site_type_symbol
_atom_site_label
_atom_site_fract_x
_atom_site_fract_y
_atom_site_fract_z
Si Si1 0.103665 0.025224 0.616142
Si Si2 0.670672 0.623788 0.467440
Si Si3 0.105506 0.288809 0.170849
Si Si4 0.807446 0.743567 0.345934
Si Si5 0.250000 0.890474 0.750000
Si Si6 0.394715 0.536003 0.258351
O O1 0.117175 0.161685 0.633426
O O2 0.000000 0.991262 0.645351
O O3 0.113885 0.000000 0.500000
O O4 0.184197 0.963444 0.677470
O O5 0.711296 0.500000 0.500000
O O6 0.610912 0.669168 0.557534
O O7 0.743013 0.721415 0.439058
O O8 0.618152 0.594086 0.366207
O O9 0.178364 0.189960 0.191242
O O10 0.132877 0.402925 0.233270
O O11 0.000000 0.258808 0.193626
O O12 0.750000 0.782477 0.250000
O O13 0.841663 0.616484 0.316774
O O14 0.500000 0.537942 0.232350
#
# Coordination Sequence:
#
# PCOD9416416 Si02
#       6
#     8   8   8   8   4   8
#     4  11  24  43  64  85 117 162 207 249 299 354
#     4   9  18  31  56  85 117 150 183 229 293 359
#     4  10  21  36  57  87 119 151 190 242 300 355
#     4  10  19  35  59  86 115 154 193 241 291 349
#     4  12  24  40  64  84 116 158 204 254 292 350
#     4   9  18  32  55  84 116 149 186 232 292 354
#
# _framework density 19.049980999999999
#
# number of rings (size 3 to 8) (size 9 to 14) (size 15 to 20)
#    0.000    2.000    0.909    2.727    6.364    2.182 
#    0.000    0.000    0.000    3.273    0.000    0.000 
#    0.000    0.000    0.000    0.000    0.000    0.000 
#
# Total GULP energy -245301.934841 kJ/mol
# GULP energy per Si atom -5575.043974 kJ/mol
# Density = 1.900662 g / cm^3
# Si number density = 19.049981 Si / 1000 Ang^3
#
#
#
# Elastic Constant Matrix: (Units=GPa)
#
#
# Indices 1 2 3 4 5 6 
#
# 1 121.7922 54.2907 33.4047 0.0000 0.0000 0.0000
# 2 54.2907 75.7065 25.7590 0.0000 0.0000 0.0000
# 3 33.4047 25.7590 52.2849 0.0000 0.0000 0.0000
# 4 0.0000 0.0000 0.0000 11.1865 0.0000 0.0000
# 5 0.0000 0.0000 0.0000 0.0000 23.6049 0.0000
# 6 0.0000 0.0000 0.0000 0.0000 0.0000 41.6861
#
#
#
# Elastic Compliance Matrix: (Units=1/GPa)
#
#
# Indices 1 2 3 4 5 6 
#
# 1 0.012864 -0.007723 -0.004414 0.000000 0.000000 0.000000
# 2 -0.007723 0.020506 -0.005168 0.000000 0.000000 0.000000
# 3 -0.004414 -0.005168 0.024492 0.000000 0.000000 0.000000
# 4 0.000000 0.000000 0.000000 0.089393 0.000000 0.000000
# 5 0.000000 0.000000 0.000000 0.000000 0.042364 0.000000
# 6 0.000000 0.000000 0.000000 0.000000 0.000000 0.023989
#
#
# Mechanical properties :
#
#
# Convention : Reuss Voigt Hill
#
# Bulk Modulus (GPa) = 43.00787 52.96581 47.98684
# Shear Modulus (GPa) = 19.53358 24.38412 21.95885
#
# Velocity S-wave (km/s) = 3.20564 3.58160 3.39882
# Velocity P-wave (km/s) = 6.02717 6.70580 6.37552
#
# Compressibility (1/GPa) = 0.02325156
#
# Stress axis : x y z
#
# Youngs Moduli (GPa) = 77.73577 48.76645 40.82938
#
# Poissons Ratio (x) = 0.37664 0.18021
# Poissons Ratio (y) = 0.60038 0.21101
# Poissons Ratio (z) = 0.34311 0.25203
#
# Static dielectric constant tensor:
#      x y z
#    x 1.671700 0.000000 0.000000 
#    y 0.000000 1.670910 0.000000 
#    z 0.000000 0.000000 1.663000 
# 
# From -- ./inp_files/22611.got.cif
#   From: 2010.05.17/outbox.cif.g08.bks.cpg/sg53_12_cif.got.tgz:22611.got - 2010.06.03 12:45:16.
