data_PCOD9416450
_publ_section_title
;
Structure prediction by ZEFSAII (Michael W. Deem and Ramdas Pophale) SiO2 
 PCOD9416450
Probable space group: P M N A
;
_chemical_formula_sum "Si O2"
_cell_formula_units_Z 32
_cell_length_a 33.896667
_cell_length_b 5.327746
_cell_length_c 7.794285
_cell_angle_alpha 90.000000
_cell_angle_beta 90.000000
_cell_angle_gamma 90.000000
_cell_volume 1407.592002
_symmetry_space_group_name_H-M "P M N A"
_symmetry_group_IT_number 53
_symmetry_cell_setting 'orthorhombic'
loop_
_space_group_symop_operation_xyz
x,y,z
1/2-x,-y,1/2+z
x,-y,-z
1/2-x,y,1/2-z
-x,-y,-z
1/2+x,y,1/2-z
-x,y,z
1/2+x,-y,1/2+z
loop_
_atom_site_type_symbol
_atom_site_label
_atom_site_fract_x
_atom_site_fract_y
_atom_site_fract_z
Si Si1 0.294957 0.774377 0.706975
Si Si2 0.919368 0.383013 0.821307
Si Si3 0.454503 0.124597 0.187364
Si Si4 0.326798 0.725649 0.313941
O O1 0.250000 0.835122 0.750000
O O2 0.306586 0.750593 0.503830
O O3 0.305074 0.501800 0.779588
O O4 0.321164 0.004814 0.771502
O O5 0.931471 0.610672 0.694437
O O6 0.872355 0.344906 0.827621
O O7 0.937235 0.106445 0.797339
O O8 0.933163 0.500000 0.000000
O O9 0.500000 0.175895 0.232867
O O10 0.453302 0.000000 0.000000
#
# Coordination Sequence:
#
# PCOD9416450 Si02
#       4
#     8   8   8   8
#     4  10  19  35  62  85 120 165 212 260 337 403
#     4  12  23  41  75 103 137 182 229 293 342 404
#     4  11  26  46  69  99 143 188 228 280 346 415
#     4  10  21  37  61  92 125 171 211 280 339 387
#
# _framework density 22.733861999999998
#
# number of rings (size 3 to 8) (size 9 to 14) (size 15 to 20)
#    0.000    1.250    2.500    4.500    3.500    5.000 
#    0.000    0.000   55.000    0.000    0.000    0.000 
#    0.000    0.000    0.000    0.000    0.000    0.000 
#
# Total GULP energy -178650.673874 kJ/mol
# GULP energy per Si atom -5582.833559 kJ/mol
# Density = 2.268212 g / cm^3
# Si number density = 22.733862 Si / 1000 Ang^3
#
#
#
# Elastic Constant Matrix: (Units=GPa)
#
#
# Indices 1 2 3 4 5 6 
#
# 1 136.7889 51.1406 40.9576 0.0000 0.0000 0.0000
# 2 51.1406 200.8420 17.5219 0.0000 0.0000 0.0000
# 3 40.9576 17.5219 40.6719 0.0000 0.0000 0.0000
# 4 0.0000 0.0000 0.0000 18.1051 0.0000 0.0000
# 5 0.0000 0.0000 0.0000 0.0000 -2.6621 0.0000
# 6 0.0000 0.0000 0.0000 0.0000 0.0000 61.7120
#
#
#
# Elastic Compliance Matrix: (Units=1/GPa)
#
#
# Indices 1 2 3 4 5 6 
#
# 1 0.011143 -0.001931 -0.010390 0.000000 0.000000 0.000000
# 2 -0.001931 0.005508 -0.000428 0.000000 0.000000 0.000000
# 3 -0.010390 -0.000428 0.035234 0.000000 0.000000 0.000000
# 4 0.000000 0.000000 0.000000 0.055233 0.000000 0.000000
# 5 0.000000 0.000000 0.000000 0.000000 -0.375645 0.000000
# 6 0.000000 0.000000 0.000000 0.000000 0.000000 0.016204
#
#
# Mechanical properties :
#
#
# Convention : Reuss Voigt Hill
#
# Bulk Modulus (GPa) = 37.89674 66.39367 52.14521
# Shear Modulus (GPa) = -22.93285 33.34317 5.20516
#
# Velocity S-wave (km/s) = -3.17953 3.83387 1.51479
# Velocity P-wave (km/s) = 1.79630 6.99044 5.10357
#
# Compressibility (1/GPa) = 0.02638749
#
# Stress axis : x y z
#
# Youngs Moduli (GPa) = 89.73911 181.55054 28.38142
#
# Poissons Ratio (x) = 0.35058 0.29488
# Poissons Ratio (y) = 0.17329 0.01216
# Poissons Ratio (z) = 0.93237 0.07777
#
# Static dielectric constant tensor:
#      x y z
#    x 1.805150 0.000000 0.000000 
#    y 0.000000 1.925900 0.000000 
#    z 0.000000 0.000000 2.020540 
# 
# From -- ./inp_files/12678.got.cif
#   From: 2010.05.17/outbox.cif.g08.bks.cpg/sg53_7_cif.got.tgz:12678.got - 2010.06.03 12:45:16.
