data_PCOD9416735
_publ_section_title
;
Structure prediction by ZEFSAII (Michael W. Deem and Ramdas Pophale) SiO2 
 PCOD9416735
Probable space group: P M N A
;
_chemical_formula_sum "Si O2"
_cell_formula_units_Z 64
_cell_length_a 26.169171
_cell_length_b 9.416148
_cell_length_c 15.327662
_cell_angle_alpha 90.000000
_cell_angle_beta 90.000000
_cell_angle_gamma 90.000000
_cell_volume 3776.931914
_symmetry_space_group_name_H-M "P M N A"
_symmetry_group_IT_number 53
_symmetry_cell_setting 'orthorhombic'
loop_
_space_group_symop_operation_xyz
x,y,z
1/2-x,-y,1/2+z
x,-y,-z
1/2-x,y,1/2-z
-x,-y,-z
1/2+x,y,1/2-z
-x,y,z
1/2+x,-y,1/2+z
loop_
_atom_site_type_symbol
_atom_site_label
_atom_site_fract_x
_atom_site_fract_y
_atom_site_fract_z
Si Si1 0.676478 0.618102 0.068748
Si Si2 0.278679 0.553649 0.333591
Si Si3 0.305802 0.936457 0.777258
Si Si4 0.232771 0.845202 0.539595
Si Si5 0.942540 0.135128 0.867748
Si Si6 0.442488 0.811431 0.575032
Si Si7 0.353032 0.236546 0.755746
Si Si8 0.167374 0.721462 0.878744
O O1 0.732649 0.566504 0.099322
O O2 0.645857 0.662551 0.157327
O O3 0.655763 0.500000 0.000000
O O4 0.692678 0.760323 0.018908
O O5 0.250000 0.489726 0.250000
O O6 0.306754 0.697002 0.302419
O O7 0.319901 0.441129 0.361812
O O8 0.250000 0.991906 0.750000
O O9 0.294657 0.857549 0.867128
O O10 0.324385 0.825516 0.704314
O O11 0.339997 0.076201 0.785074
O O12 0.288798 0.774558 0.553183
O O13 0.241559 0.000000 0.500000
O O14 0.901782 0.215660 0.807341
O O15 0.000000 0.161944 0.835226
O O16 0.935544 0.964300 0.876822
O O17 0.940848 0.175637 0.969984
O O18 0.500000 0.760243 0.597676
O O19 0.391610 0.727844 0.596943
#
# Coordination Sequence:
#
# PCOD9416735 Si02
#       8
#     8   8   8   8   8   8   8   8
#     4  11  22  36  50  76 114 147 184 221 269 331
#     4  10  22  35  49  75 114 151 178 212 264 337
#     4  10  20  32  49  77 107 138 182 227 261 323
#     4  11  22  32  51  78 108 140 185 226 264 316
#     4   9  19  36  56  82 108 136 179 230 278 320
#     4   9  19  34  56  83 109 136 180 230 270 321
#     4  11  21  35  55  78 107 146 182 222 278 324
#     4  11  21  33  53  74 110 150 177 214 276 320
#
# _framework density 16.944970000000001
#
# number of rings (size 3 to 8) (size 9 to 14) (size 15 to 20)
#    0.000    1.750    3.750    3.000    7.000    0.000 
#    0.000    0.625    0.000    1.875    0.000    2.625 
#    0.000    0.000    0.000    0.000    0.000    0.000 
#
# Total GULP energy -356353.379372 kJ/mol
# GULP energy per Si atom -5568.021553 kJ/mol
# Density = 1.690640 g / cm^3
# Si number density = 16.944970 Si / 1000 Ang^3
#
#
#
# Elastic Constant Matrix: (Units=GPa)
#
#
# Indices 1 2 3 4 5 6 
#
# 1 94.4656 19.6050 29.2407 0.0000 0.0000 0.0000
# 2 19.6050 47.7107 12.2951 0.0000 0.0000 0.0000
# 3 29.2407 12.2951 62.4390 0.0000 0.0000 0.0000
# 4 0.0000 0.0000 0.0000 13.7634 0.0000 0.0000
# 5 0.0000 0.0000 0.0000 0.0000 28.6297 0.0000
# 6 0.0000 0.0000 0.0000 0.0000 0.0000 27.4882
#
#
#
# Elastic Compliance Matrix: (Units=1/GPa)
#
#
# Indices 1 2 3 4 5 6 
#
# 1 0.013065 -0.003995 -0.005332 0.000000 0.000000 0.000000
# 2 -0.003995 0.023301 -0.002718 0.000000 0.000000 0.000000
# 3 -0.005332 -0.002718 0.019048 0.000000 0.000000 0.000000
# 4 0.000000 0.000000 0.000000 0.072656 0.000000 0.000000
# 5 0.000000 0.000000 0.000000 0.000000 0.034929 0.000000
# 6 0.000000 0.000000 0.000000 0.000000 0.000000 0.036379
#
#
# Mechanical properties :
#
#
# Convention : Reuss Voigt Hill
#
# Bulk Modulus (GPa) = 31.92240 36.32189 34.12215
# Shear Modulus (GPa) = 21.37578 23.54124 22.45851
#
# Velocity S-wave (km/s) = 3.55559 3.73134 3.64452
# Velocity P-wave (km/s) = 5.97796 6.32816 6.15555
#
# Compressibility (1/GPa) = 0.03132596
#
# Stress axis : x y z
#
# Youngs Moduli (GPa) = 76.53824 42.91580 52.49948
#
# Poissons Ratio (x) = 0.17143 0.27993
# Poissons Ratio (y) = 0.30575 0.14267
# Poissons Ratio (z) = 0.40810 0.11663
#
# Static dielectric constant tensor:
#      x y z
#    x 1.552920 0.000000 0.000000 
#    y 0.000000 1.609670 0.000000 
#    z 0.000000 0.000000 1.780070 
# 
# From -- ./inp_files/24738.got.cif
#   From: 2010.05.17/outbox.cif.g08.bks.cpg/sg53_13_cif.got.tgz:24738.got - 2010.06.03 12:45:16.
