data_PCOD9416551
_publ_section_title
;
Structure prediction by ZEFSAII (Michael W. Deem and Ramdas Pophale) SiO2 
 PCOD9416551
Probable space group: P M N A
;
_chemical_formula_sum "Si O2"
_cell_formula_units_Z 48
_cell_length_a 19.007990
_cell_length_b 12.242179
_cell_length_c 9.623658
_cell_angle_alpha 90.000000
_cell_angle_beta 90.000000
_cell_angle_gamma 90.000000
_cell_volume 2239.417672
_symmetry_space_group_name_H-M "P M N A"
_symmetry_group_IT_number 53
_symmetry_cell_setting 'orthorhombic'
loop_
_space_group_symop_operation_xyz
x,y,z
1/2-x,-y,1/2+z
x,-y,-z
1/2-x,y,1/2-z
-x,-y,-z
1/2+x,y,1/2-z
-x,y,z
1/2+x,-y,1/2+z
loop_
_atom_site_type_symbol
_atom_site_label
_atom_site_fract_x
_atom_site_fract_y
_atom_site_fract_z
Si Si1 0.580597 0.331408 0.334990
Si Si2 0.079097 0.368365 0.490454
Si Si3 0.166887 0.738042 0.275519
Si Si4 0.675985 0.017480 0.833034
Si Si5 0.188084 0.527509 0.140044
Si Si6 0.415571 0.089890 0.383168
O O1 0.500000 0.354413 0.375130
O O2 0.582128 0.324150 0.166403
O O3 0.630417 0.433303 0.359734
O O4 0.602218 0.217351 0.407438
O O5 0.085380 0.500000 0.500000
O O6 0.139518 0.315582 0.582873
O O7 0.000000 0.342171 0.545509
O O8 0.250000 0.748519 0.250000
O O9 0.144863 0.863567 0.289604
O O10 0.149626 0.643859 0.162886
O O11 0.750000 0.003501 0.750000
O O12 0.621243 0.936042 0.762538
O O13 0.684016 0.000000 0.000000
O O14 0.250000 0.518049 0.250000
O O15 0.228191 0.500000 0.000000
O O16 0.500000 0.083290 0.372523
O O17 0.393307 0.000000 0.500000
#
# Coordination Sequence:
#
# PCOD9416551 Si02
#       6
#     8   8   8   8   8   8
#     4  10  22  41  67  97 129 171 226 270 331 406
#     4  10  19  36  63  94 129 172 216 268 327 402
#     4  10  23  38  62  92 136 163 218 276 330 398
#     4  11  24  44  66  96 132 177 226 283 337 405
#     4  11  26  42  64  98 136 176 213 276 336 402
#     4  10  23  43  67  95 131 174 225 284 337 400
#
# _framework density 21.434144
#
# number of rings (size 3 to 8) (size 9 to 14) (size 15 to 20)
#    0.000    1.667    1.667    1.500    7.000    2.000 
#    3.000    0.000    0.000    0.000    0.000    0.000 
#    0.000    0.000    0.000    0.000    0.000    0.000 
#
# Total GULP energy -267468.722796 kJ/mol
# GULP energy per Si atom -5572.265058 kJ/mol
# Density = 2.138536 g / cm^3
# Si number density = 21.434144 Si / 1000 Ang^3
#
#
#
# Elastic Constant Matrix: (Units=GPa)
#
#
# Indices 1 2 3 4 5 6 
#
# 1 38.1672 41.8388 23.3435 0.0000 0.0000 0.0000
# 2 41.8388 155.7250 33.4987 0.0000 0.0000 0.0000
# 3 23.3435 33.4987 115.4973 0.0000 0.0000 0.0000
# 4 0.0000 0.0000 0.0000 33.2322 0.0000 0.0000
# 5 0.0000 0.0000 0.0000 0.0000 27.3001 0.0000
# 6 0.0000 0.0000 0.0000 0.0000 0.0000 33.2368
#
#
#
# Elastic Compliance Matrix: (Units=1/GPa)
#
#
# Indices 1 2 3 4 5 6 
#
# 1 0.039958 -0.009597 -0.005292 0.000000 0.000000 0.000000
# 2 -0.009597 0.009154 -0.000715 0.000000 0.000000 0.000000
# 3 -0.005292 -0.000715 0.009935 0.000000 0.000000 0.000000
# 4 0.000000 0.000000 0.000000 0.030091 0.000000 0.000000
# 5 0.000000 0.000000 0.000000 0.000000 0.036630 0.000000
# 6 0.000000 0.000000 0.000000 0.000000 0.000000 0.030087
#
#
# Mechanical properties :
#
#
# Convention : Reuss Voigt Hill
#
# Bulk Modulus (GPa) = 35.92293 56.30572 46.11433
# Shear Modulus (GPa) = 25.46554 32.80106 29.13330
#
# Velocity S-wave (km/s) = 3.45060 3.91617 3.69073
# Velocity P-wave (km/s) = 5.71590 6.83921 6.30263
#
# Compressibility (1/GPa) = 0.02783737
#
# Stress axis : x y z
#
# Youngs Moduli (GPa) = 25.02651 109.24344 100.65061
#
# Poissons Ratio (x) = 1.04840 0.53269
# Poissons Ratio (y) = 0.24018 0.07200
# Poissons Ratio (z) = 0.13245 0.07814
#
# Static dielectric constant tensor:
#      x y z
#    x 1.832580 0.000000 0.000000 
#    y 0.000000 1.838590 0.000000 
#    z 0.000000 0.000000 1.822620 
# 
# From -- ./inp_files/11749.got.cif
#   From: 2010.05.17/outbox.cif.g08.bks.cpg/sg53_6_cif.got.tgz:11749.got - 2010.06.03 12:45:16.
