data_PCOD9416901
_publ_section_title
;
Structure prediction by ZEFSAII (Michael W. Deem and Ramdas Pophale) SiO2 
 PCOD9416901
Probable space group: P M N A
;
_chemical_formula_sum "Si O2"
_cell_formula_units_Z 64
_cell_length_a 18.799236
_cell_length_b 14.464807
_cell_length_c 12.561978
_cell_angle_alpha 90.000000
_cell_angle_beta 90.000000
_cell_angle_gamma 90.000000
_cell_volume 3415.945018
_symmetry_space_group_name_H-M "P M N A"
_symmetry_group_IT_number 53
_symmetry_cell_setting 'orthorhombic'
loop_
_space_group_symop_operation_xyz
x,y,z
1/2-x,-y,1/2+z
x,-y,-z
1/2-x,y,1/2-z
-x,-y,-z
1/2+x,y,1/2-z
-x,y,z
1/2+x,-y,1/2+z
loop_
_atom_site_type_symbol
_atom_site_label
_atom_site_fract_x
_atom_site_fract_y
_atom_site_fract_z
Si Si1 0.578936 0.940508 0.893228
Si Si2 0.083829 0.740278 0.349595
Si Si3 0.582812 0.025197 0.343621
Si Si4 0.166964 0.632894 0.730440
Si Si5 0.845081 0.783809 0.911700
Si Si6 0.177347 0.219211 0.447771
Si Si7 0.083078 0.479534 0.621254
Si Si8 0.914899 0.822938 0.120323
O O1 0.500000 0.895728 0.894826
O O2 0.582321 0.995752 0.783167
O O3 0.641055 0.866967 0.890197
O O4 0.584988 0.000000 0.000000
O O5 0.138096 0.776374 0.438921
O O6 0.088229 0.629111 0.354143
O O7 0.104136 0.779852 0.234153
O O8 0.000000 0.765240 0.371030
O O9 0.500000 0.041610 0.374749
O O10 0.626149 0.118262 0.366427
O O11 0.609945 0.929664 0.393905
O O12 0.250000 0.612713 0.750000
O O13 0.144545 0.702448 0.825364
O O14 0.159193 0.690844 0.621445
O O15 0.123851 0.540066 0.708742
O O16 0.761996 0.790561 0.942424
O O17 0.886497 0.765809 0.020974
O O18 0.108775 0.500000 0.500000
O O19 0.000000 0.506449 0.623484
O O20 0.000000 0.826590 0.117547
#
# Coordination Sequence:
#
# PCOD9416901 Si02
#       8
#     8   8   8   8   8   8   8   8
#     4  10  20  33  52  83 116 151 196 246 302 349
#     4  10  21  40  65  91 121 152 195 259 311 353
#     4  10  20  36  59  83 113 160 209 245 287 350
#     4  10  22  40  57  87 122 157 193 242 301 363
#     4  11  23  38  57  85 122 161 205 240 287 361
#     4  11  21  37  59  83 120 154 194 246 299 352
#     4  10  20  37  65  96 117 145 196 253 304 355
#     4  10  22  41  60  83 120 160 203 250 294 352
#
# _framework density 18.735664
#
# number of rings (size 3 to 8) (size 9 to 14) (size 15 to 20)
#    0.000    1.750    2.500    1.875    0.000    6.000 
#    2.250    1.875    0.000    2.250    0.000    0.000 
#    0.000    0.000    0.000    0.000    0.000    0.000 
#
# Total GULP energy -357118.419790 kJ/mol
# GULP energy per Si atom -5579.975309 kJ/mol
# Density = 1.869302 g / cm^3
# Si number density = 18.735664 Si / 1000 Ang^3
#
#
#
# Elastic Constant Matrix: (Units=GPa)
#
#
# Indices 1 2 3 4 5 6 
#
# 1 37.7947 32.0847 37.9557 0.0000 0.0000 0.0000
# 2 32.0847 65.8886 32.6231 0.0000 0.0000 0.0000
# 3 37.9557 32.6231 126.2364 0.0000 0.0000 0.0000
# 4 0.0000 0.0000 0.0000 27.9043 0.0000 0.0000
# 5 0.0000 0.0000 0.0000 0.0000 30.3995 0.0000
# 6 0.0000 0.0000 0.0000 0.0000 0.0000 15.4488
#
#
#
# Elastic Compliance Matrix: (Units=1/GPa)
#
#
# Indices 1 2 3 4 5 6 
#
# 1 0.056349 -0.021846 -0.011297 0.000000 0.000000 0.000000
# 2 -0.021846 0.025874 -0.000118 0.000000 0.000000 0.000000
# 3 -0.011297 -0.000118 0.011349 0.000000 0.000000 0.000000
# 4 0.000000 0.000000 0.000000 0.035837 0.000000 0.000000
# 5 0.000000 0.000000 0.000000 0.000000 0.032895 0.000000
# 6 0.000000 0.000000 0.000000 0.000000 0.000000 0.064730
#
#
# Mechanical properties :
#
#
# Convention : Reuss Voigt Hill
#
# Bulk Modulus (GPa) = 36.96908 48.36075 42.66491
# Shear Modulus (GPa) = 16.52497 23.23427 19.87962
#
# Velocity S-wave (km/s) = 2.97308 3.52534 3.26092
# Velocity P-wave (km/s) = 5.61786 6.51451 6.08273
#
# Compressibility (1/GPa) = 0.02704963
#
# Stress axis : x y z
#
# Youngs Moduli (GPa) = 17.74644 38.64950 88.11496
#
# Poissons Ratio (x) = 0.84434 0.99543
# Poissons Ratio (y) = 0.38769 0.01040
# Poissons Ratio (z) = 0.20048 0.00456
#
# Static dielectric constant tensor:
#      x y z
#    x 1.636860 0.000000 0.000000 
#    y 0.000000 1.646440 0.000000 
#    z 0.000000 0.000000 1.677680 
# 
# From -- ./inp_files/17147.got.cif
#   From: 2010.05.17/outbox.cif.g08.bks.cpg/sg53_9_cif.got.tgz:17147.got - 2010.06.03 12:45:16.
