data_PCOD9416356
_publ_section_title
;
Structure prediction by ZEFSAII (Michael W. Deem and Ramdas Pophale) SiO2 
 PCOD9416356
Probable space group: P M N A
;
_chemical_formula_sum "Si O2"
_cell_formula_units_Z 24
_cell_length_a 14.112030
_cell_length_b 5.099526
_cell_length_c 12.981523
_cell_angle_alpha 90.000000
_cell_angle_beta 90.000000
_cell_angle_gamma 90.000000
_cell_volume 934.210940
_symmetry_space_group_name_H-M "P M N A"
_symmetry_group_IT_number 53
_symmetry_cell_setting 'orthorhombic'
loop_
_space_group_symop_operation_xyz
x,y,z
1/2-x,-y,1/2+z
x,-y,-z
1/2-x,y,1/2-z
-x,-y,-z
1/2+x,y,1/2-z
-x,y,z
1/2+x,-y,1/2+z
loop_
_atom_site_type_symbol
_atom_site_label
_atom_site_fract_x
_atom_site_fract_y
_atom_site_fract_z
Si Si1 0.390904 0.543961 0.661959
Si Si2 0.392823 0.686408 0.900182
Si Si3 0.220012 0.051419 0.867006
O O1 0.500000 0.483014 0.640904
O O2 0.378998 0.545440 0.788113
O O3 0.362842 0.835315 0.627442
O O4 0.322526 0.333885 0.607276
O O5 0.500000 0.797380 0.896111
O O6 0.312574 0.904290 0.908099
O O7 0.387678 0.500000 0.000000
O O8 0.250000 0.082280 0.750000
#
# Coordination Sequence:
#
# PCOD9416356 Si02
#       3
#     8   8   8
#     4  10  20  36  59  84 113 153 198 240 286 349
#     4   9  19  37  62  94 127 156 194 252 316 365
#     4  10  19  35  56  83 116 153 195 235 286 354
#
# _framework density 25.690128000000001
#
# number of rings (size 3 to 8) (size 9 to 14) (size 15 to 20)
#    0.000    2.333    0.000    4.000    0.000    1.333 
#    0.000   16.667    0.000   52.000    0.000    0.000 
#    0.000    0.000    0.000    0.000    0.000    0.000 
#
# Total GULP energy -134290.624658 kJ/mol
# GULP energy per Si atom -5595.442694 kJ/mol
# Density = 2.563166 g / cm^3
# Si number density = 25.690128 Si / 1000 Ang^3
#
#
#
# Elastic Constant Matrix: (Units=GPa)
#
#
# Indices 1 2 3 4 5 6 
#
# 1 191.6786 63.4904 19.8736 0.0000 0.0000 0.0000
# 2 63.4904 140.5046 11.1584 0.0000 0.0000 0.0000
# 3 19.8736 11.1584 100.9772 0.0000 0.0000 0.0000
# 4 0.0000 0.0000 0.0000 27.9363 0.0000 0.0000
# 5 0.0000 0.0000 0.0000 0.0000 -113.8893 0.0000
# 6 0.0000 0.0000 0.0000 0.0000 0.0000 -462.5067
#
#
#
# Elastic Compliance Matrix: (Units=1/GPa)
#
#
# Indices 1 2 3 4 5 6 
#
# 1 0.006219 -0.002737 -0.000922 0.000000 0.000000 0.000000
# 2 -0.002737 0.008385 -0.000388 0.000000 0.000000 0.000000
# 3 -0.000922 -0.000388 0.010127 0.000000 0.000000 0.000000
# 4 0.000000 0.000000 0.000000 0.035796 0.000000 0.000000
# 5 0.000000 0.000000 0.000000 0.000000 -0.008780 0.000000
# 6 0.000000 0.000000 0.000000 0.000000 0.000000 -0.002162
#
#
# Mechanical properties :
#
#
# Convention : Reuss Voigt Hill
#
# Bulk Modulus (GPa) = 60.10175 69.13391 64.61783
# Shear Modulus (GPa) = 79.08397 -87.11608 -4.01606
#
# Velocity S-wave (km/s) = 5.55433 -5.82958 -1.25166
# Velocity P-wave (km/s) = 8.03616 4.28285 4.80817
#
# Compressibility (1/GPa) = 0.01663845
#
# Stress axis : x y z
#
# Youngs Moduli (GPa) = 160.79129 119.26283 98.74141
#
# Poissons Ratio (x) = 0.32644 0.09100
# Poissons Ratio (y) = 0.44011 0.03830
# Poissons Ratio (z) = 0.14818 0.04626
#
# Static dielectric constant tensor:
#      x y z
#    x 1.961650 0.000000 0.000000 
#    y 0.000000 1.984760 0.000000 
#    z 0.000000 0.000000 2.041080 
# 
# From -- ./inp_files/21982.got.cif
#   From: 2010.05.17/outbox.cif.g08.bks.cpg/sg53_11_cif.got.tgz:21982.got - 2010.06.03 12:45:16.
