data_PCOD9416022
_publ_section_title
;
Structure prediction by ZEFSAII (Michael W. Deem and Ramdas Pophale) SiO2 
 PCOD9416022
Probable space group: P M N A
;
_chemical_formula_sum "Si O2"
_cell_formula_units_Z 40
_cell_length_a 11.459007
_cell_length_b 6.690242
_cell_length_c 18.711730
_cell_angle_alpha 90.000000
_cell_angle_beta 90.000000
_cell_angle_gamma 90.000000
_cell_volume 1434.507273
_symmetry_space_group_name_H-M "P M N A"
_symmetry_group_IT_number 53
_symmetry_cell_setting 'orthorhombic'
loop_
_space_group_symop_operation_xyz
x,y,z
1/2-x,-y,1/2+z
x,-y,-z
1/2-x,y,1/2-z
-x,-y,-z
1/2+x,y,1/2-z
-x,y,z
1/2+x,-y,1/2+z
loop_
_atom_site_type_symbol
_atom_site_label
_atom_site_fract_x
_atom_site_fract_y
_atom_site_fract_z
Si Si1 0.374467 0.305254 0.950065
Si Si2 0.127779 0.210276 0.325197
Si Si3 0.375468 0.309503 0.553326
Si Si4 0.126462 0.645978 0.837123
Si Si5 0.371383 0.260113 0.788534
O O1 0.500000 0.201938 0.961460
O O2 0.248102 0.202380 0.957977
O O3 0.374984 0.363589 0.866244
O O4 0.373252 0.500000 0.000000
O O5 0.252152 0.254263 0.361881
O O6 0.126454 0.327365 0.248932
O O7 0.000000 0.240289 0.360355
O O8 0.132624 0.976964 0.304967
O O9 0.377494 0.500000 0.500000
O O10 0.500000 0.202604 0.547139
O O11 0.373222 0.425670 0.629026
O O12 0.000000 0.735585 0.859903
O O13 0.250000 0.303099 0.750000
O O14 0.500000 0.292164 0.755497
#
# Coordination Sequence:
#
# PCOD9416022 Si02
#       5
#     8   8   8   8   8
#     4   9  19  36  56  78 109 150 191 229 275 334
#     4   9  17  30  50  78 109 139 174 219 275 330
#     4   9  18  33  53  76 104 142 186 226 266 321
#     4   9  16  29  50  75 106 140 174 219 271 323
#     4  10  19  33  55  84 115 144 181 231 283 339
#
# _framework density 27.884139000000001
#
# number of rings (size 3 to 8) (size 9 to 14) (size 15 to 20)
#    0.000    2.800    2.000    0.000    0.000    1.600 
#    3.600    0.000    0.000    4.800    0.000   30.800 
#    0.000    0.000    0.000    0.000    0.000    0.000 
#
# Total GULP energy -223453.310273 kJ/mol
# GULP energy per Si atom -5586.332757 kJ/mol
# Density = 2.782067 g / cm^3
# Si number density = 27.884139 Si / 1000 Ang^3
#
#
#
# Elastic Constant Matrix: (Units=GPa)
#
#
# Indices 1 2 3 4 5 6 
#
# 1 438.8169 59.7898 39.5510 0.0000 0.0000 0.0000
# 2 59.7898 88.1498 38.4037 0.0000 0.0000 0.0000
# 3 39.5510 38.4037 141.2607 0.0000 0.0000 0.0000
# 4 0.0000 0.0000 0.0000 26.8130 0.0000 0.0000
# 5 0.0000 0.0000 0.0000 0.0000 23.7898 0.0000
# 6 0.0000 0.0000 0.0000 0.0000 0.0000 15.6790
#
#
#
# Elastic Compliance Matrix: (Units=1/GPa)
#
#
# Indices 1 2 3 4 5 6 
#
# 1 0.002520 -0.001590 -0.000273 0.000000 0.000000 0.000000
# 2 -0.001590 0.013872 -0.003326 0.000000 0.000000 0.000000
# 3 -0.000273 -0.003326 0.008060 0.000000 0.000000 0.000000
# 4 0.000000 0.000000 0.000000 0.037295 0.000000 0.000000
# 5 0.000000 0.000000 0.000000 0.000000 0.042035 0.000000
# 6 0.000000 0.000000 0.000000 0.000000 0.000000 0.063779
#
#
# Mechanical properties :
#
#
# Convention : Reuss Voigt Hill
#
# Bulk Modulus (GPa) = 71.05899 104.85739 87.95819
# Shear Modulus (GPa) = 27.37746 48.62188 37.99967
#
# Velocity S-wave (km/s) = 3.13681 4.18031 3.69558
# Velocity P-wave (km/s) = 6.21759 7.80937 7.05850
#
# Compressibility (1/GPa) = 0.01407281
#
# Stress axis : x y z
#
# Youngs Moduli (GPa) = 396.79884 72.08744 124.07179
#
# Poissons Ratio (x) = 0.11464 0.03390
# Poissons Ratio (y) = 0.63104 0.41267
# Poissons Ratio (z) = 0.10843 0.23977
#
# Static dielectric constant tensor:
#      x y z
#    x 2.192230 0.000000 0.000000 
#    y 0.000000 2.156370 0.000000 
#    z 0.000000 0.000000 2.269420 
# 
# From -- ./inp_files/31761.got.cif
#   From: 2010.05.17/outbox.cif.g08.bks.cpg/sg53_16_cif.got.tgz:31761.got - 2010.06.03 12:45:16.
