data_PCOD9416308
_publ_section_title
;
Structure prediction by ZEFSAII (Michael W. Deem and Ramdas Pophale) SiO2 
 PCOD9416308
Probable space group: P M N A
;
_chemical_formula_sum "Si O2"
_cell_formula_units_Z 28
_cell_length_a 15.915017
_cell_length_b 7.457091
_cell_length_c 10.120655
_cell_angle_alpha 90.000000
_cell_angle_beta 90.000000
_cell_angle_gamma 90.000000
_cell_volume 1201.116603
_symmetry_space_group_name_H-M "P M N A"
_symmetry_group_IT_number 53
_symmetry_cell_setting 'orthorhombic'
loop_
_space_group_symop_operation_xyz
x,y,z
1/2-x,-y,1/2+z
x,-y,-z
1/2-x,y,1/2-z
-x,-y,-z
1/2+x,y,1/2-z
-x,y,z
1/2+x,-y,1/2+z
loop_
_atom_site_type_symbol
_atom_site_label
_atom_site_fract_x
_atom_site_fract_y
_atom_site_fract_z
Si Si1 0.207307 0.500000 0.500000
Si Si2 0.404520 0.248290 0.855919
Si Si3 0.400728 0.964023 0.648519
Si Si4 0.871666 0.551046 0.854917
O O1 0.151583 0.675312 0.474072
O O2 0.272382 0.527499 0.618677
O O3 0.500000 0.208622 0.898791
O O4 0.404412 0.415380 0.753935
O O5 0.367443 0.086359 0.768107
O O6 0.500000 0.012296 0.642712
O O7 0.391621 0.755144 0.676366
O O8 0.366007 0.000000 0.500000
O O9 0.907407 0.500000 0.000000
#
# Coordination Sequence:
#
# PCOD9416308 Si02
#       4
#     4   8   8   8
#     4  10  23  42  59  88 134 180 212 264 341 404
#     4  11  22  40  65  91 128 170 219 272 329 397
#     4  10  19  34  60  94 120 153 207 268 325 380
#     4  10  21  37  63  88 128 161 214 274 327 390
#
# _framework density 23.311641999999999
#
# number of rings (size 3 to 8) (size 9 to 14) (size 15 to 20)
#    0.857    0.857    2.857    2.143    0.000    1.143 
#    0.000   15.714    0.000    5.143    0.000    0.000 
#    0.000    0.000    0.000    0.000    0.000    0.000 
#
# Total GULP energy -156411.155742 kJ/mol
# GULP energy per Si atom -5586.112705 kJ/mol
# Density = 2.325858 g / cm^3
# Si number density = 23.311642 Si / 1000 Ang^3
#
#
#
# Elastic Constant Matrix: (Units=GPa)
#
#
# Indices 1 2 3 4 5 6 
#
# 1 89.0435 -6.0836 21.3850 0.0000 0.0000 0.0000
# 2 -6.0836 138.0556 4.6226 0.0000 0.0000 0.0000
# 3 21.3850 4.6226 49.0418 0.0000 0.0000 0.0000
# 4 0.0000 0.0000 0.0000 49.4204 0.0000 0.0000
# 5 0.0000 0.0000 0.0000 0.0000 -10.8516 0.0000
# 6 0.0000 0.0000 0.0000 0.0000 0.0000 33.7604
#
#
#
# Elastic Compliance Matrix: (Units=1/GPa)
#
#
# Indices 1 2 3 4 5 6 
#
# 1 0.012620 0.000743 -0.005573 0.000000 0.000000 0.000000
# 2 0.000743 0.007310 -0.001013 0.000000 0.000000 0.000000
# 3 -0.005573 -0.001013 0.022916 0.000000 0.000000 0.000000
# 4 0.000000 0.000000 0.000000 0.020235 0.000000 0.000000
# 5 0.000000 0.000000 0.000000 0.000000 -0.092152 0.000000
# 6 0.000000 0.000000 0.000000 0.000000 0.000000 0.029620
#
#
# Mechanical properties :
#
#
# Convention : Reuss Voigt Hill
#
# Bulk Modulus (GPa) = 32.09253 35.10990 33.60122
# Shear Modulus (GPa) = 221.02779 31.54698 126.28738
#
# Velocity S-wave (km/s) = 9.74783 3.68267 7.36825
# Velocity P-wave (km/s) = 11.85286 5.75991 9.31844
#
# Compressibility (1/GPa) = 0.03115990
#
# Stress axis : x y z
#
# Youngs Moduli (GPa) = 79.24176 136.79703 43.63694
#
# Poissons Ratio (x) = -0.10160 0.24318
# Poissons Ratio (y) = -0.05885 0.04420
# Poissons Ratio (z) = 0.44161 0.13856
#
# Static dielectric constant tensor:
#      x y z
#    x 1.912700 0.000000 0.000000 
#    y 0.000000 1.813000 0.000000 
#    z 0.000000 0.000000 1.328680 
# 
# From -- ./inp_files/17299.got.cif
#   From: 2010.05.17/outbox.cif.g08.bks.cpg/sg53_9_cif.got.tgz:17299.got - 2010.06.03 12:45:16.
