data_PCOD9416015
_publ_section_title
;
Structure prediction by ZEFSAII (Michael W. Deem and Ramdas Pophale) SiO2 
 PCOD9416015
Probable space group: P M N A
;
_chemical_formula_sum "Si O2"
_cell_formula_units_Z 64
_cell_length_a 8.737476
_cell_length_b 12.113017
_cell_length_c 31.001631
_cell_angle_alpha 90.000000
_cell_angle_beta 90.000000
_cell_angle_gamma 90.000000
_cell_volume 3281.125676
_symmetry_space_group_name_H-M "P M N A"
_symmetry_group_IT_number 53
_symmetry_cell_setting 'orthorhombic'
loop_
_space_group_symop_operation_xyz
x,y,z
1/2-x,-y,1/2+z
x,-y,-z
1/2-x,y,1/2-z
-x,-y,-z
1/2+x,y,1/2-z
-x,y,z
1/2+x,-y,1/2+z
loop_
_atom_site_type_symbol
_atom_site_label
_atom_site_fract_x
_atom_site_fract_y
_atom_site_fract_z
Si Si1 0.821709 0.916027 0.206929
Si Si2 0.315420 0.935506 0.936761
Si Si3 0.687283 0.575671 0.040677
Si Si4 0.185556 0.830604 0.470776
Si Si5 0.821677 0.124797 0.151685
Si Si6 0.318090 0.322960 0.795175
Si Si7 0.317456 0.319252 0.202725
Si Si8 0.186172 0.503429 0.365238
O O1 0.750000 0.968011 0.250000
O O2 0.807456 0.999534 0.167966
O O3 0.000000 0.892125 0.214752
O O4 0.734326 0.802401 0.199805
O O5 0.500000 0.935436 0.933031
O O6 0.245089 0.873698 0.896115
O O7 0.265193 0.064504 0.941349
O O8 0.276493 0.870758 0.980775
O O9 0.500000 0.577749 0.040453
O O10 0.737231 0.704914 0.038270
O O11 0.737502 0.519284 0.085645
O O12 0.734068 0.500000 0.000000
O O13 0.000000 0.828332 0.467845
O O14 0.731593 0.200205 0.185347
O O15 0.000000 0.155853 0.152558
O O16 0.250000 0.365652 0.750000
O O17 0.500000 0.329845 0.792071
O O18 0.268460 0.391403 0.836635
O O19 0.250000 0.342439 0.250000
O O20 0.500000 0.328346 0.206011
O O21 0.263785 0.400906 0.164268
O O22 0.000000 0.498565 0.366931
#
# Coordination Sequence:
#
# PCOD9416015 Si02
#       8
#     8   8   8   8   8   8   8   8
#     4  10  21  36  53  76 108 141 179 221 271 329
#     4   9  18  33  56  85 113 146 189 238 285 335
#     4   9  17  29  50  80 118 151 180 229 285 335
#     4   8  16  31  52  83 117 147 187 235 285 339
#     4  11  24  38  55  82 114 149 193 235 284 346
#     4  10  19  33  55  82 114 145 182 225 275 334
#     4  11  23  40  61  84 115 151 193 241 289 342
#     4   9  20  34  52  85 116 146 187 232 281 336
#
# _framework density 19.505500999999999
#
# number of rings (size 3 to 8) (size 9 to 14) (size 15 to 20)
#    0.000    2.375    0.000    3.750    3.500    3.000 
#    0.000    3.125    0.000    0.000    0.000    0.875 
#    0.000    0.000    0.000    0.000    0.000    0.000 
#
# Total GULP energy -356915.515787 kJ/mol
# GULP energy per Si atom -5576.804934 kJ/mol
# Density = 1.946111 g / cm^3
# Si number density = 19.505501 Si / 1000 Ang^3
#
#
#
# Elastic Constant Matrix: (Units=GPa)
#
#
# Indices 1 2 3 4 5 6 
#
# 1 28.7709 12.1215 27.3064 0.0000 0.0000 0.0000
# 2 12.1215 83.5469 53.0034 0.0000 0.0000 0.0000
# 3 27.3064 53.0034 138.8683 0.0000 0.0000 0.0000
# 4 0.0000 0.0000 0.0000 23.2356 0.0000 0.0000
# 5 0.0000 0.0000 0.0000 0.0000 20.2327 0.0000
# 6 0.0000 0.0000 0.0000 0.0000 0.0000 24.2158
#
#
#
# Elastic Compliance Matrix: (Units=1/GPa)
#
#
# Indices 1 2 3 4 5 6 
#
# 1 0.042816 -0.001149 -0.007981 0.000000 0.000000 0.000000
# 2 -0.001149 0.015824 -0.005814 0.000000 0.000000 0.000000
# 3 -0.007981 -0.005814 0.010989 0.000000 0.000000 0.000000
# 4 0.000000 0.000000 0.000000 0.043037 0.000000 0.000000
# 5 0.000000 0.000000 0.000000 0.000000 0.049425 0.000000
# 6 0.000000 0.000000 0.000000 0.000000 0.000000 0.041295
#
#
# Mechanical properties :
#
#
# Convention : Reuss Voigt Hill
#
# Bulk Modulus (GPa) = 25.16188 48.44986 36.80587
# Shear Modulus (GPa) = 20.28217 24.12047 22.20132
#
# Velocity S-wave (km/s) = 3.22812 3.52035 3.37739
# Velocity P-wave (km/s) = 5.17902 6.43559 5.84119
#
# Compressibility (1/GPa) = 0.03974266
#
# Stress axis : x y z
#
# Youngs Moduli (GPa) = 23.35586 63.19315 90.99674
#
# Poissons Ratio (x) = 0.07261 0.72620
# Poissons Ratio (y) = 0.02684 0.52905
# Poissons Ratio (z) = 0.18639 0.36740
#
# Static dielectric constant tensor:
#      x y z
#    x 1.666030 0.000000 0.000000 
#    y 0.000000 1.709600 0.000000 
#    z 0.000000 0.000000 1.691230 
# 
# From -- ./inp_files/38296.got.cif
#   From: 2010.05.17/outbox.cif.g08.bks.cpg/sg53_20_cif.got.tgz:38296.got - 2010.06.03 12:45:16.
