data_PCOD9416740
_publ_section_title
;
Structure prediction by ZEFSAII (Michael W. Deem and Ramdas Pophale) SiO2 
 PCOD9416740
Probable space group: P M N A
;
_chemical_formula_sum "Si O2"
_cell_formula_units_Z 40
_cell_length_a 15.218363
_cell_length_b 5.179855
_cell_length_c 27.180083
_cell_angle_alpha 90.000000
_cell_angle_beta 90.000000
_cell_angle_gamma 90.000000
_cell_volume 2142.576417
_symmetry_space_group_name_H-M "P M N A"
_symmetry_group_IT_number 53
_symmetry_cell_setting 'orthorhombic'
loop_
_space_group_symop_operation_xyz
x,y,z
1/2-x,-y,1/2+z
x,-y,-z
1/2-x,y,1/2-z
-x,-y,-z
1/2+x,y,1/2-z
-x,y,z
1/2+x,-y,1/2+z
loop_
_atom_site_type_symbol
_atom_site_label
_atom_site_fract_x
_atom_site_fract_y
_atom_site_fract_z
Si Si1 0.394620 0.448413 0.615949
Si Si2 0.106658 0.946496 0.944647
Si Si3 0.723118 0.683530 0.694022
Si Si4 0.903930 0.059541 0.768488
Si Si5 0.595533 0.558307 0.801789
O O1 0.500000 0.463969 0.620302
O O2 0.369922 0.178291 0.591813
O O3 0.350616 0.512398 0.667965
O O4 0.366031 0.676241 0.578849
O O5 0.000000 0.941996 0.946943
O O6 0.137900 0.000000 0.000000
O O7 0.750000 0.612812 0.750000
O O8 0.816311 0.625802 0.667809
O O9 0.679671 0.969402 0.698654
O O10 0.894877 0.298111 0.731105
O O11 0.000000 0.083851 0.794501
O O12 0.911133 0.804323 0.734498
O O13 0.500000 0.536953 0.827233
#
# Coordination Sequence:
#
# PCOD9416740 Si02
#       5
#     8   8   8   8   8
#     4  10  20  32  50  77 105 136 175 212 255 316
#     4   9  18  34  54  75 102 133 165 211 269 323
#     4  10  21  32  48  71 103 139 175 214 256 301
#     4   9  18  32  47  63  88 128 173 210 249 295
#     4   9  19  33  47  63  89 131 175 210 247 293
#
# _framework density 18.669111000000001
#
# number of rings (size 3 to 8) (size 9 to 14) (size 15 to 20)
#    0.000    2.600    0.000    1.200    0.000   16.800 
#    0.000   10.000    0.000    1.200    0.000    0.000 
#    0.000    4.800    0.000    0.000    0.000    0.000 
#
# Total GULP energy -222723.006986 kJ/mol
# GULP energy per Si atom -5568.075175 kJ/mol
# Density = 1.862662 g / cm^3
# Si number density = 18.669111 Si / 1000 Ang^3
#
#
#
# Elastic Constant Matrix: (Units=GPa)
#
#
# Indices 1 2 3 4 5 6 
#
# 1 114.5767 16.4034 -2.5036 0.0000 0.0000 0.0000
# 2 16.4034 100.3161 1.3530 0.0000 0.0000 0.0000
# 3 -2.5036 1.3530 58.3053 0.0000 0.0000 0.0000
# 4 0.0000 0.0000 0.0000 19.7120 0.0000 0.0000
# 5 0.0000 0.0000 0.0000 0.0000 24.9048 0.0000
# 6 0.0000 0.0000 0.0000 0.0000 0.0000 -2.6957
#
#
#
# Elastic Compliance Matrix: (Units=1/GPa)
#
#
# Indices 1 2 3 4 5 6 
#
# 1 0.008947 -0.001469 0.000418 0.000000 0.000000 0.000000
# 2 -0.001469 0.010213 -0.000300 0.000000 0.000000 0.000000
# 3 0.000418 -0.000300 0.017176 0.000000 0.000000 0.000000
# 4 0.000000 0.000000 0.000000 0.050731 0.000000 0.000000
# 5 0.000000 0.000000 0.000000 0.000000 0.040153 0.000000
# 6 0.000000 0.000000 0.000000 0.000000 0.000000 -0.370959
#
#
# Mechanical properties :
#
#
# Convention : Reuss Voigt Hill
#
# Bulk Modulus (GPa) = 29.73095 33.74486 31.73791
# Shear Modulus (GPa) = -21.75547 25.58057 1.91255
#
# Velocity S-wave (km/s) = -3.41738 3.70565 1.01325
# Velocity P-wave (km/s) = 0.62327 6.03520 4.29022
#
# Compressibility (1/GPa) = 0.03363498
#
# Stress axis : x y z
#
# Youngs Moduli (GPa) = 111.76713 97.91741 58.22072
#
# Poissons Ratio (x) = 0.14381 -0.02435
# Poissons Ratio (y) = 0.16415 0.01747
# Poissons Ratio (z) = -0.04675 0.02938
#
# Static dielectric constant tensor:
#      x y z
#    x 1.831030 0.000000 0.000000 
#    y 0.000000 1.698420 0.000000 
#    z 0.000000 0.000000 1.654520 
# 
# From -- ./inp_files/32671.got.cif
#   From: 2010.05.17/outbox.cif.g08.bks.cpg/sg53_17_cif.got.tgz:32671.got - 2010.06.03 12:45:16.
