data_PCOD9416443
_publ_section_title
;
Structure prediction by ZEFSAII (Michael W. Deem and Ramdas Pophale) SiO2 
 PCOD9416443
Probable space group: P M N A
;
_chemical_formula_sum "Si O2"
_cell_formula_units_Z 52
_cell_length_a 23.647528
_cell_length_b 15.257259
_cell_length_c 7.346289
_cell_angle_alpha 90.000000
_cell_angle_beta 90.000000
_cell_angle_gamma 90.000000
_cell_volume 2650.515061
_symmetry_space_group_name_H-M "P M N A"
_symmetry_group_IT_number 53
_symmetry_cell_setting 'orthorhombic'
loop_
_space_group_symop_operation_xyz
x,y,z
1/2-x,-y,1/2+z
x,-y,-z
1/2-x,y,1/2-z
-x,-y,-z
1/2+x,y,1/2-z
-x,y,z
1/2+x,-y,1/2+z
loop_
_atom_site_type_symbol
_atom_site_label
_atom_site_fract_x
_atom_site_fract_y
_atom_site_fract_z
Si Si1 0.683340 0.273626 0.284886
Si Si2 0.000000 0.170591 0.781463
Si Si3 0.000000 0.829409 0.781463
Si Si4 0.877995 0.096767 0.779621
Si Si5 0.500000 0.673417 1.000000
Si Si6 0.375793 0.602346 1.000000
Si Si7 0.183340 0.273626 0.784886
Si Si8 0.122005 0.096767 0.220379
O O1 0.750000 0.279457 0.250000
O O2 0.650932 0.347808 0.172818
O O3 0.672227 0.282048 0.500000
O O4 0.660299 0.178491 0.222171
O O5 0.942964 0.118700 0.732744
O O6 0.000000 0.261623 0.673828
O O7 0.000000 0.184111 1.000000
O O8 0.057036 0.881300 0.732744
O O9 0.000000 0.738377 0.673829
O O10 0.839701 0.178491 0.722171
O O11 0.861730 1.000000 0.714336
O O12 0.875281 0.094847 1.000000
O O13 0.442929 0.617905 0.000000
O O14 0.362258 0.500000 0.000000
O O15 0.349068 0.652192 0.172818
O O16 0.250000 0.279457 0.750000
#
# Coordination Sequence:
#
# PCOD9416443 Si02
#       8
#     8   4   4   8   4   8   8   8
#     4  11  23  43  67  93 131 169 213 264 318 379
#     4  10  19  35  61  88 129 169 211 259 311 372
#     4  10  19  35  61  88 129 169 211 259 311 372
#     4   9  18  34  60  92 128 172 211 253 311 373
#     4  12  23  42  69  94 124 166 211 266 335 382
#     4  12  27  46  68  96 126 163 215 274 332 388
#     4  11  23  43  67  93 131 169 213 264 318 379
#     4   9  18  34  60  92 128 172 211 253 311 373
#
# _framework density 19.618828000000001
#
# number of rings (size 3 to 8) (size 9 to 14) (size 15 to 20)
#    0.000    1.538    4.615    0.692    0.000    3.692 
#    0.000    3.846    0.000    2.769    0.000    0.000 
#    0.000    0.000    0.000    0.000    0.000    0.000 
#
# Total GULP energy -290646.677748 kJ/mol
# GULP energy per Si atom -5589.359187 kJ/mol
# Density = 1.957417 g / cm^3
# Si number density = 19.618828 Si / 1000 Ang^3
#
#
#
# Elastic Constant Matrix: (Units=GPa)
#
#
# Indices 1 2 3 4 5 6 
#
# 1 139.8260 73.1024 29.0546 0.0000 0.0000 0.0000
# 2 73.1024 190.9220 53.9452 0.0000 0.0000 0.0000
# 3 29.0546 53.9452 112.3826 0.0000 0.0000 0.0000
# 4 0.0000 0.0000 0.0000 26.3465 0.0000 0.0000
# 5 0.0000 0.0000 0.0000 0.0000 -15.2754 0.0000
# 6 0.0000 0.0000 0.0000 0.0000 0.0000 -1.3575
#
#
#
# Elastic Compliance Matrix: (Units=1/GPa)
#
#
# Indices 1 2 3 4 5 6 
#
# 1 0.009000 -0.003226 -0.000778 0.000000 0.000000 0.000000
# 2 -0.003226 0.007216 -0.002630 0.000000 0.000000 0.000000
# 3 -0.000778 -0.002630 0.010362 0.000000 0.000000 0.000000
# 4 0.000000 0.000000 0.000000 0.037956 0.000000 0.000000
# 5 0.000000 0.000000 0.000000 0.000000 -0.065465 0.000000
# 6 0.000000 0.000000 0.000000 0.000000 0.000000 -0.736670
#
#
# Mechanical properties :
#
#
# Convention : Reuss Voigt Hill
#
# Bulk Modulus (GPa) = 75.13376 83.92611 79.52994
# Shear Modulus (GPa) = -6.94545 21.07797 7.06626
#
# Velocity S-wave (km/s) = -1.88358 3.28132 1.89989
# Velocity P-wave (km/s) = 5.80081 7.56487 6.74080
#
# Compressibility (1/GPa) = 0.01330960
#
# Stress axis : x y z
#
# Youngs Moduli (GPa) = 111.10949 138.57999 96.50947
#
# Poissons Ratio (x) = 0.44708 0.07511
# Poissons Ratio (y) = 0.35846 0.25379
# Poissons Ratio (z) = 0.08647 0.36443
#
# Static dielectric constant tensor:
#      x y z
#    x 1.662250 0.000000 0.000000 
#    y 0.000000 1.657040 0.000000 
#    z 0.000000 0.000000 1.721500 
# 
# From -- ./inp_files/11020.got.cif
#   From: 2010.05.17/outbox.cif.g08.bks.cpg/sg53_6_cif.got.tgz:11020.got - 2010.06.03 12:45:16.
