data_PCOD9416390
_publ_section_title
;
Structure prediction by ZEFSAII (Michael W. Deem and Ramdas Pophale) SiO2 
 PCOD9416390
Probable space group: P M N A
;
_chemical_formula_sum "Si O2"
_cell_formula_units_Z 56
_cell_length_a 9.166547
_cell_length_b 21.696015
_cell_length_c 14.537287
_cell_angle_alpha 90.000000
_cell_angle_beta 90.000000
_cell_angle_gamma 90.000000
_cell_volume 2891.139894
_symmetry_space_group_name_H-M "P M N A"
_symmetry_group_IT_number 53
_symmetry_cell_setting 'orthorhombic'
loop_
_space_group_symop_operation_xyz
x,y,z
1/2-x,-y,1/2+z
x,-y,-z
1/2-x,y,1/2-z
-x,-y,-z
1/2+x,y,1/2-z
-x,y,z
1/2+x,-y,1/2+z
loop_
_atom_site_type_symbol
_atom_site_label
_atom_site_fract_x
_atom_site_fract_y
_atom_site_fract_z
Si Si1 0.835442 0.728489 0.837745
Si Si2 0.172316 0.072688 0.515600
Si Si3 0.324833 0.160193 0.652002
Si Si4 0.324017 0.714302 0.456573
Si Si5 0.174731 0.591733 0.454215
Si Si6 0.666307 0.877004 0.660778
Si Si7 0.175323 0.464318 0.349412
O O1 0.750000 0.704295 0.750000
O O2 0.841825 0.802928 0.830982
O O3 0.000000 0.704448 0.834864
O O4 0.770843 0.716719 0.937792
O O5 0.258543 0.100784 0.601386
O O6 0.240688 0.106183 0.427621
O O7 0.000000 0.085187 0.524485
O O8 0.192185 0.000000 0.500000
O O9 0.250000 0.166367 0.750000
O O10 0.500000 0.155597 0.657944
O O11 0.288481 0.221798 0.593557
O O12 0.500000 0.709776 0.456983
O O13 0.253072 0.652703 0.417431
O O14 0.205927 0.533232 0.388811
O O15 0.219236 0.576861 0.560878
O O16 0.000000 0.599735 0.455330
O O17 0.750000 0.901444 0.750000
O O18 0.500000 0.899848 0.653756
O O19 0.250000 0.453686 0.250000
O O20 0.000000 0.458076 0.338738
#
# Coordination Sequence:
#
# PCOD9416390 Si02
#       7
#     8   8   8   8   8   8   8
#     4   9  18  33  52  79 111 144 181 225 279 339
#     4  11  24  41  62  89 118 152 197 245 296 354
#     4  11  24  44  65  88 120 158 200 247 298 353
#     4  10  21  38  58  84 120 154 192 242 291 346
#     4   9  20  37  56  82 115 153 195 238 288 346
#     4  10  19  35  58  84 114 148 186 231 285 344
#     4   9  19  37  58  81 114 152 194 242 288 341
#
# _framework density 19.369522
#
# number of rings (size 3 to 8) (size 9 to 14) (size 15 to 20)
#    0.000    2.143    1.429    2.143    0.000    6.286 
#    0.000    7.143    0.000    0.000    0.000    0.000 
#    0.000    0.000    0.000    0.000    0.000    0.000 
#
# Total GULP energy -312474.218690 kJ/mol
# GULP energy per Si atom -5579.896762 kJ/mol
# Density = 1.932544 g / cm^3
# Si number density = 19.369522 Si / 1000 Ang^3
#
#
#
# Elastic Constant Matrix: (Units=GPa)
#
#
# Indices 1 2 3 4 5 6 
#
# 1 58.8143 49.2453 37.3065 0.0000 0.0000 0.0000
# 2 49.2453 76.3318 29.4550 0.0000 0.0000 0.0000
# 3 37.3065 29.4550 102.8597 0.0000 0.0000 0.0000
# 4 0.0000 0.0000 0.0000 -28.0601 0.0000 0.0000
# 5 0.0000 0.0000 0.0000 0.0000 16.5838 0.0000
# 6 0.0000 0.0000 0.0000 0.0000 0.0000 22.1632
#
#
#
# Elastic Compliance Matrix: (Units=1/GPa)
#
#
# Indices 1 2 3 4 5 6 
#
# 1 0.042768 -0.024290 -0.008556 0.000000 0.000000 0.000000
# 2 -0.024290 0.028524 0.000642 0.000000 0.000000 0.000000
# 3 -0.008556 0.000642 0.012641 0.000000 0.000000 0.000000
# 4 0.000000 0.000000 0.000000 -0.035638 0.000000 0.000000
# 5 0.000000 0.000000 0.000000 0.000000 0.060300 0.000000
# 6 0.000000 0.000000 0.000000 0.000000 0.000000 0.045120
#
#
# Mechanical properties :
#
#
# Convention : Reuss Voigt Hill
#
# Bulk Modulus (GPa) = 51.21743 52.22437 51.72090
# Shear Modulus (GPa) = 22.25872 10.27065 16.26468
#
# Velocity S-wave (km/s) = 3.39361 2.30521 2.90091
# Velocity P-wave (km/s) = 6.46955 5.84003 6.16284
#
# Compressibility (1/GPa) = 0.01952460
#
# Stress axis : x y z
#
# Youngs Moduli (GPa) = 23.38212 35.05861 79.10539
#
# Poissons Ratio (x) = 0.85157 0.67681
# Poissons Ratio (y) = 0.56795 -0.05076
# Poissons Ratio (z) = 0.20005 -0.02250
#
# Static dielectric constant tensor:
#      x y z
#    x 1.657380 0.000000 0.000000 
#    y 0.000000 1.678120 0.000000 
#    z 0.000000 0.000000 -0.271450 
# 
# From -- ./inp_files/20646.got.cif
#   From: 2010.05.17/outbox.cif.g08.bks.cpg/sg53_11_cif.got.tgz:20646.got - 2010.06.03 12:45:16.
