data_PCOD9416240
_publ_section_title
;
Structure prediction by ZEFSAII (Michael W. Deem and Ramdas Pophale) SiO2 
 PCOD9416240
Probable space group: P M N A
;
_chemical_formula_sum "Si O2"
_cell_formula_units_Z 48
_cell_length_a 8.636198
_cell_length_b 32.207840
_cell_length_c 9.216721
_cell_angle_alpha 90.000000
_cell_angle_beta 90.000000
_cell_angle_gamma 90.000000
_cell_volume 2563.661208
_symmetry_space_group_name_H-M "P M N A"
_symmetry_group_IT_number 53
_symmetry_cell_setting 'orthorhombic'
loop_
_space_group_symop_operation_xyz
x,y,z
1/2-x,-y,1/2+z
x,-y,-z
1/2-x,y,1/2-z
-x,-y,-z
1/2+x,y,1/2-z
-x,y,z
1/2+x,-y,1/2+z
loop_
_atom_site_type_symbol
_atom_site_label
_atom_site_fract_x
_atom_site_fract_y
_atom_site_fract_z
Si Si1 0.315118 0.120369 0.912356
Si Si2 0.685709 0.458841 0.911836
Si Si3 0.813847 0.710146 0.913511
Si Si4 0.314277 0.041883 0.412507
Si Si5 0.186784 0.198752 0.085125
Si Si6 0.186402 0.380632 0.085614
O O1 0.250000 0.117412 0.750000
O O2 0.500000 0.120312 0.908928
O O3 0.255530 0.081387 0.005295
O O4 0.254926 0.162210 0.988551
O O5 0.750000 0.461063 0.750000
O O6 0.500000 0.457468 0.908538
O O7 0.733654 0.500000 0.000000
O O8 0.747926 0.417972 0.991501
O O9 0.750000 0.710068 0.750000
O O10 0.767888 0.755226 0.974130
O O11 0.767230 0.665187 0.975168
O O12 0.000000 0.710149 0.908446
O O13 0.250000 0.039578 0.250000
O O14 0.500000 0.045804 0.408358
O O15 0.274722 0.000000 0.500000
O O16 0.250000 0.195146 0.250000
O O17 0.000000 0.195797 0.088697
O O18 0.250000 0.383888 0.250000
O O19 0.000000 0.382987 0.089719
#
# Coordination Sequence:
#
# PCOD9416240 Si02
#       6
#     8   8   8   8   8   8
#     4  12  25  41  60  84 116 153 194 239 288 339
#     4  11  24  40  58  81 109 143 183 227 277 332
#     4   8  16  30  52  81 112 146 184 228 275 328
#     4  11  24  42  65  92 121 154 192 234 282 336
#     4  10  19  35  58  85 116 150 191 235 281 332
#     4  10  19  34  57  85 115 147 185 228 277 331
#
# _framework density 18.723223000000001
#
# number of rings (size 3 to 8) (size 9 to 14) (size 15 to 20)
#    0.000    1.667    0.000    5.000    0.000    6.667 
#    0.000    0.833    0.000    0.000    0.000    0.000 
#    0.000    0.000    0.000    0.000    0.000    0.000 
#
# Total GULP energy -268051.465625 kJ/mol
# GULP energy per Si atom -5584.405534 kJ/mol
# Density = 1.868061 g / cm^3
# Si number density = 18.723223 Si / 1000 Ang^3
#
#
#
# Elastic Constant Matrix: (Units=GPa)
#
#
# Indices 1 2 3 4 5 6 
#
# 1 77.4484 77.2198 50.4242 0.0000 0.0000 0.0000
# 2 77.2198 235.7239 108.1698 0.0000 0.0000 0.0000
# 3 50.4242 108.1698 135.3608 0.0000 0.0000 0.0000
# 4 0.0000 0.0000 0.0000 50.8979 0.0000 0.0000
# 5 0.0000 0.0000 0.0000 0.0000 32.6144 0.0000
# 6 0.0000 0.0000 0.0000 0.0000 0.0000 25.8342
#
#
#
# Elastic Compliance Matrix: (Units=1/GPa)
#
#
# Indices 1 2 3 4 5 6 
#
# 1 0.020189 -0.004994 -0.003530 0.000000 0.000000 0.000000
# 2 -0.004994 0.007934 -0.004480 0.000000 0.000000 0.000000
# 3 -0.003530 -0.004480 0.012283 0.000000 0.000000 0.000000
# 4 0.000000 0.000000 0.000000 0.019647 0.000000 0.000000
# 5 0.000000 0.000000 0.000000 0.000000 0.030661 0.000000
# 6 0.000000 0.000000 0.000000 0.000000 0.000000 0.038708
#
#
# Mechanical properties :
#
#
# Convention : Reuss Voigt Hill
#
# Bulk Modulus (GPa) = 69.45350 102.24007 85.84678
# Shear Modulus (GPa) = 31.20520 36.05059 33.62790
#
# Velocity S-wave (km/s) = 4.08690 4.39275 4.24258
# Velocity P-wave (km/s) = 7.71010 8.96956 8.36357
#
# Compressibility (1/GPa) = 0.01439812
#
# Stress axis : x y z
#
# Youngs Moduli (GPa) = 49.53133 126.04185 81.41540
#
# Poissons Ratio (x) = 0.62942 0.28741
# Poissons Ratio (y) = 0.24735 0.36473
# Poissons Ratio (z) = 0.17486 0.56465
#
# Static dielectric constant tensor:
#      x y z
#    x 1.626640 0.000000 0.000000 
#    y 0.000000 1.674840 0.000000 
#    z 0.000000 0.000000 1.597740 
# 
# From -- ./inp_files/6731.got.cif
#   From: 2010.05.17/outbox.cif.g08.bks.cpg/sg53_4_cif.got.tgz:6731.got - 2010.06.03 12:45:16.
