data_PCOD9416319
_publ_section_title
;
Structure prediction by ZEFSAII (Michael W. Deem and Ramdas Pophale) SiO2 
 PCOD9416319
Probable space group: P M N A
;
_chemical_formula_sum "Si O2"
_cell_formula_units_Z 64
_cell_length_a 7.655071
_cell_length_b 21.487644
_cell_length_c 19.366784
_cell_angle_alpha 90.000000
_cell_angle_beta 90.000000
_cell_angle_gamma 90.000000
_cell_volume 3185.631463
_symmetry_space_group_name_H-M "P M N A"
_symmetry_group_IT_number 53
_symmetry_cell_setting 'orthorhombic'
loop_
_space_group_symop_operation_xyz
x,y,z
1/2-x,-y,1/2+z
x,-y,-z
1/2-x,y,1/2-z
-x,-y,-z
1/2+x,y,1/2-z
-x,y,z
1/2+x,-y,1/2+z
loop_
_atom_site_type_symbol
_atom_site_label
_atom_site_fract_x
_atom_site_fract_y
_atom_site_fract_z
Si Si1 0.290173 0.044677 0.331875
Si Si2 0.789995 0.775503 0.168921
Si Si3 0.790002 0.088993 0.831974
Si Si4 0.288681 0.475561 0.575316
Si Si5 0.299056 0.295528 0.419324
Si Si6 0.285311 0.665863 0.430245
Si Si7 0.298952 0.589809 0.829898
Si Si8 0.710922 0.819215 0.668690
O O1 0.250000 0.044318 0.250000
O O2 0.500000 0.044528 0.340537
O O3 0.225216 0.112390 0.355461
O O4 0.224095 0.977861 0.359592
O O5 0.750000 0.768866 0.250000
O O6 0.724642 0.843533 0.143511
O O7 0.726693 0.717192 0.124746
O O8 0.000000 0.776689 0.162306
O O9 0.750000 0.088968 0.750000
O O10 0.000000 0.088734 0.840376
O O11 0.231445 0.500000 0.500000
O O12 0.500000 0.476171 0.575267
O O13 0.229897 0.404646 0.585534
O O14 0.229890 0.523898 0.633153
O O15 0.500000 0.278037 0.433758
O O16 0.223981 0.314191 0.493463
O O17 0.299846 0.356335 0.371228
O O18 0.220842 0.237630 0.377326
O O19 0.500000 0.664589 0.430452
O O20 0.250000 0.587078 0.750000
O O21 0.500000 0.607375 0.835509
O O22 0.750000 0.810536 0.750000
O O23 0.500000 0.819721 0.664282
#
# Coordination Sequence:
#
# PCOD9416319 Si02
#       8
#     8   8   8   8   8   8   8   8
#     4   8  13  22  36  60  89 121 157 198 243 288
#     4   9  17  30  48  72  98 127 162 204 250 298
#     4   8  13  22  39  61  90 122 156 197 243 291
#     4  10  19  37  61  79 101 135 171 208 253 307
#     4  10  19  35  54  73  99 136 173 206 248 302
#     4   9  18  33  55  76  98 131 168 200 245 306
#     4  12  25  39  57  82 109 135 169 212 255 302
#     4   9  17  27  44  67  95 126 163 206 248 292
#
# _framework density 20.090209000000002
#
# number of rings (size 3 to 8) (size 9 to 14) (size 15 to 20)
#    0.000    2.625    1.250    1.500    0.000    2.250 
#    0.000    2.500    0.000    0.750    0.000    5.250 
#    0.000    0.000    0.000   41.625    0.000   20.250 
#
# Total GULP energy -356692.023815 kJ/mol
# GULP energy per Si atom -5573.312872 kJ/mol
# Density = 2.004448 g / cm^3
# Si number density = 20.090209 Si / 1000 Ang^3
#
#
#
# Elastic Constant Matrix: (Units=GPa)
#
#
# Indices 1 2 3 4 5 6 
#
# 1 41.7860 -2.2782 -6.1278 0.0000 0.0000 0.0000
# 2 -2.2782 208.2956 66.9202 0.0000 0.0000 0.0000
# 3 -6.1278 66.9202 81.3182 0.0000 0.0000 0.0000
# 4 0.0000 0.0000 0.0000 -10.8996 0.0000 0.0000
# 5 0.0000 0.0000 0.0000 0.0000 8.6966 0.0000
# 6 0.0000 0.0000 0.0000 0.0000 0.0000 0.1666
#
#
#
# Elastic Compliance Matrix: (Units=1/GPa)
#
#
# Indices 1 2 3 4 5 6 
#
# 1 0.024228 -0.000437 0.002185 0.000000 0.000000 0.000000
# 2 -0.000437 0.006534 -0.005410 0.000000 0.000000 0.000000
# 3 0.002185 -0.005410 0.016914 0.000000 0.000000 0.000000
# 4 0.000000 0.000000 0.000000 -0.091747 0.000000 0.000000
# 5 0.000000 0.000000 0.000000 0.000000 0.114988 0.000000
# 6 0.000000 0.000000 0.000000 0.000000 0.000000 6.003202
#
#
# Mechanical properties :
#
#
# Convention : Reuss Voigt Hill
#
# Bulk Modulus (GPa) = 24.78137 49.82534 37.30335
# Shear Modulus (GPa) = 0.82036 17.78510 9.30273
#
# Velocity S-wave (km/s) = 0.63971 2.97856 2.15419
# Velocity P-wave (km/s) = 3.59269 6.05671 4.97952
#
# Compressibility (1/GPa) = 0.04035290
#
# Stress axis : x y z
#
# Youngs Moduli (GPa) = 41.27438 153.03930 59.12128
#
# Poissons Ratio (x) = 0.06690 -0.12921
# Poissons Ratio (y) = 0.01804 0.31986
# Poissons Ratio (z) = -0.09020 0.82798
#
# Static dielectric constant tensor:
#      x y z
#    x 1.741540 0.000000 0.000000 
#    y 0.000000 1.761250 0.000000 
#    z 0.000000 0.000000 1.671050 
# 
# From -- ./inp_files/31406.got.cif
#   From: 2010.05.17/outbox.cif.g08.bks.cpg/sg53_16_cif.got.tgz:31406.got - 2010.06.03 12:45:16.
