data_PCOD9416944
_publ_section_title
;
Structure prediction by ZEFSAII (Michael W. Deem and Ramdas Pophale) SiO2 
 PCOD9416944
Probable space group: P M N A
;
_chemical_formula_sum "Si O2"
_cell_formula_units_Z 32
_cell_length_a 18.429238
_cell_length_b 5.145073
_cell_length_c 16.884019
_cell_angle_alpha 90.000000
_cell_angle_beta 90.000000
_cell_angle_gamma 90.000000
_cell_volume 1600.938880
_symmetry_space_group_name_H-M "P M N A"
_symmetry_group_IT_number 53
_symmetry_cell_setting 'orthorhombic'
loop_
_space_group_symop_operation_xyz
x,y,z
1/2-x,-y,1/2+z
x,-y,-z
1/2-x,y,1/2-z
-x,-y,-z
1/2+x,y,1/2-z
-x,y,z
1/2+x,-y,1/2+z
loop_
_atom_site_type_symbol
_atom_site_label
_atom_site_fract_x
_atom_site_fract_y
_atom_site_fract_z
Si Si1 0.363511 0.802603 0.787473
Si Si2 0.325992 0.298135 0.701982
Si Si3 0.777373 0.081330 0.591176
Si Si4 0.422145 0.574810 0.091903
O O1 0.356836 0.578136 0.721866
O O2 0.292203 0.852004 0.844215
O O3 0.416649 0.679053 0.852681
O O4 0.374841 0.069651 0.739914
O O5 0.250000 0.291060 0.750000
O O6 0.296548 0.226400 0.615388
O O7 0.776709 0.000000 0.500000
O O8 0.849649 0.256776 0.603515
O O9 0.500000 0.706636 0.107915
O O10 0.421199 0.500000 0.000000
#
# Coordination Sequence:
#
# PCOD9416944 Si02
#       4
#     8   8   8   8
#     4  11  20  37  52  76 105 150 181 229 275 318
#     4  10  20  33  56  74 102 141 183 233 284 317
#     4  11  22  34  56  81 113 148 187 230 279 326
#     4  11  23  35  51  78 118 159 193 218 257 328
#
# _framework density 19.988271999999998
#
# number of rings (size 3 to 8) (size 9 to 14) (size 15 to 20)
#    0.000    1.250    7.500    2.250    0.000    1.500 
#    0.000    0.000    0.000    0.000    0.000    0.000 
#    0.000    6.000    0.000    0.000    0.000    0.000 
#
# Total GULP energy -178211.686764 kJ/mol
# GULP energy per Si atom -5569.115211 kJ/mol
# Density = 1.994278 g / cm^3
# Si number density = 19.988272 Si / 1000 Ang^3
#
#
#
# Elastic Constant Matrix: (Units=GPa)
#
#
# Indices 1 2 3 4 5 6 
#
# 1 43.8647 20.7807 34.6924 0.0000 0.0000 0.0000
# 2 20.7807 112.6766 38.1646 0.0000 0.0000 0.0000
# 3 34.6924 38.1646 74.3684 0.0000 0.0000 0.0000
# 4 0.0000 0.0000 0.0000 23.0889 0.0000 0.0000
# 5 0.0000 0.0000 0.0000 0.0000 -126.4759 0.0000
# 6 0.0000 0.0000 0.0000 0.0000 0.0000 18.9531
#
#
#
# Elastic Compliance Matrix: (Units=1/GPa)
#
#
# Indices 1 2 3 4 5 6 
#
# 1 0.036251 -0.001159 -0.016316 0.000000 0.000000 0.000000
# 2 -0.001159 0.010779 -0.004991 0.000000 0.000000 0.000000
# 3 -0.016316 -0.004991 0.023619 0.000000 0.000000 0.000000
# 4 0.000000 0.000000 0.000000 0.043311 0.000000 0.000000
# 5 0.000000 0.000000 0.000000 0.000000 -0.007907 0.000000
# 6 0.000000 0.000000 0.000000 0.000000 0.000000 0.052762
#
#
# Mechanical properties :
#
#
# Convention : Reuss Voigt Hill
#
# Bulk Modulus (GPa) = 38.88489 46.46502 42.67495
# Shear Modulus (GPa) = 23.54944 -7.73532 7.90706
#
# Velocity S-wave (km/s) = 3.43616 -1.96935 1.99109
# Velocity P-wave (km/s) = 5.93625 4.25740 5.16549
#
# Compressibility (1/GPa) = 0.02571693
#
# Stress axis : x y z
#
# Youngs Moduli (GPa) = 27.58572 92.77098 42.33878
#
# Poissons Ratio (x) = 0.10755 0.69079
# Poissons Ratio (y) = 0.03198 0.21131
# Poissons Ratio (z) = 0.45008 0.46301
#
# Static dielectric constant tensor:
#      x y z
#    x 1.746080 0.000000 0.000000 
#    y 0.000000 1.852340 0.000000 
#    z 0.000000 0.000000 1.760970 
# 
# From -- ./inp_files/28664.got.cif
#   From: 2010.05.17/outbox.cif.g08.bks.cpg/sg53_15_cif.got.tgz:28664.got - 2010.06.03 12:45:16.
