data_PCOD9416593
_publ_section_title
;
Structure prediction by ZEFSAII (Michael W. Deem and Ramdas Pophale) SiO2 
 PCOD9416593
Probable space group: P M N A
;
_chemical_formula_sum "Si O2"
_cell_formula_units_Z 64
_cell_length_a 15.936053
_cell_length_b 11.559994
_cell_length_c 18.777909
_cell_angle_alpha 90.000000
_cell_angle_beta 90.000000
_cell_angle_gamma 90.000000
_cell_volume 3459.279110
_symmetry_space_group_name_H-M "P M N A"
_symmetry_group_IT_number 53
_symmetry_cell_setting 'orthorhombic'
loop_
_space_group_symop_operation_xyz
x,y,z
1/2-x,-y,1/2+z
x,-y,-z
1/2-x,y,1/2-z
-x,-y,-z
1/2+x,y,1/2-z
-x,y,z
1/2+x,-y,1/2+z
loop_
_atom_site_type_symbol
_atom_site_label
_atom_site_fract_x
_atom_site_fract_y
_atom_site_fract_z
Si Si1 0.094880 0.543464 0.922783
Si Si2 0.898842 0.987118 0.149970
Si Si3 0.759422 0.440892 0.833916
Si Si4 0.404913 0.885002 0.791128
Si Si5 0.660500 0.208812 0.431121
Si Si6 0.794219 0.321741 0.326261
Si Si7 0.767532 0.804195 0.090120
Si Si8 0.405374 0.058607 0.922636
O O1 0.152163 0.496794 0.859077
O O2 0.098500 0.682143 0.924828
O O3 0.000000 0.501448 0.915491
O O4 0.127677 0.500000 0.000000
O O5 0.837893 0.879676 0.132060
O O6 0.000000 0.959440 0.151474
O O7 0.867671 0.044105 0.224653
O O8 0.880819 0.088745 0.092754
O O9 0.750000 0.416665 0.750000
O O10 0.695989 0.546784 0.853453
O O11 0.754610 0.321977 0.876353
O O12 0.500000 0.870931 0.768233
O O13 0.371646 0.758932 0.808932
O O14 0.399991 0.961767 0.861611
O O15 0.735783 0.246712 0.378482
O O16 0.697083 0.202202 0.510087
O O17 0.750000 0.335998 0.250000
O O18 0.675861 0.862517 0.088157
O O19 0.500000 0.111418 0.916973
O O20 0.399614 0.000000 0.000000
#
# Coordination Sequence:
#
# PCOD9416593 Si02
#       8
#     8   8   8   8   8   8   8   8
#     4  10  20  39  65  91 123 166 211 263 320 376
#     4  11  24  37  57  92 129 163 202 249 308 386
#     4  10  24  41  57  89 121 162 209 248 304 385
#     4  10  21  38  60  89 116 151 202 258 313 364
#     4  11  21  37  60  91 120 161 208 255 311 372
#     4  10  19  37  62  82 111 152 198 252 305 358
#     4  12  24  38  60  87 126 169 202 250 316 372
#     4  10  22  40  61  86 115 155 209 256 301 364
#
# _framework density 18.500964
#
# number of rings (size 3 to 8) (size 9 to 14) (size 15 to 20)
#    0.000    1.500    2.500    3.000    1.750    2.000 
#    0.000    1.250    0.000    0.000    0.000    5.250 
#    0.000    0.000    0.000    0.000    0.000    0.000 
#
# Total GULP energy -356806.836851 kJ/mol
# GULP energy per Si atom -5575.106826 kJ/mol
# Density = 1.845886 g / cm^3
# Si number density = 18.500964 Si / 1000 Ang^3
#
#
#
# Elastic Constant Matrix: (Units=GPa)
#
#
# Indices 1 2 3 4 5 6 
#
# 1 86.9118 59.9641 35.9960 0.0000 0.0000 0.0000
# 2 59.9641 110.8104 29.0501 0.0000 0.0000 0.0000
# 3 35.9960 29.0501 97.5905 0.0000 0.0000 0.0000
# 4 0.0000 0.0000 0.0000 48.3173 0.0000 0.0000
# 5 0.0000 0.0000 0.0000 0.0000 19.7980 0.0000
# 6 0.0000 0.0000 0.0000 0.0000 0.0000 14.3038
#
#
#
# Elastic Compliance Matrix: (Units=1/GPa)
#
#
# Indices 1 2 3 4 5 6 
#
# 1 0.020043 -0.009662 -0.004517 0.000000 0.000000 0.000000
# 2 -0.009662 0.014446 -0.000736 0.000000 0.000000 0.000000
# 3 -0.004517 -0.000736 0.012132 0.000000 0.000000 0.000000
# 4 0.000000 0.000000 0.000000 0.020697 0.000000 0.000000
# 5 0.000000 0.000000 0.000000 0.000000 0.050510 0.000000
# 6 0.000000 0.000000 0.000000 0.000000 0.000000 0.069912
#
#
# Mechanical properties :
#
#
# Convention : Reuss Voigt Hill
#
# Bulk Modulus (GPa) = 59.55613 60.59257 60.07435
# Shear Modulus (GPa) = 22.40489 27.83731 25.12110
#
# Velocity S-wave (km/s) = 3.48373 3.88318 3.68887
# Velocity P-wave (km/s) = 6.96007 7.27513 7.11935
#
# Compressibility (1/GPa) = 0.01679088
#
# Stress axis : x y z
#
# Youngs Moduli (GPa) = 49.89358 69.22378 82.42627
#
# Poissons Ratio (x) = 0.66883 0.37229
# Poissons Ratio (y) = 0.48206 0.06070
# Poissons Ratio (z) = 0.22535 0.05098
#
# Static dielectric constant tensor:
#      x y z
#    x 1.636100 0.000000 0.000000 
#    y 0.000000 1.658640 0.000000 
#    z 0.000000 0.000000 1.668650 
# 
# From -- ./inp_files/28581.got.cif
#   From: 2010.05.17/outbox.cif.g08.bks.cpg/sg53_15_cif.got.tgz:28581.got - 2010.06.03 12:45:16.
