data_PCOD9416928
_publ_section_title
;
Structure prediction by ZEFSAII (Michael W. Deem and Ramdas Pophale) SiO2 
 PCOD9416928
Probable space group: P M N A
;
_chemical_formula_sum "Si O2"
_cell_formula_units_Z 48
_cell_length_a 9.056485
_cell_length_b 16.825425
_cell_length_c 18.103551
_cell_angle_alpha 90.000000
_cell_angle_beta 90.000000
_cell_angle_gamma 90.000000
_cell_volume 2758.604784
_symmetry_space_group_name_H-M "P M N A"
_symmetry_group_IT_number 53
_symmetry_cell_setting 'orthorhombic'
loop_
_space_group_symop_operation_xyz
x,y,z
1/2-x,-y,1/2+z
x,-y,-z
1/2-x,y,1/2-z
-x,-y,-z
1/2+x,y,1/2-z
-x,y,z
1/2+x,-y,1/2+z
loop_
_atom_site_type_symbol
_atom_site_label
_atom_site_fract_x
_atom_site_fract_y
_atom_site_fract_z
Si Si1 0.176824 0.409629 0.981516
Si Si2 0.826159 0.820180 0.390978
Si Si3 0.673945 0.740239 0.948904
Si Si4 0.175855 0.332403 0.824831
Si Si5 0.823375 0.015029 0.914183
Si Si6 0.323502 0.851043 0.670150
O O1 0.209517 0.386311 0.896518
O O2 0.000000 0.400261 0.991798
O O3 0.216528 0.500000 0.000000
O O4 0.260286 0.345884 0.032052
O O5 0.806668 0.792088 0.476161
O O6 0.741449 0.754613 0.342897
O O7 0.759900 0.907790 0.384283
O O8 0.000000 0.818742 0.373817
O O9 0.500000 0.735638 0.933184
O O10 0.759073 0.783574 0.883337
O O11 0.250000 0.362559 0.750000
O O12 0.000000 0.327752 0.816515
O O13 0.000000 0.029260 0.911877
O O14 0.790034 0.936200 0.867636
O O15 0.783020 0.000000 0.000000
O O16 0.250000 0.846737 0.750000
O O17 0.500000 0.843664 0.675417
#
# Coordination Sequence:
#
# PCOD9416928 Si02
#       6
#     8   8   8   8   8   8
#     4   9  19  37  61  86 111 145 186 225 272 333
#     4  10  20  33  54  81 109 143 184 227 271 326
#     4  10  20  35  56  82 110 142 181 224 273 327
#     4  10  20  35  56  81 113 146 180 225 277 331
#     4  10  20  35  55  78 107 147 191 232 277 326
#     4  11  23  38  56  78 109 146 187 234 280 329
#
# _framework density 17.400102
#
# number of rings (size 3 to 8) (size 9 to 14) (size 15 to 20)
#    0.000    2.000    1.667    2.000    0.000    4.667 
#    0.000    2.500    0.000    2.000    0.000    0.000 
#    0.000    0.000    0.000    0.000    0.000    0.000 
#
# Total GULP energy -268062.671257 kJ/mol
# GULP energy per Si atom -5584.638985 kJ/mol
# Density = 1.736050 g / cm^3
# Si number density = 17.400102 Si / 1000 Ang^3
#
#
#
# Elastic Constant Matrix: (Units=GPa)
#
#
# Indices 1 2 3 4 5 6 
#
# 1 74.9089 73.7588 67.8056 0.0000 0.0000 0.0000
# 2 73.7588 148.7865 68.3235 0.0000 0.0000 0.0000
# 3 67.8056 68.3235 109.4109 0.0000 0.0000 0.0000
# 4 0.0000 0.0000 0.0000 14.4528 0.0000 0.0000
# 5 0.0000 0.0000 0.0000 0.0000 30.8752 0.0000
# 6 0.0000 0.0000 0.0000 0.0000 0.0000 22.3876
#
#
#
# Elastic Compliance Matrix: (Units=1/GPa)
#
#
# Indices 1 2 3 4 5 6 
#
# 1 0.042397 -0.012551 -0.018437 0.000000 0.000000 0.000000
# 2 -0.012551 0.013139 -0.000426 0.000000 0.000000 0.000000
# 3 -0.018437 -0.000426 0.020832 0.000000 0.000000 0.000000
# 4 0.000000 0.000000 0.000000 0.069191 0.000000 0.000000
# 5 0.000000 0.000000 0.000000 0.000000 0.032388 0.000000
# 6 0.000000 0.000000 0.000000 0.000000 0.000000 0.044667
#
#
# Mechanical properties :
#
#
# Convention : Reuss Voigt Hill
#
# Bulk Modulus (GPa) = 73.86223 83.65357 78.75790
# Shear Modulus (GPa) = 17.24401 21.75769 19.50085
#
# Velocity S-wave (km/s) = 3.15148 3.53999 3.35137
# Velocity P-wave (km/s) = 7.46886 8.05540 7.76767
#
# Compressibility (1/GPa) = 0.01353872
#
# Stress axis : x y z
#
# Youngs Moduli (GPa) = 23.58683 76.10947 48.00310
#
# Poissons Ratio (x) = 0.95527 0.88502
# Poissons Ratio (y) = 0.29604 0.02047
# Poissons Ratio (z) = 0.43486 0.03245
#
# Static dielectric constant tensor:
#      x y z
#    x 1.575080 0.000000 0.000000 
#    y 0.000000 1.557730 0.000000 
#    z 0.000000 0.000000 1.583700 
# 
# From -- ./inp_files/20183.got.cif
#   From: 2010.05.17/outbox.cif.g08.bks.cpg/sg53_11_cif.got.tgz:20183.got - 2010.06.03 12:45:16.
