data_PCOD9416297
_publ_section_title
;
Structure prediction by ZEFSAII (Michael W. Deem and Ramdas Pophale) SiO2 
 PCOD9416297
Probable space group: P M N A
;
_chemical_formula_sum "Si O2"
_cell_formula_units_Z 64
_cell_length_a 14.521327
_cell_length_b 12.500907
_cell_length_c 18.079089
_cell_angle_alpha 90.000000
_cell_angle_beta 90.000000
_cell_angle_gamma 90.000000
_cell_volume 3281.892657
_symmetry_space_group_name_H-M "P M N A"
_symmetry_group_IT_number 53
_symmetry_cell_setting 'orthorhombic'
loop_
_space_group_symop_operation_xyz
x,y,z
1/2-x,-y,1/2+z
x,-y,-z
1/2-x,y,1/2-z
-x,-y,-z
1/2+x,y,1/2-z
-x,y,z
1/2+x,-y,1/2+z
loop_
_atom_site_type_symbol
_atom_site_label
_atom_site_fract_x
_atom_site_fract_y
_atom_site_fract_z
Si Si1 0.389720 0.553468 0.297700
Si Si2 0.793445 0.473128 0.351495
Si Si3 0.105617 0.643116 0.433387
Si Si4 0.100651 0.144303 0.650242
Si Si5 0.604182 0.012275 0.589676
Si Si6 0.105224 0.727620 0.600085
Si Si7 0.343402 0.200276 0.698443
Si Si8 0.205712 0.048941 0.416511
O O1 0.500000 0.533557 0.302043
O O2 0.348763 0.531184 0.215798
O O3 0.316557 0.483337 0.344559
O O4 0.368692 0.677078 0.317853
O O5 0.829289 0.543507 0.419470
O O6 0.830376 0.352906 0.354515
O O7 0.137368 0.745408 0.385161
O O8 0.103695 0.679887 0.517458
O O9 0.000000 0.616331 0.411008
O O10 0.091228 0.157429 0.737154
O O11 0.000000 0.128401 0.614928
O O12 0.162618 0.044069 0.632595
O O13 0.500000 0.992991 0.616610
O O14 0.640614 0.124585 0.626556
O O15 0.599204 0.000000 0.500000
O O16 0.688560 0.933271 0.607889
O O17 0.146705 0.845151 0.592441
O O18 0.000000 0.728830 0.628067
O O19 0.250000 0.197638 0.750000
O O20 0.203437 0.000000 0.500000
#
# Coordination Sequence:
#
# PCOD9416297 Si02
#       8
#     8   8   8   8   8   8   8   8
#     4  11  22  38  63  91 126 168 214 272 330 389
#     4  11  22  37  58  89 125 161 209 262 326 387
#     4  10  19  34  59  90 124 159 199 259 331 400
#     4  11  20  32  57  92 125 153 198 267 335 391
#     4  10  23  41  61  89 130 178 225 271 326 395
#     4  11  23  38  59  88 125 170 209 255 323 402
#     4  12  20  38  63  96 127 163 213 280 340 389
#     4  11  22  37  60  86 125 169 218 264 319 389
#
# _framework density 19.500942999999999
#
# number of rings (size 3 to 8) (size 9 to 14) (size 15 to 20)
#    0.000    1.125    5.000    3.000    0.000    1.500 
#    0.000    3.125    0.000    1.500    0.000    0.000 
#    0.000    0.000    0.000    0.000    0.000    0.000 
#
# Total GULP energy -356539.517351 kJ/mol
# GULP energy per Si atom -5570.929959 kJ/mol
# Density = 1.945656 g / cm^3
# Si number density = 19.500943 Si / 1000 Ang^3
#
#
#
# Elastic Constant Matrix: (Units=GPa)
#
#
# Indices 1 2 3 4 5 6 
#
# 1 176.4934 59.5784 13.5146 0.0000 0.0000 0.0000
# 2 59.5784 95.6961 26.9127 0.0000 0.0000 0.0000
# 3 13.5146 26.9127 47.1079 0.0000 0.0000 0.0000
# 4 0.0000 0.0000 0.0000 32.1900 0.0000 0.0000
# 5 0.0000 0.0000 0.0000 0.0000 9.5950 0.0000
# 6 0.0000 0.0000 0.0000 0.0000 0.0000 32.5079
#
#
#
# Elastic Compliance Matrix: (Units=1/GPa)
#
#
# Indices 1 2 3 4 5 6 
#
# 1 0.007187 -0.004640 0.000589 0.000000 0.000000 0.000000
# 2 -0.004640 0.015446 -0.007493 0.000000 0.000000 0.000000
# 3 0.000589 -0.007493 0.025340 0.000000 0.000000 0.000000
# 4 0.000000 0.000000 0.000000 0.031066 0.000000 0.000000
# 5 0.000000 0.000000 0.000000 0.000000 0.104221 0.000000
# 6 0.000000 0.000000 0.000000 0.000000 0.000000 0.030762
#
#
# Mechanical properties :
#
#
# Convention : Reuss Voigt Hill
#
# Bulk Modulus (GPa) = 40.18592 57.70098 48.94345
# Shear Modulus (GPa) = 20.37452 29.47803 24.92628
#
# Velocity S-wave (km/s) = 3.23584 3.89217 3.57908
# Velocity P-wave (km/s) = 5.88326 7.06058 6.49864
#
# Compressibility (1/GPa) = 0.02488434
#
# Stress axis : x y z
#
# Youngs Moduli (GPa) = 139.13562 64.74190 39.46390
#
# Poissons Ratio (x) = 0.30042 -0.02325
# Poissons Ratio (y) = 0.64563 0.29570
# Poissons Ratio (z) = -0.08196 0.48511
#
# Static dielectric constant tensor:
#      x y z
#    x 1.819600 0.000000 0.000000 
#    y 0.000000 1.716420 0.000000 
#    z 0.000000 0.000000 1.724580 
# 
# From -- ./inp_files/28575.got.cif
#   From: 2010.05.17/outbox.cif.g08.bks.cpg/sg53_15_cif.got.tgz:28575.got - 2010.06.03 12:45:16.
