data_PCOD9416961
_publ_section_title
;
Structure prediction by ZEFSAII (Michael W. Deem and Ramdas Pophale) SiO2 
 PCOD9416961
Probable space group: P M N A
;
_chemical_formula_sum "Si O2"
_cell_formula_units_Z 52
_cell_length_a 9.582055
_cell_length_b 15.001774
_cell_length_c 19.833110
_cell_angle_alpha 90.000000
_cell_angle_beta 90.000000
_cell_angle_gamma 90.000000
_cell_volume 2850.966397
_symmetry_space_group_name_H-M "P M N A"
_symmetry_group_IT_number 53
_symmetry_cell_setting 'orthorhombic'
loop_
_space_group_symop_operation_xyz
x,y,z
1/2-x,-y,1/2+z
x,-y,-z
1/2-x,y,1/2-z
-x,-y,-z
1/2+x,y,1/2-z
-x,y,z
1/2+x,-y,1/2+z
loop_
_atom_site_type_symbol
_atom_site_label
_atom_site_fract_x
_atom_site_fract_y
_atom_site_fract_z
Si Si1 0.162960 0.709475 0.127010
Si Si2 0.665436 0.672332 0.680831
Si Si3 0.750000 0.834323 0.250000
Si Si4 0.168511 0.475862 0.820660
Si Si5 0.167118 0.867292 0.038036
Si Si6 0.164341 0.862309 0.878953
Si Si7 0.840977 0.977208 0.354883
O O1 0.179756 0.768780 0.195109
O O2 0.219517 0.610298 0.137971
O O3 0.214544 0.770522 0.065838
O O4 0.000000 0.697675 0.113996
O O5 0.750000 0.677652 0.750000
O O6 0.500000 0.674505 0.695486
O O7 0.693565 0.574515 0.649385
O O8 0.697163 0.759779 0.637795
O O9 0.838126 0.903143 0.295684
O O10 0.250000 0.472971 0.750000
O O11 0.000000 0.467369 0.809849
O O12 0.254276 0.935329 0.083097
O O13 0.000000 0.878658 0.051791
O O14 0.186681 0.875943 0.958744
O O15 0.000000 0.878279 0.864666
O O16 0.259312 0.931851 0.838511
O O17 0.000000 0.996112 0.373149
#
# Coordination Sequence:
#
# PCOD9416961 Si02
#       7
#     8   8   4   8   8   8   8
#     4   9  16  29  51  75 101 130 163 202 251 305
#     4   9  19  34  52  76 103 132 170 212 255 304
#     4  10  20  34  48  74 108 134 158 206 262 314
#     4   9  16  29  50  76 103 130 162 205 254 305
#     4   9  19  36  54  73 102 142 177 207 253 312
#     4  10  21  37  54  71 101 143 178 210 254 307
#     4  11  23  35  53  79 105 133 174 221 260 300
#
# _framework density 18.239429000000001
#
# number of rings (size 3 to 8) (size 9 to 14) (size 15 to 20)
#    0.000    2.462    0.769    1.385    1.077    4.923 
#    0.000    0.769    0.000    4.615    0.000    0.000 
#    0.000    8.923    0.000    0.000    0.000    0.000 
#
# Total GULP energy -289591.441148 kJ/mol
# GULP energy per Si atom -5569.066176 kJ/mol
# Density = 1.819791 g / cm^3
# Si number density = 18.239429 Si / 1000 Ang^3
#
#
#
# Elastic Constant Matrix: (Units=GPa)
#
#
# Indices 1 2 3 4 5 6 
#
# 1 41.3994 43.9211 19.5883 0.0000 0.0000 0.0000
# 2 43.9211 153.9408 25.3931 0.0000 0.0000 0.0000
# 3 19.5883 25.3931 35.9313 0.0000 0.0000 0.0000
# 4 0.0000 0.0000 0.0000 15.2246 0.0000 0.0000
# 5 0.0000 0.0000 0.0000 0.0000 11.5663 0.0000
# 6 0.0000 0.0000 0.0000 0.0000 0.0000 18.7050
#
#
#
# Elastic Compliance Matrix: (Units=1/GPa)
#
#
# Indices 1 2 3 4 5 6 
#
# 1 0.041548 -0.009189 -0.016156 0.000000 0.000000 0.000000
# 2 -0.009189 0.009386 -0.001623 0.000000 0.000000 0.000000
# 3 -0.016156 -0.001623 0.037786 0.000000 0.000000 0.000000
# 4 0.000000 0.000000 0.000000 0.065683 0.000000 0.000000
# 5 0.000000 0.000000 0.000000 0.000000 0.086458 0.000000
# 6 0.000000 0.000000 0.000000 0.000000 0.000000 0.053462
#
#
# Mechanical properties :
#
#
# Convention : Reuss Voigt Hill
#
# Bulk Modulus (GPa) = 28.75045 45.45294 37.10169
# Shear Modulus (GPa) = 13.89453 18.59046 16.24250
#
# Velocity S-wave (km/s) = 2.76304 3.19603 2.98739
# Velocity P-wave (km/s) = 5.09669 6.21238 5.68199
#
# Compressibility (1/GPa) = 0.03478207
#
# Stress axis : x y z
#
# Youngs Moduli (GPa) = 24.06842 106.54671 26.46495
#
# Poissons Ratio (x) = 0.97907 0.42757
# Poissons Ratio (y) = 0.22117 0.04296
# Poissons Ratio (z) = 0.38886 0.17296
#
# Static dielectric constant tensor:
#      x y z
#    x 1.609820 0.000000 0.000000 
#    y 0.000000 1.698140 0.000000 
#    z 0.000000 0.000000 1.607000 
# 
# From -- ./inp_files/30680.got.cif
#   From: 2010.05.17/outbox.cif.g08.bks.cpg/sg53_16_cif.got.tgz:30680.got - 2010.06.03 12:45:16.
