data_PCOD9416529
_publ_section_title
;
Structure prediction by ZEFSAII (Michael W. Deem and Ramdas Pophale) SiO2 
 PCOD9416529
Probable space group: P M N A
;
_chemical_formula_sum "Si O2"
_cell_formula_units_Z 64
_cell_length_a 18.643578
_cell_length_b 11.879683
_cell_length_c 14.695594
_cell_angle_alpha 90.000000
_cell_angle_beta 90.000000
_cell_angle_gamma 90.000000
_cell_volume 3254.777170
_symmetry_space_group_name_H-M "P M N A"
_symmetry_group_IT_number 53
_symmetry_cell_setting 'orthorhombic'
loop_
_space_group_symop_operation_xyz
x,y,z
1/2-x,-y,1/2+z
x,-y,-z
1/2-x,y,1/2-z
-x,-y,-z
1/2+x,y,1/2-z
-x,y,z
1/2+x,-y,1/2+z
loop_
_atom_site_type_symbol
_atom_site_label
_atom_site_fract_x
_atom_site_fract_y
_atom_site_fract_z
Si Si1 0.081663 0.622768 0.899544
Si Si2 0.419809 0.401224 0.722429
Si Si3 0.695910 0.716569 0.833173
Si Si4 0.722902 0.366877 0.503484
Si Si5 0.802357 0.224600 0.829813
Si Si6 0.918866 0.837844 0.765029
Si Si7 0.580268 0.461775 0.102215
Si Si8 0.917991 0.949975 0.101252
O O1 0.097028 0.512206 0.838432
O O2 0.086991 0.730544 0.833123
O O3 0.000000 0.616455 0.932631
O O4 0.138029 0.633132 0.980506
O O5 0.500000 0.365122 0.695806
O O6 0.360829 0.308187 0.711775
O O7 0.421388 0.436128 0.827685
O O8 0.750000 0.691670 0.750000
O O9 0.646953 0.822994 0.804942
O O10 0.637108 0.622032 0.854905
O O11 0.742832 0.709208 0.924025
O O12 0.743731 0.500000 0.500000
O O13 0.738338 0.304215 0.597386
O O14 0.750000 0.182459 0.750000
O O15 0.851292 0.131850 0.879713
O O16 0.000000 0.834640 0.725596
O O17 0.913113 0.948998 0.825826
O O18 0.500000 0.410905 0.102653
O O19 0.595867 0.500000 0.000000
O O20 0.000000 0.901859 0.108789
O O21 0.912510 0.000000 0.000000
#
# Coordination Sequence:
#
# PCOD9416529 Si02
#       8
#     8   8   8   8   8   8   8   8
#     4  10  19  36  61  94 125 156 207 269 323 378
#     4  10  20  37  62  90 129 171 209 262 322 385
#     4  12  23  35  60  93 126 164 203 265 317 374
#     4  12  25  38  57  94 132 176 217 252 319 391
#     4  12  28  43  61  92 137 177 206 255 326 395
#     4  10  20  39  68  93 118 157 209 265 321 371
#     4  10  21  37  58  86 123 172 223 260 299 365
#     4  10  23  47  76  97 121 161 218 278 323 382
#
# _framework density 19.663405000000001
#
# number of rings (size 3 to 8) (size 9 to 14) (size 15 to 20)
#    0.000    1.250    3.750    1.875    3.500    2.750 
#    0.000    0.000    0.000    0.000    0.000    1.750 
#    0.000    0.000    0.000    0.000    0.000    0.000 
#
# Total GULP energy -357299.406581 kJ/mol
# GULP energy per Si atom -5582.803228 kJ/mol
# Density = 1.961865 g / cm^3
# Si number density = 19.663405 Si / 1000 Ang^3
#
#
#
# Elastic Constant Matrix: (Units=GPa)
#
#
# Indices 1 2 3 4 5 6 
#
# 1 103.4616 22.8627 36.0347 0.0000 0.0000 0.0000
# 2 22.8627 56.8238 18.9742 0.0000 0.0000 0.0000
# 3 36.0347 18.9742 102.0627 0.0000 0.0000 0.0000
# 4 0.0000 0.0000 0.0000 22.4366 0.0000 0.0000
# 5 0.0000 0.0000 0.0000 0.0000 51.4116 0.0000
# 6 0.0000 0.0000 0.0000 0.0000 0.0000 26.9765
#
#
#
# Elastic Compliance Matrix: (Units=1/GPa)
#
#
# Indices 1 2 3 4 5 6 
#
# 1 0.011650 -0.003533 -0.003456 0.000000 0.000000 0.000000
# 2 -0.003533 0.019835 -0.002440 0.000000 0.000000 0.000000
# 3 -0.003456 -0.002440 0.011472 0.000000 0.000000 0.000000
# 4 0.000000 0.000000 0.000000 0.044570 0.000000 0.000000
# 5 0.000000 0.000000 0.000000 0.000000 0.019451 0.000000
# 6 0.000000 0.000000 0.000000 0.000000 0.000000 0.037069
#
#
# Mechanical properties :
#
#
# Convention : Reuss Voigt Hill
#
# Bulk Modulus (GPa) = 41.49824 46.45458 43.97641
# Shear Modulus (GPa) = 29.25040 32.46340 30.85690
#
# Velocity S-wave (km/s) = 3.86107 4.06760 3.96568
# Velocity P-wave (km/s) = 6.40525 6.76289 6.58650
#
# Compressibility (1/GPa) = 0.02409741
#
# Stress axis : x y z
#
# Youngs Moduli (GPa) = 85.83699 50.41707 87.17014
#
# Poissons Ratio (x) = 0.17813 0.30129
# Poissons Ratio (y) = 0.30328 0.21269
# Poissons Ratio (z) = 0.29668 0.12301
#
# Static dielectric constant tensor:
#      x y z
#    x 1.740610 0.000000 0.000000 
#    y 0.000000 1.688240 0.000000 
#    z 0.000000 0.000000 1.710900 
# 
# From -- ./inp_files/23906.got.cif
#   From: 2010.05.17/outbox.cif.g08.bks.cpg/sg53_12_cif.got.tgz:23906.got - 2010.06.03 12:45:16.
