data_PCOD9416543
_publ_section_title
;
Structure prediction by ZEFSAII (Michael W. Deem and Ramdas Pophale) SiO2 
 PCOD9416543
Probable space group: P M N A
;
_chemical_formula_sum "Si O2"
_cell_formula_units_Z 48
_cell_length_a 28.544279
_cell_length_b 10.124723
_cell_length_c 8.718715
_cell_angle_alpha 90.000000
_cell_angle_beta 90.000000
_cell_angle_gamma 90.000000
_cell_volume 2519.734077
_symmetry_space_group_name_H-M "P M N A"
_symmetry_group_IT_number 53
_symmetry_cell_setting 'orthorhombic'
loop_
_space_group_symop_operation_xyz
x,y,z
1/2-x,-y,1/2+z
x,-y,-z
1/2-x,y,1/2-z
-x,-y,-z
1/2+x,y,1/2-z
-x,y,z
1/2+x,-y,1/2+z
loop_
_atom_site_type_symbol
_atom_site_label
_atom_site_fract_x
_atom_site_fract_y
_atom_site_fract_z
Si Si1 0.705197 0.597499 0.359566
Si Si2 0.703474 0.906480 0.352672
Si Si3 0.886448 0.517759 0.321423
Si Si4 0.604882 0.993112 0.685554
Si Si5 0.553836 0.745187 0.305556
Si Si6 0.556119 0.278810 0.326684
O O1 0.715189 0.500000 0.500000
O O2 0.750000 0.600647 0.250000
O O3 0.694436 0.752304 0.398358
O O4 0.661277 0.533744 0.272331
O O5 0.750000 0.910755 0.250000
O O6 0.657245 0.963858 0.266601
O O7 0.710638 0.000000 0.500000
O O8 0.876928 0.500000 0.500000
O O9 0.914210 0.652349 0.294782
O O10 0.919211 0.403362 0.251235
O O11 0.567887 0.105094 0.728250
O O12 0.607249 0.000000 0.500000
O O13 0.584435 0.851049 0.727326
O O14 0.500000 0.719905 0.272955
O O15 0.561454 0.715817 0.487420
O O16 0.500000 0.271618 0.296509
#
# Coordination Sequence:
#
# PCOD9416543 Si02
#       6
#     8   8   8   8   8   8
#     4  11  24  44  68  95 127 160 205 252 305 367
#     4  10  22  41  64  95 125 158 198 250 308 366
#     4  12  25  40  58  88 126 169 206 253 306 360
#     4   9  18  36  61  92 119 155 199 257 312 361
#     4  10  19  36  63  89 119 158 207 258 309 364
#     4  10  21  38  63  92 121 160 210 257 309 370
#
# _framework density 19.049628999999999
#
# number of rings (size 3 to 8) (size 9 to 14) (size 15 to 20)
#    0.000    1.667    1.667    3.000    4.667    5.333 
#    6.000    0.833    0.000    2.000    0.000    0.000 
#    0.000    0.000    0.000    0.000    0.000    0.000 
#
# Total GULP energy -267961.004753 kJ/mol
# GULP energy per Si atom -5582.520932 kJ/mol
# Density = 1.900627 g / cm^3
# Si number density = 19.049629 Si / 1000 Ang^3
#
#
#
# Elastic Constant Matrix: (Units=GPa)
#
#
# Indices 1 2 3 4 5 6 
#
# 1 89.4393 26.2434 22.7502 0.0000 0.0000 0.0000
# 2 26.2434 97.5474 29.8759 0.0000 0.0000 0.0000
# 3 22.7502 29.8759 45.3340 0.0000 0.0000 0.0000
# 4 0.0000 0.0000 0.0000 -17.6958 0.0000 0.0000
# 5 0.0000 0.0000 0.0000 0.0000 -21.9658 0.0000
# 6 0.0000 0.0000 0.0000 0.0000 0.0000 38.0478
#
#
#
# Elastic Compliance Matrix: (Units=1/GPa)
#
#
# Indices 1 2 3 4 5 6 
#
# 1 0.013090 -0.001891 -0.005322 0.000000 0.000000 0.000000
# 2 -0.001891 0.013117 -0.007695 0.000000 0.000000 0.000000
# 3 -0.005322 -0.007695 0.029801 0.000000 0.000000 0.000000
# 4 0.000000 0.000000 0.000000 -0.056511 0.000000 0.000000
# 5 0.000000 0.000000 0.000000 0.000000 -0.045525 0.000000
# 6 0.000000 0.000000 0.000000 0.000000 0.000000 0.026283
#
#
# Mechanical properties :
#
#
# Convention : Reuss Voigt Hill
#
# Bulk Modulus (GPa) = 38.18332 43.33996 40.76164
# Shear Modulus (GPa) = 265.93289 9.90734 137.92011
#
# Velocity S-wave (km/s) = 11.82806 2.28300 8.51807
# Velocity P-wave (km/s) = 14.37446 5.45435 10.87141
#
# Compressibility (1/GPa) = 0.02618944
#
# Stress axis : x y z
#
# Youngs Moduli (GPa) = 76.39678 76.23640 33.55628
#
# Poissons Ratio (x) = 0.14420 0.17860
# Poissons Ratio (y) = 0.14450 0.25822
# Poissons Ratio (z) = 0.40661 0.58665
#
# Static dielectric constant tensor:
#      x y z
#    x 1.659650 0.000000 0.000000 
#    y 0.000000 1.652420 0.000000 
#    z 0.000000 0.000000 1.642470 
# 
# From -- ./inp_files/13004.got.cif
#   From: 2010.05.17/outbox.cif.g08.bks.cpg/sg53_7_cif.got.tgz:13004.got - 2010.06.03 12:45:16.
