data_PCOD9416611
_publ_section_title
;
Structure prediction by ZEFSAII (Michael W. Deem and Ramdas Pophale) SiO2 
 PCOD9416611
Probable space group: P M N A
;
_chemical_formula_sum "Si O2"
_cell_formula_units_Z 32
_cell_length_a 17.334399
_cell_length_b 11.234501
_cell_length_c 7.447727
_cell_angle_alpha 90.000000
_cell_angle_beta 90.000000
_cell_angle_gamma 90.000000
_cell_volume 1450.395104
_symmetry_space_group_name_H-M "P M N A"
_symmetry_group_IT_number 53
_symmetry_cell_setting 'orthorhombic'
loop_
_space_group_symop_operation_xyz
x,y,z
1/2-x,-y,1/2+z
x,-y,-z
1/2-x,y,1/2-z
-x,-y,-z
1/2+x,y,1/2-z
-x,y,z
1/2+x,-y,1/2+z
loop_
_atom_site_type_symbol
_atom_site_label
_atom_site_fract_x
_atom_site_fract_y
_atom_site_fract_z
Si Si1 0.803515 0.866610 0.022092
Si Si2 0.586969 0.256296 0.248483
Si Si3 0.145607 0.237283 0.643060
Si Si4 0.659564 0.496581 0.786943
O O1 0.856435 0.861144 0.201562
O O2 0.731889 0.778025 0.059106
O O3 0.852088 0.824840 0.852547
O O4 0.773319 0.000000 0.000000
O O5 0.500000 0.234255 0.307713
O O6 0.611339 0.393437 0.287451
O O7 0.593341 0.235313 0.033187
O O8 0.136576 0.361015 0.752367
O O9 0.750000 0.514224 0.750000
O O10 0.649181 0.500000 0.000000
#
# Coordination Sequence:
#
# PCOD9416611 Si02
#       4
#     8   8   8   8
#     4  11  24  42  69  96 124 167 230 267 309 370
#     4  11  25  41  63  98 137 171 203 256 329 396
#     4  10  23  41  68  96 124 164 216 276 317 366
#     4  10  19  37  65  92 126 159 213 265 322 375
#
# _framework density 22.062953
#
# number of rings (size 3 to 8) (size 9 to 14) (size 15 to 20)
#    0.000    1.500    2.500    3.750    7.000    6.000 
#    0.000    2.500    0.000    0.000    0.000    0.000 
#    0.000    0.000    0.000    0.000    0.000    0.000 
#
# Total GULP energy -178663.781381 kJ/mol
# GULP energy per Si atom -5583.243168 kJ/mol
# Density = 2.201274 g / cm^3
# Si number density = 22.062953 Si / 1000 Ang^3
#
#
#
# Elastic Constant Matrix: (Units=GPa)
#
#
# Indices 1 2 3 4 5 6 
#
# 1 47.2516 -1.9449 -0.6796 0.0000 0.0000 0.0000
# 2 -1.9449 67.2266 8.3635 0.0000 0.0000 0.0000
# 3 -0.6796 8.3635 68.2128 0.0000 0.0000 0.0000
# 4 0.0000 0.0000 0.0000 28.3928 0.0000 0.0000
# 5 0.0000 0.0000 0.0000 0.0000 16.9412 0.0000
# 6 0.0000 0.0000 0.0000 0.0000 0.0000 64.5331
#
#
#
# Elastic Compliance Matrix: (Units=1/GPa)
#
#
# Indices 1 2 3 4 5 6 
#
# 1 0.021190 0.000596 0.000138 0.000000 0.000000 0.000000
# 2 0.000596 0.015122 -0.001848 0.000000 0.000000 0.000000
# 3 0.000138 -0.001848 0.014888 0.000000 0.000000 0.000000
# 4 0.000000 0.000000 0.000000 0.035220 0.000000 0.000000
# 5 0.000000 0.000000 0.000000 0.000000 0.059028 0.000000
# 6 0.000000 0.000000 0.000000 0.000000 0.000000 0.015496
#
#
# Mechanical properties :
#
#
# Convention : Reuss Voigt Hill
#
# Bulk Modulus (GPa) = 20.42005 21.57433 20.99719
# Shear Modulus (GPa) = 27.85572 33.77022 30.81297
#
# Velocity S-wave (km/s) = 3.55710 3.91657 3.74116
# Velocity P-wave (km/s) = 5.11332 5.50022 5.31030
#
# Compressibility (1/GPa) = 0.04897148
#
# Stress axis : x y z
#
# Youngs Moduli (GPa) = 47.19251 66.12783 67.16829
#
# Poissons Ratio (x) = -0.03940 -0.00927
# Poissons Ratio (y) = -0.02812 0.12414
# Poissons Ratio (z) = -0.00652 0.12222
#
# Static dielectric constant tensor:
#      x y z
#    x 1.765650 0.000000 0.000000 
#    y 0.000000 1.874420 0.000000 
#    z 0.000000 0.000000 1.820060 
# 
# From -- ./inp_files/8030.got.cif
#   From: 2010.05.17/outbox.cif.g08.bks.cpg/sg53_5_cif.got.tgz:8030.got - 2010.06.03 12:45:16.
