data_PCOD9416481
_publ_section_title
;
Structure prediction by ZEFSAII (Michael W. Deem and Ramdas Pophale) SiO2 
 PCOD9416481
Probable space group: P M N A
;
_chemical_formula_sum "Si O2"
_cell_formula_units_Z 64
_cell_length_a 8.044781
_cell_length_b 24.565424
_cell_length_c 15.588042
_cell_angle_alpha 90.000000
_cell_angle_beta 90.000000
_cell_angle_gamma 90.000000
_cell_volume 3080.562736
_symmetry_space_group_name_H-M "P M N A"
_symmetry_group_IT_number 53
_symmetry_cell_setting 'orthorhombic'
loop_
_space_group_symop_operation_xyz
x,y,z
1/2-x,-y,1/2+z
x,-y,-z
1/2-x,y,1/2-z
-x,-y,-z
1/2+x,y,1/2-z
-x,y,z
1/2+x,-y,1/2+z
loop_
_atom_site_type_symbol
_atom_site_label
_atom_site_fract_x
_atom_site_fract_y
_atom_site_fract_z
Si Si1 0.302123 0.124985 0.881038
Si Si2 0.692653 0.702864 0.987946
Si Si3 0.309367 0.757263 0.342392
Si Si4 0.799029 0.785347 0.656012
Si Si5 0.301390 0.104927 0.079987
Si Si6 0.200090 0.004069 0.656072
Si Si7 0.802885 0.420189 0.004589
Si Si8 0.700683 0.496173 0.649159
O O1 0.500000 0.129655 0.861355
O O2 0.211814 0.177403 0.844433
O O3 0.236895 0.065718 0.853227
O O4 0.282275 0.124889 0.983356
O O5 0.500000 0.694672 0.967215
O O6 0.707804 0.732184 0.079488
O O7 0.763451 0.744075 0.916658
O O8 0.771464 0.643598 0.990508
O O9 0.250000 0.737427 0.250000
O O10 0.500000 0.742737 0.356017
O O11 0.750000 0.766791 0.750000
O O12 0.734411 0.846809 0.639409
O O13 0.000000 0.787751 0.648919
O O14 0.500000 0.100681 0.095912
O O15 0.237687 0.043615 0.093468
O O16 0.250000 0.984353 0.750000
O O17 0.000000 0.008881 0.645915
O O18 0.742482 0.451981 0.090498
O O19 0.000000 0.429510 0.003781
O O20 0.742194 0.446547 0.914116
O O21 0.750000 0.495156 0.750000
O O22 0.500000 0.495975 0.651301
#
# Coordination Sequence:
#
# PCOD9416481 Si02
#       8
#     8   8   8   8   8   8   8   8
#     4  10  19  36  58  80 109 143 188 240 293 357
#     4  11  23  41  62  88 121 159 201 250 297 347
#     4  12  25  41  62  86 114 153 197 244 300 360
#     4  10  21  37  58  82 114 152 195 243 295 351
#     4   9  17  34  56  78 106 145 188 234 290 354
#     4  10  20  32  52  78 106 143 184 232 291 355
#     4   9  20  39  60  87 124 165 201 243 293 347
#     4   9  19  37  62  90 125 164 203 243 291 342
#
# _framework density 20.775423
#
# number of rings (size 3 to 8) (size 9 to 14) (size 15 to 20)
#    0.000    2.000    1.250    3.375    0.000    6.000 
#    0.000    5.625    0.000    1.500    0.000    0.000 
#    0.000    0.000    0.000    0.000    0.000    0.000 
#
# Total GULP energy -357073.750830 kJ/mol
# GULP energy per Si atom -5579.277357 kJ/mol
# Density = 2.072814 g / cm^3
# Si number density = 20.775423 Si / 1000 Ang^3
#
#
#
# Elastic Constant Matrix: (Units=GPa)
#
#
# Indices 1 2 3 4 5 6 
#
# 1 18.2549 0.2408 -3.0709 0.0000 0.0000 0.0000
# 2 0.2408 106.7513 53.8098 0.0000 0.0000 0.0000
# 3 -3.0709 53.8098 116.1858 0.0000 0.0000 0.0000
# 4 0.0000 0.0000 0.0000 -0.9126 0.0000 0.0000
# 5 0.0000 0.0000 0.0000 0.0000 24.5066 0.0000
# 6 0.0000 0.0000 0.0000 0.0000 0.0000 22.4292
#
#
#
# Elastic Compliance Matrix: (Units=1/GPa)
#
#
# Indices 1 2 3 4 5 6 
#
# 1 0.055127 -0.001120 0.001976 0.000000 0.000000 0.000000
# 2 -0.001120 0.012243 -0.005700 0.000000 0.000000 0.000000
# 3 0.001976 -0.005700 0.011299 0.000000 0.000000 0.000000
# 4 0.000000 0.000000 0.000000 -1.095751 0.000000 0.000000
# 5 0.000000 0.000000 0.000000 0.000000 0.040805 0.000000
# 6 0.000000 0.000000 0.000000 0.000000 0.000000 0.044585
#
#
# Mechanical properties :
#
#
# Convention : Reuss Voigt Hill
#
# Bulk Modulus (GPa) = 14.49682 38.12793 26.31237
# Shear Modulus (GPa) = -5.56168 21.88545 8.16189
#
# Velocity S-wave (km/s) = -1.63794 3.24918 1.98423
# Velocity P-wave (km/s) = 1.84821 5.69811 4.23582
#
# Compressibility (1/GPa) = 0.06898065
#
# Stress axis : x y z
#
# Youngs Moduli (GPa) = 18.13989 81.67785 88.50377
#
# Poissons Ratio (x) = 0.09151 -0.17488
# Poissons Ratio (y) = 0.02032 0.50446
# Poissons Ratio (z) = -0.03584 0.46555
#
# Static dielectric constant tensor:
#      x y z
#    x 1.755230 0.000000 0.000000 
#    y 0.000000 1.755020 0.000000 
#    z 0.000000 0.000000 1.730930 
# 
# From -- ./inp_files/20974.got.cif
#   From: 2010.05.17/outbox.cif.g08.bks.cpg/sg53_11_cif.got.tgz:20974.got - 2010.06.03 12:45:16.
