data_PCOD9416692
_publ_section_title
;
Structure prediction by ZEFSAII (Michael W. Deem and Ramdas Pophale) SiO2 
 PCOD9416692
Probable space group: P M N A
;
_chemical_formula_sum "Si O2"
_cell_formula_units_Z 48
_cell_length_a 7.285284
_cell_length_b 10.477333
_cell_length_c 24.591266
_cell_angle_alpha 90.000000
_cell_angle_beta 90.000000
_cell_angle_gamma 90.000000
_cell_volume 1877.059854
_symmetry_space_group_name_H-M "P M N A"
_symmetry_group_IT_number 53
_symmetry_cell_setting 'orthorhombic'
loop_
_space_group_symop_operation_xyz
x,y,z
1/2-x,-y,1/2+z
x,-y,-z
1/2-x,y,1/2-z
-x,-y,-z
1/2+x,y,1/2-z
-x,y,z
1/2+x,-y,1/2+z
loop_
_atom_site_type_symbol
_atom_site_label
_atom_site_fract_x
_atom_site_fract_y
_atom_site_fract_z
Si Si1 0.777508 0.674806 0.540718
Si Si2 0.724559 0.239766 0.929697
Si Si3 0.223948 0.592656 0.657012
Si Si4 0.782649 0.129245 0.309674
Si Si5 0.281353 0.320070 0.810161
Si Si6 0.277570 0.959766 0.922291
O O1 0.718551 0.663458 0.477916
O O2 0.720180 0.593623 0.593287
O O3 0.725861 0.820618 0.556355
O O4 0.000000 0.664438 0.540271
O O5 0.500000 0.243338 0.929446
O O6 0.785309 0.263949 0.867864
O O7 0.780582 0.095253 0.945660
O O8 0.287081 0.725764 0.683315
O O9 0.285642 0.466807 0.687903
O O10 0.000000 0.592631 0.657810
O O11 0.750000 0.078925 0.250000
O O12 0.718848 0.043277 0.359189
O O13 0.000000 0.138005 0.317146
O O14 0.250000 0.263898 0.750000
O O15 0.500000 0.319732 0.815653
O O16 0.500000 0.960930 0.926864
#
# Coordination Sequence:
#
# PCOD9416692 Si02
#       6
#     8   8   8   8   8   8
#     4   8  13  23  41  64  88 110 134 173 222 258
#     4   9  16  25  40  63  88 113 140 172 211 255
#     4   8  15  27  42  62  86 110 138 176 219 254
#     4   9  16  26  41  60  83 111 143 178 211 246
#     4  10  20  32  45  63  89 118 146 174 206 249
#     4   8  14  24  38  59  87 114 138 169 214 261
#
# _framework density 25.571905999999998
#
# number of rings (size 3 to 8) (size 9 to 14) (size 15 to 20)
#    0.000    3.333    0.000    3.000    0.000    3.333 
#    0.000    3.333    0.000    0.000    0.000    7.000 
#    0.000    6.667    0.000    0.000    0.000    0.000 
#
# Total GULP energy -267854.337175 kJ/mol
# GULP energy per Si atom -5580.298691 kJ/mol
# Density = 2.551370 g / cm^3
# Si number density = 25.571906 Si / 1000 Ang^3
#
#
#
# Elastic Constant Matrix: (Units=GPa)
#
#
# Indices 1 2 3 4 5 6 
#
# 1 103.6181 -6.3264 -10.7753 0.0000 0.0000 0.0000
# 2 -6.3264 27.2125 9.3192 0.0000 0.0000 0.0000
# 3 -10.7753 9.3192 169.8388 0.0000 0.0000 0.0000
# 4 0.0000 0.0000 0.0000 28.0123 0.0000 0.0000
# 5 0.0000 0.0000 0.0000 0.0000 5.4211 0.0000
# 6 0.0000 0.0000 0.0000 0.0000 0.0000 -62.5977
#
#
#
# Elastic Compliance Matrix: (Units=1/GPa)
#
#
# Indices 1 2 3 4 5 6 
#
# 1 0.009833 0.002112 0.000508 0.000000 0.000000 0.000000
# 2 0.002112 0.037905 -0.001946 0.000000 0.000000 0.000000
# 3 0.000508 -0.001946 0.006027 0.000000 0.000000 0.000000
# 4 0.000000 0.000000 0.000000 0.035699 0.000000 0.000000
# 5 0.000000 0.000000 0.000000 0.000000 0.184465 0.000000
# 6 0.000000 0.000000 0.000000 0.000000 0.000000 -0.015975
#
#
# Mechanical properties :
#
#
# Convention : Reuss Voigt Hill
#
# Bulk Modulus (GPa) = 18.14467 31.67828 24.91148
# Shear Modulus (GPa) = 18.18341 14.73062 16.45701
#
# Velocity S-wave (km/s) = 2.66948 2.40270 2.53960
# Velocity P-wave (km/s) = 4.07584 4.48465 4.28512
#
# Compressibility (1/GPa) = 0.05511259
#
# Stress axis : x y z
#
# Youngs Moduli (GPa) = 101.70265 26.38164 165.92183
#
# Poissons Ratio (x) = -0.05572 -0.08428
# Poissons Ratio (y) = -0.21479 0.32287
# Poissons Ratio (z) = -0.05166 0.05134
#
# Static dielectric constant tensor:
#      x y z
#    x 2.044290 0.000000 0.000000 
#    y 0.000000 1.966970 0.000000 
#    z 0.000000 0.000000 2.065040 
# 
# From -- ./inp_files/27545.got.cif
#   From: 2010.05.17/outbox.cif.g08.bks.cpg/sg53_14_cif.got.tgz:27545.got - 2010.06.03 12:45:16.
