data_PCOD9416849
_publ_section_title
;
Structure prediction by ZEFSAII (Michael W. Deem and Ramdas Pophale) SiO2 
 PCOD9416849
Probable space group: P M N A
;
_chemical_formula_sum "Si O2"
_cell_formula_units_Z 48
_cell_length_a 8.319547
_cell_length_b 14.458622
_cell_length_c 22.331449
_cell_angle_alpha 90.000000
_cell_angle_beta 90.000000
_cell_angle_gamma 90.000000
_cell_volume 2686.231806
_symmetry_space_group_name_H-M "P M N A"
_symmetry_group_IT_number 53
_symmetry_cell_setting 'orthorhombic'
loop_
_space_group_symop_operation_xyz
x,y,z
1/2-x,-y,1/2+z
x,-y,-z
1/2-x,y,1/2-z
-x,-y,-z
1/2+x,y,1/2-z
-x,y,z
1/2+x,-y,1/2+z
loop_
_atom_site_type_symbol
_atom_site_label
_atom_site_fract_x
_atom_site_fract_y
_atom_site_fract_z
Si Si1 0.307069 0.467953 0.568304
Si Si2 0.809500 0.216405 0.185394
Si Si3 0.312835 0.727560 0.462133
Si Si4 0.183896 0.344455 0.415808
Si Si5 0.191858 0.933587 0.445412
Si Si6 0.694268 0.994615 0.814953
O O1 0.269537 0.500000 0.500000
O O2 0.500000 0.469165 0.574855
O O3 0.251934 0.361860 0.575656
O O4 0.230660 0.552015 0.604628
O O5 0.750000 0.248466 0.250000
O O6 0.712157 0.272474 0.136469
O O7 0.000000 0.229318 0.178104
O O8 0.766376 0.108312 0.181442
O O9 0.500000 0.741046 0.448043
O O10 0.294561 0.690916 0.529909
O O11 0.228447 0.825990 0.456902
O O12 0.000000 0.343814 0.436717
O O13 0.246491 0.957703 0.377520
O O14 0.000000 0.946666 0.445007
O O15 0.254299 0.000000 0.500000
O O16 0.750000 0.033962 0.750000
O O17 0.500000 0.990048 0.813688
#
# Coordination Sequence:
#
# PCOD9416849 Si02
#       6
#     8   8   8   8   8   8
#     4   8  16  31  48  70  99 129 162 200 246 300
#     4  11  21  34  52  74 101 132 168 209 253 303
#     4  10  20  33  51  75 103 134 168 210 257 304
#     4  11  20  31  50  75 103 134 167 204 251 306
#     4  10  21  35  52  76 106 137 172 219 267 309
#     4  10  20  35  54  76 104 139 176 213 256 310
#
# _framework density 17.868897
#
# number of rings (size 3 to 8) (size 9 to 14) (size 15 to 20)
#    0.000    2.000    0.000    7.000    0.000    6.667 
#    0.000    0.000    0.000    1.000    0.000    2.333 
#    0.000    0.000    0.000    0.000    0.000    0.000 
#
# Total GULP energy -267407.953365 kJ/mol
# GULP energy per Si atom -5570.999028 kJ/mol
# Density = 1.782823 g / cm^3
# Si number density = 17.868897 Si / 1000 Ang^3
#
#
#
# Elastic Constant Matrix: (Units=GPa)
#
#
# Indices 1 2 3 4 5 6 
#
# 1 32.1737 -2.5679 -4.5643 0.0000 0.0000 0.0000
# 2 -2.5679 95.7513 41.2902 0.0000 0.0000 0.0000
# 3 -4.5643 41.2902 75.2699 0.0000 0.0000 0.0000
# 4 0.0000 0.0000 0.0000 1.4863 0.0000 0.0000
# 5 0.0000 0.0000 0.0000 0.0000 22.1803 0.0000
# 6 0.0000 0.0000 0.0000 0.0000 0.0000 -0.6862
#
#
#
# Elastic Compliance Matrix: (Units=1/GPa)
#
#
# Indices 1 2 3 4 5 6 
#
# 1 0.031351 0.000027 0.001886 0.000000 0.000000 0.000000
# 2 0.000027 0.013680 -0.007502 0.000000 0.000000 0.000000
# 3 0.001886 -0.007502 0.017515 0.000000 0.000000 0.000000
# 4 0.000000 0.000000 0.000000 0.672833 0.000000 0.000000
# 5 0.000000 0.000000 0.000000 0.000000 0.045085 0.000000
# 6 0.000000 0.000000 0.000000 0.000000 0.000000 -1.457198
#
#
# Mechanical properties :
#
#
# Convention : Reuss Voigt Hill
#
# Bulk Modulus (GPa) = 19.46729 30.16789 24.81759
# Shear Modulus (GPa) = -7.71090 15.86521 4.07715
#
# Velocity S-wave (km/s) = -2.07958 2.98294 1.51217
# Velocity P-wave (km/s) = 2.26980 5.36502 4.11919
#
# Compressibility (1/GPa) = 0.05136821
#
# Stress axis : x y z
#
# Youngs Moduli (GPa) = 31.89690 73.10099 57.09241
#
# Poissons Ratio (x) = -0.00201 -0.10768
# Poissons Ratio (y) = -0.00088 0.42834
# Poissons Ratio (z) = -0.06016 0.54844
#
# Static dielectric constant tensor:
#      x y z
#    x 1.616840 0.000000 0.000000 
#    y 0.000000 1.639540 0.000000 
#    z 0.000000 0.000000 1.231680 
# 
# From -- ./inp_files/30506.got.cif
#   From: 2010.05.17/outbox.cif.g08.bks.cpg/sg53_16_cif.got.tgz:30506.got - 2010.06.03 12:45:16.
