data_PCOD9416888
_publ_section_title
;
Structure prediction by ZEFSAII (Michael W. Deem and Ramdas Pophale) SiO2 
 PCOD9416888
Probable space group: P M N A
;
_chemical_formula_sum "Si O2"
_cell_formula_units_Z 48
_cell_length_a 8.546112
_cell_length_b 15.441134
_cell_length_c 18.956572
_cell_angle_alpha 90.000000
_cell_angle_beta 90.000000
_cell_angle_gamma 90.000000
_cell_volume 2501.540720
_symmetry_space_group_name_H-M "P M N A"
_symmetry_group_IT_number 53
_symmetry_cell_setting 'orthorhombic'
loop_
_space_group_symop_operation_xyz
x,y,z
1/2-x,-y,1/2+z
x,-y,-z
1/2-x,y,1/2-z
-x,-y,-z
1/2+x,y,1/2-z
-x,y,z
1/2+x,-y,1/2+z
loop_
_atom_site_type_symbol
_atom_site_label
_atom_site_fract_x
_atom_site_fract_y
_atom_site_fract_z
Si Si1 0.689287 0.480227 0.673641
Si Si2 0.312959 0.981681 0.325899
Si Si3 0.310350 0.346081 0.555390
Si Si4 0.310722 0.658116 0.606359
Si Si5 0.814229 0.151441 0.393353
Si Si6 0.689379 0.148373 0.550974
O O1 0.750000 0.454380 0.750000
O O2 0.500000 0.478694 0.673582
O O3 0.745446 0.415133 0.612428
O O4 0.738359 0.578280 0.654932
O O5 0.250000 0.953557 0.250000
O O6 0.500000 0.979552 0.324708
O O7 0.259551 0.919292 0.389708
O O8 0.256780 0.078323 0.343359
O O9 0.500000 0.350453 0.555918
O O10 0.263066 0.363086 0.474550
O O11 0.267527 0.246782 0.571836
O O12 0.500000 0.664343 0.607393
O O13 0.243475 0.751888 0.624777
O O14 0.757790 0.132112 0.473429
O O15 0.000000 0.148153 0.390183
O O16 0.500000 0.144295 0.544743
#
# Coordination Sequence:
#
# PCOD9416888 Si02
#       6
#     8   8   8   8   8   8
#     4  10  20  33  52  78 108 141 174 213 263 318
#     4  11  23  38  56  80 111 146 181 219 267 321
#     4   8  15  32  57  80 100 132 179 219 254 306
#     4   9  18  35  57  77 101 138 183 224 261 309
#     4  11  22  36  57  83 109 139 179 227 273 318
#     4   9  19  37  60  82 107 142 181 220 265 320
#
# _framework density 19.188175000000001
#
# number of rings (size 3 to 8) (size 9 to 14) (size 15 to 20)
#    0.000    2.333    0.000    4.000    0.000    7.333 
#    0.000    5.000    0.000    5.000    0.000    0.000 
#    0.000    0.000    0.000    0.000    0.000    0.000 
#
# Total GULP energy -267989.926622 kJ/mol
# GULP energy per Si atom -5583.123471 kJ/mol
# Density = 1.914450 g / cm^3
# Si number density = 19.188175 Si / 1000 Ang^3
#
#
#
# Elastic Constant Matrix: (Units=GPa)
#
#
# Indices 1 2 3 4 5 6 
#
# 1 27.6673 7.9251 3.5548 0.0000 0.0000 0.0000
# 2 7.9251 39.1667 7.7668 0.0000 0.0000 0.0000
# 3 3.5548 7.7668 17.3603 0.0000 0.0000 0.0000
# 4 0.0000 0.0000 0.0000 2.4188 0.0000 0.0000
# 5 0.0000 0.0000 0.0000 0.0000 29.2737 0.0000
# 6 0.0000 0.0000 0.0000 0.0000 0.0000 12.4909
#
#
#
# Elastic Compliance Matrix: (Units=1/GPa)
#
#
# Indices 1 2 3 4 5 6 
#
# 1 0.038737 -0.006875 -0.004856 0.000000 0.000000 0.000000
# 2 -0.006875 0.029238 -0.011673 0.000000 0.000000 0.000000
# 3 -0.004856 -0.011673 0.063819 0.000000 0.000000 0.000000
# 4 0.000000 0.000000 0.000000 0.413428 0.000000 0.000000
# 5 0.000000 0.000000 0.000000 0.000000 0.034160 0.000000
# 6 0.000000 0.000000 0.000000 0.000000 0.000000 0.080058
#
#
# Mechanical properties :
#
#
# Convention : Reuss Voigt Hill
#
# Bulk Modulus (GPa) = 11.76667 13.63197 12.69932
# Shear Modulus (GPa) = 6.80663 13.16652 9.98658
#
# Velocity S-wave (km/s) = 1.88547 2.62234 2.28382
# Velocity P-wave (km/s) = 3.29933 4.03593 3.68607
#
# Compressibility (1/GPa) = 0.08498579
#
# Stress axis : x y z
#
# Youngs Moduli (GPa) = 25.81509 34.20235 15.66920
#
# Poissons Ratio (x) = 0.23515 0.07609
# Poissons Ratio (y) = 0.17748 0.18291
# Poissons Ratio (z) = 0.12536 0.39924
#
# Static dielectric constant tensor:
#      x y z
#    x 1.656230 0.000000 0.000000 
#    y 0.000000 1.666160 0.000000 
#    z 0.000000 0.000000 1.649870 
# 
# From -- ./inp_files/26215.got.cif
#   From: 2010.05.17/outbox.cif.g08.bks.cpg/sg53_14_cif.got.tgz:26215.got - 2010.06.03 12:45:16.
