data_PCOD9416428
_publ_section_title
;
Structure prediction by ZEFSAII (Michael W. Deem and Ramdas Pophale) SiO2 
 PCOD9416428
Probable space group: P M N A
;
_chemical_formula_sum "Si O2"
_cell_formula_units_Z 48
_cell_length_a 8.819662
_cell_length_b 10.175418
_cell_length_c 28.320063
_cell_angle_alpha 90.000000
_cell_angle_beta 90.000000
_cell_angle_gamma 90.000000
_cell_volume 2541.548582
_symmetry_space_group_name_H-M "P M N A"
_symmetry_group_IT_number 53
_symmetry_cell_setting 'orthorhombic'
loop_
_space_group_symop_operation_xyz
x,y,z
1/2-x,-y,1/2+z
x,-y,-z
1/2-x,y,1/2-z
-x,-y,-z
1/2+x,y,1/2-z
-x,y,z
1/2+x,-y,1/2+z
loop_
_atom_site_type_symbol
_atom_site_label
_atom_site_fract_x
_atom_site_fract_y
_atom_site_fract_z
Si Si1 0.318614 0.546832 0.895629
Si Si2 0.180523 0.293385 0.543070
Si Si3 0.321200 0.790240 0.555525
Si Si4 0.819284 0.893845 0.200633
Si Si5 0.179619 0.036106 0.604735
Si Si6 0.181630 0.398441 0.701229
O O1 0.500000 0.571023 0.898952
O O2 0.280862 0.432744 0.933502
O O3 0.229302 0.677736 0.907898
O O4 0.286547 0.488167 0.843990
O O5 0.269068 0.260299 0.495686
O O6 0.000000 0.294211 0.532645
O O7 0.208124 0.177907 0.580953
O O8 0.500000 0.811586 0.556507
O O9 0.236564 0.923950 0.569494
O O10 0.750000 0.943949 0.250000
O O11 0.754697 0.745555 0.194717
O O12 0.000000 0.890311 0.203633
O O13 0.764556 0.971748 0.154646
O O14 0.000000 0.024134 0.612417
O O15 0.250000 0.452235 0.750000
O O16 0.000000 0.382473 0.705053
#
# Coordination Sequence:
#
# PCOD9416428 Si02
#       6
#     8   8   8   8   8   8
#     4  10  21  40  62  85 116 157 202 240 289 354
#     4  10  21  40  64  86 112 154 204 245 290 352
#     4  12  26  39  55  87 124 156 195 244 301 355
#     4  11  21  35  59  90 122 153 191 241 292 345
#     4  11  22  41  64  87 116 156 201 244 292 349
#     4  10  19  35  59  89 118 151 195 241 289 345
#
# _framework density 18.886123000000001
#
# number of rings (size 3 to 8) (size 9 to 14) (size 15 to 20)
#    0.000    1.333    1.667    6.000    0.000    7.333 
#    0.000    0.833    0.000    2.000    0.000    0.000 
#    0.000    0.000    0.000    0.000    0.000    0.000 
#
# Total GULP energy -268383.711100 kJ/mol
# GULP energy per Si atom -5591.327315 kJ/mol
# Density = 1.884314 g / cm^3
# Si number density = 18.886123 Si / 1000 Ang^3
#
#
#
# Elastic Constant Matrix: (Units=GPa)
#
#
# Indices 1 2 3 4 5 6 
#
# 1 71.7310 10.4415 31.3793 0.0000 0.0000 0.0000
# 2 10.4415 27.7813 -23.9207 0.0000 0.0000 0.0000
# 3 31.3793 -23.9207 75.5679 0.0000 0.0000 0.0000
# 4 0.0000 0.0000 0.0000 1.8350 0.0000 0.0000
# 5 0.0000 0.0000 0.0000 0.0000 17.4759 0.0000
# 6 0.0000 0.0000 0.0000 0.0000 0.0000 24.8491
#
#
#
# Elastic Compliance Matrix: (Units=1/GPa)
#
#
# Indices 1 2 3 4 5 6 
#
# 1 0.026205 -0.026420 -0.019245 0.000000 0.000000 0.000000
# 2 -0.026420 0.076118 0.035065 0.000000 0.000000 0.000000
# 3 -0.019245 0.035065 0.032324 0.000000 0.000000 0.000000
# 4 0.000000 0.000000 0.000000 0.544945 0.000000 0.000000
# 5 0.000000 0.000000 0.000000 0.000000 0.057222 0.000000
# 6 0.000000 0.000000 0.000000 0.000000 0.000000 0.040243
#
#
# Mechanical properties :
#
#
# Convention : Reuss Voigt Hill
#
# Bulk Modulus (GPa) = 8.81450 23.43114 16.12282
# Shear Modulus (GPa) = 5.98035 19.31068 12.64552
#
# Velocity S-wave (km/s) = 1.78141 3.20109 2.59041
# Velocity P-wave (km/s) = 2.98472 5.10844 4.18358
#
# Compressibility (1/GPa) = 0.11344941
#
# Stress axis : x y z
#
# Youngs Moduli (GPa) = 38.16004 13.13755 30.93660
#
# Poissons Ratio (x) = 0.34709 0.59537
# Poissons Ratio (y) = 1.00817 -1.08480
# Poissons Ratio (z) = 0.73438 -0.46067
#
# Static dielectric constant tensor:
#      x y z
#    x 1.629010 0.000000 0.000000 
#    y 0.000000 1.628850 0.000000 
#    z 0.000000 0.000000 1.664760 
# 
# From -- ./inp_files/37710.got.cif
#   From: 2010.05.17/outbox.cif.g08.bks.cpg/sg53_19_cif.got.tgz:37710.got - 2010.06.03 12:45:16.
