data_PCOD9416883
_publ_section_title
;
Structure prediction by ZEFSAII (Michael W. Deem and Ramdas Pophale) SiO2 
 PCOD9416883
Probable space group: P M N A
;
_chemical_formula_sum "Si O2"
_cell_formula_units_Z 64
_cell_length_a 7.513584
_cell_length_b 20.113906
_cell_length_c 19.250710
_cell_angle_alpha 90.000000
_cell_angle_beta 90.000000
_cell_angle_gamma 90.000000
_cell_volume 2909.312105
_symmetry_space_group_name_H-M "P M N A"
_symmetry_group_IT_number 53
_symmetry_cell_setting 'orthorhombic'
loop_
_space_group_symop_operation_xyz
x,y,z
1/2-x,-y,1/2+z
x,-y,-z
1/2-x,y,1/2-z
-x,-y,-z
1/2+x,y,1/2-z
-x,y,z
1/2+x,-y,1/2+z
loop_
_atom_site_type_symbol
_atom_site_label
_atom_site_fract_x
_atom_site_fract_y
_atom_site_fract_z
Si Si1 0.781501 0.594096 0.585598
Si Si2 0.285387 0.647930 0.066183
Si Si3 0.213293 0.536143 0.331954
Si Si4 0.706393 0.069046 0.530853
Si Si5 0.287732 0.990738 0.168389
Si Si6 0.801715 0.728023 0.636072
Si Si7 0.789713 0.218714 0.991842
Si Si8 0.288183 0.132094 0.170775
O O1 0.726643 0.611414 0.506332
O O2 0.723057 0.525641 0.620498
O O3 0.721497 0.655107 0.635302
O O4 0.000000 0.595337 0.585154
O O5 0.500000 0.647169 0.065267
O O6 0.223288 0.603866 0.131154
O O7 0.229797 0.725435 0.067543
O O8 0.250000 0.530342 0.250000
O O9 0.000000 0.535241 0.338379
O O10 0.500000 0.069883 0.509971
O O11 0.716455 0.062294 0.614333
O O12 0.777924 0.142862 0.513710
O O13 0.786674 0.000000 0.500000
O O14 0.250000 0.979220 0.250000
O O15 0.500000 0.992816 0.162631
O O16 0.220465 0.063061 0.139210
O O17 0.811372 0.746133 0.554847
O O18 0.708610 0.794910 0.661679
O O19 0.000000 0.723995 0.667619
O O20 0.000000 0.215231 0.007798
O O21 0.250000 0.116816 0.250000
O O22 0.500000 0.137210 0.156124
#
# Coordination Sequence:
#
# PCOD9416883 Si02
#       8
#     8   8   8   8   8   8   8   8
#     4   8  15  30  53  76  98 131 173 209 242 291
#     4   9  18  35  57  75  97 135 177 211 246 298
#     4  10  20  34  53  78 106 135 169 211 258 302
#     4  10  21  36  54  78 108 138 168 210 265 316
#     4  10  20  34  52  73 100 135 175 216 257 307
#     4   9  17  31  50  72 101 135 169 204 245 300
#     4  10  20  33  52  78 103 127 162 211 260 304
#     4   9  18  30  45  68  97 132 171 207 246 296
#
# _framework density 21.998325999999999
#
# number of rings (size 3 to 8) (size 9 to 14) (size 15 to 20)
#    0.000    2.625    0.000    2.625    0.000    4.750 
#    0.000    3.125    0.000    5.250    0.000    0.000 
#    0.000    0.000    0.000    0.000    0.000    0.000 
#
# Total GULP energy -356360.555650 kJ/mol
# GULP energy per Si atom -5568.133682 kJ/mol
# Density = 2.194826 g / cm^3
# Si number density = 21.998326 Si / 1000 Ang^3
#
#
#
# Elastic Constant Matrix: (Units=GPa)
#
#
# Indices 1 2 3 4 5 6 
#
# 1 74.6329 4.6207 -1.0761 0.0000 0.0000 0.0000
# 2 4.6207 151.3990 37.8791 0.0000 0.0000 0.0000
# 3 -1.0761 37.8791 67.6192 0.0000 0.0000 0.0000
# 4 0.0000 0.0000 0.0000 34.6891 0.0000 0.0000
# 5 0.0000 0.0000 0.0000 0.0000 17.0334 0.0000
# 6 0.0000 0.0000 0.0000 0.0000 0.0000 7.2183
#
#
#
# Elastic Compliance Matrix: (Units=1/GPa)
#
#
# Indices 1 2 3 4 5 6 
#
# 1 0.013440 -0.000539 0.000516 0.000000 0.000000 0.000000
# 2 -0.000539 0.007703 -0.004324 0.000000 0.000000 0.000000
# 3 0.000516 -0.004324 0.017219 0.000000 0.000000 0.000000
# 4 0.000000 0.000000 0.000000 0.028827 0.000000 0.000000
# 5 0.000000 0.000000 0.000000 0.000000 0.058708 0.000000
# 6 0.000000 0.000000 0.000000 0.000000 0.000000 0.138537
#
#
# Mechanical properties :
#
#
# Convention : Reuss Voigt Hill
#
# Bulk Modulus (GPa) = 33.70659 41.83319 37.76989
# Shear Modulus (GPa) = 17.66669 28.60332 23.13501
#
# Velocity S-wave (km/s) = 2.83696 3.60981 3.24647
# Velocity P-wave (km/s) = 5.10752 6.03590 5.59101
#
# Compressibility (1/GPa) = 0.02966779
#
# Stress axis : x y z
#
# Youngs Moduli (GPa) = 74.40623 129.81408 58.07520
#
# Poissons Ratio (x) = 0.07000 -0.02996
# Poissons Ratio (y) = 0.04013 0.25111
# Poissons Ratio (z) = -0.03839 0.56130
#
# Static dielectric constant tensor:
#      x y z
#    x 1.867780 0.000000 0.000000 
#    y 0.000000 1.900360 0.000000 
#    z 0.000000 0.000000 1.857610 
# 
# From -- ./inp_files/31214.got.cif
#   From: 2010.05.17/outbox.cif.g08.bks.cpg/sg53_16_cif.got.tgz:31214.got - 2010.06.03 12:45:16.
