data_PCOD9416549
_publ_section_title
;
Structure prediction by ZEFSAII (Michael W. Deem and Ramdas Pophale) SiO2 
 PCOD9416549
Probable space group: P M N A
;
_chemical_formula_sum "Si O2"
_cell_formula_units_Z 54
_cell_length_a 15.024152
_cell_length_b 15.414223
_cell_length_c 11.279540
_cell_angle_alpha 90.000000
_cell_angle_beta 90.000000
_cell_angle_gamma 90.000000
_cell_volume 2612.179369
_symmetry_space_group_name_H-M "P M N A"
_symmetry_group_IT_number 53
_symmetry_cell_setting 'orthorhombic'
loop_
_space_group_symop_operation_xyz
x,y,z
1/2-x,-y,1/2+z
x,-y,-z
1/2-x,y,1/2-z
-x,-y,-z
1/2+x,y,1/2-z
-x,y,z
1/2+x,-y,1/2+z
loop_
_atom_site_type_symbol
_atom_site_label
_atom_site_fract_x
_atom_site_fract_y
_atom_site_fract_z
Si Si1 0.596483 0.752924 0.583868
Si Si2 0.250000 0.348013 0.750000
Si Si3 0.209215 0.731541 0.487731
Si Si4 0.605534 0.476924 0.639292
Si Si5 0.631093 0.939567 0.655289
Si Si6 0.897038 0.641624 0.688739
Si Si7 0.500000 0.000000 0.500000
Si Si8 0.335231 0.921269 0.918258
O O1 0.500000 0.716115 0.545563
O O2 0.684922 0.730880 0.513395
O O3 0.590957 0.856052 0.588896
O O4 0.612329 0.720460 0.718089
O O5 0.200228 0.292310 0.649306
O O6 0.176082 0.406344 0.816520
O O7 0.164610 0.661570 0.576644
O O8 0.169647 0.826210 0.522131
O O9 0.620101 0.500000 0.500000
O O10 0.500000 0.454212 0.650881
O O11 0.621300 0.558650 0.727958
O O12 0.577633 0.017671 0.600764
O O13 0.733815 0.942326 0.621391
O O14 0.615257 0.923380 0.793215
O O15 0.000000 0.636657 0.650024
O O16 0.366510 0.000000 0.000000
#
# Coordination Sequence:
#
# PCOD9416549 Si02
#       8
#     8   4   8   8   8   8   2   8
#     4  10  19  36  63  92 122 162 217 268 322 393
#     4  12  28  40  66 100 138 174 218 288 336 404
#     4  11  24  41  62  98 131 173 226 274 335 406
#     4  10  24  45  69  99 135 175 221 276 342 410
#     4  10  20  35  62  91 123 164 216 277 325 391
#     4  10  21  39  69  93 122 172 220 271 327 406
#     4  12  20  36  62 100 128 150 220 290 336 388
#     4  10  21  41  64  89 127 177 220 271 336 400
#
# _framework density 20.672393
#
# number of rings (size 3 to 8) (size 9 to 14) (size 15 to 20)
#    0.000    1.630    2.963    1.333    4.148    3.556 
#    0.000    1.852    0.000    0.000    0.000    0.000 
#    0.000    0.000    0.000    0.000    0.000    0.000 
#
# Total GULP energy -300808.626826 kJ/mol
# GULP energy per Si atom -5570.530126 kJ/mol
# Density = 2.062534 g / cm^3
# Si number density = 20.672393 Si / 1000 Ang^3
#
#
#
# Elastic Constant Matrix: (Units=GPa)
#
#
# Indices 1 2 3 4 5 6 
#
# 1 70.6601 23.1596 43.7297 0.0000 0.0000 0.0000
# 2 23.1596 77.0200 76.6307 0.0000 0.0000 0.0000
# 3 43.7297 76.6307 146.8254 0.0000 0.0000 0.0000
# 4 0.0000 0.0000 0.0000 30.9283 0.0000 0.0000
# 5 0.0000 0.0000 0.0000 0.0000 1.9142 0.0000
# 6 0.0000 0.0000 0.0000 0.0000 0.0000 65.5623
#
#
#
# Elastic Compliance Matrix: (Units=1/GPa)
#
#
# Indices 1 2 3 4 5 6 
#
# 1 0.017351 -0.000158 -0.005086 0.000000 0.000000 0.000000
# 2 -0.000158 0.027010 -0.014050 0.000000 0.000000 0.000000
# 3 -0.005086 -0.014050 0.015658 0.000000 0.000000 0.000000
# 4 0.000000 0.000000 0.000000 0.032333 0.000000 0.000000
# 5 0.000000 0.000000 0.000000 0.000000 0.522410 0.000000
# 6 0.000000 0.000000 0.000000 0.000000 0.000000 0.015253
#
#
# Mechanical properties :
#
#
# Convention : Reuss Voigt Hill
#
# Bulk Modulus (GPa) = 46.65637 64.61619 55.63628
# Shear Modulus (GPa) = 7.39922 29.74666 18.57294
#
# Velocity S-wave (km/s) = 1.89395 3.79747 3.00065
# Velocity P-wave (km/s) = 5.23461 7.11005 6.24315
#
# Compressibility (1/GPa) = 0.02143330
#
# Stress axis : x y z
#
# Youngs Moduli (GPa) = 57.63276 37.02308 63.86317
#
# Poissons Ratio (x) = 0.00584 0.32478
# Poissons Ratio (y) = 0.00908 0.89729
# Poissons Ratio (z) = 0.29309 0.52018
#
# Static dielectric constant tensor:
#      x y z
#    x 1.743810 0.000000 0.000000 
#    y 0.000000 1.912810 0.000000 
#    z 0.000000 0.000000 1.784340 
# 
# From -- ./inp_files/16117.got.cif
#   From: 2010.05.17/outbox.cif.g08.bks.cpg/sg53_9_cif.got.tgz:16117.got - 2010.06.03 12:45:16.
