data_PCOD9416062
_publ_section_title
;
Structure prediction by ZEFSAII (Michael W. Deem and Ramdas Pophale) SiO2 
 PCOD9416062
Probable space group: P M N A
;
_chemical_formula_sum "Si O2"
_cell_formula_units_Z 48
_cell_length_a 9.672458
_cell_length_b 30.918097
_cell_length_c 8.745597
_cell_angle_alpha 90.000000
_cell_angle_beta 90.000000
_cell_angle_gamma 90.000000
_cell_volume 2615.405719
_symmetry_space_group_name_H-M "P M N A"
_symmetry_group_IT_number 53
_symmetry_cell_setting 'orthorhombic'
loop_
_space_group_symop_operation_xyz
x,y,z
1/2-x,-y,1/2+z
x,-y,-z
1/2-x,y,1/2-z
-x,-y,-z
1/2+x,y,1/2-z
-x,y,z
1/2+x,-y,1/2+z
loop_
_atom_site_type_symbol
_atom_site_label
_atom_site_fract_x
_atom_site_fract_y
_atom_site_fract_z
Si Si1 0.252491 0.897391 0.064675
Si Si2 0.333561 0.804312 0.089847
Si Si3 0.161671 0.710653 0.404512
Si Si4 0.000000 0.951157 0.934389
Si Si5 0.337922 0.543626 0.598999
Si Si6 0.167673 0.385072 0.588063
Si Si7 0.500000 0.952324 0.931605
O O1 0.250000 0.897621 0.250000
O O2 0.273605 0.847555 0.013827
O O3 0.124452 0.922637 0.997244
O O4 0.374371 0.925732 0.998858
O O5 0.250000 0.801825 0.250000
O O6 0.500000 0.810444 0.112743
O O7 0.311770 0.756888 0.014886
O O8 0.250000 0.710169 0.250000
O O9 0.183636 0.663766 0.479234
O O10 0.000000 0.711693 0.361049
O O11 0.000000 0.953968 0.751340
O O12 0.000000 0.000000 0.000000
O O13 0.340296 0.500000 0.500000
O O14 0.250000 0.534128 0.750000
O O15 0.500000 0.555943 0.626596
O O16 0.249446 0.580494 0.513494
O O17 0.250000 0.385727 0.750000
O O18 0.000000 0.393398 0.603861
O O19 0.500000 0.000000 0.000000
#
# Coordination Sequence:
#
# PCOD9416062 Si02
#       7
#     8   8   8   4   8   8   4
#     4  11  22  38  61  88 116 148 188 236 285 340
#     4   9  17  30  53  84 117 149 187 235 281 328
#     4   8  15  28  48  80 115 149 186 232 282 326
#     4  12  26  42  60  84 114 152 188 234 287 348
#     4  11  24  40  59  83 113 151 195 244 297 355
#     4  10  19  33  56  85 119 154 193 241 290 342
#     4  12  24  42  62  84 114 146 188 232 287 346
#
# _framework density 18.352793999999999
#
# number of rings (size 3 to 8) (size 9 to 14) (size 15 to 20)
#    0.000    1.833    0.833    4.000    3.500    3.333 
#    0.000    0.000    0.000    2.000    0.000    0.000 
#    0.000    0.000    0.000    0.000    0.000    0.000 
#
# Total GULP energy -267220.380648 kJ/mol
# GULP energy per Si atom -5567.091264 kJ/mol
# Density = 1.831102 g / cm^3
# Si number density = 18.352794 Si / 1000 Ang^3
#
#
#
# Elastic Constant Matrix: (Units=GPa)
#
#
# Indices 1 2 3 4 5 6 
#
# 1 150.4190 77.6172 35.8010 0.0000 0.0000 0.0000
# 2 77.6172 173.7526 42.0850 0.0000 0.0000 0.0000
# 3 35.8010 42.0850 78.7745 0.0000 0.0000 0.0000
# 4 0.0000 0.0000 0.0000 23.9113 0.0000 0.0000
# 5 0.0000 0.0000 0.0000 0.0000 24.4582 0.0000
# 6 0.0000 0.0000 0.0000 0.0000 0.0000 30.9170
#
#
#
# Elastic Compliance Matrix: (Units=1/GPa)
#
#
# Indices 1 2 3 4 5 6 
#
# 1 0.008966 -0.003467 -0.002223 0.000000 0.000000 0.000000
# 2 -0.003467 0.007951 -0.002672 0.000000 0.000000 0.000000
# 3 -0.002223 -0.002672 0.015132 0.000000 0.000000 0.000000
# 4 0.000000 0.000000 0.000000 0.041821 0.000000 0.000000
# 5 0.000000 0.000000 0.000000 0.000000 0.040886 0.000000
# 6 0.000000 0.000000 0.000000 0.000000 0.000000 0.032345
#
#
# Mechanical properties :
#
#
# Convention : Reuss Voigt Hill
#
# Bulk Modulus (GPa) = 65.24925 79.32808 72.28866
# Shear Modulus (GPa) = 29.59734 32.35348 30.97541
#
# Velocity S-wave (km/s) = 4.02019 4.20320 4.11271
# Velocity P-wave (km/s) = 7.56169 8.17763 7.87569
#
# Compressibility (1/GPa) = 0.01532585
#
# Stress axis : x y z
#
# Youngs Moduli (GPa) = 111.53197 125.76608 66.08383
#
# Poissons Ratio (x) = 0.43601 0.14688
# Poissons Ratio (y) = 0.38667 0.17660
# Poissons Ratio (z) = 0.24790 0.33609
#
# Static dielectric constant tensor:
#      x y z
#    x 1.587500 0.000000 0.000000 
#    y 0.000000 1.685040 0.000000 
#    z 0.000000 0.000000 1.612120 
# 
# From -- ./inp_files/6807.got.cif
#   From: 2010.05.17/outbox.cif.g08.bks.cpg/sg53_4_cif.got.tgz:6807.got - 2010.06.03 12:45:16.
