data_PCOD9416746
_publ_section_title
;
Structure prediction by ZEFSAII (Michael W. Deem and Ramdas Pophale) SiO2 
 PCOD9416746
Probable space group: P M N A
;
_chemical_formula_sum "Si O2"
_cell_formula_units_Z 64
_cell_length_a 9.231436
_cell_length_b 12.109639
_cell_length_c 32.153116
_cell_angle_alpha 90.000000
_cell_angle_beta 90.000000
_cell_angle_gamma 90.000000
_cell_volume 3594.376176
_symmetry_space_group_name_H-M "P M N A"
_symmetry_group_IT_number 53
_symmetry_cell_setting 'orthorhombic'
loop_
_space_group_symop_operation_xyz
x,y,z
1/2-x,-y,1/2+z
x,-y,-z
1/2-x,y,1/2-z
-x,-y,-z
1/2+x,y,1/2-z
-x,y,z
1/2+x,-y,1/2+z
loop_
_atom_site_type_symbol
_atom_site_label
_atom_site_fract_x
_atom_site_fract_y
_atom_site_fract_z
Si Si1 0.329231 0.684148 0.793445
Si Si2 0.331975 0.636175 0.625537
Si Si3 0.825432 0.524024 0.048522
Si Si4 0.333851 0.877841 0.997481
Si Si5 0.324583 0.929602 0.369732
Si Si6 0.331210 0.257556 0.917771
Si Si7 0.327437 0.050843 0.206460
Si Si8 0.833531 0.142651 0.078819
O O1 0.250000 0.656924 0.750000
O O2 0.500000 0.663474 0.789764
O O3 0.263658 0.621052 0.833349
O O4 0.309664 0.816781 0.800234
O O5 0.500000 0.610262 0.635097
O O6 0.294695 0.570906 0.583011
O O7 0.322396 0.765435 0.614080
O O8 0.746047 0.630652 0.067516
O O9 0.000000 0.540461 0.047822
O O10 0.782778 0.500000 0.000000
O O11 0.500000 0.890066 0.984220
O O12 0.328982 0.817958 0.040980
O O13 0.252740 0.816387 0.960947
O O14 0.267813 0.000000 0.000000
O O15 0.500000 0.924646 0.366724
O O16 0.256543 0.813189 0.383655
O O17 0.251896 0.978507 0.328421
O O18 0.286140 0.023934 0.404007
O O19 0.500000 0.274730 0.905995
O O20 0.250000 0.026185 0.250000
O O21 0.500000 0.029006 0.207260
O O22 0.000000 0.133233 0.066556
#
# Coordination Sequence:
#
# PCOD9416746 Si02
#       8
#     8   8   8   8   8   8   8   8
#     4  10  20  33  54  84 118 153 188 232 284 344
#     4  10  20  36  57  82 113 148 189 238 287 336
#     4  10  22  41  63  83 111 152 199 247 293 346
#     4  10  20  33  48  70 105 143 178 222 275 326
#     4  11  21  34  55  82 113 147 186 230 279 339
#     4  11  23  38  56  79 111 148 189 236 284 338
#     4  10  20  34  54  82 118 156 189 227 279 339
#     4  10  20  32  51  79 108 142 183 227 274 330
#
# _framework density 17.805592999999998
#
# number of rings (size 3 to 8) (size 9 to 14) (size 15 to 20)
#    0.000    1.750    2.500    2.250    0.000    5.000 
#    0.000    0.000    0.000    0.750    0.000    1.750 
#    0.000    0.000    0.000    0.000    0.000    0.000 
#
# Total GULP energy -356811.791728 kJ/mol
# GULP energy per Si atom -5575.184246 kJ/mol
# Density = 1.776507 g / cm^3
# Si number density = 17.805593 Si / 1000 Ang^3
#
#
#
# Elastic Constant Matrix: (Units=GPa)
#
#
# Indices 1 2 3 4 5 6 
#
# 1 69.9783 37.5096 74.9680 0.0000 0.0000 0.0000
# 2 37.5096 74.1722 28.9905 0.0000 0.0000 0.0000
# 3 74.9680 28.9905 128.5287 0.0000 0.0000 0.0000
# 4 0.0000 0.0000 0.0000 27.8976 0.0000 0.0000
# 5 0.0000 0.0000 0.0000 0.0000 34.3557 0.0000
# 6 0.0000 0.0000 0.0000 0.0000 0.0000 23.5441
#
#
#
# Elastic Compliance Matrix: (Units=1/GPa)
#
#
# Indices 1 2 3 4 5 6 
#
# 1 0.050059 -0.015247 -0.025759 0.000000 0.000000 0.000000
# 2 -0.015247 0.019430 0.004511 0.000000 0.000000 0.000000
# 3 -0.025759 0.004511 0.021788 0.000000 0.000000 0.000000
# 4 0.000000 0.000000 0.000000 0.035845 0.000000 0.000000
# 5 0.000000 0.000000 0.000000 0.000000 0.029107 0.000000
# 6 0.000000 0.000000 0.000000 0.000000 0.000000 0.042473
#
#
# Mechanical properties :
#
#
# Convention : Reuss Voigt Hill
#
# Bulk Modulus (GPa) = 54.68887 61.73506 58.21197
# Shear Modulus (GPa) = 17.99936 25.90688 21.95312
#
# Velocity S-wave (km/s) = 3.18289 3.81857 3.51513
# Velocity P-wave (km/s) = 6.65498 7.36131 7.01704
#
# Compressibility (1/GPa) = 0.01828526
#
# Stress axis : x y z
#
# Youngs Moduli (GPa) = 19.97659 51.46766 45.89770
#
# Poissons Ratio (x) = 0.78473 1.18228
# Poissons Ratio (y) = 0.30459 -0.20704
# Poissons Ratio (z) = 0.51458 -0.23216
#
# Static dielectric constant tensor:
#      x y z
#    x 1.606030 0.000000 0.000000 
#    y 0.000000 1.624370 0.000000 
#    z 0.000000 0.000000 1.621140 
# 
# From -- ./inp_files/38140.got.cif
#   From: 2010.05.17/outbox.cif.g08.bks.cpg/sg53_20_cif.got.tgz:38140.got - 2010.06.03 12:45:16.
