data_PCOD9416822
_publ_section_title
;
Structure prediction by ZEFSAII (Michael W. Deem and Ramdas Pophale) SiO2 
 PCOD9416822
Probable space group: P M N A
;
_chemical_formula_sum "Si O2"
_cell_formula_units_Z 64
_cell_length_a 8.833208
_cell_length_b 15.051622
_cell_length_c 27.739487
_cell_angle_alpha 90.000000
_cell_angle_beta 90.000000
_cell_angle_gamma 90.000000
_cell_volume 3688.078747
_symmetry_space_group_name_H-M "P M N A"
_symmetry_group_IT_number 53
_symmetry_cell_setting 'orthorhombic'
loop_
_space_group_symop_operation_xyz
x,y,z
1/2-x,-y,1/2+z
x,-y,-z
1/2-x,y,1/2-z
-x,-y,-z
1/2+x,y,1/2-z
-x,y,z
1/2+x,-y,1/2+z
loop_
_atom_site_type_symbol
_atom_site_label
_atom_site_fract_x
_atom_site_fract_y
_atom_site_fract_z
Si Si1 0.181875 0.474719 0.609541
Si Si2 0.182063 0.855276 0.302791
Si Si3 0.181711 0.349570 0.697802
Si Si4 0.819541 0.972090 0.112136
Si Si5 0.819619 0.345446 0.968060
Si Si6 0.819992 0.845685 0.466866
Si Si7 0.320023 0.153221 0.081518
Si Si8 0.319929 0.343757 0.417556
O O1 0.228920 0.417570 0.656282
O O2 0.248201 0.423386 0.563338
O O3 0.245688 0.574023 0.609887
O O4 0.000000 0.475871 0.606866
O O5 0.250000 0.873452 0.250000
O O6 0.222384 0.752479 0.314851
O O7 0.250664 0.920376 0.342345
O O8 0.000000 0.862475 0.301955
O O9 0.250000 0.370100 0.750000
O O10 0.000000 0.352779 0.701361
O O11 0.761127 0.919504 0.064986
O O12 0.000000 0.970828 0.113898
O O13 0.758434 0.072122 0.108602
O O14 0.744135 0.251574 0.954076
O O15 0.000000 0.341680 0.960500
O O16 0.792058 0.358163 0.025082
O O17 0.793607 0.858909 0.523904
O O18 0.000000 0.848652 0.457909
O O19 0.500000 0.151946 0.089235
O O20 0.252165 0.248837 0.094974
O O21 0.500000 0.341734 0.410274
#
# Coordination Sequence:
#
# PCOD9416822 Si02
#       8
#     8   8   8   8   8   8   8   8
#     4  11  21  33  52  78 106 139 178 215 258 313
#     4  10  20  37  58  81 110 140 173 215 263 315
#     4   9  20  36  55  79 106 135 168 209 256 308
#     4  12  23  34  53  80 108 141 179 217 262 315
#     4  10  20  33  50  75 107 141 177 217 261 310
#     4  10  20  34  52  76 107 142 179 218 263 315
#     4  10  21  37  55  75 103 141 181 222 267 312
#     4  10  21  36  52  74 105 140 179 221 262 307
#
# _framework density 17.353209
#
# number of rings (size 3 to 8) (size 9 to 14) (size 15 to 20)
#    0.000    1.750    0.000    4.875    0.000    8.500 
#    0.000    0.000    0.000    0.750    0.000    3.500 
#    0.000    0.000    0.000    0.000    0.000    0.000 
#
# Total GULP energy -357666.764590 kJ/mol
# GULP energy per Si atom -5588.543197 kJ/mol
# Density = 1.731371 g / cm^3
# Si number density = 17.353209 Si / 1000 Ang^3
#
#
#
# Elastic Constant Matrix: (Units=GPa)
#
#
# Indices 1 2 3 4 5 6 
#
# 1 82.6612 69.4676 53.2483 0.0000 0.0000 0.0000
# 2 69.4676 158.3480 73.8273 0.0000 0.0000 0.0000
# 3 53.2483 73.8273 65.1946 0.0000 0.0000 0.0000
# 4 0.0000 0.0000 0.0000 22.7451 0.0000 0.0000
# 5 0.0000 0.0000 0.0000 0.0000 23.0960 0.0000
# 6 0.0000 0.0000 0.0000 0.0000 0.0000 31.1144
#
#
#
# Elastic Compliance Matrix: (Units=1/GPa)
#
#
# Indices 1 2 3 4 5 6 
#
# 1 0.026284 -0.003224 -0.017817 0.000000 0.000000 0.000000
# 2 -0.003224 0.013774 -0.012965 0.000000 0.000000 0.000000
# 3 -0.017817 -0.012965 0.044572 0.000000 0.000000 0.000000
# 4 0.000000 0.000000 0.000000 0.043966 0.000000 0.000000
# 5 0.000000 0.000000 0.000000 0.000000 0.043298 0.000000
# 6 0.000000 0.000000 0.000000 0.000000 0.000000 0.032139
#
#
# Mechanical properties :
#
#
# Convention : Reuss Voigt Hill
#
# Bulk Modulus (GPa) = 60.17134 77.69890 68.93512
# Shear Modulus (GPa) = 18.01248 22.70181 20.35715
#
# Velocity S-wave (km/s) = 3.22528 3.62086 3.42878
# Velocity P-wave (km/s) = 6.97278 7.89639 7.44891
#
# Compressibility (1/GPa) = 0.01661921
#
# Stress axis : x y z
#
# Youngs Moduli (GPa) = 38.04543 72.59897 22.43537
#
# Poissons Ratio (x) = 0.23407 0.39973
# Poissons Ratio (y) = 0.12266 0.29087
# Poissons Ratio (z) = 0.67785 0.94124
#
# Static dielectric constant tensor:
#      x y z
#    x 1.573880 0.000000 0.000000 
#    y 0.000000 1.580260 0.000000 
#    z 0.000000 0.000000 1.570690 
# 
# From -- ./inp_files/34275.got.cif
#   From: 2010.05.17/outbox.cif.g08.bks.cpg/sg53_18_cif.got.tgz:34275.got - 2010.06.03 12:45:16.
