data_PCOD9416768
_publ_section_title
;
Structure prediction by ZEFSAII (Michael W. Deem and Ramdas Pophale) SiO2 
 PCOD9416768
Probable space group: P M N A
;
_chemical_formula_sum "Si O2"
_cell_formula_units_Z 40
_cell_length_a 9.314960
_cell_length_b 13.836179
_cell_length_c 18.466958
_cell_angle_alpha 90.000000
_cell_angle_beta 90.000000
_cell_angle_gamma 90.000000
_cell_volume 2380.085331
_symmetry_space_group_name_H-M "P M N A"
_symmetry_group_IT_number 53
_symmetry_cell_setting 'orthorhombic'
loop_
_space_group_symop_operation_xyz
x,y,z
1/2-x,-y,1/2+z
x,-y,-z
1/2-x,y,1/2-z
-x,-y,-z
1/2+x,y,1/2-z
-x,y,z
1/2+x,-y,1/2+z
loop_
_atom_site_type_symbol
_atom_site_label
_atom_site_fract_x
_atom_site_fract_y
_atom_site_fract_z
Si Si1 0.664184 0.041265 0.082974
Si Si2 0.664501 0.781623 0.534065
Si Si3 0.339166 0.131577 0.629316
Si Si4 0.828706 0.344560 0.821861
Si Si5 0.668189 0.608072 0.030392
O O1 0.760110 0.137449 0.083062
O O2 0.000000 0.062720 0.399159
O O3 0.728602 0.955930 0.131966
O O4 0.666712 0.000000 0.000000
O O5 0.500000 0.761652 0.555063
O O6 0.660239 0.829262 0.453609
O O7 0.757504 0.685079 0.523474
O O8 0.500000 0.096643 0.645663
O O9 0.308855 0.228120 0.673982
O O10 0.750000 0.381069 0.750000
O O11 0.753261 0.384869 0.893894
O O12 0.000000 0.362856 0.822209
O O13 0.500000 0.633775 0.040826
O O14 0.676676 0.500000 0.000000
#
# Coordination Sequence:
#
# PCOD9416768 Si02
#       5
#     8   8   8   8   8
#     4   9  15  22  36  59  86 116 147 179 216 261
#     4   9  16  26  41  61  88 120 152 189 232 279
#     4   8  15  26  39  59  87 118 149 182 223 271
#     4  10  20  33  50  71  97 128 161 199 243 296
#     4  10  20  33  49  70  97 127 162 208 256 299
#
# _framework density 16.80612
#
# number of rings (size 3 to 8) (size 9 to 14) (size 15 to 20)
#    0.000    2.800    0.000    3.600    0.000    9.600 
#    0.000    0.000    0.000    0.000    0.000    1.400 
#    0.000    3.200    0.000    0.000    0.000    0.000 
#
# Total GULP energy -222805.978298 kJ/mol
# GULP energy per Si atom -5570.149457 kJ/mol
# Density = 1.676787 g / cm^3
# Si number density = 16.806120 Si / 1000 Ang^3
#
#
#
# Elastic Constant Matrix: (Units=GPa)
#
#
# Indices 1 2 3 4 5 6 
#
# 1 145.7474 66.2357 38.1550 0.0000 0.0000 0.0000
# 2 66.2357 70.3914 10.6678 0.0000 0.0000 0.0000
# 3 38.1550 10.6678 26.2296 0.0000 0.0000 0.0000
# 4 0.0000 0.0000 0.0000 9.6152 0.0000 0.0000
# 5 0.0000 0.0000 0.0000 0.0000 4.8240 0.0000
# 6 0.0000 0.0000 0.0000 0.0000 0.0000 30.1624
#
#
#
# Elastic Compliance Matrix: (Units=1/GPa)
#
#
# Indices 1 2 3 4 5 6 
#
# 1 0.019492 -0.014967 -0.022267 0.000000 0.000000 0.000000
# 2 -0.014967 0.026632 0.010940 0.000000 0.000000 0.000000
# 3 -0.022267 0.010940 0.066067 0.000000 0.000000 0.000000
# 4 0.000000 0.000000 0.000000 0.104002 0.000000 0.000000
# 5 0.000000 0.000000 0.000000 0.000000 0.207298 0.000000
# 6 0.000000 0.000000 0.000000 0.000000 0.000000 0.033154
#
#
# Mechanical properties :
#
#
# Convention : Reuss Voigt Hill
#
# Bulk Modulus (GPa) = 16.77773 52.49838 34.63806
# Shear Modulus (GPa) = 9.45001 17.40764 13.42882
#
# Velocity S-wave (km/s) = 2.37385 3.22186 2.82980
# Velocity P-wave (km/s) = 4.18549 6.71908 5.59751
#
# Compressibility (1/GPa) = 0.05960281
#
# Stress axis : x y z
#
# Youngs Moduli (GPa) = 51.30210 37.54936 15.13620
#
# Poissons Ratio (x) = 0.56200 0.33705
# Poissons Ratio (y) = 0.76784 -0.16560
# Poissons Ratio (z) = 1.14237 -0.41081
#
# Static dielectric constant tensor:
#      x y z
#    x 1.575470 0.000000 0.000000 
#    y 0.000000 1.554200 0.000000 
#    z 0.000000 0.000000 1.573630 
# 
# From -- ./inp_files/25985.got.cif
#   From: 2010.05.17/outbox.cif.g08.bks.cpg/sg53_13_cif.got.tgz:25985.got - 2010.06.03 12:45:16.
