data_PCOD9416812
_publ_section_title
;
Structure prediction by ZEFSAII (Michael W. Deem and Ramdas Pophale) SiO2 
 PCOD9416812
Probable space group: P M N A
;
_chemical_formula_sum "Si O2"
_cell_formula_units_Z 48
_cell_length_a 8.634635
_cell_length_b 32.292179
_cell_length_c 9.219066
_cell_angle_alpha 90.000000
_cell_angle_beta 90.000000
_cell_angle_gamma 90.000000
_cell_volume 2570.563042
_symmetry_space_group_name_H-M "P M N A"
_symmetry_group_IT_number 53
_symmetry_cell_setting 'orthorhombic'
loop_
_space_group_symop_operation_xyz
x,y,z
1/2-x,-y,1/2+z
x,-y,-z
1/2-x,y,1/2-z
-x,-y,-z
1/2+x,y,1/2-z
-x,y,z
1/2+x,-y,1/2+z
loop_
_atom_site_type_symbol
_atom_site_label
_atom_site_fract_x
_atom_site_fract_y
_atom_site_fract_z
Si Si1 0.686680 0.782877 0.586548
Si Si2 0.686395 0.701627 0.412279
Si Si3 0.686299 0.376726 0.087366
Si Si4 0.685482 0.959120 0.913163
Si Si5 0.686900 0.459211 0.912564
Si Si6 0.185630 0.873956 0.914573
O O1 0.750000 0.778297 0.750000
O O2 0.500000 0.782074 0.595637
O O3 0.736735 0.744752 0.487125
O O4 0.730246 0.828545 0.526645
O O5 0.750000 0.698695 0.250000
O O6 0.500000 0.700349 0.409852
O O7 0.748726 0.663556 0.506779
O O8 0.750000 0.378781 0.250000
O O9 0.500000 0.374803 0.090808
O O10 0.733277 0.417791 0.998471
O O11 0.750000 0.961976 0.750000
O O12 0.500000 0.957406 0.907582
O O13 0.746418 0.915983 0.980820
O O14 0.733529 0.000000 0.000000
O O15 0.750000 0.459129 0.750000
O O16 0.500000 0.459899 0.906412
O O17 0.738574 0.500000 0.000000
O O18 0.250000 0.873343 0.750000
O O19 0.000000 0.877119 0.911796
#
# Coordination Sequence:
#
# PCOD9416812 Si02
#       6
#     8   8   8   8   8   8
#     4   9  19  34  54  79 104 133 172 217 262 314
#     4  11  23  39  57  80 112 147 183 223 272 326
#     4  11  23  39  60  86 114 146 187 231 276 326
#     4  10  20  33  50  74 102 133 171 212 257 310
#     4  10  22  39  59  85 116 150 188 230 277 328
#     4   9  16  29  50  74 100 131 169 212 259 309
#
# _framework density 18.672951999999999
#
# number of rings (size 3 to 8) (size 9 to 14) (size 15 to 20)
#    0.000    2.000    0.000    4.500    0.000    7.667 
#    0.000    0.833    0.000    4.000    0.000    0.000 
#    0.000    0.000    0.000    0.000    0.000    0.000 
#
# Total GULP energy -267949.877623 kJ/mol
# GULP energy per Si atom -5582.289117 kJ/mol
# Density = 1.863045 g / cm^3
# Si number density = 18.672952 Si / 1000 Ang^3
#
#
#
# Elastic Constant Matrix: (Units=GPa)
#
#
# Indices 1 2 3 4 5 6 
#
# 1 40.9132 50.2643 29.2843 0.0000 0.0000 0.0000
# 2 50.2643 228.1608 99.4153 0.0000 0.0000 0.0000
# 3 29.2843 99.4153 126.9441 0.0000 0.0000 0.0000
# 4 0.0000 0.0000 0.0000 29.1848 0.0000 0.0000
# 5 0.0000 0.0000 0.0000 0.0000 26.6126 0.0000
# 6 0.0000 0.0000 0.0000 0.0000 0.0000 29.2464
#
#
#
# Elastic Compliance Matrix: (Units=1/GPa)
#
#
# Indices 1 2 3 4 5 6 
#
# 1 0.034261 -0.006230 -0.003025 0.000000 0.000000 0.000000
# 2 -0.006230 0.007786 -0.004660 0.000000 0.000000 0.000000
# 3 -0.003025 -0.004660 0.012225 0.000000 0.000000 0.000000
# 4 0.000000 0.000000 0.000000 0.034264 0.000000 0.000000
# 5 0.000000 0.000000 0.000000 0.000000 0.037576 0.000000
# 6 0.000000 0.000000 0.000000 0.000000 0.000000 0.034192
#
#
# Mechanical properties :
#
#
# Convention : Reuss Voigt Hill
#
# Bulk Modulus (GPa) = 37.81879 83.77176 60.79528
# Shear Modulus (GPa) = 25.38743 31.47905 28.43324
#
# Velocity S-wave (km/s) = 3.69125 4.11032 3.90641
# Velocity P-wave (km/s) = 6.20196 8.21500 7.27841
#
# Compressibility (1/GPa) = 0.02644188
#
# Stress axis : x y z
#
# Youngs Moduli (GPa) = 29.18806 128.43663 81.79973
#
# Poissons Ratio (x) = 0.80013 0.24742
# Poissons Ratio (y) = 0.18183 0.38122
# Poissons Ratio (z) = 0.08828 0.59856
#
# Static dielectric constant tensor:
#      x y z
#    x 1.634220 0.000000 0.000000 
#    y 0.000000 1.682600 0.000000 
#    z 0.000000 0.000000 1.601830 
# 
# From -- ./inp_files/6621.got.cif
#   From: 2010.05.17/outbox.cif.g08.bks.cpg/sg53_4_cif.got.tgz:6621.got - 2010.06.03 12:45:16.
