data_PCOD9416905
_publ_section_title
;
Structure prediction by ZEFSAII (Michael W. Deem and Ramdas Pophale) SiO2 
 PCOD9416905
Probable space group: P M N A
;
_chemical_formula_sum "Si O2"
_cell_formula_units_Z 64
_cell_length_a 26.820710
_cell_length_b 11.438619
_cell_length_c 11.946479
_cell_angle_alpha 90.000000
_cell_angle_beta 90.000000
_cell_angle_gamma 90.000000
_cell_volume 3665.082788
_symmetry_space_group_name_H-M "P M N A"
_symmetry_group_IT_number 53
_symmetry_cell_setting 'orthorhombic'
loop_
_space_group_symop_operation_xyz
x,y,z
1/2-x,-y,1/2+z
x,-y,-z
1/2-x,y,1/2-z
-x,-y,-z
1/2+x,y,1/2-z
-x,y,z
1/2+x,-y,1/2+z
loop_
_atom_site_type_symbol
_atom_site_label
_atom_site_fract_x
_atom_site_fract_y
_atom_site_fract_z
Si Si1 0.558274 0.863688 0.973397
Si Si2 0.559405 0.748523 0.208647
Si Si3 0.369000 0.881777 0.350757
Si Si4 0.838180 0.849544 0.901658
Si Si5 0.627820 0.727185 0.810150
Si Si6 0.058762 0.489937 0.364407
Si Si7 0.295229 0.904864 0.163839
Si Si8 0.219257 0.163599 0.414784
O O1 0.500000 0.835827 0.949358
O O2 0.593716 0.823083 0.873948
O O3 0.574150 0.800026 0.087330
O O4 0.562125 0.000000 0.000000
O O5 0.500000 0.756411 0.210750
O O6 0.579128 0.825284 0.312670
O O7 0.571653 0.611087 0.198571
O O8 0.349799 0.830027 0.467757
O O9 0.338375 0.852275 0.238865
O O10 0.359269 0.020934 0.369336
O O11 0.864604 0.760353 0.818694
O O12 0.778113 0.841342 0.885247
O O13 0.597533 0.608775 0.827808
O O14 0.683224 0.737764 0.864481
O O15 0.062219 0.500000 0.500000
O O16 0.000000 0.462163 0.341421
O O17 0.250000 0.904434 0.250000
O O18 0.302981 0.040076 0.129290
O O19 0.284532 0.838761 0.048962
#
# Coordination Sequence:
#
# PCOD9416905 Si02
#       8
#     8   8   8   8   8   8   8   8
#     4  10  20  33  52  87 123 144 177 241 311 362
#     4  10  21  39  61  84 114 151 195 251 300 351
#     4  11  20  37  58  86 122 161 195 230 302 364
#     4  11  22  36  55  86 126 162 189 239 291 355
#     4  12  21  33  58  86 112 155 205 241 293 357
#     4  10  21  41  63  85 113 149 200 258 308 348
#     4  11  17  31  53  81 119 155 198 227 280 360
#     4  11  21  32  53  87 120 157 196 242 286 340
#
# _framework density 17.462088999999999
#
# number of rings (size 3 to 8) (size 9 to 14) (size 15 to 20)
#    0.000    1.250    5.000    3.000    1.750    0.000 
#    0.000    3.750    0.000    6.000    0.000    0.000 
#    0.000    0.000    0.000    0.000    0.000    0.000 
#
# Total GULP energy -356759.818934 kJ/mol
# GULP energy per Si atom -5574.372171 kJ/mol
# Density = 1.742234 g / cm^3
# Si number density = 17.462089 Si / 1000 Ang^3
#
#
#
# Elastic Constant Matrix: (Units=GPa)
#
#
# Indices 1 2 3 4 5 6 
#
# 1 70.8978 40.6427 47.8169 0.0000 0.0000 0.0000
# 2 40.6427 63.1010 34.9551 0.0000 0.0000 0.0000
# 3 47.8169 34.9551 110.6270 0.0000 0.0000 0.0000
# 4 0.0000 0.0000 0.0000 17.9797 0.0000 0.0000
# 5 0.0000 0.0000 0.0000 0.0000 34.1325 0.0000
# 6 0.0000 0.0000 0.0000 0.0000 0.0000 26.7882
#
#
#
# Elastic Compliance Matrix: (Units=1/GPa)
#
#
# Indices 1 2 3 4 5 6 
#
# 1 0.026522 -0.013009 -0.007353 0.000000 0.000000 0.000000
# 2 -0.013009 0.025591 -0.002463 0.000000 0.000000 0.000000
# 3 -0.007353 -0.002463 0.012996 0.000000 0.000000 0.000000
# 4 0.000000 0.000000 0.000000 0.055618 0.000000 0.000000
# 5 0.000000 0.000000 0.000000 0.000000 0.029298 0.000000
# 6 0.000000 0.000000 0.000000 0.000000 0.000000 0.037330
#
#
# Mechanical properties :
#
#
# Convention : Reuss Voigt Hill
#
# Bulk Modulus (GPa) = 51.39238 54.60615 52.99926
# Shear Modulus (GPa) = 20.87764 23.86084 22.36924
#
# Velocity S-wave (km/s) = 3.46149 3.70054 3.58301
# Velocity P-wave (km/s) = 6.74319 7.04257 6.89451
#
# Compressibility (1/GPa) = 0.01945814
#
# Stress axis : x y z
#
# Youngs Moduli (GPa) = 37.70514 39.07612 76.94730
#
# Poissons Ratio (x) = 0.50834 0.56580
# Poissons Ratio (y) = 0.49051 0.18953
# Poissons Ratio (z) = 0.27725 0.09625
#
# Static dielectric constant tensor:
#      x y z
#    x 1.686630 0.000000 0.000000 
#    y 0.000000 1.637920 0.000000 
#    z 0.000000 0.000000 1.600920 
# 
# From -- ./inp_files/18487.got.cif
#   From: 2010.05.17/outbox.cif.g08.bks.cpg/sg53_10_cif.got.tgz:18487.got - 2010.06.03 12:45:16.
