data_PCOD9416526
_publ_section_title
;
Structure prediction by ZEFSAII (Michael W. Deem and Ramdas Pophale) SiO2 
 PCOD9416526
Probable space group: P M N A
;
_chemical_formula_sum "Si O2"
_cell_formula_units_Z 32
_cell_length_a 7.979191
_cell_length_b 8.803166
_cell_length_c 20.280107
_cell_angle_alpha 90.000000
_cell_angle_beta 90.000000
_cell_angle_gamma 90.000000
_cell_volume 1424.518174
_symmetry_space_group_name_H-M "P M N A"
_symmetry_group_IT_number 53
_symmetry_cell_setting 'orthorhombic'
loop_
_space_group_symop_operation_xyz
x,y,z
1/2-x,-y,1/2+z
x,-y,-z
1/2-x,y,1/2-z
-x,-y,-z
1/2+x,y,1/2-z
-x,y,z
1/2+x,-y,1/2+z
loop_
_atom_site_type_symbol
_atom_site_label
_atom_site_fract_x
_atom_site_fract_y
_atom_site_fract_z
Si Si1 0.000000 0.459237 0.921264
Si Si2 0.200595 0.442637 0.675353
Si Si3 0.801963 0.080283 0.678205
Si Si4 0.314198 0.120670 0.059268
Si Si5 0.500000 0.815036 0.496430
O O1 0.834256 0.501897 0.878567
O O2 0.000000 0.500000 0.000000
O O3 0.000000 0.273254 0.928074
O O4 0.250000 0.492724 0.750000
O O5 0.229810 0.259729 0.673847
O O6 0.000000 0.469721 0.664008
O O7 0.750000 0.026417 0.750000
O O8 0.000000 0.066373 0.671187
O O9 0.738435 0.972584 0.620466
O O10 0.500000 0.185089 0.072984
O O11 0.171365 0.229915 0.032844
O O12 0.336836 0.000000 0.000000
O O13 0.500000 0.000000 0.500000
#
# Coordination Sequence:
#
# PCOD9416526 Si02
#       5
#     4   8   8   8   4
#     4  12  26  40  60  98 129 155 207 259 304 370
#     4  10  19  36  61  89 122 159 202 255 313 360
#     4   9  18  28  49  85 118 149 192 253 301 349
#     4   9  17  30  47  74 110 152 187 226 288 355
#     4  10  20  34  58  82 114 159 191 235 290 352
#
# _framework density 22.463736000000001
#
# number of rings (size 3 to 8) (size 9 to 14) (size 15 to 20)
#    0.000    2.250    1.250    3.000    3.500    3.500 
#    0.000    0.000    0.000    1.500    0.000    0.000 
#    0.000    0.000    0.000    0.000    0.000    0.000 
#
# Total GULP energy -178221.002017 kJ/mol
# GULP energy per Si atom -5569.406313 kJ/mol
# Density = 2.241261 g / cm^3
# Si number density = 22.463736 Si / 1000 Ang^3
#
#
#
# Elastic Constant Matrix: (Units=GPa)
#
#
# Indices 1 2 3 4 5 6 
#
# 1 163.4974 20.8135 75.4250 0.0000 0.0000 0.0000
# 2 20.8135 29.3585 19.3363 0.0000 0.0000 0.0000
# 3 75.4250 19.3363 156.5969 0.0000 0.0000 0.0000
# 4 0.0000 0.0000 0.0000 42.1852 0.0000 0.0000
# 5 0.0000 0.0000 0.0000 0.0000 105.0011 0.0000
# 6 0.0000 0.0000 0.0000 0.0000 0.0000 -7.9379
#
#
#
# Elastic Compliance Matrix: (Units=1/GPa)
#
#
# Indices 1 2 3 4 5 6 
#
# 1 0.008179 -0.003487 -0.003509 0.000000 0.000000 0.000000
# 2 -0.003487 0.038564 -0.003082 0.000000 0.000000 0.000000
# 3 -0.003509 -0.003082 0.008456 0.000000 0.000000 0.000000
# 4 0.000000 0.000000 0.000000 0.023705 0.000000 0.000000
# 5 0.000000 0.000000 0.000000 0.000000 0.009524 0.000000
# 6 0.000000 0.000000 0.000000 0.000000 0.000000 -0.125978
#
#
# Mechanical properties :
#
#
# Convention : Reuss Voigt Hill
#
# Bulk Modulus (GPa) = 28.53652 64.51138 46.52395
# Shear Modulus (GPa) = -875.37302 43.44153 -415.96575
#
# Velocity S-wave (km/s) = -19.76180 4.40233 -13.62256
# Velocity P-wave (km/s) = 22.53828 7.39060 15.05578
#
# Compressibility (1/GPa) = 0.03504281
#
# Stress axis : x y z
#
# Youngs Moduli (GPa) = 122.26525 25.93086 118.25368
#
# Poissons Ratio (x) = 0.09043 0.41492
# Poissons Ratio (y) = 0.42639 0.36447
# Poissons Ratio (z) = 0.42900 0.07992
#
# Static dielectric constant tensor:
#      x y z
#    x 1.806120 0.000000 0.000000 
#    y 0.000000 1.908860 0.000000 
#    z 0.000000 0.000000 1.852630 
# 
# From -- ./inp_files/30054.got.cif
#   From: 2010.05.17/outbox.cif.g08.bks.cpg/sg53_16_cif.got.tgz:30054.got - 2010.06.03 12:45:16.
