data_PCOD9416440
_publ_section_title
;
Structure prediction by ZEFSAII (Michael W. Deem and Ramdas Pophale) SiO2 
 PCOD9416440
Probable space group: P M N A
;
_chemical_formula_sum "Si O2"
_cell_formula_units_Z 56
_cell_length_a 9.227556
_cell_length_b 13.853429
_cell_length_c 20.873671
_cell_angle_alpha 90.000000
_cell_angle_beta 90.000000
_cell_angle_gamma 90.000000
_cell_volume 2668.350078
_symmetry_space_group_name_H-M "P M N A"
_symmetry_group_IT_number 53
_symmetry_cell_setting 'orthorhombic'
loop_
_space_group_symop_operation_xyz
x,y,z
1/2-x,-y,1/2+z
x,-y,-z
1/2-x,y,1/2-z
-x,-y,-z
1/2+x,y,1/2-z
-x,y,z
1/2+x,-y,1/2+z
loop_
_atom_site_type_symbol
_atom_site_label
_atom_site_fract_x
_atom_site_fract_y
_atom_site_fract_z
Si Si1 0.170675 0.929938 0.858195
Si Si2 0.839535 0.851028 0.995518
Si Si3 0.666754 0.571734 0.428571
Si Si4 0.668049 0.737306 0.812448
Si Si5 0.766402 0.644040 0.942092
Si Si6 0.334457 0.115284 0.876469
Si Si7 0.667988 0.674124 0.183931
O O1 0.188806 0.920474 0.935498
O O2 0.254953 0.839984 0.827343
O O3 0.000000 0.923594 0.843857
O O4 0.239133 0.032945 0.842883
O O5 0.838779 0.745426 0.962143
O O6 0.000000 0.869765 0.022024
O O7 0.726951 0.860258 0.052754
O O8 0.500000 0.605423 0.440622
O O9 0.657680 0.456086 0.422776
O O10 0.774329 0.607411 0.485920
O O11 0.737058 0.615272 0.366353
O O12 0.750000 0.695067 0.750000
O O13 0.500000 0.751261 0.797099
O O14 0.679019 0.674930 0.878352
O O15 0.500000 0.080921 0.881677
O O16 0.330659 0.214466 0.837693
O O17 0.750000 0.664201 0.250000
O O18 0.500000 0.642276 0.186045
#
# Coordination Sequence:
#
# PCOD9416440 Si02
#       7
#     8   8   8   8   8   8   8
#     4  10  22  39  62  92 127 168 215 264 317 383
#     4  10  19  35  60  92 128 165 209 258 314 382
#     4  11  22  41  70  99 129 169 214 266 322 385
#     4  11  25  44  67  95 132 174 216 267 324 383
#     4  10  22  39  67 101 130 165 213 261 318 384
#     4  11  23  38  59  90 127 167 213 266 322 379
#     4  11  26  45  64  91 127 170 218 269 324 384
#
# _framework density 20.986753
#
# number of rings (size 3 to 8) (size 9 to 14) (size 15 to 20)
#    0.000    1.429    1.429    3.857    0.000   11.429 
#    0.000    2.857    0.000    0.000    0.000    0.000 
#    0.000    0.000    0.000    0.000    0.000    0.000 
#
# Total GULP energy -312211.065437 kJ/mol
# GULP energy per Si atom -5575.197597 kJ/mol
# Density = 2.093899 g / cm^3
# Si number density = 20.986753 Si / 1000 Ang^3
#
#
#
# Elastic Constant Matrix: (Units=GPa)
#
#
# Indices 1 2 3 4 5 6 
#
# 1 104.0506 27.3448 68.3272 0.0000 0.0000 0.0000
# 2 27.3448 81.6156 29.1093 0.0000 0.0000 0.0000
# 3 68.3272 29.1093 114.3710 0.0000 0.0000 0.0000
# 4 0.0000 0.0000 0.0000 3.4930 0.0000 0.0000
# 5 0.0000 0.0000 0.0000 0.0000 13.2682 0.0000
# 6 0.0000 0.0000 0.0000 0.0000 0.0000 33.1980
#
#
#
# Elastic Compliance Matrix: (Units=1/GPa)
#
#
# Indices 1 2 3 4 5 6 
#
# 1 0.016156 -0.002167 -0.009100 0.000000 0.000000 0.000000
# 2 -0.002167 0.013767 -0.002209 0.000000 0.000000 0.000000
# 3 -0.009100 -0.002209 0.014742 0.000000 0.000000 0.000000
# 4 0.000000 0.000000 0.000000 0.286286 0.000000 0.000000
# 5 0.000000 0.000000 0.000000 0.000000 0.075368 0.000000
# 6 0.000000 0.000000 0.000000 0.000000 0.000000 0.030122
#
#
# Mechanical properties :
#
#
# Convention : Reuss Voigt Hill
#
# Bulk Modulus (GPa) = 56.45951 61.06665 58.76308
# Shear Modulus (GPa) = 10.65419 21.67558 16.16488
#
# Velocity S-wave (km/s) = 2.25558 3.21724 2.77833
# Velocity P-wave (km/s) = 5.80899 6.55452 6.19298
#
# Compressibility (1/GPa) = 0.01771181
#
# Stress axis : x y z
#
# Youngs Moduli (GPa) = 61.89546 72.63968 67.83125
#
# Poissons Ratio (x) = 0.15743 0.61729
# Poissons Ratio (y) = 0.13414 0.14984
# Poissons Ratio (z) = 0.56327 0.16047
#
# Static dielectric constant tensor:
#      x y z
#    x 1.727890 0.000000 0.000000 
#    y 0.000000 1.783860 0.000000 
#    z 0.000000 0.000000 1.828530 
# 
# From -- ./inp_files/30856.got.cif
#   From: 2010.05.17/outbox.cif.g08.bks.cpg/sg53_16_cif.got.tgz:30856.got - 2010.06.03 12:45:16.
