data_PCOD9416296
_publ_section_title
;
Structure prediction by ZEFSAII (Michael W. Deem and Ramdas Pophale) SiO2 
 PCOD9416296
Probable space group: P M N A
;
_chemical_formula_sum "Si O2"
_cell_formula_units_Z 56
_cell_length_a 21.122572
_cell_length_b 11.524260
_cell_length_c 10.881836
_cell_angle_alpha 90.000000
_cell_angle_beta 90.000000
_cell_angle_gamma 90.000000
_cell_volume 2648.878409
_symmetry_space_group_name_H-M "P M N A"
_symmetry_group_IT_number 53
_symmetry_cell_setting 'orthorhombic'
loop_
_space_group_symop_operation_xyz
x,y,z
1/2-x,-y,1/2+z
x,-y,-z
1/2-x,y,1/2-z
-x,-y,-z
1/2+x,y,1/2-z
-x,y,z
1/2+x,-y,1/2+z
loop_
_atom_site_type_symbol
_atom_site_label
_atom_site_fract_x
_atom_site_fract_y
_atom_site_fract_z
Si Si1 0.928663 0.368866 0.161710
Si Si2 0.265680 0.836531 0.610843
Si Si3 0.712338 0.439378 0.372741
Si Si4 0.928944 0.007267 0.340584
Si Si5 0.407914 0.888863 0.579831
Si Si6 0.928699 0.367472 0.457276
Si Si7 0.642082 0.162046 0.962538
O O1 0.864855 0.442530 0.135590
O O2 0.926709 0.248824 0.081293
O O3 0.922104 0.349158 0.310114
O O4 0.000000 0.419101 0.144612
O O5 0.250000 0.876679 0.750000
O O6 0.271560 0.697101 0.618232
O O7 0.332442 0.884442 0.569451
O O8 0.210683 0.863073 0.514681
O O9 0.731889 0.500000 0.500000
O O10 0.750000 0.482051 0.250000
O O11 0.878245 0.902698 0.339431
O O12 0.000000 0.964844 0.361944
O O13 0.927058 0.074643 0.215261
O O14 0.905837 0.099845 0.441269
O O15 0.430309 0.000000 0.500000
O O16 0.923906 0.500000 0.500000
O O17 0.876042 0.294917 0.528784
O O18 0.000000 0.327744 0.490005
#
# Coordination Sequence:
#
# PCOD9416296 Si02
#       7
#     8   8   8   8   8   8   8
#     4  10  21  40  62  90 124 163 217 265 312 382
#     4  10  20  38  59  85 120 159 205 252 303 369
#     4  10  22  41  65  92 123 167 213 262 319 381
#     4  11  22  36  58  88 122 159 195 255 320 366
#     4  11  23  38  60  85 119 168 210 250 305 378
#     4  10  19  34  59  90 123 160 205 258 314 377
#     4  11  20  35  58  90 121 152 197 256 315 367
#
# _framework density 21.141022
#
# number of rings (size 3 to 8) (size 9 to 14) (size 15 to 20)
#    0.000    1.571    2.857    3.857    2.000    3.714 
#    0.000    5.714    0.000    1.714    0.000    0.000 
#    0.000    0.000    0.000    0.000    0.000    0.000 
#
# Total GULP energy -312108.916322 kJ/mol
# GULP energy per Si atom -5573.373506 kJ/mol
# Density = 2.109290 g / cm^3
# Si number density = 21.141022 Si / 1000 Ang^3
#
#
#
# Elastic Constant Matrix: (Units=GPa)
#
#
# Indices 1 2 3 4 5 6 
#
# 1 158.8546 21.8552 15.6809 0.0000 0.0000 0.0000
# 2 21.8552 50.3793 17.9429 0.0000 0.0000 0.0000
# 3 15.6809 17.9429 47.2276 0.0000 0.0000 0.0000
# 4 0.0000 0.0000 0.0000 32.4804 0.0000 0.0000
# 5 0.0000 0.0000 0.0000 0.0000-1302.8776 0.0000
# 6 0.0000 0.0000 0.0000 0.0000 0.0000 2057.9278
#
#
#
# Elastic Compliance Matrix: (Units=1/GPa)
#
#
# Indices 1 2 3 4 5 6 
#
# 1 0.006764 -0.002468 -0.001308 0.000000 0.000000 0.000000
# 2 -0.002468 0.023856 -0.008244 0.000000 0.000000 0.000000
# 3 -0.001308 -0.008244 0.024740 0.000000 0.000000 0.000000
# 4 0.000000 0.000000 0.000000 0.030788 0.000000 0.000000
# 5 0.000000 0.000000 0.000000 0.000000 -0.000768 0.000000
# 6 0.000000 0.000000 0.000000 0.000000 0.000000 0.000486
#
#
# Mechanical properties :
#
#
# Convention : Reuss Voigt Hill
#
# Bulk Modulus (GPa) = 31.92864 40.82440 36.37652
# Shear Modulus (GPa) = 41.54635 170.90495 106.22565
#
# Velocity S-wave (km/s) = 4.43787 9.00089 7.09615
# Velocity P-wave (km/s) = 6.43390 11.28600 9.18610
#
# Compressibility (1/GPa) = 0.03131984
#
# Stress axis : x y z
#
# Youngs Moduli (GPa) = 147.84635 41.91749 40.41965
#
# Poissons Ratio (x) = 0.10347 0.05287
# Poissons Ratio (y) = 0.36494 0.33322
# Poissons Ratio (z) = 0.19338 0.34557
#
# Static dielectric constant tensor:
#      x y z
#    x 1.772170 0.000000 0.000000 
#    y 0.000000 1.844530 0.000000 
#    z 0.000000 0.000000 1.806120 
# 
# From -- ./inp_files/17883.got.cif
#   From: 2010.05.17/outbox.cif.g08.bks.cpg/sg53_9_cif.got.tgz:17883.got - 2010.06.03 12:45:16.
