data_PCOD9416516
_publ_section_title
;
Structure prediction by ZEFSAII (Michael W. Deem and Ramdas Pophale) SiO2 
 PCOD9416516
Probable space group: P M N A
;
_chemical_formula_sum "Si O2"
_cell_formula_units_Z 48
_cell_length_a 9.272090
_cell_length_b 7.225851
_cell_length_c 31.322738
_cell_angle_alpha 90.000000
_cell_angle_beta 90.000000
_cell_angle_gamma 90.000000
_cell_volume 2098.584004
_symmetry_space_group_name_H-M "P M N A"
_symmetry_group_IT_number 53
_symmetry_cell_setting 'orthorhombic'
loop_
_space_group_symop_operation_xyz
x,y,z
1/2-x,-y,1/2+z
x,-y,-z
1/2-x,y,1/2-z
-x,-y,-z
1/2+x,y,1/2-z
-x,y,z
1/2+x,-y,1/2+z
loop_
_atom_site_type_symbol
_atom_site_label
_atom_site_fract_x
_atom_site_fract_y
_atom_site_fract_z
Si Si1 0.666545 0.562782 0.707475
Si Si2 0.777131 0.504732 0.618286
Si Si3 0.152673 0.904645 0.369792
Si Si4 0.000000 0.776263 0.982644
Si Si5 0.661903 0.887564 0.291084
Si Si6 0.500000 0.606245 0.431525
Si Si7 0.168238 0.168139 0.447478
O O1 0.750000 0.622581 0.750000
O O2 0.500000 0.621364 0.707184
O O3 0.743805 0.607580 0.662695
O O4 0.665816 0.337170 0.708184
O O5 0.860381 0.316694 0.627684
O O6 0.634223 0.411254 0.599021
O O7 0.830567 0.648993 0.582830
O O8 0.274011 0.951339 0.335832
O O9 0.000000 0.980268 0.353340
O O10 0.175089 0.992520 0.416040
O O11 0.171110 0.833898 0.970796
O O12 0.000000 0.577882 0.960025
O O13 0.000000 0.770412 0.034183
O O14 0.750000 0.947448 0.250000
O O15 0.500000 0.948238 0.286477
O O16 0.000000 0.166886 0.467068
#
# Coordination Sequence:
#
# PCOD9416516 Si02
#       7
#     8   8   8   4   8   4   8
#     4   9  17  29  49  79 113 150 190 240 285 342
#     4  10  19  36  61  82 116 155 197 241 291 345
#     4  10  21  35  55  83 114 150 195 240 291 355
#     4   9  20  39  63  91 120 157 193 250 303 351
#     4   9  17  29  49  75 108 148 192 240 288 342
#     4   9  18  37  63  91 116 153 207 240 293 364
#     4  10  22  39  60  87 119 154 195 242 298 356
#
# _framework density 22.872567
#
# number of rings (size 3 to 8) (size 9 to 14) (size 15 to 20)
#    0.000    2.500    0.833    1.000    2.333    4.667 
#    0.000   10.000    0.000    2.000    0.000    0.000 
#    0.000    0.000    0.000    0.000    0.000    0.000 
#
# Total GULP energy -267269.125574 kJ/mol
# GULP energy per Si atom -5568.106783 kJ/mol
# Density = 2.282051 g / cm^3
# Si number density = 22.872567 Si / 1000 Ang^3
#
#
#
# Elastic Constant Matrix: (Units=GPa)
#
#
# Indices 1 2 3 4 5 6 
#
# 1 188.9163 22.1429 59.4108 0.0000 0.0000 0.0000
# 2 22.1429 79.7794 12.5223 0.0000 0.0000 0.0000
# 3 59.4108 12.5223 91.2281 0.0000 0.0000 0.0000
# 4 0.0000 0.0000 0.0000 558.5436 0.0000 0.0000
# 5 0.0000 0.0000 0.0000 0.0000 -36.5559 0.0000
# 6 0.0000 0.0000 0.0000 0.0000 0.0000 76.0015
#
#
#
# Elastic Compliance Matrix: (Units=1/GPa)
#
#
# Indices 1 2 3 4 5 6 
#
# 1 0.006770 -0.001213 -0.004242 0.000000 0.000000 0.000000
# 2 -0.001213 0.013028 -0.000998 0.000000 0.000000 0.000000
# 3 -0.004242 -0.000998 0.013861 0.000000 0.000000 0.000000
# 4 0.000000 0.000000 0.000000 0.001790 0.000000 0.000000
# 5 0.000000 0.000000 0.000000 0.000000 -0.027355 0.000000
# 6 0.000000 0.000000 0.000000 0.000000 0.000000 0.013158
#
#
# Mechanical properties :
#
#
# Convention : Reuss Voigt Hill
#
# Bulk Modulus (GPa) = 48.18849 60.89732 54.54290
# Shear Modulus (GPa) = 121.72743 137.32104 129.52424
#
# Velocity S-wave (km/s) = 7.30311 7.75679 7.53336
# Velocity P-wave (km/s) = 9.60353 10.33954 9.97832
#
# Compressibility (1/GPa) = 0.02075184
#
# Stress axis : x y z
#
# Youngs Moduli (GPa) = 147.71954 76.75812 72.14417
#
# Poissons Ratio (x) = 0.09311 0.30604
# Poissons Ratio (y) = 0.17919 0.07202
# Poissons Ratio (z) = 0.62664 0.07663
#
# Static dielectric constant tensor:
#      x y z
#    x 1.949740 0.000000 0.000000 
#    y 0.000000 1.874840 0.000000 
#    z 0.000000 0.000000 1.818400 
# 
# From -- ./inp_files/37830.got.cif
#   From: 2010.05.17/outbox.cif.g08.bks.cpg/sg53_19_cif.got.tgz:37830.got - 2010.06.03 12:45:16.
