data_PCOD9416427
_publ_section_title
;
Structure prediction by ZEFSAII (Michael W. Deem and Ramdas Pophale) SiO2 
 PCOD9416427
Probable space group: P M N A
;
_chemical_formula_sum "Si O2"
_cell_formula_units_Z 64
_cell_length_a 9.045225
_cell_length_b 23.871008
_cell_length_c 15.567975
_cell_angle_alpha 90.000000
_cell_angle_beta 90.000000
_cell_angle_gamma 90.000000
_cell_volume 3361.415964
_symmetry_space_group_name_H-M "P M N A"
_symmetry_group_IT_number 53
_symmetry_cell_setting 'orthorhombic'
loop_
_space_group_symop_operation_xyz
x,y,z
1/2-x,-y,1/2+z
x,-y,-z
1/2-x,y,1/2-z
-x,-y,-z
1/2+x,y,1/2-z
-x,y,z
1/2+x,-y,1/2+z
loop_
_atom_site_type_symbol
_atom_site_label
_atom_site_fract_x
_atom_site_fract_y
_atom_site_fract_z
Si Si1 0.824321 0.940329 0.336160
Si Si2 0.821202 0.745153 0.473332
Si Si3 0.330045 0.047934 0.075119
Si Si4 0.327151 0.566913 0.489502
Si Si5 0.665984 0.406468 0.166436
Si Si6 0.325186 0.864414 0.478556
Si Si7 0.835248 0.726646 0.667377
Si Si8 0.820632 0.641852 0.346074
O O1 0.750000 0.920309 0.250000
O O2 0.735551 0.907108 0.407936
O O3 0.000000 0.929490 0.342565
O O4 0.803782 0.007299 0.345029
O O5 0.752435 0.805783 0.458474
O O6 0.771267 0.731834 0.571341
O O7 0.782425 0.697913 0.402468
O O8 0.000000 0.747269 0.473443
O O9 0.500000 0.067024 0.071796
O O10 0.228343 0.101958 0.063496
O O11 0.315852 0.000000 0.000000
O O12 0.319130 0.500000 0.500000
O O13 0.500000 0.583189 0.484296
O O14 0.253240 0.587974 0.577623
O O15 0.242617 0.591720 0.406398
O O16 0.750000 0.430373 0.250000
O O17 0.500000 0.430027 0.158625
O O18 0.651975 0.340018 0.181122
O O19 0.500000 0.858266 0.477700
O O20 0.750000 0.749720 0.750000
O O21 0.000000 0.751115 0.665937
O O22 0.750000 0.642428 0.250000
O O23 0.000000 0.638223 0.339939
#
# Coordination Sequence:
#
# PCOD9416427 Si02
#       8
#     8   8   8   8   8   8   8   8
#     4  10  20  35  56  81 111 148 190 241 297 349
#     4  10  21  40  61  83 119 162 202 247 302 360
#     4   8  16  33  54  75 103 141 180 223 282 336
#     4  11  24  41  62  90 123 160 202 249 302 361
#     4  10  19  35  59  89 118 149 190 238 294 350
#     4  11  22  34  54  84 114 149 195 241 288 346
#     4   9  18  34  57  85 112 143 183 232 290 349
#     4  11  24  44  67  91 122 163 208 254 307 364
#
# _framework density 19.039594999999998
#
# number of rings (size 3 to 8) (size 9 to 14) (size 15 to 20)
#    0.000    2.000    1.250    3.375    0.000    6.750 
#    0.000    1.875    0.000    0.000    0.000    0.000 
#    0.000    0.000    0.000    0.000    0.000    0.000 
#
# Total GULP energy -356372.350971 kJ/mol
# GULP energy per Si atom -5568.317984 kJ/mol
# Density = 1.899626 g / cm^3
# Si number density = 19.039595 Si / 1000 Ang^3
#
#
#
# Elastic Constant Matrix: (Units=GPa)
#
#
# Indices 1 2 3 4 5 6 
#
# 1 66.4329 36.5879 52.6587 0.0000 0.0000 0.0000
# 2 36.5879 64.0548 25.1392 0.0000 0.0000 0.0000
# 3 52.6587 25.1392 130.9046 0.0000 0.0000 0.0000
# 4 0.0000 0.0000 0.0000 12.6885 0.0000 0.0000
# 5 0.0000 0.0000 0.0000 0.0000 23.6576 0.0000
# 6 0.0000 0.0000 0.0000 0.0000 0.0000 0.4038
#
#
#
# Elastic Compliance Matrix: (Units=1/GPa)
#
#
# Indices 1 2 3 4 5 6 
#
# 1 0.029926 -0.013378 -0.009469 0.000000 0.000000 0.000000
# 2 -0.013378 0.022864 0.000990 0.000000 0.000000 0.000000
# 3 -0.009469 0.000990 0.011258 0.000000 0.000000 0.000000
# 4 0.000000 0.000000 0.000000 0.078811 0.000000 0.000000
# 5 0.000000 0.000000 0.000000 0.000000 0.042270 0.000000
# 6 0.000000 0.000000 0.000000 0.000000 0.000000 2.476679
#
#
# Mechanical properties :
#
#
# Convention : Reuss Voigt Hill
#
# Bulk Modulus (GPa) = 49.17422 54.46264 51.81843
# Shear Modulus (GPa) = 1.84345 17.15041 9.49693
#
# Velocity S-wave (km/s) = 0.98505 3.00455 2.23580
# Velocity P-wave (km/s) = 5.21317 6.37993 5.82583
#
# Compressibility (1/GPa) = 0.02033586
#
# Stress axis : x y z
#
# Youngs Moduli (GPa) = 33.41523 43.73661 88.82440
#
# Poissons Ratio (x) = 0.58509 0.84111
# Poissons Ratio (y) = 0.44701 -0.08798
# Poissons Ratio (z) = 0.31642 -0.04332
#
# Static dielectric constant tensor:
#      x y z
#    x 1.669440 0.000000 0.000000 
#    y 0.000000 1.692820 0.000000 
#    z 0.000000 0.000000 1.677420 
# 
# From -- ./inp_files/20917.got.cif
#   From: 2010.05.17/outbox.cif.g08.bks.cpg/sg53_11_cif.got.tgz:20917.got - 2010.06.03 12:45:16.
