data_PCOD9416333
_publ_section_title
;
Structure prediction by ZEFSAII (Michael W. Deem and Ramdas Pophale) SiO2 
 PCOD9416333
Probable space group: P M N A
;
_chemical_formula_sum "Si O2"
_cell_formula_units_Z 64
_cell_length_a 8.841438
_cell_length_b 20.267689
_cell_length_c 20.617777
_cell_angle_alpha 90.000000
_cell_angle_beta 90.000000
_cell_angle_gamma 90.000000
_cell_volume 3694.613182
_symmetry_space_group_name_H-M "P M N A"
_symmetry_group_IT_number 53
_symmetry_cell_setting 'orthorhombic'
loop_
_space_group_symop_operation_xyz
x,y,z
1/2-x,-y,1/2+z
x,-y,-z
1/2-x,y,1/2-z
-x,-y,-z
1/2+x,y,1/2-z
-x,y,z
1/2+x,-y,1/2+z
loop_
_atom_site_type_symbol
_atom_site_label
_atom_site_fract_x
_atom_site_fract_y
_atom_site_fract_z
Si Si1 0.181577 0.302508 0.602445
Si Si2 0.682240 0.533085 0.930790
Si Si3 0.819215 0.331801 0.036755
Si Si4 0.681298 0.056955 0.819933
Si Si5 0.180319 0.902723 0.680583
Si Si6 0.181933 0.429837 0.680370
Si Si7 0.818451 0.838067 0.083178
Si Si8 0.819044 0.816589 0.933525
O O1 0.237007 0.329498 0.532870
O O2 0.226278 0.357047 0.655272
O O3 0.256752 0.231257 0.610777
O O4 0.000000 0.296231 0.601894
O O5 0.500000 0.541323 0.929536
O O6 0.760878 0.603930 0.926434
O O7 0.727117 0.483484 0.873564
O O8 0.721051 0.500000 0.000000
O O9 0.784317 0.261567 0.070171
O O10 0.000000 0.334417 0.026924
O O11 0.750000 0.075941 0.750000
O O12 0.500000 0.063315 0.818012
O O13 0.748887 0.102493 0.876027
O O14 0.720164 0.979846 0.830756
O O15 0.250000 0.883314 0.750000
O O16 0.240309 0.858387 0.622104
O O17 0.000000 0.898112 0.684578
O O18 0.250000 0.444205 0.750000
O O19 0.000000 0.430961 0.683690
O O20 0.000000 0.838889 0.087135
O O21 0.776470 0.839045 0.006676
O O22 0.000000 0.824243 0.927660
#
# Coordination Sequence:
#
# PCOD9416333 Si02
#       8
#     8   8   8   8   8   8   8   8
#     4  10  19  35  55  76 107 147 183 221 271 326
#     4  10  19  36  58  80 107 142 184 224 270 327
#     4  10  20  34  55  85 111 138 180 227 272 322
#     4  10  21  37  56  80 109 145 187 231 276 332
#     4  10  21  37  59  83 108 142 187 231 279 335
#     4  10  22  37  54  78 109 144 180 224 273 323
#     4  10  21  36  55  83 115 147 184 229 275 325
#     4   9  20  37  55  80 115 146 180 226 277 331
#
# _framework density 17.322516
#
# number of rings (size 3 to 8) (size 9 to 14) (size 15 to 20)
#    0.000    2.125    1.250    2.625    0.000    7.250 
#    0.000    4.375    0.000    1.500    0.000    0.000 
#    0.000    0.000    0.000    0.000    0.000    0.000 
#
# Total GULP energy -357237.343861 kJ/mol
# GULP energy per Si atom -5581.833498 kJ/mol
# Density = 1.728309 g / cm^3
# Si number density = 17.322516 Si / 1000 Ang^3
#
#
#
# Elastic Constant Matrix: (Units=GPa)
#
#
# Indices 1 2 3 4 5 6 
#
# 1 43.3774 46.1746 46.9885 0.0000 0.0000 0.0000
# 2 46.1746 114.8371 93.2922 0.0000 0.0000 0.0000
# 3 46.9885 93.2922 133.8313 0.0000 0.0000 0.0000
# 4 0.0000 0.0000 0.0000 29.3138 0.0000 0.0000
# 5 0.0000 0.0000 0.0000 0.0000 33.3747 0.0000
# 6 0.0000 0.0000 0.0000 0.0000 0.0000 29.0009
#
#
#
# Elastic Compliance Matrix: (Units=1/GPa)
#
#
# Indices 1 2 3 4 5 6 
#
# 1 0.042985 -0.011582 -0.007018 0.000000 0.000000 0.000000
# 2 -0.011582 0.023199 -0.012105 0.000000 0.000000 0.000000
# 3 -0.007018 -0.012105 0.018375 0.000000 0.000000 0.000000
# 4 0.000000 0.000000 0.000000 0.034114 0.000000 0.000000
# 5 0.000000 0.000000 0.000000 0.000000 0.029963 0.000000
# 6 0.000000 0.000000 0.000000 0.000000 0.000000 0.034482
#
#
# Mechanical properties :
#
#
# Convention : Reuss Voigt Hill
#
# Bulk Modulus (GPa) = 43.20154 73.88405 58.54279
# Shear Modulus (GPa) = 19.82197 25.37726 22.59962
#
# Velocity S-wave (km/s) = 3.38640 3.83167 3.61590
# Velocity P-wave (km/s) = 6.34697 7.89431 7.16255
#
# Compressibility (1/GPa) = 0.02314732
#
# Stress axis : x y z
#
# Youngs Moduli (GPa) = 23.26382 43.10461 54.42213
#
# Poissons Ratio (x) = 0.49924 0.38196
# Poissons Ratio (y) = 0.26944 0.65881
# Poissons Ratio (z) = 0.16328 0.52180
#
# Static dielectric constant tensor:
#      x y z
#    x 1.579360 0.000000 0.000000 
#    y 0.000000 1.585970 0.000000 
#    z 0.000000 0.000000 1.561010 
# 
# From -- ./inp_files/26759.got.cif
#   From: 2010.05.17/outbox.cif.g08.bks.cpg/sg53_14_cif.got.tgz:26759.got - 2010.06.03 12:45:16.
