data_PCOD9416785
_publ_section_title
;
Structure prediction by ZEFSAII (Michael W. Deem and Ramdas Pophale) SiO2 
 PCOD9416785
Probable space group: P M N A
;
_chemical_formula_sum "Si O2"
_cell_formula_units_Z 64
_cell_length_a 8.579271
_cell_length_b 28.463134
_cell_length_c 15.106725
_cell_angle_alpha 90.000000
_cell_angle_beta 90.000000
_cell_angle_gamma 90.000000
_cell_volume 3688.955593
_symmetry_space_group_name_H-M "P M N A"
_symmetry_group_IT_number 53
_symmetry_cell_setting 'orthorhombic'
loop_
_space_group_symop_operation_xyz
x,y,z
1/2-x,-y,1/2+z
x,-y,-z
1/2-x,y,1/2-z
-x,-y,-z
1/2+x,y,1/2-z
-x,y,z
1/2+x,-y,1/2+z
loop_
_atom_site_type_symbol
_atom_site_label
_atom_site_fract_x
_atom_site_fract_y
_atom_site_fract_z
Si Si1 0.686231 0.422639 0.654057
Si Si2 0.810996 0.080973 0.842054
Si Si3 0.812098 0.305913 0.346737
Si Si4 0.186639 0.611212 0.525272
Si Si5 0.186943 0.197878 0.347367
Si Si6 0.177364 0.017802 0.101745
Si Si7 0.810858 0.114917 0.036002
Si Si8 0.687006 0.531778 0.653232
O O1 0.750000 0.408744 0.750000
O O2 0.500000 0.421157 0.654937
O O3 0.750336 0.392131 0.573798
O O4 0.733410 0.477352 0.638783
O O5 0.750000 0.101447 0.750000
O O6 0.000000 0.079419 0.841229
O O7 0.749840 0.026931 0.849759
O O8 0.765372 0.107018 0.933213
O O9 0.750000 0.319654 0.250000
O O10 0.760096 0.342743 0.420809
O O11 0.763958 0.252015 0.364096
O O12 0.000000 0.306900 0.343577
O O13 0.246012 0.566022 0.579408
O O14 0.000000 0.610771 0.523741
O O15 0.250000 0.184894 0.250000
O O16 0.251159 0.162217 0.420084
O O17 0.000000 0.196049 0.346279
O O18 0.247385 0.069691 0.093204
O O19 0.000000 0.023185 0.135645
O O20 0.166611 0.000000 0.000000
O O21 0.000000 0.113500 0.038473
O O22 0.750000 0.545726 0.750000
O O23 0.500000 0.534382 0.652629
#
# Coordination Sequence:
#
# PCOD9416785 Si02
#       8
#     8   8   8   8   8   8   8   8
#     4  10  21  36  52  72 101 136 171 206 243 286
#     4   9  17  29  46  68  97 132 165 198 237 281
#     4   9  20  36  53  75 101 127 156 195 243 294
#     4  11  21  33  52  76 101 131 167 205 247 293
#     4  10  20  35  53  73  98 126 157 196 244 293
#     4   7  12  25  43  62  88 123 158 193 233 275
#     4   9  17  31  50  71  96 127 164 201 239 286
#     4  10  20  33  49  73 105 137 169 204 243 289
#
# _framework density 17.349084000000001
#
# number of rings (size 3 to 8) (size 9 to 14) (size 15 to 20)
#    0.000    2.625    0.000    3.750    0.000    6.500 
#    0.000    1.875    0.000    3.000    0.000    1.750 
#    0.000    0.000    0.000    0.000    0.000    0.000 
#
# Total GULP energy -356801.935640 kJ/mol
# GULP energy per Si atom -5575.030244 kJ/mol
# Density = 1.730960 g / cm^3
# Si number density = 17.349084 Si / 1000 Ang^3
#
#
#
# Elastic Constant Matrix: (Units=GPa)
#
#
# Indices 1 2 3 4 5 6 
#
# 1 23.3023 23.7905 29.9324 0.0000 0.0000 0.0000
# 2 23.7905 86.4841 81.7835 0.0000 0.0000 0.0000
# 3 29.9324 81.7835 146.3492 0.0000 0.0000 0.0000
# 4 0.0000 0.0000 0.0000 28.2088 0.0000 0.0000
# 5 0.0000 0.0000 0.0000 0.0000 29.6401 0.0000
# 6 0.0000 0.0000 0.0000 0.0000 0.0000 -350.1140
#
#
#
# Elastic Compliance Matrix: (Units=1/GPa)
#
#
# Indices 1 2 3 4 5 6 
#
# 1 0.062669 -0.010854 -0.006752 0.000000 0.000000 0.000000
# 2 -0.010854 0.026401 -0.012533 0.000000 0.000000 0.000000
# 3 -0.006752 -0.012533 0.015218 0.000000 0.000000 0.000000
# 4 0.000000 0.000000 0.000000 0.035450 0.000000 0.000000
# 5 0.000000 0.000000 0.000000 0.000000 0.033738 0.000000
# 6 0.000000 0.000000 0.000000 0.000000 0.000000 -0.002856
#
#
# Mechanical properties :
#
#
# Convention : Reuss Voigt Hill
#
# Bulk Modulus (GPa) = 22.72299 58.57204 40.64751
# Shear Modulus (GPa) = 20.36094 -50.41109 -15.02508
#
# Velocity S-wave (km/s) = 3.42951 -5.39629 -2.94606
# Velocity P-wave (km/s) = 5.36731 2.23439 3.45076
#
# Compressibility (1/GPa) = 0.04400829
#
# Stress axis : x y z
#
# Youngs Moduli (GPa) = 15.95692 37.87742 65.71213
#
# Poissons Ratio (x) = 0.41114 0.44367
# Poissons Ratio (y) = 0.17320 0.82360
# Poissons Ratio (z) = 0.10774 0.47474
#
# Static dielectric constant tensor:
#      x y z
#    x 1.594910 0.000000 0.000000 
#    y 0.000000 1.602200 0.000000 
#    z 0.000000 0.000000 1.624530 
# 
# From -- ./inp_files/21072.got.cif
#   From: 2010.05.17/outbox.cif.g08.bks.cpg/sg53_11_cif.got.tgz:21072.got - 2010.06.03 12:45:16.
