data_PCOD9416384
_publ_section_title
;
Structure prediction by ZEFSAII (Michael W. Deem and Ramdas Pophale) SiO2 
 PCOD9416384
Probable space group: P M N A
;
_chemical_formula_sum "Si O2"
_cell_formula_units_Z 64
_cell_length_a 18.794287
_cell_length_b 17.355218
_cell_length_c 9.701156
_cell_angle_alpha 90.000000
_cell_angle_beta 90.000000
_cell_angle_gamma 90.000000
_cell_volume 3164.312859
_symmetry_space_group_name_H-M "P M N A"
_symmetry_group_IT_number 53
_symmetry_cell_setting 'orthorhombic'
loop_
_space_group_symop_operation_xyz
x,y,z
1/2-x,-y,1/2+z
x,-y,-z
1/2-x,y,1/2-z
-x,-y,-z
1/2+x,y,1/2-z
-x,y,z
1/2+x,-y,1/2+z
loop_
_atom_site_type_symbol
_atom_site_label
_atom_site_fract_x
_atom_site_fract_y
_atom_site_fract_z
Si Si1 0.082486 0.907239 0.472574
Si Si2 0.666877 0.054109 0.711037
Si Si3 0.080661 0.291362 0.765240
Si Si4 0.164085 0.122652 0.257211
Si Si5 0.078119 0.407702 0.995047
Si Si6 0.156178 0.812017 0.016322
Si Si7 0.283633 0.295574 0.898940
Si Si8 0.228665 0.422488 0.092196
O O1 0.121329 0.901088 0.326182
O O2 0.129008 0.868776 0.593344
O O3 0.000000 0.883077 0.471674
O O4 0.083512 0.000000 0.500000
O O5 0.750000 0.056457 0.750000
O O6 0.658742 0.100733 0.571141
O O7 0.645066 0.965059 0.713035
O O8 0.101041 0.235017 0.891214
O O9 0.135940 0.278499 0.642898
O O10 0.000000 0.281452 0.721883
O O11 0.089037 0.374894 0.840150
O O12 0.250000 0.127188 0.250000
O O13 0.138630 0.183520 0.143944
O O14 0.148503 0.387792 0.080769
O O15 0.000000 0.378493 0.040096
O O16 0.074911 0.500000 0.000000
O O17 0.232813 0.773570 0.050092
O O18 0.250000 0.320461 0.750000
O O19 0.277692 0.361161 0.013277
O O20 0.250000 0.435759 0.250000
O O21 0.230103 0.500000 0.000000
#
# Coordination Sequence:
#
# PCOD9416384 Si02
#       8
#     8   8   8   8   8   8   8   8
#     4   9  19  36  56  80 113 148 185 242 311 363
#     4  10  19  35  58  83 112 149 199 252 303 366
#     4  10  21  38  61  85 118 162 203 244 299 359
#     4  10  21  35  56  84 112 152 200 248 304 367
#     4   9  18  35  61  89 118 158 202 241 291 349
#     4  11  21  35  56  84 116 151 195 247 297 357
#     4  10  20  39  58  85 119 156 198 247 295 349
#     4  11  22  36  63  95 125 157 198 243 293 353
#
# _framework density 20.225559000000001
#
# number of rings (size 3 to 8) (size 9 to 14) (size 15 to 20)
#    0.000    2.000    2.500    2.625    1.750    3.500 
#    0.000    0.625    0.000    4.500    0.000    0.000 
#    0.000    0.000    0.000    0.000    0.000    0.000 
#
# Total GULP energy -357131.608409 kJ/mol
# GULP energy per Si atom -5580.181381 kJ/mol
# Density = 2.017953 g / cm^3
# Si number density = 20.225559 Si / 1000 Ang^3
#
#
#
# Elastic Constant Matrix: (Units=GPa)
#
#
# Indices 1 2 3 4 5 6 
#
# 1 146.8168 10.4987 56.8327 0.0000 0.0000 0.0000
# 2 10.4987 57.2294 31.5223 0.0000 0.0000 0.0000
# 3 56.8327 31.5223 139.6960 0.0000 0.0000 0.0000
# 4 0.0000 0.0000 0.0000 34.9949 0.0000 0.0000
# 5 0.0000 0.0000 0.0000 0.0000 21.3690 0.0000
# 6 0.0000 0.0000 0.0000 0.0000 0.0000 -29.9938
#
#
#
# Elastic Compliance Matrix: (Units=1/GPa)
#
#
# Indices 1 2 3 4 5 6 
#
# 1 0.008091 0.000375 -0.003377 0.000000 0.000000 0.000000
# 2 0.000375 0.019971 -0.004659 0.000000 0.000000 0.000000
# 3 -0.003377 -0.004659 0.009583 0.000000 0.000000 0.000000
# 4 0.000000 0.000000 0.000000 0.028576 0.000000 0.000000
# 5 0.000000 0.000000 0.000000 0.000000 0.046797 0.000000
# 6 0.000000 0.000000 0.000000 0.000000 0.000000 -0.033340
#
#
# Mechanical properties :
#
#
# Convention : Reuss Voigt Hill
#
# Bulk Modulus (GPa) = 44.79236 60.16109 52.47672
# Shear Modulus (GPa) = 48.80888 21.59991 35.20439
#
# Velocity S-wave (km/s) = 4.91779 3.27150 4.17656
# Velocity P-wave (km/s) = 7.37839 6.63927 7.01857
#
# Compressibility (1/GPa) = 0.02232524
#
# Stress axis : x y z
#
# Youngs Moduli (GPa) = 123.58757 50.07271 104.34674
#
# Poissons Ratio (x) = -0.01880 0.35233
# Poissons Ratio (y) = -0.04640 0.48617
# Poissons Ratio (z) = 0.41730 0.23330
#
# Static dielectric constant tensor:
#      x y z
#    x 1.737070 0.000000 0.000000 
#    y 0.000000 1.761960 0.000000 
#    z 0.000000 0.000000 1.697800 
# 
# From -- ./inp_files/11207.got.cif
#   From: 2010.05.17/outbox.cif.g08.bks.cpg/sg53_6_cif.got.tgz:11207.got - 2010.06.03 12:45:16.
