data_PCOD9416021
_publ_section_title
;
Structure prediction by ZEFSAII (Michael W. Deem and Ramdas Pophale) SiO2 
 PCOD9416021
Probable space group: P M N A
;
_chemical_formula_sum "Si O2"
_cell_formula_units_Z 58
_cell_length_a 25.381240
_cell_length_b 13.366755
_cell_length_c 9.425025
_cell_angle_alpha 90.000000
_cell_angle_beta 90.000000
_cell_angle_gamma 90.000000
_cell_volume 3197.579379
_symmetry_space_group_name_H-M "P M N A"
_symmetry_group_IT_number 53
_symmetry_cell_setting 'orthorhombic'
loop_
_space_group_symop_operation_xyz
x,y,z
1/2-x,-y,1/2+z
x,-y,-z
1/2-x,y,1/2-z
-x,-y,-z
1/2+x,y,1/2-z
-x,y,z
1/2+x,-y,1/2+z
loop_
_atom_site_type_symbol
_atom_site_label
_atom_site_fract_x
_atom_site_fract_y
_atom_site_fract_z
Si Si1 0.938636 0.723584 0.630381
Si Si2 0.440387 0.687270 0.198404
Si Si3 0.117766 0.515786 0.663566
Si Si4 0.351726 0.230325 0.595193
Si Si5 0.697818 0.028853 0.663378
Si Si6 0.500000 0.000000 0.500000
Si Si7 0.793457 0.433001 0.868578
Si Si8 0.098062 0.892734 0.835555
O O1 0.934783 0.729703 0.460239
O O2 0.905738 0.626137 0.676452
O O3 0.918368 0.822407 0.706331
O O4 0.000000 0.707439 0.666149
O O5 0.500000 0.702218 0.247950
O O6 0.426621 0.569558 0.186294
O O7 0.399334 0.738865 0.301987
O O8 0.136557 0.500000 0.500000
O O9 0.161828 0.492821 0.780272
O O10 0.315593 0.146223 0.668068
O O11 0.318552 0.330909 0.571473
O O12 0.376571 0.179125 0.456428
O O13 0.750000 0.003514 0.750000
O O14 0.707453 0.000000 0.500000
O O15 0.644470 0.970010 0.705248
O O16 0.452747 0.947983 0.598755
O O17 0.750000 0.409286 0.750000
O O18 0.774322 0.500000 0.000000
#
# Coordination Sequence:
#
# PCOD9416021 Si02
#       8
#     8   8   8   8   8   2   8   8
#     4  10  19  33  55  84 114 148 188 235 283 350
#     4   9  19  32  53  83 116 147 182 226 287 348
#     4   9  18  35  54  77 112 149 183 226 285 349
#     4  10  21  38  58  81 111 149 193 230 293 355
#     4  10  22  41  60  82 110 147 196 240 292 346
#     4  12  20  40  64  86 124 156 198 252 314 368
#     4  11  22  37  55  80 110 145 189 240 286 347
#     4  11  22  38  62  88 114 157 199 245 302 360
#
# _framework density 18.138721
#
# number of rings (size 3 to 8) (size 9 to 14) (size 15 to 20)
#    0.000    1.931    2.759    2.069    0.966    2.759 
#    0.000   10.345    0.000    7.034    0.000    0.000 
#    0.000    0.000    0.000    0.000    0.000    0.000 
#
# Total GULP energy -323113.086677 kJ/mol
# GULP energy per Si atom -5570.915288 kJ/mol
# Density = 1.809744 g / cm^3
# Si number density = 18.138721 Si / 1000 Ang^3
#
#
#
# Elastic Constant Matrix: (Units=GPa)
#
#
# Indices 1 2 3 4 5 6 
#
# 1 95.8905 27.4726 15.0925 0.0000 0.0000 0.0000
# 2 27.4726 74.6219 16.3323 0.0000 0.0000 0.0000
# 3 15.0925 16.3323 20.9899 0.0000 0.0000 0.0000
# 4 0.0000 0.0000 0.0000 28.5409 0.0000 0.0000
# 5 0.0000 0.0000 0.0000 0.0000 17.7545 0.0000
# 6 0.0000 0.0000 0.0000 0.0000 0.0000 13.3222
#
#
#
# Elastic Compliance Matrix: (Units=1/GPa)
#
#
# Indices 1 2 3 4 5 6 
#
# 1 0.012339 -0.003135 -0.006433 0.000000 0.000000 0.000000
# 2 -0.003135 0.016948 -0.010933 0.000000 0.000000 0.000000
# 3 -0.006433 -0.010933 0.060775 0.000000 0.000000 0.000000
# 4 0.000000 0.000000 0.000000 0.035037 0.000000 0.000000
# 5 0.000000 0.000000 0.000000 0.000000 0.056324 0.000000
# 6 0.000000 0.000000 0.000000 0.000000 0.000000 0.075063
#
#
# Mechanical properties :
#
#
# Convention : Reuss Voigt Hill
#
# Bulk Modulus (GPa) = 20.38333 34.36634 27.37484
# Shear Modulus (GPa) = 15.93161 20.76385 18.34773
#
# Velocity S-wave (km/s) = 2.96686 3.38705 3.18389
# Velocity P-wave (km/s) = 4.79565 5.85523 5.35172
#
# Compressibility (1/GPa) = 0.04905969
#
# Stress axis : x y z
#
# Youngs Moduli (GPa) = 81.04243 59.00443 16.45415
#
# Poissons Ratio (x) = 0.18496 0.10585
# Poissons Ratio (y) = 0.25405 0.17990
# Poissons Ratio (z) = 0.52136 0.64511
#
# Static dielectric constant tensor:
#      x y z
#    x 1.619390 0.000000 0.000000 
#    y 0.000000 1.614640 0.000000 
#    z 0.000000 0.000000 1.611970 
# 
# From -- ./inp_files/12572.got.cif
#   From: 2010.05.17/outbox.cif.g08.bks.cpg/sg53_7_cif.got.tgz:12572.got - 2010.06.03 12:45:16.
