data_PCOD9416175
_publ_section_title
;
Structure prediction by ZEFSAII (Michael W. Deem and Ramdas Pophale) SiO2 
 PCOD9416175
Probable space group: P M N A
;
_chemical_formula_sum "Si O2"
_cell_formula_units_Z 64
_cell_length_a 14.351655
_cell_length_b 20.239533
_cell_length_c 8.793192
_cell_angle_alpha 90.000000
_cell_angle_beta 90.000000
_cell_angle_gamma 90.000000
_cell_volume 2554.165471
_symmetry_space_group_name_H-M "P M N A"
_symmetry_group_IT_number 53
_symmetry_cell_setting 'orthorhombic'
loop_
_space_group_symop_operation_xyz
x,y,z
1/2-x,-y,1/2+z
x,-y,-z
1/2-x,y,1/2-z
-x,-y,-z
1/2+x,y,1/2-z
-x,y,z
1/2+x,-y,1/2+z
loop_
_atom_site_type_symbol
_atom_site_label
_atom_site_fract_x
_atom_site_fract_y
_atom_site_fract_z
Si Si1 0.109302 0.147604 0.848026
Si Si2 0.613831 0.897399 0.674784
Si Si3 0.613326 0.345739 0.332918
Si Si4 0.614027 0.524983 0.836536
Si Si5 0.894614 0.406201 0.856676
Si Si6 0.886753 0.224789 0.361119
Si Si7 0.851292 0.282789 0.689700
Si Si8 0.113697 0.973090 0.338824
O O1 0.114881 0.223130 0.797501
O O2 0.145156 0.098829 0.716196
O O3 0.000000 0.132270 0.860528
O O4 0.148547 0.129845 0.013354
O O5 0.500000 0.894968 0.673525
O O6 0.642078 0.848440 0.811544
O O7 0.638426 0.972499 0.711911
O O8 0.500000 0.342460 0.340746
O O9 0.639184 0.400946 0.209050
O O10 0.648270 0.370844 0.496086
O O11 0.641659 0.274037 0.275071
O O12 0.500000 0.522534 0.837913
O O13 0.646387 0.473563 0.707506
O O14 0.646111 0.500000 0.000000
O O15 0.900668 0.352268 0.721494
O O16 0.000000 0.423367 0.904111
O O17 0.853929 0.254836 0.520076
O O18 0.000000 0.224774 0.372864
O O19 0.750000 0.297194 0.750000
O O20 0.000000 0.971307 0.350680
O O21 0.148069 0.000000 0.500000
#
# Coordination Sequence:
#
# PCOD9416175 Si02
#       8
#     8   8   8   8   8   8   8   8
#     4  10  19  34  56  79 106 140 178 219 266 319
#     4   9  17  30  53  86 113 135 171 219 265 312
#     4   9  17  30  53  86 113 135 171 219 265 312
#     4   9  16  27  49  83 115 138 167 213 264 312
#     4  10  19  34  56  79 106 140 178 219 266 319
#     4  10  19  34  57  82 109 140 177 218 264 320
#     4  12  25  38  52  74 106 140 179 226 270 318
#     4   9  16  27  49  83 115 138 167 213 264 312
#
# _framework density 25.057109000000001
#
# number of rings (size 3 to 8) (size 9 to 14) (size 15 to 20)
#    0.000    2.250    0.000    4.125    0.000    9.000 
#    0.000    2.500    0.000    9.000    0.000    0.000 
#    0.000    0.000    0.000    0.000    0.000    0.000 
#
# Total GULP energy -358069.487506 kJ/mol
# GULP energy per Si atom -5594.835742 kJ/mol
# Density = 2.500008 g / cm^3
# Si number density = 25.057109 Si / 1000 Ang^3
#
#
#
# Elastic Constant Matrix: (Units=GPa)
#
#
# Indices 1 2 3 4 5 6 
#
# 1 72.5669 -11.4085 4.9175 0.0000 0.0000 0.0000
# 2 -11.4085 79.8729 -23.0168 0.0000 0.0000 0.0000
# 3 4.9175 -23.0168 66.9861 0.0000 0.0000 0.0000
# 4 0.0000 0.0000 0.0000 37.0785 0.0000 0.0000
# 5 0.0000 0.0000 0.0000 0.0000 17.6169 0.0000
# 6 0.0000 0.0000 0.0000 0.0000 0.0000 134.3326
#
#
#
# Elastic Compliance Matrix: (Units=1/GPa)
#
#
# Indices 1 2 3 4 5 6 
#
# 1 0.014106 0.001905 -0.000381 0.000000 0.000000 0.000000
# 2 0.001905 0.014153 0.004723 0.000000 0.000000 0.000000
# 3 -0.000381 0.004723 0.016579 0.000000 0.000000 0.000000
# 4 0.000000 0.000000 0.000000 0.026970 0.000000 0.000000
# 5 0.000000 0.000000 0.000000 0.000000 0.056764 0.000000
# 6 0.000000 0.000000 0.000000 0.000000 0.000000 0.007444
#
#
# Mechanical properties :
#
#
# Convention : Reuss Voigt Hill
#
# Bulk Modulus (GPa) = 17.44205 17.82335 17.63270
# Shear Modulus (GPa) = 35.05522 54.40118 44.72820
#
# Velocity S-wave (km/s) = 3.74440 4.66455 4.22957
# Velocity P-wave (km/s) = 5.06656 6.01159 5.55919
#
# Compressibility (1/GPa) = 0.05733270
#
# Stress axis : x y z
#
# Youngs Moduli (GPa) = 70.89338 70.65603 60.31596
#
# Poissons Ratio (x) = -0.13460 0.02298
# Poissons Ratio (y) = -0.13505 -0.28489
# Poissons Ratio (z) = 0.02701 -0.33372
#
# Static dielectric constant tensor:
#      x y z
#    x 2.053600 0.000000 0.000000 
#    y 0.000000 1.971370 0.000000 
#    z 0.000000 0.000000 1.957310 
# 
# From -- ./inp_files/10229.got.cif
#   From: 2010.05.17/outbox.cif.g08.bks.cpg/sg53_6_cif.got.tgz:10229.got - 2010.06.03 12:45:16.
