data_PCOD9416476
_publ_section_title
;
Structure prediction by ZEFSAII (Michael W. Deem and Ramdas Pophale) SiO2 
 PCOD9416476
Probable space group: P M N A
;
_chemical_formula_sum "Si O2"
_cell_formula_units_Z 56
_cell_length_a 21.897350
_cell_length_b 9.502583
_cell_length_c 14.180411
_cell_angle_alpha 90.000000
_cell_angle_beta 90.000000
_cell_angle_gamma 90.000000
_cell_volume 2950.679573
_symmetry_space_group_name_H-M "P M N A"
_symmetry_group_IT_number 53
_symmetry_cell_setting 'orthorhombic'
loop_
_space_group_symop_operation_xyz
x,y,z
1/2-x,-y,1/2+z
x,-y,-z
1/2-x,y,1/2-z
-x,-y,-z
1/2+x,y,1/2-z
-x,y,z
1/2+x,-y,1/2+z
loop_
_atom_site_type_symbol
_atom_site_label
_atom_site_fract_x
_atom_site_fract_y
_atom_site_fract_z
Si Si1 0.147961 0.464197 0.263188
Si Si2 0.756299 0.414958 0.095952
Si Si3 0.769124 0.083176 0.404092
Si Si4 0.433198 0.939820 0.094901
Si Si5 0.574700 0.747483 0.261701
Si Si6 0.362910 0.020433 0.611356
Si Si7 0.886992 0.157884 0.279051
O O1 0.196253 0.474890 0.349703
O O2 0.189073 0.434493 0.170643
O O3 0.104101 0.594327 0.243511
O O4 0.110752 0.323374 0.285736
O O5 0.749248 0.246976 0.077381
O O6 0.766089 0.500000 0.000000
O O7 0.709761 0.996132 0.369577
O O8 0.823729 0.101408 0.328541
O O9 0.784322 0.000000 0.500000
O O10 0.500000 0.885496 0.067708
O O11 0.405706 0.822083 0.162691
O O12 0.436431 0.074040 0.162531
O O13 0.405120 0.000000 0.000000
O O14 0.500000 0.750169 0.268520
O O15 0.605988 0.840599 0.344439
O O16 0.390277 0.892604 0.671961
O O17 0.371973 0.000000 0.500000
#
# Coordination Sequence:
#
# PCOD9416476 Si02
#       7
#     8   8   8   8   8   8   8
#     4  10  22  38  57  86 119 158 191 236 290 359
#     4  10  22  38  58  85 123 153 189 238 295 359
#     4  10  20  34  58  89 114 150 187 241 303 357
#     4   9  19  37  59  84 113 150 196 247 293 341
#     4  10  23  41  60  85 118 155 203 251 291 351
#     4  10  21  36  58  83 110 152 199 248 299 344
#     4  10  19  36  57  83 122 147 190 240 295 358
#
# _framework density 18.978677999999999
#
# number of rings (size 3 to 8) (size 9 to 14) (size 15 to 20)
#    0.000    2.143    1.429    0.857    4.000    5.429 
#    5.143    0.000    0.000    4.286    0.000    0.000 
#    0.000    0.000    0.000    0.000    0.000    0.000 
#
# Total GULP energy -311793.809546 kJ/mol
# GULP energy per Si atom -5567.746599 kJ/mol
# Density = 1.893548 g / cm^3
# Si number density = 18.978678 Si / 1000 Ang^3
#
#
#
# Elastic Constant Matrix: (Units=GPa)
#
#
# Indices 1 2 3 4 5 6 
#
# 1 76.7569 50.5921 15.4615 0.0000 0.0000 0.0000
# 2 50.5921 126.2632 39.2612 0.0000 0.0000 0.0000
# 3 15.4615 39.2612 119.2015 0.0000 0.0000 0.0000
# 4 0.0000 0.0000 0.0000 17.7568 0.0000 0.0000
# 5 0.0000 0.0000 0.0000 0.0000 23.4548 0.0000
# 6 0.0000 0.0000 0.0000 0.0000 0.0000 19.1632
#
#
#
# Elastic Compliance Matrix: (Units=1/GPa)
#
#
# Indices 1 2 3 4 5 6 
#
# 1 0.017704 -0.007108 0.000045 0.000000 0.000000 0.000000
# 2 -0.007108 0.011677 -0.002924 0.000000 0.000000 0.000000
# 3 0.000045 -0.002924 0.009346 0.000000 0.000000 0.000000
# 4 0.000000 0.000000 0.000000 0.056316 0.000000 0.000000
# 5 0.000000 0.000000 0.000000 0.000000 0.042635 0.000000
# 6 0.000000 0.000000 0.000000 0.000000 0.000000 0.052183
#
#
# Mechanical properties :
#
#
# Convention : Reuss Voigt Hill
#
# Bulk Modulus (GPa) = 53.32383 59.20567 56.26475
# Shear Modulus (GPa) = 23.13873 26.53542 24.83707
#
# Velocity S-wave (km/s) = 3.49549 3.74327 3.62150
# Velocity P-wave (km/s) = 6.66700 7.06727 6.87005
#
# Compressibility (1/GPa) = 0.01875334
#
# Stress axis : x y z
#
# Youngs Moduli (GPa) = 56.48457 85.63720 106.99211
#
# Poissons Ratio (x) = 0.60868 -0.00478
# Poissons Ratio (y) = 0.40147 0.31286
# Poissons Ratio (z) = -0.00252 0.25042
#
# Static dielectric constant tensor:
#      x y z
#    x 1.742180 0.000000 0.000000 
#    y 0.000000 1.636680 0.000000 
#    z 0.000000 0.000000 1.655530 
# 
# From -- ./inp_files/24330.got.cif
#   From: 2010.05.17/outbox.cif.g08.bks.cpg/sg53_13_cif.got.tgz:24330.got - 2010.06.03 12:45:16.
