data_PCOD9416674
_publ_section_title
;
Structure prediction by ZEFSAII (Michael W. Deem and Ramdas Pophale) SiO2 
 PCOD9416674
Probable space group: P M N A
;
_chemical_formula_sum "Si O2"
_cell_formula_units_Z 52
_cell_length_a 26.059150
_cell_length_b 11.526033
_cell_length_c 9.644658
_cell_angle_alpha 90.000000
_cell_angle_beta 90.000000
_cell_angle_gamma 90.000000
_cell_volume 2896.856195
_symmetry_space_group_name_H-M "P M N A"
_symmetry_group_IT_number 53
_symmetry_cell_setting 'orthorhombic'
loop_
_space_group_symop_operation_xyz
x,y,z
1/2-x,-y,1/2+z
x,-y,-z
1/2-x,y,1/2-z
-x,-y,-z
1/2+x,y,1/2-z
-x,y,z
1/2+x,-y,1/2+z
loop_
_atom_site_type_symbol
_atom_site_label
_atom_site_fract_x
_atom_site_fract_y
_atom_site_fract_z
Si Si1 0.000000 0.424996 0.858481
Si Si2 0.162692 0.672006 0.939199
Si Si3 0.000000 0.601908 0.610630
Si Si4 0.389980 0.640843 0.268607
Si Si5 0.106990 0.620542 0.677837
Si Si6 0.245081 0.500000 0.000000
Si Si7 0.263227 0.117219 0.414651
Si Si8 0.316046 0.293578 0.954395
O O1 0.948823 0.350500 0.823111
O O2 0.000000 0.532515 0.753244
O O3 0.000000 0.500000 0.000000
O O4 0.115499 0.658531 0.835228
O O5 0.187929 0.797494 0.925775
O O6 0.143658 0.640769 0.092326
O O7 0.207883 0.579556 0.905417
O O8 0.000000 0.500000 0.500000
O O9 0.054354 0.664666 0.608918
O O10 0.391316 0.519141 0.184239
O O11 0.358752 0.724825 0.164598
O O12 0.154087 0.666713 0.591104
O O13 0.279280 0.595920 0.079548
O O14 0.250000 0.101788 0.250000
O O15 0.218470 0.185770 0.498920
O O16 0.272284 0.000000 0.500000
#
# Coordination Sequence:
#
# PCOD9416674 Si02
#       8
#     4   8   4   8   8   4   8   8
#     4  10  20  34  50  80 127 170 195 227 270 340
#     4  11  22  34  56  81 116 151 191 231 283 340
#     4  10  20  30  52  78 119 164 191 225 276 344
#     4  11  20  33  54  87 119 160 191 224 279 343
#     4  11  18  35  50  85 119 156 188 228 278 339
#     4  10  20  32  50  80 114 150 176 228 274 340
#     4  11  26  44  60  82 111 147 195 244 293 347
#     4  11  22  34  57  82 117 148 192 235 285 339
#
# _framework density 17.950495
#
# number of rings (size 3 to 8) (size 9 to 14) (size 15 to 20)
#    0.000    1.231    4.615    3.692    2.154    3.077 
#    0.000    0.000    0.000    0.000    0.000    6.462 
#    0.000    0.000    0.000    0.000    0.000    0.000 
#
# Total GULP energy -289763.845986 kJ/mol
# GULP energy per Si atom -5572.381654 kJ/mol
# Density = 1.790964 g / cm^3
# Si number density = 17.950495 Si / 1000 Ang^3
#
#
#
# Elastic Constant Matrix: (Units=GPa)
#
#
# Indices 1 2 3 4 5 6 
#
# 1 83.0185 28.3998 7.0321 0.0000 0.0000 0.0000
# 2 28.3998 75.5406 8.4014 0.0000 0.0000 0.0000
# 3 7.0321 8.4014 69.4467 0.0000 0.0000 0.0000
# 4 0.0000 0.0000 0.0000 20.8138 0.0000 0.0000
# 5 0.0000 0.0000 0.0000 0.0000 28.7249 0.0000
# 6 0.0000 0.0000 0.0000 0.0000 0.0000 13.3628
#
#
#
# Elastic Compliance Matrix: (Units=1/GPa)
#
#
# Indices 1 2 3 4 5 6 
#
# 1 0.013865 -0.005126 -0.000784 0.000000 0.000000 0.000000
# 2 -0.005126 0.015313 -0.001334 0.000000 0.000000 0.000000
# 3 -0.000784 -0.001334 0.014640 0.000000 0.000000 0.000000
# 4 0.000000 0.000000 0.000000 0.048045 0.000000 0.000000
# 5 0.000000 0.000000 0.000000 0.000000 0.034813 0.000000
# 6 0.000000 0.000000 0.000000 0.000000 0.000000 0.074835
#
#
# Mechanical properties :
#
#
# Convention : Reuss Voigt Hill
#
# Bulk Modulus (GPa) = 34.09157 35.07473 34.58315
# Shear Modulus (GPa) = 22.14596 24.85847 23.50222
#
# Velocity S-wave (km/s) = 3.51625 3.72537 3.62232
# Velocity P-wave (km/s) = 5.95975 6.17144 6.06652
#
# Compressibility (1/GPa) = 0.02933276
#
# Stress axis : x y z
#
# Youngs Moduli (GPa) = 72.12251 65.30318 68.30490
#
# Poissons Ratio (x) = 0.33471 0.05355
# Poissons Ratio (y) = 0.36967 0.09109
# Poissons Ratio (z) = 0.05654 0.08708
#
# Static dielectric constant tensor:
#      x y z
#    x 1.756130 0.000000 0.000000 
#    y 0.000000 1.584880 0.000000 
#    z 0.000000 0.000000 1.642730 
# 
# From -- ./inp_files/12525.got.cif
#   From: 2010.05.17/outbox.cif.g08.bks.cpg/sg53_7_cif.got.tgz:12525.got - 2010.06.03 12:45:16.
