data_PCOD9416060
_publ_section_title
;
Structure prediction by ZEFSAII (Michael W. Deem and Ramdas Pophale) SiO2 
 PCOD9416060
Probable space group: P M N A
;
_chemical_formula_sum "Si O2"
_cell_formula_units_Z 64
_cell_length_a 7.801917
_cell_length_b 13.253547
_cell_length_c 29.395805
_cell_angle_alpha 90.000000
_cell_angle_beta 90.000000
_cell_angle_gamma 90.000000
_cell_volume 3039.616589
_symmetry_space_group_name_H-M "P M N A"
_symmetry_group_IT_number 53
_symmetry_cell_setting 'orthorhombic'
loop_
_space_group_symop_operation_xyz
x,y,z
1/2-x,-y,1/2+z
x,-y,-z
1/2-x,y,1/2-z
-x,-y,-z
1/2+x,y,1/2-z
-x,y,z
1/2+x,-y,1/2+z
loop_
_atom_site_type_symbol
_atom_site_label
_atom_site_fract_x
_atom_site_fract_y
_atom_site_fract_z
Si Si1 0.704571 0.635205 0.639836
Si Si2 0.206714 0.587908 0.131902
Si Si3 0.702445 0.228141 0.802526
Si Si4 0.790884 0.399632 0.972376
Si Si5 0.208289 0.748991 0.950364
Si Si6 0.288661 0.971285 0.146794
Si Si7 0.200290 0.021388 0.450716
Si Si8 0.703271 0.827182 0.802554
O O1 0.500000 0.627019 0.636029
O O2 0.769642 0.522271 0.648340
O O3 0.764574 0.677367 0.591087
O O4 0.739992 0.720557 0.676863
O O5 0.252625 0.677253 0.165887
O O6 0.267582 0.603039 0.079797
O O7 0.000000 0.585710 0.130054
O O8 0.750000 0.241915 0.750000
O O9 0.500000 0.217219 0.803751
O O10 0.772626 0.124304 0.824232
O O11 0.000000 0.402423 0.971715
O O12 0.737030 0.500000 0.000000
O O13 0.740961 0.302820 0.002240
O O14 0.284167 0.859089 0.943332
O O15 0.000000 0.756571 0.949294
O O16 0.500000 0.972497 0.146499
O O17 0.229747 0.967760 0.094353
O O18 0.229759 0.076600 0.169163
O O19 0.000000 0.992329 0.453232
O O20 0.280271 0.000000 0.500000
O O21 0.750000 0.836965 0.750000
O O22 0.500000 0.829964 0.806688
#
# Coordination Sequence:
#
# PCOD9416060 Si02
#       8
#     8   8   8   8   8   8   8   8
#     4  10  20  36  58  86 118 153 191 235 287 344
#     4  10  21  38  61  88 120 157 199 241 290 347
#     4  11  24  43  64  85 114 151 200 252 301 349
#     4   9  16  31  56  85 116 152 189 228 278 334
#     4  10  19  33  56  85 117 150 191 237 279 332
#     4   9  20  39  60  85 115 150 189 234 286 345
#     4  10  21  37  57  82 119 160 188 220 283 354
#     4  11  22  38  61  86 113 144 187 239 294 351
#
# _framework density 21.055285999999999
#
# number of rings (size 3 to 8) (size 9 to 14) (size 15 to 20)
#    0.000    2.000    2.500    1.125    1.750    1.250 
#    0.000    3.125    0.000    0.750    0.000    0.000 
#    0.000    0.000    0.000    0.000    0.000    0.000 
#
# Total GULP energy -357433.194411 kJ/mol
# GULP energy per Si atom -5584.893663 kJ/mol
# Density = 2.100736 g / cm^3
# Si number density = 21.055286 Si / 1000 Ang^3
#
#
#
# Elastic Constant Matrix: (Units=GPa)
#
#
# Indices 1 2 3 4 5 6 
#
# 1 21.4559 -5.9762 2.4533 0.0000 0.0000 0.0000
# 2 -5.9762 99.4881 73.3544 0.0000 0.0000 0.0000
# 3 2.4533 73.3544 184.1918 0.0000 0.0000 0.0000
# 4 0.0000 0.0000 0.0000 43.1242 0.0000 0.0000
# 5 0.0000 0.0000 0.0000 0.0000 -14.4096 0.0000
# 6 0.0000 0.0000 0.0000 0.0000 0.0000 23.6429
#
#
#
# Elastic Compliance Matrix: (Units=1/GPa)
#
#
# Indices 1 2 3 4 5 6 
#
# 1 0.048227 0.004772 -0.002543 0.000000 0.000000 0.000000
# 2 0.004772 0.014702 -0.005919 0.000000 0.000000 0.000000
# 3 -0.002543 -0.005919 0.007820 0.000000 0.000000 0.000000
# 4 0.000000 0.000000 0.000000 0.023189 0.000000 0.000000
# 5 0.000000 0.000000 0.000000 0.000000 -0.069398 0.000000
# 6 0.000000 0.000000 0.000000 0.000000 0.000000 0.042296
#
#
# Mechanical properties :
#
#
# Convention : Reuss Voigt Hill
#
# Bulk Modulus (GPa) = 15.78033 49.42211 32.60122
# Shear Modulus (GPa) = 52.44470 26.15845 39.30157
#
# Velocity S-wave (km/s) = 4.99622 3.52855 4.32509
# Velocity P-wave (km/s) = 6.38701 6.33438 6.36075
#
# Compressibility (1/GPa) = 0.06337003
#
# Stress axis : x y z
#
# Youngs Moduli (GPa) = 20.73522 68.01796 127.87585
#
# Poissons Ratio (x) = -0.32457 0.32515
# Poissons Ratio (y) = -0.09894 0.75685
# Poissons Ratio (z) = 0.05272 0.40257
#
# Static dielectric constant tensor:
#      x y z
#    x 1.774010 0.000000 0.000000 
#    y 0.000000 1.765470 0.000000 
#    z 0.000000 0.000000 1.584480 
# 
# From -- ./inp_files/38271.got.cif
#   From: 2010.05.17/outbox.cif.g08.bks.cpg/sg53_20_cif.got.tgz:38271.got - 2010.06.03 12:45:16.
