data_PCOD9416744
_publ_section_title
;
Structure prediction by ZEFSAII (Michael W. Deem and Ramdas Pophale) SiO2 
 PCOD9416744
Probable space group: P M N A
;
_chemical_formula_sum "Si O2"
_cell_formula_units_Z 40
_cell_length_a 17.813010
_cell_length_b 5.054048
_cell_length_c 24.055192
_cell_angle_alpha 90.000000
_cell_angle_beta 90.000000
_cell_angle_gamma 90.000000
_cell_volume 2165.636196
_symmetry_space_group_name_H-M "P M N A"
_symmetry_group_IT_number 53
_symmetry_cell_setting 'orthorhombic'
loop_
_space_group_symop_operation_xyz
x,y,z
1/2-x,-y,1/2+z
x,-y,-z
1/2-x,y,1/2-z
-x,-y,-z
1/2+x,y,1/2-z
-x,y,z
1/2+x,-y,1/2+z
loop_
_atom_site_type_symbol
_atom_site_label
_atom_site_fract_x
_atom_site_fract_y
_atom_site_fract_z
Si Si1 0.260963 0.914302 0.685805
Si Si2 0.916512 0.115640 0.125718
Si Si3 0.713353 0.407216 0.879173
Si Si4 0.869897 0.618344 0.060920
Si Si5 0.914170 0.758123 0.461500
O O1 0.250000 0.850328 0.750000
O O2 0.348813 0.917878 0.669022
O O3 0.219683 0.700044 0.646265
O O4 0.229946 0.201854 0.670121
O O5 0.908889 0.411393 0.102459
O O6 0.000000 0.068532 0.147572
O O7 0.900615 0.908627 0.075440
O O8 0.781671 0.380538 0.923387
O O9 0.638376 0.317588 0.910198
O O10 0.881289 0.500000 0.000000
O O11 0.915978 0.500000 0.500000
O O12 0.000000 0.824042 0.444712
O O13 0.885525 0.000000 0.500000
#
# Coordination Sequence:
#
# PCOD9416744 Si02
#       5
#     8   8   8   8   8
#     4  10  21  38  57  75 100 138 180 225 269 305
#     4  10  21  35  51  75 105 134 169 211 256 305
#     4  10  20  35  55  78 105 137 179 219 256 317
#     4  10  20  32  51  77 105 139 170 201 247 307
#     4  10  20  34  54  81 114 145 171 212 270 324
#
# _framework density 18.470323
#
# number of rings (size 3 to 8) (size 9 to 14) (size 15 to 20)
#    0.000    2.000    0.000    3.600    0.000    5.600 
#    0.000    2.000    0.000    0.000    0.000    0.000 
#    0.000    0.000    0.000    0.000    0.000    0.000 
#
# Total GULP energy -223230.848619 kJ/mol
# GULP energy per Si atom -5580.771215 kJ/mol
# Density = 1.842828 g / cm^3
# Si number density = 18.470323 Si / 1000 Ang^3
#
#
#
# Elastic Constant Matrix: (Units=GPa)
#
#
# Indices 1 2 3 4 5 6 
#
# 1 91.9777 4.7855 47.0711 0.0000 0.0000 0.0000
# 2 4.7855 75.8279 -5.8292 0.0000 0.0000 0.0000
# 3 47.0711 -5.8292 69.8257 0.0000 0.0000 0.0000
# 4 0.0000 0.0000 0.0000 19.8542 0.0000 0.0000
# 5 0.0000 0.0000 0.0000 0.0000 25.1176 0.0000
# 6 0.0000 0.0000 0.0000 0.0000 0.0000 11.6738
#
#
#
# Elastic Compliance Matrix: (Units=1/GPa)
#
#
# Indices 1 2 3 4 5 6 
#
# 1 0.016881 -0.001953 -0.011543 0.000000 0.000000 0.000000
# 2 -0.001953 0.013499 0.002443 0.000000 0.000000 0.000000
# 3 -0.011543 0.002443 0.022307 0.000000 0.000000 0.000000
# 4 0.000000 0.000000 0.000000 0.050367 0.000000 0.000000
# 5 0.000000 0.000000 0.000000 0.000000 0.039813 0.000000
# 6 0.000000 0.000000 0.000000 0.000000 0.000000 0.085662
#
#
# Mechanical properties :
#
#
# Convention : Reuss Voigt Hill
#
# Bulk Modulus (GPa) = 32.69915 36.63179 34.66547
# Shear Modulus (GPa) = 19.16980 24.10272 21.63626
#
# Velocity S-wave (km/s) = 3.22509 3.61632 3.42630
# Velocity P-wave (km/s) = 5.62231 6.10842 5.87040
#
# Compressibility (1/GPa) = 0.03058183
#
# Stress axis : x y z
#
# Youngs Moduli (GPa) = 59.23803 74.08059 44.82969
#
# Poissons Ratio (x) = 0.14466 0.51746
# Poissons Ratio (y) = 0.11567 -0.10953
# Poissons Ratio (z) = 0.68378 -0.18100
#
# Static dielectric constant tensor:
#      x y z
#    x 1.662490 0.000000 0.000000 
#    y 0.000000 1.637190 0.000000 
#    z 0.000000 0.000000 1.600590 
# 
# From -- ./inp_files/28735.got.cif
#   From: 2010.05.17/outbox.cif.g08.bks.cpg/sg53_15_cif.got.tgz:28735.got - 2010.06.03 12:45:16.
