data_PCOD9416800
_publ_section_title
;
Structure prediction by ZEFSAII (Michael W. Deem and Ramdas Pophale) SiO2 
 PCOD9416800
Probable space group: P M N A
;
_chemical_formula_sum "Si O2"
_cell_formula_units_Z 48
_cell_length_a 8.468354
_cell_length_b 21.360459
_cell_length_c 14.242162
_cell_angle_alpha 90.000000
_cell_angle_beta 90.000000
_cell_angle_gamma 90.000000
_cell_volume 2576.235180
_symmetry_space_group_name_H-M "P M N A"
_symmetry_group_IT_number 53
_symmetry_cell_setting 'orthorhombic'
loop_
_space_group_symop_operation_xyz
x,y,z
1/2-x,-y,1/2+z
x,-y,-z
1/2-x,y,1/2-z
-x,-y,-z
1/2+x,y,1/2-z
-x,y,z
1/2+x,-y,1/2+z
loop_
_atom_site_type_symbol
_atom_site_label
_atom_site_fract_x
_atom_site_fract_y
_atom_site_fract_z
Si Si1 0.188124 0.649606 0.048589
Si Si2 0.307646 0.095971 0.542104
Si Si3 0.310393 0.612274 0.846337
Si Si4 0.191269 0.221625 0.855937
Si Si5 0.190372 0.969349 0.854021
Si Si6 0.178191 0.478437 0.608579
O O1 0.244084 0.712659 0.099227
O O2 0.234807 0.587547 0.107078
O O3 0.000000 0.651429 0.040425
O O4 0.257366 0.643397 0.943571
O O5 0.500000 0.096225 0.541632
O O6 0.254647 0.162274 0.582434
O O7 0.257784 0.078379 0.436268
O O8 0.259747 0.038452 0.609772
O O9 0.250000 0.642490 0.750000
O O10 0.500000 0.608910 0.846330
O O11 0.245625 0.540487 0.847910
O O12 0.250000 0.215405 0.750000
O O13 0.000000 0.221527 0.855376
O O14 0.250000 0.956129 0.750000
O O15 0.000000 0.968837 0.852424
O O16 0.165899 0.500000 0.500000
O O17 0.000000 0.469140 0.645035
#
# Coordination Sequence:
#
# PCOD9416800 Si02
#       6
#     8   8   8   8   8   8
#     4  10  20  33  50  73 101 133 167 204 247 297
#     4   8  16  32  51  72 102 137 167 199 245 296
#     4  10  20  34  53  75  99 129 165 207 254 301
#     4  10  21  36  53  73  99 132 168 205 247 297
#     4   9  16  29  52  77 101 132 167 204 247 290
#     4   8  16  31  49  69  94 124 158 201 249 291
#
# _framework density 18.631837999999998
#
# number of rings (size 3 to 8) (size 9 to 14) (size 15 to 20)
#    0.000    2.833    0.000    3.500    0.000    5.667 
#    0.000    6.667    0.000    2.000    0.000    0.000 
#    0.000    0.000    0.000    0.000    0.000    0.000 
#
# Total GULP energy -267506.313125 kJ/mol
# GULP energy per Si atom -5573.048190 kJ/mol
# Density = 1.858943 g / cm^3
# Si number density = 18.631838 Si / 1000 Ang^3
#
#
#
# Elastic Constant Matrix: (Units=GPa)
#
#
# Indices 1 2 3 4 5 6 
#
# 1 21.7145 21.6305 13.1184 0.0000 0.0000 0.0000
# 2 21.6305 138.5125 69.2038 0.0000 0.0000 0.0000
# 3 13.1184 69.2038 133.9429 0.0000 0.0000 0.0000
# 4 0.0000 0.0000 0.0000 18.5038 0.0000 0.0000
# 5 0.0000 0.0000 0.0000 0.0000 24.7876 0.0000
# 6 0.0000 0.0000 0.0000 0.0000 0.0000 10.8699
#
#
#
# Elastic Compliance Matrix: (Units=1/GPa)
#
#
# Indices 1 2 3 4 5 6 
#
# 1 0.054696 -0.007906 -0.001272 0.000000 0.000000 0.000000
# 2 -0.007906 0.010874 -0.004844 0.000000 0.000000 0.000000
# 3 -0.001272 -0.004844 0.010093 0.000000 0.000000 0.000000
# 4 0.000000 0.000000 0.000000 0.054043 0.000000 0.000000
# 5 0.000000 0.000000 0.000000 0.000000 0.040343 0.000000
# 6 0.000000 0.000000 0.000000 0.000000 0.000000 0.091998
#
#
# Mechanical properties :
#
#
# Convention : Reuss Voigt Hill
#
# Bulk Modulus (GPa) = 20.99990 55.78613 38.39301
# Shear Modulus (GPa) = 16.34176 23.51340 19.92758
#
# Velocity S-wave (km/s) = 2.96478 3.55632 3.27394
# Velocity P-wave (km/s) = 4.79743 6.84613 5.91121
#
# Compressibility (1/GPa) = 0.04761928
#
# Stress axis : x y z
#
# Youngs Moduli (GPa) = 18.28286 91.95916 99.07582
#
# Poissons Ratio (x) = 0.72701 0.12605
# Poissons Ratio (y) = 0.14454 0.47994
# Poissons Ratio (z) = 0.02326 0.44546
#
# Static dielectric constant tensor:
#      x y z
#    x 1.653060 0.000000 0.000000 
#    y 0.000000 1.650300 0.000000 
#    z 0.000000 0.000000 1.652640 
# 
# From -- ./inp_files/20349.got.cif
#   From: 2010.05.17/outbox.cif.g08.bks.cpg/sg53_11_cif.got.tgz:20349.got - 2010.06.03 12:45:16.
