data_PCOD9416118
_publ_section_title
;
Structure prediction by ZEFSAII (Michael W. Deem and Ramdas Pophale) SiO2 
 PCOD9416118
Probable space group: P M N A
;
_chemical_formula_sum "Si O2"
_cell_formula_units_Z 64
_cell_length_a 8.739561
_cell_length_b 20.100799
_cell_length_c 21.224173
_cell_angle_alpha 90.000000
_cell_angle_beta 90.000000
_cell_angle_gamma 90.000000
_cell_volume 3728.496294
_symmetry_space_group_name_H-M "P M N A"
_symmetry_group_IT_number 53
_symmetry_cell_setting 'orthorhombic'
loop_
_space_group_symop_operation_xyz
x,y,z
1/2-x,-y,1/2+z
x,-y,-z
1/2-x,y,1/2-z
-x,-y,-z
1/2+x,y,1/2-z
-x,y,z
1/2+x,-y,1/2+z
loop_
_atom_site_type_symbol
_atom_site_label
_atom_site_fract_x
_atom_site_fract_y
_atom_site_fract_z
Si Si1 0.683070 0.177168 0.133710
Si Si2 0.316509 0.041788 0.316308
Si Si3 0.683638 0.319092 0.369192
Si Si4 0.184644 0.544336 0.061134
Si Si5 0.815778 0.040943 0.938518
Si Si6 0.317238 0.174643 0.984901
Si Si7 0.816624 0.676049 0.490458
Si Si8 0.815759 0.460441 0.183518
O O1 0.500000 0.175476 0.139744
O O2 0.757406 0.116342 0.170572
O O3 0.744263 0.249652 0.153037
O O4 0.722659 0.168500 0.059313
O O5 0.250000 0.018218 0.250000
O O6 0.500000 0.042156 0.314226
O O7 0.265431 0.995969 0.374944
O O8 0.500000 0.314024 0.368394
O O9 0.738948 0.330728 0.440970
O O10 0.731378 0.384145 0.330280
O O11 0.259744 0.616150 0.052608
O O12 0.231523 0.505885 0.124398
O O13 0.000000 0.551102 0.061143
O O14 0.225527 0.500000 0.000000
O O15 0.760661 0.116193 0.946227
O O16 0.000000 0.039903 0.939300
O O17 0.761100 0.000000 0.000000
O O18 0.500000 0.167427 0.980117
O O19 0.276383 0.250043 0.966066
O O20 0.000000 0.673861 0.498680
O O21 0.750000 0.482947 0.250000
O O22 0.000000 0.461502 0.185546
#
# Coordination Sequence:
#
# PCOD9416118 Si02
#       8
#     8   8   8   8   8   8   8   8
#     4  10  20  34  52  79 111 144 183 224 264 318
#     4  11  23  38  55  78 109 145 182 223 271 324
#     4  10  19  34  53  75 108 150 185 220 265 318
#     4  10  19  36  57  79 107 141 181 223 271 324
#     4  10  20  35  56  82 107 136 180 226 266 316
#     4   9  19  33  52  80 112 140 172 217 270 320
#     4  10  20  33  52  84 113 138 177 225 273 319
#     4  10  22  37  54  77 107 143 181 221 268 321
#
# _framework density 17.165095999999998
#
# number of rings (size 3 to 8) (size 9 to 14) (size 15 to 20)
#    0.000    2.000    2.500    2.250    0.000    6.000 
#    0.000    1.250    0.000    0.750    0.000    0.000 
#    0.000    0.000    0.000    0.000    0.000    0.000 
#
# Total GULP energy -357273.308385 kJ/mol
# GULP energy per Si atom -5582.395444 kJ/mol
# Density = 1.712603 g / cm^3
# Si number density = 17.165096 Si / 1000 Ang^3
#
#
#
# Elastic Constant Matrix: (Units=GPa)
#
#
# Indices 1 2 3 4 5 6 
#
# 1 28.4463 25.2066 28.9810 0.0000 0.0000 0.0000
# 2 25.2066 112.0488 64.2869 0.0000 0.0000 0.0000
# 3 28.9810 64.2869 114.9825 0.0000 0.0000 0.0000
# 4 0.0000 0.0000 0.0000 21.8203 0.0000 0.0000
# 5 0.0000 0.0000 0.0000 0.0000 21.5966 0.0000
# 6 0.0000 0.0000 0.0000 0.0000 0.0000 84.7035
#
#
#
# Elastic Compliance Matrix: (Units=1/GPa)
#
#
# Indices 1 2 3 4 5 6 
#
# 1 0.049809 -0.005892 -0.009260 0.000000 0.000000 0.000000
# 2 -0.005892 0.013837 -0.006251 0.000000 0.000000 0.000000
# 3 -0.009260 -0.006251 0.014526 0.000000 0.000000 0.000000
# 4 0.000000 0.000000 0.000000 0.045829 0.000000 0.000000
# 5 0.000000 0.000000 0.000000 0.000000 0.046304 0.000000
# 6 0.000000 0.000000 0.000000 0.000000 0.000000 0.011806
#
#
# Mechanical properties :
#
#
# Convention : Reuss Voigt Hill
#
# Bulk Modulus (GPa) = 28.27624 54.71407 41.49516
# Shear Modulus (GPa) = 21.12334 34.75762 27.94048
#
# Velocity S-wave (km/s) = 3.51179 4.50477 4.03892
# Velocity P-wave (km/s) = 5.74042 7.68126 6.78064
#
# Compressibility (1/GPa) = 0.03536538
#
# Stress axis : x y z
#
# Youngs Moduli (GPa) = 20.07657 72.27179 68.84306
#
# Poissons Ratio (x) = 0.42586 0.63748
# Poissons Ratio (y) = 0.11830 0.43033
# Poissons Ratio (z) = 0.18591 0.45177
#
# Static dielectric constant tensor:
#      x y z
#    x 1.578040 0.000000 0.000000 
#    y 0.000000 1.578560 0.000000 
#    z 0.000000 0.000000 1.576420 
# 
# From -- ./inp_files/31322.got.cif
#   From: 2010.05.17/outbox.cif.g08.bks.cpg/sg53_16_cif.got.tgz:31322.got - 2010.06.03 12:45:16.
