data_PCOD9416192
_publ_section_title
;
Structure prediction by ZEFSAII (Michael W. Deem and Ramdas Pophale) SiO2 
 PCOD9416192
Probable space group: P M N A
;
_chemical_formula_sum "Si O2"
_cell_formula_units_Z 48
_cell_length_a 8.591645
_cell_length_b 16.091077
_cell_length_c 18.314168
_cell_angle_alpha 90.000000
_cell_angle_beta 90.000000
_cell_angle_gamma 90.000000
_cell_volume 2531.912138
_symmetry_space_group_name_H-M "P M N A"
_symmetry_group_IT_number 53
_symmetry_cell_setting 'orthorhombic'
loop_
_space_group_symop_operation_xyz
x,y,z
1/2-x,-y,1/2+z
x,-y,-z
1/2-x,y,1/2-z
-x,-y,-z
1/2+x,y,1/2-z
-x,y,z
1/2+x,-y,1/2+z
loop_
_atom_site_type_symbol
_atom_site_label
_atom_site_fract_x
_atom_site_fract_y
_atom_site_fract_z
Si Si1 0.188239 0.829340 0.411848
Si Si2 0.313780 0.003881 0.830492
Si Si3 0.687623 0.701291 0.832973
Si Si4 0.314840 0.854379 0.573704
Si Si5 0.312545 0.481031 0.167331
Si Si6 0.811579 0.337925 0.667217
O O1 0.232000 0.904049 0.357371
O O2 0.255995 0.847603 0.491104
O O3 0.240365 0.740457 0.380302
O O4 0.000000 0.828278 0.417263
O O5 0.250000 0.986744 0.750000
O O6 0.500000 0.999107 0.829063
O O7 0.251164 0.936219 0.887136
O O8 0.750000 0.708397 0.750000
O O9 0.500000 0.706750 0.831682
O O10 0.754780 0.774648 0.881556
O O11 0.733861 0.609297 0.862883
O O12 0.500000 0.857012 0.575601
O O13 0.250000 0.481339 0.250000
O O14 0.500000 0.480903 0.168667
O O15 0.263927 0.570960 0.136485
O O16 0.750000 0.330448 0.750000
O O17 0.000000 0.335977 0.670022
#
# Coordination Sequence:
#
# PCOD9416192 Si02
#       6
#     8   8   8   8   8   8
#     4  10  22  39  58  81 112 147 179 217 267 322
#     4  11  23  40  62  86 111 140 177 220 267 320
#     4  10  19  34  56  81 110 143 182 226 271 320
#     4  12  25  39  56  79 109 145 184 226 272 321
#     4   8  15  28  50  79 108 140 177 220 267 314
#     4   9  17  32  55  83 112 142 180 222 266 318
#
# _framework density 18.958003999999999
#
# number of rings (size 3 to 8) (size 9 to 14) (size 15 to 20)
#    0.000    2.000    0.000    4.000    0.000    4.667 
#    0.000    0.833    0.000    5.000    0.000    0.000 
#    0.000    0.000    0.000    0.000    0.000    0.000 
#
# Total GULP energy -267883.571295 kJ/mol
# GULP energy per Si atom -5580.907735 kJ/mol
# Density = 1.891485 g / cm^3
# Si number density = 18.958004 Si / 1000 Ang^3
#
#
#
# Elastic Constant Matrix: (Units=GPa)
#
#
# Indices 1 2 3 4 5 6 
#
# 1 23.3362 11.5913 2.5686 0.0000 0.0000 0.0000
# 2 11.5913 77.2836 -17.9181 0.0000 0.0000 0.0000
# 3 2.5686 -17.9181 30.9477 0.0000 0.0000 0.0000
# 4 0.0000 0.0000 0.0000 -50.3932 0.0000 0.0000
# 5 0.0000 0.0000 0.0000 0.0000 31.3970 0.0000
# 6 0.0000 0.0000 0.0000 0.0000 0.0000 9.6300
#
#
#
# Elastic Compliance Matrix: (Units=1/GPa)
#
#
# Indices 1 2 3 4 5 6 
#
# 1 0.048623 -0.009504 -0.009538 0.000000 0.000000 0.000000
# 2 -0.009504 0.016803 0.010518 0.000000 0.000000 0.000000
# 3 -0.009538 0.010518 0.039194 0.000000 0.000000 0.000000
# 4 0.000000 0.000000 0.000000 -0.019844 0.000000 0.000000
# 5 0.000000 0.000000 0.000000 0.000000 0.031850 0.000000
# 6 0.000000 0.000000 0.000000 0.000000 0.000000 0.103843
#
#
# Mechanical properties :
#
#
# Convention : Reuss Voigt Hill
#
# Bulk Modulus (GPa) = 11.41942 13.78347 12.60145
# Shear Modulus (GPa) = 18.74709 7.14846 12.94777
#
# Velocity S-wave (km/s) = 3.14805 1.94393 2.61621
# Velocity P-wave (km/s) = 4.38751 3.51067 3.97335
#
# Compressibility (1/GPa) = 0.08757009
#
# Stress axis : x y z
#
# Youngs Moduli (GPa) = 20.56656 59.51211 25.51433
#
# Poissons Ratio (x) = 0.56561 0.24336
# Poissons Ratio (y) = 0.19547 -0.26835
# Poissons Ratio (z) = 0.19617 -0.62592
#
# Static dielectric constant tensor:
#      x y z
#    x 1.628140 0.000000 0.000000 
#    y 0.000000 1.703770 0.000000 
#    z 0.000000 0.000000 1.508030 
# 
# From -- ./inp_files/26213.got.cif
#   From: 2010.05.17/outbox.cif.g08.bks.cpg/sg53_14_cif.got.tgz:26213.got - 2010.06.03 12:45:16.
