data_PCOD9416448
_publ_section_title
;
Structure prediction by ZEFSAII (Michael W. Deem and Ramdas Pophale) SiO2 
 PCOD9416448
Probable space group: P M N A
;
_chemical_formula_sum "Si O2"
_cell_formula_units_Z 64
_cell_length_a 18.555540
_cell_length_b 11.623478
_cell_length_c 14.883487
_cell_angle_alpha 90.000000
_cell_angle_beta 90.000000
_cell_angle_gamma 90.000000
_cell_volume 3210.069151
_symmetry_space_group_name_H-M "P M N A"
_symmetry_group_IT_number 53
_symmetry_cell_setting 'orthorhombic'
loop_
_space_group_symop_operation_xyz
x,y,z
1/2-x,-y,1/2+z
x,-y,-z
1/2-x,y,1/2-z
-x,-y,-z
1/2+x,y,1/2-z
-x,y,z
1/2+x,-y,1/2+z
loop_
_atom_site_type_symbol
_atom_site_label
_atom_site_fract_x
_atom_site_fract_y
_atom_site_fract_z
Si Si1 0.917176 0.428959 0.908098
Si Si2 0.913214 0.517207 0.289869
Si Si3 0.418133 0.197693 0.343900
Si Si4 0.583435 0.925135 0.360263
Si Si5 0.913390 0.780439 0.318389
Si Si6 0.829695 0.774304 0.014935
Si Si7 0.330634 0.137461 0.992189
Si Si8 0.915064 0.282012 0.360238
O O1 0.899603 0.498193 0.817004
O O2 0.859502 0.329071 0.923774
O O3 0.000000 0.384105 0.894913
O O4 0.917730 0.500000 0.000000
O O5 0.890010 0.646889 0.312211
O O6 0.886741 0.413940 0.353408
O O7 0.000000 0.513357 0.299300
O O8 0.500000 0.227121 0.374470
O O9 0.361354 0.244103 0.415476
O O10 0.410329 0.240943 0.242792
O O11 0.410565 0.059892 0.341572
O O12 0.500000 0.900957 0.382352
O O13 0.603122 0.851348 0.272021
O O14 0.631783 0.885238 0.442313
O O15 0.876238 0.838496 0.402868
O O16 0.000000 0.782284 0.328436
O O17 0.745667 0.798156 0.014867
O O18 0.372723 0.196407 0.075039
O O19 0.320796 0.000000 0.000000
O O20 0.000000 0.281808 0.386166
#
# Coordination Sequence:
#
# PCOD9416448 Si02
#       8
#     8   8   8   8   8   8   8   8
#     4  10  19  36  65  97 130 165 203 252 309 376
#     4   9  18  37  65  95 120 148 199 261 317 367
#     4  10  20  35  61  92 120 158 206 255 310 369
#     4  10  19  35  61  91 122 157 204 261 309 361
#     4  10  21  40  66  90 116 160 214 270 315 359
#     4  12  23  38  58  91 130 166 201 247 315 384
#     4  12  27  43  60  87 127 174 215 259 314 376
#     4  10  22  42  67  93 121 161 213 268 317 364
#
# _framework density 19.937265
#
# number of rings (size 3 to 8) (size 9 to 14) (size 15 to 20)
#    0.000    1.625    1.250    4.125    0.000    6.500 
#    2.250    4.375    0.000    0.000    0.000    0.000 
#    0.000    0.000    0.000    0.000    0.000    0.000 
#
# Total GULP energy -357498.524612 kJ/mol
# GULP energy per Si atom -5585.914447 kJ/mol
# Density = 1.989189 g / cm^3
# Si number density = 19.937265 Si / 1000 Ang^3
#
#
#
# Elastic Constant Matrix: (Units=GPa)
#
#
# Indices 1 2 3 4 5 6 
#
# 1 50.5639 30.5302 37.6733 0.0000 0.0000 0.0000
# 2 30.5302 69.5547 15.1188 0.0000 0.0000 0.0000
# 3 37.6733 15.1188 66.9718 0.0000 0.0000 0.0000
# 4 0.0000 0.0000 0.0000 34.7795 0.0000 0.0000
# 5 0.0000 0.0000 0.0000 0.0000 -26.1271 0.0000
# 6 0.0000 0.0000 0.0000 0.0000 0.0000 38.1892
#
#
#
# Elastic Compliance Matrix: (Units=1/GPa)
#
#
# Indices 1 2 3 4 5 6 
#
# 1 0.045378 -0.015111 -0.022115 0.000000 0.000000 0.000000
# 2 -0.015111 0.020151 0.003951 0.000000 0.000000 0.000000
# 3 -0.022115 0.003951 0.026480 0.000000 0.000000 0.000000
# 4 0.000000 0.000000 0.000000 0.028753 0.000000 0.000000
# 5 0.000000 0.000000 0.000000 0.000000 -0.038274 0.000000
# 6 0.000000 0.000000 0.000000 0.000000 0.000000 0.026185
#
#
# Mechanical properties :
#
#
# Convention : Reuss Voigt Hill
#
# Bulk Modulus (GPa) = 39.27811 39.30389 39.29100
# Shear Modulus (GPa) = 27.21707 16.28620 21.75163
#
# Velocity S-wave (km/s) = 3.69878 2.86120 3.30662
# Velocity P-wave (km/s) = 6.16319 5.53822 5.85904
#
# Compressibility (1/GPa) = 0.02545947
#
# Stress axis : x y z
#
# Youngs Moduli (GPa) = 22.03716 49.62502 37.76457
#
# Poissons Ratio (x) = 0.74989 0.83516
# Poissons Ratio (y) = 0.33300 -0.14922
# Poissons Ratio (z) = 0.48735 -0.19608
#
# Static dielectric constant tensor:
#      x y z
#    x 1.673140 0.000000 0.000000 
#    y 0.000000 1.754720 0.000000 
#    z 0.000000 0.000000 1.686330 
# 
# From -- ./inp_files/23915.got.cif
#   From: 2010.05.17/outbox.cif.g08.bks.cpg/sg53_12_cif.got.tgz:23915.got - 2010.06.03 12:45:16.
