data_PCOD9416114
_publ_section_title
;
Structure prediction by ZEFSAII (Michael W. Deem and Ramdas Pophale) SiO2 
 PCOD9416114
Probable space group: P M N A
;
_chemical_formula_sum "Si O2"
_cell_formula_units_Z 48
_cell_length_a 8.862614
_cell_length_b 9.875858
_cell_length_c 31.122179
_cell_angle_alpha 90.000000
_cell_angle_beta 90.000000
_cell_angle_gamma 90.000000
_cell_volume 2723.997268
_symmetry_space_group_name_H-M "P M N A"
_symmetry_group_IT_number 53
_symmetry_cell_setting 'orthorhombic'
loop_
_space_group_symop_operation_xyz
x,y,z
1/2-x,-y,1/2+z
x,-y,-z
1/2-x,y,1/2-z
-x,-y,-z
1/2+x,y,1/2-z
-x,y,z
1/2+x,-y,1/2+z
loop_
_atom_site_type_symbol
_atom_site_label
_atom_site_fract_x
_atom_site_fract_y
_atom_site_fract_z
Si Si1 0.819515 0.318840 0.611813
Si Si2 0.319195 0.199480 0.433300
Si Si3 0.818911 0.811041 0.703261
Si Si4 0.819629 0.348615 0.981671
Si Si5 0.819609 0.408102 0.143171
Si Si6 0.181257 0.014338 0.627493
O O1 0.768194 0.329208 0.562334
O O2 0.742689 0.441846 0.637013
O O3 0.772684 0.170501 0.628383
O O4 0.000000 0.331134 0.614910
O O5 0.500000 0.184872 0.433417
O O6 0.272956 0.244193 0.480926
O O7 0.283066 0.321669 0.400083
O O8 0.247259 0.065425 0.413391
O O9 0.750000 0.832411 0.750000
O O10 0.755958 0.673553 0.682016
O O11 0.000000 0.806148 0.705475
O O12 0.773982 0.929994 0.669867
O O13 0.000000 0.334012 0.973838
O O14 0.797000 0.500000 0.000000
O O15 0.000000 0.408866 0.147872
O O16 0.000000 0.009423 0.624606
#
# Coordination Sequence:
#
# PCOD9416114 Si02
#       6
#     8   8   8   8   8   8
#     4  11  22  35  52  79 112 148 184 226 276 325
#     4   9  18  33  54  76 102 141 188 230 269 316
#     4  10  20  38  62  86 108 137 175 219 268 326
#     4  10  19  34  52  75 108 145 188 237 276 316
#     4  10  19  35  57  81 108 141 179 223 269 319
#     4   9  21  38  54  76 112 147 178 221 274 327
#
# _framework density 17.621162999999999
#
# number of rings (size 3 to 8) (size 9 to 14) (size 15 to 20)
#    0.000    2.167    1.667    1.500    0.000    4.333 
#    0.000    4.167    0.000    2.000    0.000    0.000 
#    0.000    0.000    0.000    0.000    0.000    0.000 
#
# Total GULP energy -267941.955042 kJ/mol
# GULP energy per Si atom -5582.124063 kJ/mol
# Density = 1.758106 g / cm^3
# Si number density = 17.621163 Si / 1000 Ang^3
#
#
#
# Elastic Constant Matrix: (Units=GPa)
#
#
# Indices 1 2 3 4 5 6 
#
# 1 35.8743 36.7230 25.7448 0.0000 0.0000 0.0000
# 2 36.7230 129.3222 35.6892 0.0000 0.0000 0.0000
# 3 25.7448 35.6892 79.0973 0.0000 0.0000 0.0000
# 4 0.0000 0.0000 0.0000 13.6202 0.0000 0.0000
# 5 0.0000 0.0000 0.0000 0.0000 26.3907 0.0000
# 6 0.0000 0.0000 0.0000 0.0000 0.0000 27.1634
#
#
#
# Elastic Compliance Matrix: (Units=1/GPa)
#
#
# Indices 1 2 3 4 5 6 
#
# 1 0.045605 -0.010113 -0.010281 0.000000 0.000000 0.000000
# 2 -0.010113 0.011075 -0.001705 0.000000 0.000000 0.000000
# 3 -0.010281 -0.001705 0.016758 0.000000 0.000000 0.000000
# 4 0.000000 0.000000 0.000000 0.073420 0.000000 0.000000
# 5 0.000000 0.000000 0.000000 0.000000 0.037892 0.000000
# 6 0.000000 0.000000 0.000000 0.000000 0.000000 0.036814
#
#
# Mechanical properties :
#
#
# Convention : Reuss Voigt Hill
#
# Bulk Modulus (GPa) = 34.19948 48.95644 41.57796
# Shear Modulus (GPa) = 18.14810 23.17730 20.66270
#
# Velocity S-wave (km/s) = 3.21269 3.63066 3.42805
# Velocity P-wave (km/s) = 5.76300 6.73933 6.27020
#
# Compressibility (1/GPa) = 0.02924021
#
# Stress axis : x y z
#
# Youngs Moduli (GPa) = 21.92722 90.29281 59.67173
#
# Poissons Ratio (x) = 0.91315 0.61346
# Poissons Ratio (y) = 0.22175 0.10177
# Poissons Ratio (z) = 0.22543 0.15399
#
# Static dielectric constant tensor:
#      x y z
#    x 1.588450 0.000000 0.000000 
#    y 0.000000 1.600320 0.000000 
#    z 0.000000 0.000000 1.580190 
# 
# From -- ./inp_files/37663.got.cif
#   From: 2010.05.17/outbox.cif.g08.bks.cpg/sg53_19_cif.got.tgz:37663.got - 2010.06.03 12:45:16.
