data_PCOD9416774
_publ_section_title
;
Structure prediction by ZEFSAII (Michael W. Deem and Ramdas Pophale) SiO2 
 PCOD9416774
Probable space group: P M N A
;
_chemical_formula_sum "Si O2"
_cell_formula_units_Z 64
_cell_length_a 8.979448
_cell_length_b 23.473195
_cell_length_c 16.533491
_cell_angle_alpha 90.000000
_cell_angle_beta 90.000000
_cell_angle_gamma 90.000000
_cell_volume 3484.868619
_symmetry_space_group_name_H-M "P M N A"
_symmetry_group_IT_number 53
_symmetry_cell_setting 'orthorhombic'
loop_
_space_group_symop_operation_xyz
x,y,z
1/2-x,-y,1/2+z
x,-y,-z
1/2-x,y,1/2-z
-x,-y,-z
1/2+x,y,1/2-z
-x,y,z
1/2+x,-y,1/2+z
loop_
_atom_site_type_symbol
_atom_site_label
_atom_site_fract_x
_atom_site_fract_y
_atom_site_fract_z
Si Si1 0.172458 0.366247 0.420865
Si Si2 0.676994 0.467548 0.335169
Si Si3 0.678216 0.135669 0.002579
Si Si4 0.327589 0.426836 0.904477
Si Si5 0.677881 0.927138 0.166487
Si Si6 0.670814 0.032438 0.413425
Si Si7 0.177363 0.741360 0.996997
Si Si8 0.823189 0.317787 0.830936
O O1 0.263494 0.405488 0.359704
O O2 0.175847 0.400691 0.505817
O O3 0.247063 0.305721 0.439603
O O4 0.000000 0.360423 0.396435
O O5 0.750000 0.483654 0.250000
O O6 0.500000 0.468586 0.331514
O O7 0.737817 0.514872 0.397084
O O8 0.500000 0.138074 0.009877
O O9 0.712725 0.111901 0.911927
O O10 0.750910 0.197070 0.013629
O O11 0.744695 0.090812 0.066757
O O12 0.500000 0.436352 0.881927
O O13 0.252573 0.378765 0.848580
O O14 0.750000 0.906245 0.250000
O O15 0.500000 0.930150 0.174305
O O16 0.744369 0.989494 0.146042
O O17 0.500000 0.041582 0.387818
O O18 0.667830 0.000000 0.500000
O O19 0.203633 0.720206 0.089422
O O20 0.000000 0.742649 0.984146
O O21 0.750000 0.293278 0.750000
O O22 0.000000 0.324592 0.820825
#
# Coordination Sequence:
#
# PCOD9416774 Si02
#       8
#     8   8   8   8   8   8   8   8
#     4  10  21  38  58  79 105 137 174 217 265 315
#     4  12  24  37  55  79 107 136 170 214 265 319
#     4  10  20  34  53  77 105 139 179 220 259 303
#     4  10  20  35  55  78 105 136 171 212 261 318
#     4  10  20  33  51  78 112 145 176 213 260 309
#     4   9  17  31  52  76 103 136 173 212 254 300
#     4  10  21  36  54  76 102 137 180 220 259 306
#     4  10  20  33  49  71 102 138 175 215 260 311
#
# _framework density 18.365110999999999
#
# number of rings (size 3 to 8) (size 9 to 14) (size 15 to 20)
#    0.000    1.875    0.000    4.500    0.000    8.000 
#    0.000    2.500    0.000    0.750    0.000    5.250 
#    0.000    0.000    0.000    0.000    0.000    0.000 
#
# Total GULP energy -357468.752380 kJ/mol
# GULP energy per Si atom -5585.449256 kJ/mol
# Density = 1.832331 g / cm^3
# Si number density = 18.365111 Si / 1000 Ang^3
#
#
#
# Elastic Constant Matrix: (Units=GPa)
#
#
# Indices 1 2 3 4 5 6 
#
# 1 112.8606 56.5010 8.6477 0.0000 0.0000 0.0000
# 2 56.5010 128.0732 3.4215 0.0000 0.0000 0.0000
# 3 8.6477 3.4215 10.8450 0.0000 0.0000 0.0000
# 4 0.0000 0.0000 0.0000 11.3571 0.0000 0.0000
# 5 0.0000 0.0000 0.0000 0.0000 18.7317 0.0000
# 6 0.0000 0.0000 0.0000 0.0000 0.0000 30.8271
#
#
#
# Elastic Compliance Matrix: (Units=1/GPa)
#
#
# Indices 1 2 3 4 5 6 
#
# 1 0.012020 -0.005090 -0.007979 0.000000 0.000000 0.000000
# 2 -0.005090 0.010029 0.000894 0.000000 0.000000 0.000000
# 3 -0.007979 0.000894 0.098289 0.000000 0.000000 0.000000
# 4 0.000000 0.000000 0.000000 0.088050 0.000000 0.000000
# 5 0.000000 0.000000 0.000000 0.000000 0.053385 0.000000
# 6 0.000000 0.000000 0.000000 0.000000 0.000000 0.032439
#
#
# Mechanical properties :
#
#
# Convention : Reuss Voigt Hill
#
# Bulk Modulus (GPa) = 10.41781 43.21326 26.81553
# Shear Modulus (GPa) = 14.26300 24.39710 19.33005
#
# Velocity S-wave (km/s) = 2.78984 3.64874 3.24781
# Velocity P-wave (km/s) = 4.00781 6.42902 5.35700
#
# Compressibility (1/GPa) = 0.09598950
#
# Stress axis : x y z
#
# Youngs Moduli (GPa) = 83.19603 99.70630 10.17412
#
# Poissons Ratio (x) = 0.50746 0.08118
# Poissons Ratio (y) = 0.42343 -0.00910
# Poissons Ratio (z) = 0.66380 -0.08915
#
# Static dielectric constant tensor:
#      x y z
#    x 1.611030 0.000000 0.000000 
#    y 0.000000 1.615500 0.000000 
#    z 0.000000 0.000000 1.650510 
# 
# From -- ./inp_files/26993.got.cif
#   From: 2010.05.17/outbox.cif.g08.bks.cpg/sg53_14_cif.got.tgz:26993.got - 2010.06.03 12:45:16.
