data_PCOD9416436
_publ_section_title
;
Structure prediction by ZEFSAII (Michael W. Deem and Ramdas Pophale) SiO2 
 PCOD9416436
Probable space group: P M N A
;
_chemical_formula_sum "Si O2"
_cell_formula_units_Z 64
_cell_length_a 15.157947
_cell_length_b 21.635131
_cell_length_c 9.946353
_cell_angle_alpha 90.000000
_cell_angle_beta 90.000000
_cell_angle_gamma 90.000000
_cell_volume 3261.848470
_symmetry_space_group_name_H-M "P M N A"
_symmetry_group_IT_number 53
_symmetry_cell_setting 'orthorhombic'
loop_
_space_group_symop_operation_xyz
x,y,z
1/2-x,-y,1/2+z
x,-y,-z
1/2-x,y,1/2-z
-x,-y,-z
1/2+x,y,1/2-z
-x,y,z
1/2+x,-y,1/2+z
loop_
_atom_site_type_symbol
_atom_site_label
_atom_site_fract_x
_atom_site_fract_y
_atom_site_fract_z
Si Si1 0.335945 0.013128 0.157417
Si Si2 0.398781 0.247386 0.724909
Si Si3 0.396763 0.729241 0.770185
Si Si4 0.396552 0.853674 0.896807
Si Si5 0.603462 0.339711 0.946304
Si Si6 0.604402 0.657893 0.513310
Si Si7 0.153627 0.881963 0.304222
Si Si8 0.251988 0.438854 0.589893
O O1 0.250000 0.021330 0.250000
O O2 0.388557 0.950425 0.197986
O O3 0.386784 0.077867 0.163201
O O4 0.311800 0.000000 0.000000
O O5 0.500000 0.246114 0.768189
O O6 0.390484 0.284565 0.588415
O O7 0.375114 0.176066 0.716165
O O8 0.356263 0.290011 0.840279
O O9 0.500000 0.737647 0.730588
O O10 0.362070 0.798096 0.802947
O O11 0.393702 0.692505 0.909421
O O12 0.359403 0.685630 0.653423
O O13 0.500000 0.840580 0.923029
O O14 0.351196 0.857037 0.043050
O O15 0.500000 0.354195 0.915522
O O16 0.664140 0.399492 0.941334
O O17 0.500000 0.639761 0.524127
O O18 0.664382 0.603652 0.452875
O O19 0.250000 0.895315 0.250000
O O20 0.254067 0.500000 0.500000
O O21 0.250000 0.451628 0.750000
#
# Coordination Sequence:
#
# PCOD9416436 Si02
#       8
#     8   8   8   8   8   8   8   8
#     4   9  20  38  53  78 119 164 207 258 315 375
#     4  10  19  35  60  87 118 156 200 252 305 354
#     4   9  19  38  62  91 123 156 203 256 307 365
#     4  10  19  36  61  87 118 159 212 263 309 370
#     4  10  21  41  67  92 125 161 199 255 306 354
#     4  10  23  43  65  92 128 166 201 252 312 362
#     4  10  20  32  54  85 120 157 205 260 307 362
#     4  12  28  45  66  95 128 160 205 249 292 372
#
# _framework density 19.620777
#
# number of rings (size 3 to 8) (size 9 to 14) (size 15 to 20)
#    0.000    2.000    2.500    0.375    3.500    3.250 
#    9.000    0.000    0.000    0.375    0.000    0.000 
#    0.000    0.000    0.000    0.000    0.000    0.000 
#
# Total GULP energy -356648.656915 kJ/mol
# GULP energy per Si atom -5572.635264 kJ/mol
# Density = 1.957612 g / cm^3
# Si number density = 19.620777 Si / 1000 Ang^3
#
#
#
# Elastic Constant Matrix: (Units=GPa)
#
#
# Indices 1 2 3 4 5 6 
#
# 1 59.7601 39.8679 28.7766 0.0000 0.0000 0.0000
# 2 39.8679 138.3779 34.7426 0.0000 0.0000 0.0000
# 3 28.7766 34.7426 65.5241 0.0000 0.0000 0.0000
# 4 0.0000 0.0000 0.0000 9.8610 0.0000 0.0000
# 5 0.0000 0.0000 0.0000 0.0000 19.2029 0.0000
# 6 0.0000 0.0000 0.0000 0.0000 0.0000 49.5466
#
#
#
# Elastic Compliance Matrix: (Units=1/GPa)
#
#
# Indices 1 2 3 4 5 6 
#
# 1 0.023768 -0.004876 -0.007853 0.000000 0.000000 0.000000
# 2 -0.004876 0.009337 -0.002809 0.000000 0.000000 0.000000
# 3 -0.007853 -0.002809 0.020200 0.000000 0.000000 0.000000
# 4 0.000000 0.000000 0.000000 0.101410 0.000000 0.000000
# 5 0.000000 0.000000 0.000000 0.000000 0.052075 0.000000
# 6 0.000000 0.000000 0.000000 0.000000 0.000000 0.020183
#
#
# Mechanical properties :
#
#
# Convention : Reuss Voigt Hill
#
# Bulk Modulus (GPa) = 44.98762 52.27069 48.62916
# Shear Modulus (GPa) = 18.83531 26.40709 22.62120
#
# Velocity S-wave (km/s) = 3.10170 3.67260 3.39915
# Velocity P-wave (km/s) = 5.98379 6.68448 6.34381
#
# Compressibility (1/GPa) = 0.02222834
#
# Stress axis : x y z
#
# Youngs Moduli (GPa) = 42.07329 107.10384 49.50538
#
# Poissons Ratio (x) = 0.52225 0.38876
# Poissons Ratio (y) = 0.20516 0.13907
# Poissons Ratio (z) = 0.33040 0.30087
#
# Static dielectric constant tensor:
#      x y z
#    x 1.683920 0.000000 0.000000 
#    y 0.000000 1.762880 0.000000 
#    z 0.000000 0.000000 1.751390 
# 
# From -- ./inp_files/10265.got.cif
#   From: 2010.05.17/outbox.cif.g08.bks.cpg/sg53_6_cif.got.tgz:10265.got - 2010.06.03 12:45:16.
