data_PCOD9416956
_publ_section_title
;
Structure prediction by ZEFSAII (Michael W. Deem and Ramdas Pophale) SiO2 
 PCOD9416956
Probable space group: P M N A
;
_chemical_formula_sum "Si O2"
_cell_formula_units_Z 64
_cell_length_a 14.322293
_cell_length_b 11.300658
_cell_length_c 19.995562
_cell_angle_alpha 90.000000
_cell_angle_beta 90.000000
_cell_angle_gamma 90.000000
_cell_volume 3236.308403
_symmetry_space_group_name_H-M "P M N A"
_symmetry_group_IT_number 53
_symmetry_cell_setting 'orthorhombic'
loop_
_space_group_symop_operation_xyz
x,y,z
1/2-x,-y,1/2+z
x,-y,-z
1/2-x,y,1/2-z
-x,-y,-z
1/2+x,y,1/2-z
-x,y,z
1/2+x,-y,1/2+z
loop_
_atom_site_type_symbol
_atom_site_label
_atom_site_fract_x
_atom_site_fract_y
_atom_site_fract_z
Si Si1 0.896659 0.694646 0.730520
Si Si2 0.607082 0.858903 0.015565
Si Si3 0.198876 0.893518 0.348392
Si Si4 0.196146 0.159077 0.379078
Si Si5 0.895140 0.819811 0.212681
Si Si6 0.899412 0.801964 0.878064
Si Si7 0.108072 0.463534 0.073595
Si Si8 0.157407 0.444013 0.790973
O O1 0.821416 0.743003 0.678016
O O2 0.893701 0.769924 0.799127
O O3 0.885570 0.558530 0.753444
O O4 0.000000 0.711658 0.700755
O O5 0.500000 0.826075 0.029683
O O6 0.671554 0.838860 0.080028
O O7 0.643634 0.804206 0.946477
O O8 0.609529 0.000000 0.000000
O O9 0.308353 0.873894 0.330122
O O10 0.137433 0.839964 0.288869
O O11 0.167272 0.031190 0.351123
O O12 0.304192 0.135999 0.396470
O O13 0.896958 0.678412 0.203846
O O14 0.000000 0.867428 0.200109
O O15 0.895646 0.676966 0.916552
O O16 0.000000 0.858630 0.891280
O O17 0.170917 0.514185 0.132834
O O18 0.000000 0.505080 0.083766
O O19 0.137879 0.500000 0.000000
O O20 0.250000 0.416158 0.750000
#
# Coordination Sequence:
#
# PCOD9416956 Si02
#       8
#     8   8   8   8   8   8   8   8
#     4  10  20  33  57  88 118 152 193 243 305 360
#     4   9  19  38  61  82 113 155 198 241 292 357
#     4  10  23  40  58  87 114 155 205 248 296 355
#     4  11  21  36  59  87 120 154 200 251 297 365
#     4  11  23  40  61  85 116 157 203 253 301 355
#     4   9  19  33  50  83 122 155 185 238 305 350
#     4   9  18  34  57  85 115 154 201 240 289 363
#     4  11  20  38  59  83 122 159 200 248 304 369
#
# _framework density 19.775618000000001
#
# number of rings (size 3 to 8) (size 9 to 14) (size 15 to 20)
#    0.000    2.000    1.250    4.500    3.500    3.000 
#    0.000    1.875    0.000    2.250    0.000    2.625 
#    0.000    0.000    0.000    0.000    0.000    0.000 
#
# Total GULP energy -356826.003735 kJ/mol
# GULP energy per Si atom -5575.406308 kJ/mol
# Density = 1.973061 g / cm^3
# Si number density = 19.775618 Si / 1000 Ang^3
#
#
#
# Elastic Constant Matrix: (Units=GPa)
#
#
# Indices 1 2 3 4 5 6 
#
# 1 87.6190 -8.5394 13.2176 0.0000 0.0000 0.0000
# 2 -8.5394 39.7192 26.5621 0.0000 0.0000 0.0000
# 3 13.2176 26.5621 89.5289 0.0000 0.0000 0.0000
# 4 0.0000 0.0000 0.0000 18.8159 0.0000 0.0000
# 5 0.0000 0.0000 0.0000 0.0000 25.3034 0.0000
# 6 0.0000 0.0000 0.0000 0.0000 0.0000 11.6644
#
#
#
# Elastic Compliance Matrix: (Units=1/GPa)
#
#
# Indices 1 2 3 4 5 6 
#
# 1 0.012378 0.004844 -0.003265 0.000000 0.000000 0.000000
# 2 0.004844 0.033304 -0.010596 0.000000 0.000000 0.000000
# 3 -0.003265 -0.010596 0.014795 0.000000 0.000000 0.000000
# 4 0.000000 0.000000 0.000000 0.053146 0.000000 0.000000
# 5 0.000000 0.000000 0.000000 0.000000 0.039520 0.000000
# 6 0.000000 0.000000 0.000000 0.000000 0.000000 0.085731
#
#
# Mechanical properties :
#
#
# Convention : Reuss Voigt Hill
#
# Bulk Modulus (GPa) = 23.56023 31.03863 27.29943
# Shear Modulus (GPa) = 18.44637 23.53187 20.98912
#
# Velocity S-wave (km/s) = 3.05746 3.45330 3.26139
# Velocity P-wave (km/s) = 4.94002 5.62404 5.29309
#
# Compressibility (1/GPa) = 0.04244441
#
# Stress axis : x y z
#
# Youngs Moduli (GPa) = 80.79077 30.02607 67.58909
#
# Poissons Ratio (x) = -0.14546 0.22065
# Poissons Ratio (y) = -0.39138 0.71619
# Poissons Ratio (z) = 0.26375 0.31816
#
# Static dielectric constant tensor:
#      x y z
#    x 1.762590 0.000000 0.000000 
#    y 0.000000 1.700620 0.000000 
#    z 0.000000 0.000000 1.673130 
# 
# From -- ./inp_files/28515.got.cif
#   From: 2010.05.17/outbox.cif.g08.bks.cpg/sg53_15_cif.got.tgz:28515.got - 2010.06.03 12:45:16.
