data_PCOD9416405
_publ_section_title
;
Structure prediction by ZEFSAII (Michael W. Deem and Ramdas Pophale) SiO2 
 PCOD9416405
Probable space group: P M N A
;
_chemical_formula_sum "Si O2"
_cell_formula_units_Z 48
_cell_length_a 19.273856
_cell_length_b 8.837064
_cell_length_c 14.317776
_cell_angle_alpha 90.000000
_cell_angle_beta 90.000000
_cell_angle_gamma 90.000000
_cell_volume 2438.665160
_symmetry_space_group_name_H-M "P M N A"
_symmetry_group_IT_number 53
_symmetry_cell_setting 'orthorhombic'
loop_
_space_group_symop_operation_xyz
x,y,z
1/2-x,-y,1/2+z
x,-y,-z
1/2-x,y,1/2-z
-x,-y,-z
1/2+x,y,1/2-z
-x,y,z
1/2+x,-y,1/2+z
loop_
_atom_site_type_symbol
_atom_site_label
_atom_site_fract_x
_atom_site_fract_y
_atom_site_fract_z
Si Si1 0.171320 0.106986 0.210249
Si Si2 0.423307 0.147614 0.954466
Si Si3 0.730089 0.820284 0.524484
Si Si4 0.129569 0.297723 0.379190
Si Si5 0.915834 0.382959 0.696657
Si Si6 0.685134 0.756296 0.320297
O O1 0.250000 0.119446 0.250000
O O2 0.173626 0.182262 0.108013
O O3 0.125533 0.187928 0.288940
O O4 0.159753 0.929167 0.196444
O O5 0.500000 0.099000 0.923861
O O6 0.393291 0.240336 0.868665
O O7 0.425588 0.260806 0.041117
O O8 0.388602 0.000000 0.000000
O O9 0.798043 0.740647 0.568189
O O10 0.709357 0.745107 0.427058
O O11 0.740292 0.000000 0.500000
O O12 0.117500 0.467047 0.346282
O O13 0.878413 0.351959 0.794286
O O14 0.000000 0.391210 0.698162
O O15 0.750000 0.728136 0.250000
#
# Coordination Sequence:
#
# PCOD9416405 Si02
#       6
#     8   8   8   8   8   8
#     4   8  17  33  56  84 110 140 183 240 293 341
#     4  10  20  34  53  75 101 140 186 227 270 324
#     4   9  18  34  59  87 111 140 188 248 293 334
#     4  11  19  33  54  79 114 145 178 225 289 347
#     4  11  24  38  53  82 124 161 191 231 288 352
#     4  10  19  35  59  84 109 144 193 238 283 340
#
# _framework density 19.6829
#
# number of rings (size 3 to 8) (size 9 to 14) (size 15 to 20)
#    0.000    2.167    0.000    4.500    0.000    3.333 
#    0.000    3.333    0.000    7.500    0.000    0.000 
#    0.000    0.000    0.000    0.000    0.000    0.000 
#
# Total GULP energy -267556.573425 kJ/mol
# GULP energy per Si atom -5574.095280 kJ/mol
# Density = 1.963810 g / cm^3
# Si number density = 19.682900 Si / 1000 Ang^3
#
#
#
# Elastic Constant Matrix: (Units=GPa)
#
#
# Indices 1 2 3 4 5 6 
#
# 1 56.7117 24.7701 41.5293 0.0000 0.0000 0.0000
# 2 24.7701 58.7182 31.6884 0.0000 0.0000 0.0000
# 3 41.5293 31.6884 145.6112 0.0000 0.0000 0.0000
# 4 0.0000 0.0000 0.0000 27.0439 0.0000 0.0000
# 5 0.0000 0.0000 0.0000 0.0000 10.1847 0.0000
# 6 0.0000 0.0000 0.0000 0.0000 0.0000 6.4948
#
#
#
# Elastic Compliance Matrix: (Units=1/GPa)
#
#
# Indices 1 2 3 4 5 6 
#
# 1 0.024943 -0.007572 -0.005466 0.000000 0.000000 0.000000
# 2 -0.007572 0.021596 -0.002540 0.000000 0.000000 0.000000
# 3 -0.005466 -0.002540 0.008979 0.000000 0.000000 0.000000
# 4 0.000000 0.000000 0.000000 0.036977 0.000000 0.000000
# 5 0.000000 0.000000 0.000000 0.000000 0.098186 0.000000
# 6 0.000000 0.000000 0.000000 0.000000 0.000000 0.153969
#
#
# Mechanical properties :
#
#
# Convention : Reuss Voigt Hill
#
# Bulk Modulus (GPa) = 41.04869 50.77962 45.91415
# Shear Modulus (GPa) = 13.02329 19.61490 16.31910
#
# Velocity S-wave (km/s) = 2.57506 3.16024 2.88253
# Velocity P-wave (km/s) = 5.45358 6.25867 5.86994
#
# Compressibility (1/GPa) = 0.02436131
#
# Stress axis : x y z
#
# Youngs Moduli (GPa) = 40.09113 46.30564 111.36684
#
# Poissons Ratio (x) = 0.35064 0.60874
# Poissons Ratio (y) = 0.30358 0.28288
# Poissons Ratio (z) = 0.21914 0.11762
#
# Static dielectric constant tensor:
#      x y z
#    x 1.728190 0.000000 0.000000 
#    y 0.000000 1.748770 0.000000 
#    z 0.000000 0.000000 1.715270 
# 
# From -- ./inp_files/23627.got.cif
#   From: 2010.05.17/outbox.cif.g08.bks.cpg/sg53_12_cif.got.tgz:23627.got - 2010.06.03 12:45:16.
