data_PCOD9416922
_publ_section_title
;
Structure prediction by ZEFSAII (Michael W. Deem and Ramdas Pophale) SiO2 
 PCOD9416922
Probable space group: P M N A
;
_chemical_formula_sum "Si O2"
_cell_formula_units_Z 48
_cell_length_a 12.885180
_cell_length_b 9.339046
_cell_length_c 22.040150
_cell_angle_alpha 90.000000
_cell_angle_beta 90.000000
_cell_angle_gamma 90.000000
_cell_volume 2652.207814
_symmetry_space_group_name_H-M "P M N A"
_symmetry_group_IT_number 53
_symmetry_cell_setting 'orthorhombic'
loop_
_space_group_symop_operation_xyz
x,y,z
1/2-x,-y,1/2+z
x,-y,-z
1/2-x,y,1/2-z
-x,-y,-z
1/2+x,y,1/2-z
-x,y,z
1/2+x,-y,1/2+z
loop_
_atom_site_type_symbol
_atom_site_label
_atom_site_fract_x
_atom_site_fract_y
_atom_site_fract_z
Si Si1 0.376075 0.675392 0.324513
Si Si2 0.116965 0.044916 0.352074
Si Si3 0.743946 0.413554 0.556744
Si Si4 0.250000 0.912687 0.250000
Si Si5 0.750000 0.557602 0.750000
Si Si6 0.120025 0.143229 0.533587
Si Si7 0.876303 0.358754 0.365780
O O1 0.500000 0.682185 0.323226
O O2 0.333451 0.651840 0.392913
O O3 0.325536 0.811202 0.290002
O O4 0.330850 0.541671 0.286658
O O5 0.138788 0.194129 0.386647
O O6 0.000000 0.060873 0.328979
O O7 0.190117 0.011503 0.296833
O O8 0.119877 0.909460 0.396643
O O9 0.695986 0.500000 0.500000
O O10 0.811752 0.283777 0.529799
O O11 0.820464 0.523288 0.592479
O O12 0.680900 0.636776 0.800418
O O13 0.000000 0.169219 0.514921
O O14 0.157979 0.000000 0.500000
O O15 0.000000 0.388141 0.362101
#
# Coordination Sequence:
#
# PCOD9416922 Si02
#       7
#     8   8   8   4   4   8   8
#     4  10  21  36  56  82 110 145 188 233 282 331
#     4  10  20  33  53  83 113 145 181 223 277 336
#     4  11  22  37  56  81 109 151 191 234 278 333
#     4  11  19  36  58  82 112 148 182 232 276 338
#     4   9  19  34  54  82 112 148 180 224 278 334
#     4  10  20  35  55  82 114 147 185 230 281 332
#     4  10  20  34  54  84 119 147 181 227 277 333
#
# _framework density 18.098130000000001
#
# number of rings (size 3 to 8) (size 9 to 14) (size 15 to 20)
#    0.000    1.833    1.667    3.000    0.000    3.000 
#    0.000    0.000    0.000    1.500    0.000    0.000 
#    0.000    0.000    0.000    0.000    0.000    0.000 
#
# Total GULP energy -267706.520320 kJ/mol
# GULP energy per Si atom -5577.219173 kJ/mol
# Density = 1.805694 g / cm^3
# Si number density = 18.098130 Si / 1000 Ang^3
#
#
#
# Elastic Constant Matrix: (Units=GPa)
#
#
# Indices 1 2 3 4 5 6 
#
# 1 104.5766 41.0396 38.1163 0.0000 0.0000 0.0000
# 2 41.0396 85.7954 23.9133 0.0000 0.0000 0.0000
# 3 38.1163 23.9133 84.5238 0.0000 0.0000 0.0000
# 4 0.0000 0.0000 0.0000 31.8690 0.0000 0.0000
# 5 0.0000 0.0000 0.0000 0.0000 20.2681 0.0000
# 6 0.0000 0.0000 0.0000 0.0000 0.0000 17.6430
#
#
#
# Elastic Compliance Matrix: (Units=1/GPa)
#
#
# Indices 1 2 3 4 5 6 
#
# 1 0.013192 -0.005050 -0.004520 0.000000 0.000000 0.000000
# 2 -0.005050 0.014587 -0.001849 0.000000 0.000000 0.000000
# 3 -0.004520 -0.001849 0.014393 0.000000 0.000000 0.000000
# 4 0.000000 0.000000 0.000000 0.031378 0.000000 0.000000
# 5 0.000000 0.000000 0.000000 0.000000 0.049339 0.000000
# 6 0.000000 0.000000 0.000000 0.000000 0.000000 0.056680
#
#
# Mechanical properties :
#
#
# Convention : Reuss Voigt Hill
#
# Bulk Modulus (GPa) = 51.72875 53.44823 52.58849
# Shear Modulus (GPa) = 23.94044 25.41111 24.67577
#
# Velocity S-wave (km/s) = 3.64099 3.75116 3.69649
# Velocity P-wave (km/s) = 6.80590 6.95401 6.88035
#
# Compressibility (1/GPa) = 0.01933161
#
# Stress axis : x y z
#
# Youngs Moduli (GPa) = 75.80478 68.55460 69.48039
#
# Poissons Ratio (x) = 0.34622 0.31405
# Poissons Ratio (y) = 0.38284 0.12850
# Poissons Ratio (z) = 0.34264 0.12679
#
# Static dielectric constant tensor:
#      x y z
#    x 1.586740 0.000000 0.000000 
#    y 0.000000 1.626750 0.000000 
#    z 0.000000 0.000000 1.662060 
# 
# From -- ./inp_files/32306.got.cif
#   From: 2010.05.17/outbox.cif.g08.bks.cpg/sg53_17_cif.got.tgz:32306.got - 2010.06.03 12:45:16.
