data_PCOD9416677
_publ_section_title
;
Structure prediction by ZEFSAII (Michael W. Deem and Ramdas Pophale) SiO2 
 PCOD9416677
Probable space group: P M N A
;
_chemical_formula_sum "Si O2"
_cell_formula_units_Z 32
_cell_length_a 13.691114
_cell_length_b 11.953966
_cell_length_c 7.653660
_cell_angle_alpha 90.000000
_cell_angle_beta 90.000000
_cell_angle_gamma 90.000000
_cell_volume 1252.621808
_symmetry_space_group_name_H-M "P M N A"
_symmetry_group_IT_number 53
_symmetry_cell_setting 'orthorhombic'
loop_
_space_group_symop_operation_xyz
x,y,z
1/2-x,-y,1/2+z
x,-y,-z
1/2-x,y,1/2-z
-x,-y,-z
1/2+x,y,1/2-z
-x,y,z
1/2+x,-y,1/2+z
loop_
_atom_site_type_symbol
_atom_site_label
_atom_site_fract_x
_atom_site_fract_y
_atom_site_fract_z
Si Si1 0.669745 0.630480 0.518304
Si Si2 0.112455 0.700466 0.589744
Si Si3 0.154929 0.844827 0.138196
Si Si4 0.894299 0.084493 0.222297
O O1 0.652091 0.500000 0.500000
O O2 0.630047 0.661231 0.710285
O O3 0.788103 0.653046 0.502371
O O4 0.618352 0.717897 0.385946
O O5 0.116807 0.836211 0.611423
O O6 0.000000 0.671987 0.534849
O O7 0.250000 0.834837 0.250000
O O8 0.104820 0.951175 0.229847
O O9 0.175770 0.882663 0.937142
O O10 0.000000 0.116740 0.145855
#
# Coordination Sequence:
#
# PCOD9416677 Si02
#       4
#     8   8   8   8
#     4  10  22  37  59  83 114 153 196 233 279 339
#     4   9  20  39  61  82 111 152 191 235 288 342
#     4  10  20  30  56  84 109 140 183 231 281 329
#     4   9  19  37  58  81 113 146 183 230 290 348
#
# _framework density 25.546417000000002
#
# number of rings (size 3 to 8) (size 9 to 14) (size 15 to 20)
#    0.000    2.500    0.000    1.500   14.000    2.000 
#    0.000    2.500    0.000    3.000    0.000    0.000 
#    0.000    0.000    0.000    0.000    0.000    0.000 
#
# Total GULP energy -178258.414640 kJ/mol
# GULP energy per Si atom -5570.575458 kJ/mol
# Density = 2.548827 g / cm^3
# Si number density = 25.546417 Si / 1000 Ang^3
#
#
#
# Elastic Constant Matrix: (Units=GPa)
#
#
# Indices 1 2 3 4 5 6 
#
# 1 121.6662 22.6625 7.4204 0.0000 0.0000 0.0000
# 2 22.6625 225.4919 7.9846 0.0000 0.0000 0.0000
# 3 7.4204 7.9846 34.5348 0.0000 0.0000 0.0000
# 4 0.0000 0.0000 0.0000 9.2117 0.0000 0.0000
# 5 0.0000 0.0000 0.0000 0.0000 -6.1219 0.0000
# 6 0.0000 0.0000 0.0000 0.0000 0.0000 -31.2456
#
#
#
# Elastic Compliance Matrix: (Units=1/GPa)
#
#
# Indices 1 2 3 4 5 6 
#
# 1 0.008467 -0.000793 -0.001636 0.000000 0.000000 0.000000
# 2 -0.000793 0.004546 -0.000881 0.000000 0.000000 0.000000
# 3 -0.001636 -0.000881 0.029511 0.000000 0.000000 0.000000
# 4 0.000000 0.000000 0.000000 0.108558 0.000000 0.000000
# 5 0.000000 0.000000 0.000000 0.000000 -0.163348 0.000000
# 6 0.000000 0.000000 0.000000 0.000000 0.000000 -0.032005
#
#
# Mechanical properties :
#
#
# Convention : Reuss Voigt Hill
#
# Bulk Modulus (GPa) = 27.85140 50.86975 39.36057
# Shear Modulus (GPa) = -194.67468 17.27721 -88.69873
#
# Velocity S-wave (km/s) = -8.73898 2.60341 -5.89881
# Velocity P-wave (km/s) = 9.53417 5.38451 5.56361
#
# Compressibility (1/GPa) = 0.03590483
#
# Stress axis : x y z
#
# Youngs Moduli (GPa) = 118.10992 219.99157 33.88521
#
# Poissons Ratio (x) = 0.17445 0.05543
# Poissons Ratio (y) = 0.09366 0.02984
# Poissons Ratio (z) = 0.19321 0.19372
#
# Static dielectric constant tensor:
#      x y z
#    x 2.046780 0.000000 0.000000 
#    y 0.000000 2.078210 0.000000 
#    z 0.000000 0.000000 1.993070 
# 
# From -- ./inp_files/7966.got.cif
#   From: 2010.05.17/outbox.cif.g08.bks.cpg/sg53_4_cif.got.tgz:7966.got - 2010.06.03 12:45:16.
