data_PCOD9416653
_publ_section_title
;
Structure prediction by ZEFSAII (Michael W. Deem and Ramdas Pophale) SiO2 
 PCOD9416653
Probable space group: P M N A
;
_chemical_formula_sum "Si O2"
_cell_formula_units_Z 48
_cell_length_a 8.573568
_cell_length_b 15.432659
_cell_length_c 19.632995
_cell_angle_alpha 90.000000
_cell_angle_beta 90.000000
_cell_angle_gamma 90.000000
_cell_volume 2597.699512
_symmetry_space_group_name_H-M "P M N A"
_symmetry_group_IT_number 53
_symmetry_cell_setting 'orthorhombic'
loop_
_space_group_symop_operation_xyz
x,y,z
1/2-x,-y,1/2+z
x,-y,-z
1/2-x,y,1/2-z
-x,-y,-z
1/2+x,y,1/2-z
-x,y,z
1/2+x,-y,1/2+z
loop_
_atom_site_type_symbol
_atom_site_label
_atom_site_fract_x
_atom_site_fract_y
_atom_site_fract_z
Si Si1 0.314549 0.388843 0.173680
Si Si2 0.188083 0.535140 0.075887
Si Si3 0.186094 0.065381 0.325638
Si Si4 0.312234 0.125399 0.674546
Si Si5 0.810164 0.733399 0.063771
Si Si6 0.812497 0.775023 0.909750
O O1 0.250000 0.393613 0.250000
O O2 0.500000 0.379421 0.175278
O O3 0.266683 0.473736 0.131176
O O4 0.241557 0.306417 0.135086
O O5 0.238183 0.635206 0.080107
O O6 0.000000 0.530331 0.084574
O O7 0.222482 0.500000 0.000000
O O8 0.250000 0.086410 0.250000
O O9 0.243811 0.137898 0.377677
O O10 0.000000 0.063155 0.322959
O O11 0.250197 0.970147 0.343540
O O12 0.250000 0.145877 0.750000
O O13 0.500000 0.122698 0.676287
O O14 0.260750 0.197014 0.619980
O O15 0.000000 0.732821 0.063371
O O16 0.761096 0.759693 0.987685
O O17 0.000000 0.779551 0.908410
#
# Coordination Sequence:
#
# PCOD9416653 Si02
#       6
#     8   8   8   8   8   8
#     4  12  25  40  59  89 122 157 199 248 296 351
#     4  10  19  39  65  87 117 158 198 240 294 355
#     4  11  22  38  58  85 117 155 195 241 295 349
#     4  10  20  38  60  85 115 152 197 242 289 347
#     4   9  20  37  62  89 116 154 197 237 292 354
#     4  11  21  39  62  87 117 156 196 240 294 356
#
# _framework density 18.477886999999999
#
# number of rings (size 3 to 8) (size 9 to 14) (size 15 to 20)
#    0.000    1.500    1.667    5.500    0.000    1.667 
#    0.000   10.000    0.000    0.000    0.000    0.000 
#    0.000    0.000    0.000    0.000    0.000    0.000 
#
# Total GULP energy -268301.291487 kJ/mol
# GULP energy per Si atom -5589.610239 kJ/mol
# Density = 1.843583 g / cm^3
# Si number density = 18.477887 Si / 1000 Ang^3
#
#
#
# Elastic Constant Matrix: (Units=GPa)
#
#
# Indices 1 2 3 4 5 6 
#
# 1 89.7537 46.0727 46.0552 0.0000 0.0000 0.0000
# 2 46.0727 161.9849 112.4772 0.0000 0.0000 0.0000
# 3 46.0552 112.4772 145.7179 0.0000 0.0000 0.0000
# 4 0.0000 0.0000 0.0000 47.3523 0.0000 0.0000
# 5 0.0000 0.0000 0.0000 0.0000 28.4157 0.0000
# 6 0.0000 0.0000 0.0000 0.0000 0.0000 33.3006
#
#
#
# Elastic Compliance Matrix: (Units=1/GPa)
#
#
# Indices 1 2 3 4 5 6 
#
# 1 0.013564 -0.001899 -0.002821 0.000000 0.000000 0.000000
# 2 -0.001899 0.013570 -0.009874 0.000000 0.000000 0.000000
# 3 -0.002821 -0.009874 0.015376 0.000000 0.000000 0.000000
# 4 0.000000 0.000000 0.000000 0.021118 0.000000 0.000000
# 5 0.000000 0.000000 0.000000 0.000000 0.035192 0.000000
# 6 0.000000 0.000000 0.000000 0.000000 0.000000 0.030029
#
#
# Mechanical properties :
#
#
# Convention : Reuss Voigt Hill
#
# Bulk Modulus (GPa) = 75.06885 89.62964 82.34925
# Shear Modulus (GPa) = 30.77334 34.67049 32.72191
#
# Velocity S-wave (km/s) = 4.08538 4.33635 4.21273
# Velocity P-wave (km/s) = 7.93525 8.58392 8.26595
#
# Compressibility (1/GPa) = 0.01332110
#
# Stress axis : x y z
#
# Youngs Moduli (GPa) = 73.72429 73.69299 65.03684
#
# Poissons Ratio (x) = 0.13994 0.18348
# Poissons Ratio (y) = 0.14000 0.64218
# Poissons Ratio (z) = 0.20799 0.72765
#
# Static dielectric constant tensor:
#      x y z
#    x 1.626460 0.000000 0.000000 
#    y 0.000000 1.615370 0.000000 
#    z 0.000000 0.000000 1.607970 
# 
# From -- ./inp_files/26206.got.cif
#   From: 2010.05.17/outbox.cif.g08.bks.cpg/sg53_14_cif.got.tgz:26206.got - 2010.06.03 12:45:16.
