data_PCOD9416614
_publ_section_title
;
Structure prediction by ZEFSAII (Michael W. Deem and Ramdas Pophale) SiO2 
 PCOD9416614
Probable space group: P M N A
;
_chemical_formula_sum "Si O2"
_cell_formula_units_Z 40
_cell_length_a 27.302366
_cell_length_b 5.152819
_cell_length_c 12.799106
_cell_angle_alpha 90.000000
_cell_angle_beta 90.000000
_cell_angle_gamma 90.000000
_cell_volume 1800.631352
_symmetry_space_group_name_H-M "P M N A"
_symmetry_group_IT_number 53
_symmetry_cell_setting 'orthorhombic'
loop_
_space_group_symop_operation_xyz
x,y,z
1/2-x,-y,1/2+z
x,-y,-z
1/2-x,y,1/2-z
-x,-y,-z
1/2+x,y,1/2-z
-x,y,z
1/2+x,-y,1/2+z
loop_
_atom_site_type_symbol
_atom_site_label
_atom_site_fract_x
_atom_site_fract_y
_atom_site_fract_z
Si Si1 0.658007 0.243188 0.556637
Si Si2 0.304629 0.171367 0.786816
Si Si3 0.946134 0.776954 0.120095
Si Si4 0.345040 0.663235 0.892312
Si Si5 0.945600 0.721486 0.731069
O O1 0.677280 0.500000 0.500000
O O2 0.664981 0.193295 0.679067
O O3 0.599335 0.241397 0.542881
O O4 0.681505 0.000000 0.500000
O O5 0.250000 0.111693 0.750000
O O6 0.310495 0.461981 0.830075
O O7 0.322964 0.952008 0.869087
O O8 0.943802 0.527013 0.194216
O O9 0.000000 0.778458 0.070063
O O10 0.941356 0.026344 0.195389
O O11 0.399896 0.693403 0.846147
O O12 0.349352 0.500000 0.000000
O O13 0.000000 0.730723 0.680964
#
# Coordination Sequence:
#
# PCOD9416614 Si02
#       5
#     8   8   8   8   8
#     4  12  24  40  67  95 129 172 220 268 329 395
#     4  12  27  48  68  95 135 173 223 289 343 392
#     4  10  20  37  62  91 133 178 216 263 325 392
#     4  12  24  44  73 101 132 174 224 274 342 411
#     4  10  19  37  65  96 134 176 214 264 330 401
#
# _framework density 22.214431000000001
#
# number of rings (size 3 to 8) (size 9 to 14) (size 15 to 20)
#    0.000    0.800    4.000    3.600    0.000    3.600 
#    0.000    0.000    0.000    6.000    0.000    0.000 
#    0.000    0.000    0.000    0.000    0.000    0.000 
#
# Total GULP energy -223279.688102 kJ/mol
# GULP energy per Si atom -5581.992203 kJ/mol
# Density = 2.216387 g / cm^3
# Si number density = 22.214431 Si / 1000 Ang^3
#
#
#
# Elastic Constant Matrix: (Units=GPa)
#
#
# Indices 1 2 3 4 5 6 
#
# 1 102.3031 21.6045 0.0181 0.0000 0.0000 0.0000
# 2 21.6045 176.3041 28.4989 0.0000 0.0000 0.0000
# 3 0.0181 28.4989 45.6330 0.0000 0.0000 0.0000
# 4 0.0000 0.0000 0.0000 32.5452 0.0000 0.0000
# 5 0.0000 0.0000 0.0000 0.0000 16.7360 0.0000
# 6 0.0000 0.0000 0.0000 0.0000 0.0000 20.6831
#
#
#
# Elastic Compliance Matrix: (Units=1/GPa)
#
#
# Indices 1 2 3 4 5 6 
#
# 1 0.010064 -0.001371 0.000852 0.000000 0.000000 0.000000
# 2 -0.001371 0.006496 -0.004056 0.000000 0.000000 0.000000
# 3 0.000852 -0.004056 0.024447 0.000000 0.000000 0.000000
# 4 0.000000 0.000000 0.000000 0.030727 0.000000 0.000000
# 5 0.000000 0.000000 0.000000 0.000000 0.059751 0.000000
# 6 0.000000 0.000000 0.000000 0.000000 0.000000 0.048349
#
#
# Mechanical properties :
#
#
# Convention : Reuss Voigt Hill
#
# Bulk Modulus (GPa) = 31.39044 47.16479 39.27761
# Shear Modulus (GPa) = 25.04982 32.26744 28.65863
#
# Velocity S-wave (km/s) = 3.36167 3.81536 3.59568
# Velocity P-wave (km/s) = 5.40640 6.37864 5.91253
#
# Compressibility (1/GPa) = 0.03185684
#
# Stress axis : x y z
#
# Youngs Moduli (GPa) = 99.36144 153.94822 40.90515
#
# Poissons Ratio (x) = 0.21107 -0.03486
# Poissons Ratio (y) = 0.13623 0.16592
# Poissons Ratio (z) = -0.08468 0.62444
#
# Static dielectric constant tensor:
#      x y z
#    x 1.862650 0.000000 0.000000 
#    y 0.000000 1.717920 0.000000 
#    z 0.000000 0.000000 1.701580 
# 
# From -- ./inp_files/18921.got.cif
#   From: 2010.05.17/outbox.cif.g08.bks.cpg/sg53_10_cif.got.tgz:18921.got - 2010.06.03 12:45:16.
