data_PCOD9416621
_publ_section_title
;
Structure prediction by ZEFSAII (Michael W. Deem and Ramdas Pophale) SiO2 
 PCOD9416621
Probable space group: P M N A
;
_chemical_formula_sum "Si O2"
_cell_formula_units_Z 40
_cell_length_a 11.852394
_cell_length_b 5.751020
_cell_length_c 23.001156
_cell_angle_alpha 90.000000
_cell_angle_beta 90.000000
_cell_angle_gamma 90.000000
_cell_volume 1567.835961
_symmetry_space_group_name_H-M "P M N A"
_symmetry_group_IT_number 53
_symmetry_cell_setting 'orthorhombic'
loop_
_space_group_symop_operation_xyz
x,y,z
1/2-x,-y,1/2+z
x,-y,-z
1/2-x,y,1/2-z
-x,-y,-z
1/2+x,y,1/2-z
-x,y,z
1/2+x,-y,1/2+z
loop_
_atom_site_type_symbol
_atom_site_label
_atom_site_fract_x
_atom_site_fract_y
_atom_site_fract_z
Si Si1 0.000000 0.779658 0.930166
Si Si2 0.735579 0.410097 0.655369
Si Si3 0.500000 0.723666 0.360183
Si Si4 0.379536 0.958445 0.101581
Si Si5 0.763046 0.697966 0.954653
Si Si6 0.871469 0.751607 0.720379
O O1 0.112777 0.788436 0.968496
O O2 0.000000 0.509158 0.902683
O O3 0.000000 0.015993 0.889160
O O4 0.615519 0.313921 0.675947
O O5 0.717147 0.629622 0.613394
O O6 0.833250 0.492840 0.698879
O O7 0.781875 0.224176 0.610368
O O8 0.500000 0.846695 0.090453
O O9 0.342007 0.133963 0.052151
O O10 0.384826 0.090272 0.163515
O O11 0.736100 0.500000 0.000000
O O12 0.750000 0.826492 0.750000
O O13 0.000000 0.750724 0.747897
#
# Coordination Sequence:
#
# PCOD9416621 Si02
#       6
#     4   8   4   8   8   8
#     4  10  19  38  58  94 128 172 216 276 326 386
#     4  10  21  39  61  89 124 168 207 271 323 399
#     4  10  20  36  65  94 128 172 224 264 335 384
#     4  10  21  40  61  84 122 166 211 265 330 389
#     4  10  21  37  58  88 125 167 216 269 326 388
#     4  10  23  42  65  94 124 163 210 269 330 397
#
# _framework density 25.512874
#
# number of rings (size 3 to 8) (size 9 to 14) (size 15 to 20)
#    0.000    2.000    2.000    0.900    1.400    2.800 
#    3.600    3.000    0.000    0.000    0.000    0.000 
#    0.000    0.000    0.000    0.000    0.000    0.000 
#
# Total GULP energy -222716.957164 kJ/mol
# GULP energy per Si atom -5567.923929 kJ/mol
# Density = 2.545481 g / cm^3
# Si number density = 25.512874 Si / 1000 Ang^3
#
#
#
# Elastic Constant Matrix: (Units=GPa)
#
#
# Indices 1 2 3 4 5 6 
#
# 1 170.7440 1.5808 16.9234 0.0000 0.0000 0.0000
# 2 1.5808 70.9546 12.2908 0.0000 0.0000 0.0000
# 3 16.9234 12.2908 55.2924 0.0000 0.0000 0.0000
# 4 0.0000 0.0000 0.0000 24.5428 0.0000 0.0000
# 5 0.0000 0.0000 0.0000 0.0000 33.4373 0.0000
# 6 0.0000 0.0000 0.0000 0.0000 0.0000 85.4209
#
#
#
# Elastic Compliance Matrix: (Units=1/GPa)
#
#
# Indices 1 2 3 4 5 6 
#
# 1 0.006042 0.000193 -0.001892 0.000000 0.000000 0.000000
# 2 0.000193 0.014664 -0.003319 0.000000 0.000000 0.000000
# 3 -0.001892 -0.003319 0.019403 0.000000 0.000000 0.000000
# 4 0.000000 0.000000 0.000000 0.040745 0.000000 0.000000
# 5 0.000000 0.000000 0.000000 0.000000 0.029907 0.000000
# 6 0.000000 0.000000 0.000000 0.000000 0.000000 0.011707
#
#
# Mechanical properties :
#
#
# Convention : Reuss Voigt Hill
#
# Bulk Modulus (GPa) = 33.25214 39.84234 36.54724
# Shear Modulus (GPa) = 35.08082 46.42661 40.75372
#
# Velocity S-wave (km/s) = 3.71215 4.27046 4.00106
# Velocity P-wave (km/s) = 5.60671 6.32189 5.97501
#
# Compressibility (1/GPa) = 0.03007326
#
# Stress axis : x y z
#
# Youngs Moduli (GPa) = 165.49453 68.19380 51.53954
#
# Poissons Ratio (x) = -0.01317 0.09753
# Poissons Ratio (y) = -0.03197 0.17105
# Poissons Ratio (z) = 0.31318 0.22632
#
# Static dielectric constant tensor:
#      x y z
#    x 2.228370 0.000000 0.000000 
#    y 0.000000 2.127110 0.000000 
#    z 0.000000 0.000000 2.135410 
# 
# From -- ./inp_files/38576.got.cif
#   From: 2010.05.17/outbox.cif.g08.bks.cpg/sg53_20_cif.got.tgz:38576.got - 2010.06.03 12:45:16.
