data_PCOD9416921
_publ_section_title
;
Structure prediction by ZEFSAII (Michael W. Deem and Ramdas Pophale) SiO2 
 PCOD9416921
Probable space group: P M N A
;
_chemical_formula_sum "Si O2"
_cell_formula_units_Z 64
_cell_length_a 29.602221
_cell_length_b 7.689303
_cell_length_c 12.353040
_cell_angle_alpha 90.000000
_cell_angle_beta 90.000000
_cell_angle_gamma 90.000000
_cell_volume 2811.804483
_symmetry_space_group_name_H-M "P M N A"
_symmetry_group_IT_number 53
_symmetry_cell_setting 'orthorhombic'
loop_
_space_group_symop_operation_xyz
x,y,z
1/2-x,-y,1/2+z
x,-y,-z
1/2-x,y,1/2-z
-x,-y,-z
1/2+x,y,1/2-z
-x,y,z
1/2+x,-y,1/2+z
loop_
_atom_site_type_symbol
_atom_site_label
_atom_site_fract_x
_atom_site_fract_y
_atom_site_fract_z
Si Si1 0.846314 0.033789 0.380394
Si Si2 0.322562 0.193289 0.502137
Si Si3 0.696190 0.664997 0.738381
Si Si4 0.946792 0.308046 0.184864
Si Si5 0.572969 0.813665 0.461507
Si Si6 0.448752 0.349551 0.767336
Si Si7 0.945994 0.985022 0.651170
Si Si8 0.197890 0.730377 0.235234
O O1 0.826557 0.199408 0.318982
O O2 0.826562 0.000000 0.500000
O O3 0.899594 0.080085 0.401123
O O4 0.833648 0.871979 0.297872
O O5 0.319083 0.282737 0.384819
O O6 0.373579 0.164933 0.546392
O O7 0.303116 0.291537 0.604607
O O8 0.301676 0.000000 0.500000
O O9 0.750000 0.686711 0.750000
O O10 0.686669 0.465586 0.771657
O O11 0.931521 0.313725 0.062823
O O12 0.925841 0.462850 0.256469
O O13 0.000000 0.339585 0.181328
O O14 0.941620 0.117589 0.235132
O O15 0.552921 0.733426 0.353236
O O16 0.553385 0.000000 0.500000
O O17 0.500000 0.381268 0.802560
O O18 0.435553 0.189380 0.841563
O O19 0.000000 0.960194 0.619820
O O20 0.250000 0.783057 0.250000
#
# Coordination Sequence:
#
# PCOD9416921 Si02
#       8
#     8   8   8   8   8   8   8   8
#     4  12  27  45  71 103 137 185 235 286 346 407
#     4  11  23  40  68 100 134 175 215 267 334 403
#     4  11  26  46  72 104 139 178 225 281 344 415
#     4  10  20  33  53  81 117 165 215 266 326 388
#     4  11  20  30  49  83 123 162 207 259 319 392
#     4  10  20  33  53  81 117 165 215 266 326 388
#     4  10  22  41  62  88 125 168 223 284 334 389
#     4  11  26  46  72 104 139 178 225 281 344 415
#
# _framework density 22.761182000000002
#
# number of rings (size 3 to 8) (size 9 to 14) (size 15 to 20)
#    0.000    1.250    2.500    3.000    1.750    7.250 
#    0.000    0.000    0.000    0.000    0.000    5.250 
#    0.000    0.000    0.000    0.000    0.000    0.000 
#
# Total GULP energy -356463.873286 kJ/mol
# GULP energy per Si atom -5569.748020 kJ/mol
# Density = 2.270938 g / cm^3
# Si number density = 22.761182 Si / 1000 Ang^3
#
#
#
# Elastic Constant Matrix: (Units=GPa)
#
#
# Indices 1 2 3 4 5 6 
#
# 1 83.9859 5.5628 3.8985 0.0000 0.0000 0.0000
# 2 5.5628 115.4836 7.0149 0.0000 0.0000 0.0000
# 3 3.8985 7.0149 87.9609 0.0000 0.0000 0.0000
# 4 0.0000 0.0000 0.0000 13.2285 0.0000 0.0000
# 5 0.0000 0.0000 0.0000 0.0000 19.3243 0.0000
# 6 0.0000 0.0000 0.0000 0.0000 0.0000 65.3029
#
#
#
# Elastic Compliance Matrix: (Units=1/GPa)
#
#
# Indices 1 2 3 4 5 6 
#
# 1 0.011966 -0.000547 -0.000487 0.000000 0.000000 0.000000
# 2 -0.000547 0.008726 -0.000672 0.000000 0.000000 0.000000
# 3 -0.000487 -0.000672 0.011444 0.000000 0.000000 0.000000
# 4 0.000000 0.000000 0.000000 0.075594 0.000000 0.000000
# 5 0.000000 0.000000 0.000000 0.000000 0.051748 0.000000
# 6 0.000000 0.000000 0.000000 0.000000 0.000000 0.015313
#
#
# Mechanical properties :
#
#
# Convention : Reuss Voigt Hill
#
# Bulk Modulus (GPa) = 34.81248 35.59809 35.20529
# Shear Modulus (GPa) = 26.62731 37.63476 32.13104
#
# Velocity S-wave (km/s) = 3.42403 4.07069 3.76128
# Velocity P-wave (km/s) = 5.56416 6.14555 5.86207
#
# Compressibility (1/GPa) = 0.02872533
#
# Stress axis : x y z
#
# Youngs Moduli (GPa) = 83.57315 114.59503 87.38340
#
# Poissons Ratio (x) = 0.06266 0.04253
# Poissons Ratio (y) = 0.04570 0.05870
# Poissons Ratio (z) = 0.04068 0.07697
#
# Static dielectric constant tensor:
#      x y z
#    x 1.900780 0.000000 0.000000 
#    y 0.000000 1.922930 0.000000 
#    z 0.000000 0.000000 1.858810 
# 
# From -- ./inp_files/19056.got.cif
#   From: 2010.05.17/outbox.cif.g08.bks.cpg/sg53_10_cif.got.tgz:19056.got - 2010.06.03 12:45:16.
