data_PCOD9416560
_publ_section_title
;
Structure prediction by ZEFSAII (Michael W. Deem and Ramdas Pophale) SiO2 
 PCOD9416560
Probable space group: P M N A
;
_chemical_formula_sum "Si O2"
_cell_formula_units_Z 32
_cell_length_a 8.310717
_cell_length_b 5.257165
_cell_length_c 29.513259
_cell_angle_alpha 90.000000
_cell_angle_beta 90.000000
_cell_angle_gamma 90.000000
_cell_volume 1289.458207
_symmetry_space_group_name_H-M "P M N A"
_symmetry_group_IT_number 53
_symmetry_cell_setting 'orthorhombic'
loop_
_space_group_symop_operation_xyz
x,y,z
1/2-x,-y,1/2+z
x,-y,-z
1/2-x,y,1/2-z
-x,-y,-z
1/2+x,y,1/2-z
-x,y,z
1/2+x,-y,1/2+z
loop_
_atom_site_type_symbol
_atom_site_label
_atom_site_fract_x
_atom_site_fract_y
_atom_site_fract_z
Si Si1 0.692644 0.753470 0.525562
Si Si2 0.184410 0.536362 0.793634
Si Si3 0.500000 0.261562 0.884138
Si Si4 0.500000 0.776093 0.824108
Si Si5 0.678241 0.597401 0.397667
O O1 0.751936 0.500000 0.500000
O O2 0.500000 0.762465 0.519445
O O3 0.707576 0.677432 0.578765
O O4 0.758135 0.000000 0.500000
O O5 0.250000 0.380357 0.750000
O O6 0.178114 0.407533 0.843108
O O7 0.000000 0.621711 0.786319
O O8 0.329809 0.738715 0.798552
O O9 0.500000 0.048592 0.846334
O O10 0.666798 0.240177 0.910522
O O11 0.500000 0.542892 0.860857
O O12 0.500000 0.686138 0.412389
#
# Coordination Sequence:
#
# PCOD9416560 Si02
#       5
#     8   8   4   4   8
#     4   9  18  34  58  88 122 160 205 256 311 370
#     4  10  19  36  65  92 127 163 210 254 312 372
#     4  10  22  40  62  89 124 160 204 253 310 364
#     4  10  22  40  60  89 124 162 202 255 304 364
#     4   9  20  38  63  95 126 169 210 261 315 377
#
# _framework density 24.816624000000001
#
# number of rings (size 3 to 8) (size 9 to 14) (size 15 to 20)
#    0.000    2.500    1.250    0.000    0.000    5.000 
#    0.000   13.750    0.000    0.000    0.000    0.000 
#    0.000    0.000    0.000    0.000    0.000    0.000 
#
# Total GULP energy -178208.771004 kJ/mol
# GULP energy per Si atom -5569.024094 kJ/mol
# Density = 2.476014 g / cm^3
# Si number density = 24.816624 Si / 1000 Ang^3
#
#
#
# Elastic Constant Matrix: (Units=GPa)
#
#
# Indices 1 2 3 4 5 6 
#
# 1 229.5475 17.9195 17.5548 0.0000 0.0000 0.0000
# 2 17.9195 75.0424 25.1559 0.0000 0.0000 0.0000
# 3 17.5548 25.1559 149.8838 0.0000 0.0000 0.0000
# 4 0.0000 0.0000 0.0000 21.6364 0.0000 0.0000
# 5 0.0000 0.0000 0.0000 0.0000 17.8033 0.0000
# 6 0.0000 0.0000 0.0000 0.0000 0.0000 -15.3188
#
#
#
# Elastic Compliance Matrix: (Units=1/GPa)
#
#
# Indices 1 2 3 4 5 6 
#
# 1 0.004458 -0.000942 -0.000364 0.000000 0.000000 0.000000
# 2 -0.000942 0.014320 -0.002293 0.000000 0.000000 0.000000
# 3 -0.000364 -0.002293 0.007099 0.000000 0.000000 0.000000
# 4 0.000000 0.000000 0.000000 0.046218 0.000000 0.000000
# 5 0.000000 0.000000 0.000000 0.000000 0.056169 0.000000
# 6 0.000000 0.000000 0.000000 0.000000 0.000000 -0.065279
#
#
# Mechanical properties :
#
#
# Convention : Reuss Voigt Hill
#
# Bulk Modulus (GPa) = 53.53923 63.97046 58.75484
# Shear Modulus (GPa) = 65.43651 31.08040 48.25846
#
# Velocity S-wave (km/s) = 5.14055 3.54277 4.41455
# Velocity P-wave (km/s) = 7.54019 6.52443 7.05062
#
# Compressibility (1/GPa) = 0.01867789
#
# Stress axis : x y z
#
# Youngs Moduli (GPa) = 224.32576 69.83481 140.85904
#
# Poissons Ratio (x) = 0.06582 0.05126
# Poissons Ratio (y) = 0.21143 0.32298
# Poissons Ratio (z) = 0.08164 0.16013
#
# Static dielectric constant tensor:
#      x y z
#    x 2.016750 0.000000 0.000000 
#    y 0.000000 1.952870 0.000000 
#    z 0.000000 0.000000 2.104380 
# 
# From -- ./inp_files/37406.got.cif
#   From: 2010.05.17/outbox.cif.g08.bks.cpg/sg53_19_cif.got.tgz:37406.got - 2010.06.03 12:45:16.
