data_PCOD9416997
_publ_section_title
;
Structure prediction by ZEFSAII (Michael W. Deem and Ramdas Pophale) SiO2 
 PCOD9416997
Probable space group: P M N A
;
_chemical_formula_sum "Si O2"
_cell_formula_units_Z 48
_cell_length_a 8.836041
_cell_length_b 14.020595
_cell_length_c 22.255254
_cell_angle_alpha 90.000000
_cell_angle_beta 90.000000
_cell_angle_gamma 90.000000
_cell_volume 2757.126688
_symmetry_space_group_name_H-M "P M N A"
_symmetry_group_IT_number 53
_symmetry_cell_setting 'orthorhombic'
loop_
_space_group_symop_operation_xyz
x,y,z
1/2-x,-y,1/2+z
x,-y,-z
1/2-x,y,1/2-z
-x,-y,-z
1/2+x,y,1/2-z
-x,y,z
1/2+x,-y,1/2+z
loop_
_atom_site_type_symbol
_atom_site_label
_atom_site_fract_x
_atom_site_fract_y
_atom_site_fract_z
Si Si1 0.675740 0.664829 0.082679
Si Si2 0.674900 0.525046 0.571488
Si Si3 0.826074 0.229765 0.811400
Si Si4 0.818412 0.938453 0.559720
Si Si5 0.819590 0.269145 0.040196
Si Si6 0.826372 0.999794 0.186725
O O1 0.500000 0.669173 0.066342
O O2 0.722048 0.556763 0.099413
O O3 0.719078 0.733592 0.136359
O O4 0.775927 0.700797 0.027175
O O5 0.679107 0.500000 0.500000
O O6 0.500000 0.515044 0.590487
O O7 0.721978 0.635449 0.578082
O O8 0.750000 0.263010 0.750000
O O9 0.000000 0.262693 0.818615
O O10 0.828518 0.115184 0.811147
O O11 0.763355 0.829359 0.553657
O O12 0.754730 0.974020 0.623988
O O13 0.000000 0.942979 0.561204
O O14 0.769418 0.000000 0.500000
O O15 0.000000 0.256477 0.045281
O O16 0.750000 0.031719 0.250000
O O17 0.000000 0.034189 0.184788
#
# Coordination Sequence:
#
# PCOD9416997 Si02
#       6
#     8   8   8   8   8   8
#     4  11  20  30  49  76 105 135 167 206 255 309
#     4   8  16  31  49  70  97 130 166 203 247 302
#     4  10  20  34  52  74 101 133 170 211 254 304
#     4  11  23  36  53  80 112 142 176 222 270 316
#     4  10  20  34  52  74 102 136 173 213 258 306
#     4  10  21  37  57  78 104 141 181 219 262 316
#
# _framework density 17.409427999999998
#
# number of rings (size 3 to 8) (size 9 to 14) (size 15 to 20)
#    0.000    2.000    0.000    5.500    0.000    9.667 
#    0.000    0.000    0.000    1.000    0.000    0.000 
#    0.000    0.000    0.000    0.000    0.000    0.000 
#
# Total GULP energy -267500.193222 kJ/mol
# GULP energy per Si atom -5572.920692 kJ/mol
# Density = 1.736980 g / cm^3
# Si number density = 17.409428 Si / 1000 Ang^3
#
#
#
# Elastic Constant Matrix: (Units=GPa)
#
#
# Indices 1 2 3 4 5 6 
#
# 1 58.7335 27.6885 22.4224 0.0000 0.0000 0.0000
# 2 27.6885 56.0794 19.1333 0.0000 0.0000 0.0000
# 3 22.4224 19.1333 77.3589 0.0000 0.0000 0.0000
# 4 0.0000 0.0000 0.0000 -12.9983 0.0000 0.0000
# 5 0.0000 0.0000 0.0000 0.0000 26.4180 0.0000
# 6 0.0000 0.0000 0.0000 0.0000 0.0000 29.4785
#
#
#
# Elastic Compliance Matrix: (Units=1/GPa)
#
#
# Indices 1 2 3 4 5 6 
#
# 1 0.023427 -0.010103 -0.004292 0.000000 0.000000 0.000000
# 2 -0.010103 0.023832 -0.002966 0.000000 0.000000 0.000000
# 3 -0.004292 -0.002966 0.014904 0.000000 0.000000 0.000000
# 4 0.000000 0.000000 0.000000 -0.076933 0.000000 0.000000
# 5 0.000000 0.000000 0.000000 0.000000 0.037853 0.000000
# 6 0.000000 0.000000 0.000000 0.000000 0.000000 0.033923
#
#
# Mechanical properties :
#
#
# Convention : Reuss Voigt Hill
#
# Bulk Modulus (GPa) = 36.43980 36.74003 36.58992
# Shear Modulus (GPa) = 49.56652 16.77481 33.17066
#
# Velocity S-wave (km/s) = 5.34162 3.10747 4.36974
# Velocity P-wave (km/s) = 7.68247 5.83305 6.82074
#
# Compressibility (1/GPa) = 0.02744252
#
# Stress axis : x y z
#
# Youngs Moduli (GPa) = 42.68569 41.96059 67.09477
#
# Poissons Ratio (x) = 0.42391 0.28794
# Poissons Ratio (y) = 0.43124 0.19901
# Poissons Ratio (z) = 0.18319 0.12446
#
# Static dielectric constant tensor:
#      x y z
#    x 1.596920 0.000000 0.000000 
#    y 0.000000 1.616760 0.000000 
#    z 0.000000 0.000000 1.553230 
# 
# From -- ./inp_files/30480.got.cif
#   From: 2010.05.17/outbox.cif.g08.bks.cpg/sg53_16_cif.got.tgz:30480.got - 2010.06.03 12:45:16.
