data_PCOD9416014
_publ_section_title
;
Structure prediction by ZEFSAII (Michael W. Deem and Ramdas Pophale) SiO2 
 PCOD9416014
Probable space group: P M N A
;
_chemical_formula_sum "Si O2"
_cell_formula_units_Z 40
_cell_length_a 14.923099
_cell_length_b 12.602382
_cell_length_c 9.101841
_cell_angle_alpha 90.000000
_cell_angle_beta 90.000000
_cell_angle_gamma 90.000000
_cell_volume 1711.752238
_symmetry_space_group_name_H-M "P M N A"
_symmetry_group_IT_number 53
_symmetry_cell_setting 'orthorhombic'
loop_
_space_group_symop_operation_xyz
x,y,z
1/2-x,-y,1/2+z
x,-y,-z
1/2-x,y,1/2-z
-x,-y,-z
1/2+x,y,1/2-z
-x,y,z
1/2+x,-y,1/2+z
loop_
_atom_site_type_symbol
_atom_site_label
_atom_site_fract_x
_atom_site_fract_y
_atom_site_fract_z
Si Si1 0.847577 0.940031 0.294140
Si Si2 0.609556 0.668782 0.676127
Si Si3 0.609166 0.459286 0.841674
Si Si4 0.601140 0.155889 0.095422
Si Si5 0.106728 0.729287 0.144860
O O1 0.750000 0.977019 0.250000
O O2 0.846734 0.878252 0.449845
O O3 0.878571 0.852008 0.179686
O O4 0.903729 0.046637 0.312650
O O5 0.500000 0.676712 0.674791
O O6 0.631734 0.550011 0.723814
O O7 0.638146 0.751083 0.802881
O O8 0.643193 0.697690 0.514630
O O9 0.500000 0.454468 0.853474
O O10 0.640283 0.346969 0.776394
O O11 0.641801 0.500000 0.000000
O O12 0.500000 0.185918 0.046723
O O13 0.000000 0.711143 0.138852
#
# Coordination Sequence:
#
# PCOD9416014 Si02
#       5
#     8   8   8   8   8
#     4  11  23  37  56  81 111 146 189 237 286 341
#     4   9  18  31  53  85 112 138 180 235 284 330
#     4   9  16  28  51  82 112 142 180 228 281 336
#     4  10  21  40  62  83 113 154 198 238 288 354
#     4  10  19  33  55  82 113 145 183 232 283 338
#
# _framework density 23.367868999999999
#
# number of rings (size 3 to 8) (size 9 to 14) (size 15 to 20)
#    0.000    2.200    0.000    4.200    0.000    9.600 
#    0.000    3.000    0.000    8.400    0.000    0.000 
#    0.000    0.000    0.000    0.000    0.000    0.000 
#
# Total GULP energy -223594.003442 kJ/mol
# GULP energy per Si atom -5589.850086 kJ/mol
# Density = 2.331468 g / cm^3
# Si number density = 23.367869 Si / 1000 Ang^3
#
#
#
# Elastic Constant Matrix: (Units=GPa)
#
#
# Indices 1 2 3 4 5 6 
#
# 1 48.8230 -12.3333 14.2957 0.0000 0.0000 0.0000
# 2 -12.3333 68.1020 -21.8110 0.0000 0.0000 0.0000
# 3 14.2957 -21.8110 30.6427 0.0000 0.0000 0.0000
# 4 0.0000 0.0000 0.0000 37.8341 0.0000 0.0000
# 5 0.0000 0.0000 0.0000 0.0000 13.0870 0.0000
# 6 0.0000 0.0000 0.0000 0.0000 0.0000 1013.7821
#
#
#
# Elastic Compliance Matrix: (Units=1/GPa)
#
#
# Indices 1 2 3 4 5 6 
#
# 1 0.023773 0.000976 -0.010396 0.000000 0.000000 0.000000
# 2 0.000976 0.019060 0.013111 0.000000 0.000000 0.000000
# 3 -0.010396 0.013111 0.046817 0.000000 0.000000 0.000000
# 4 0.000000 0.000000 0.000000 0.026431 0.000000 0.000000
# 5 0.000000 0.000000 0.000000 0.000000 0.076411 0.000000
# 6 0.000000 0.000000 0.000000 0.000000 0.000000 0.000986
#
#
# Mechanical properties :
#
#
# Convention : Reuss Voigt Hill
#
# Bulk Modulus (GPa) = 10.30604 11.98560 11.14582
# Shear Modulus (GPa) = 22.88959 224.10174 123.49567
#
# Velocity S-wave (km/s) = 3.13314 9.80356 7.27758
# Velocity P-wave (km/s) = 4.18434 11.54499 8.68319
#
# Compressibility (1/GPa) = 0.09703044
#
# Stress axis : x y z
#
# Youngs Moduli (GPa) = 42.06515 52.46684 21.35995
#
# Poissons Ratio (x) = -0.05119 0.22206
# Poissons Ratio (y) = -0.04104 -0.28005
# Poissons Ratio (z) = 0.43731 -0.68790
#
# Static dielectric constant tensor:
#      x y z
#    x 1.922050 0.000000 0.000000 
#    y 0.000000 1.840210 0.000000 
#    z 0.000000 0.000000 1.839870 
# 
# From -- ./inp_files/9766.got.cif
#   From: 2010.05.17/outbox.cif.g08.bks.cpg/sg53_5_cif.got.tgz:9766.got - 2010.06.03 12:45:16.
