data_PCOD9416752
_publ_section_title
;
Structure prediction by ZEFSAII (Michael W. Deem and Ramdas Pophale) SiO2 
 PCOD9416752
Probable space group: P M N A
;
_chemical_formula_sum "Si O2"
_cell_formula_units_Z 32
_cell_length_a 10.851249
_cell_length_b 5.154847
_cell_length_c 26.371789
_cell_angle_alpha 90.000000
_cell_angle_beta 90.000000
_cell_angle_gamma 90.000000
_cell_volume 1475.146323
_symmetry_space_group_name_H-M "P M N A"
_symmetry_group_IT_number 53
_symmetry_cell_setting 'orthorhombic'
loop_
_space_group_symop_operation_xyz
x,y,z
1/2-x,-y,1/2+z
x,-y,-z
1/2-x,y,1/2-z
-x,-y,-z
1/2+x,y,1/2-z
-x,y,z
1/2+x,-y,1/2+z
loop_
_atom_site_type_symbol
_atom_site_label
_atom_site_fract_x
_atom_site_fract_y
_atom_site_fract_z
Si Si1 0.356971 0.771093 0.791865
Si Si2 0.500000 0.254142 0.035807
Si Si3 0.000000 0.748331 0.963373
Si Si4 0.358105 0.278517 0.862040
Si Si5 0.750090 0.069977 0.440354
O O1 0.250000 0.766985 0.750000
O O2 0.500000 0.738527 0.773437
O O3 0.352077 0.041889 0.821869
O O4 0.331937 0.537275 0.830994
O O5 0.625599 0.235822 0.067161
O O6 0.500000 0.500000 0.000000
O O7 0.500000 0.000000 0.000000
O O8 0.875423 0.775726 0.931097
O O9 0.000000 0.500000 0.000000
O O10 0.000000 0.000000 0.000000
O O11 0.500000 0.287628 0.881523
O O12 0.268490 0.186936 0.907108
O O13 0.748754 0.000000 0.500000
#
# Coordination Sequence:
#
# PCOD9416752 Si02
#       5
#     8   4   4   8   8
#     4  10  22  42  64  88 119 151 193 250 304 354
#     4  10  20  32  54  80 107 152 197 228 268 332
#     4  10  22  38  54  76 115 162 199 238 284 326
#     4  10  21  38  62  92 120 153 195 246 296 349
#     4  10  21  39  58  87 123 161 198 239 288 351
#
# _framework density 21.692764
#
# number of rings (size 3 to 8) (size 9 to 14) (size 15 to 20)
#    0.000    2.000    1.250    1.500    0.000    8.000 
#    4.500    0.000    0.000    0.000    0.000    0.000 
#    0.000    0.000    0.000    0.000    0.000    0.000 
#
# Total GULP energy -178910.048531 kJ/mol
# GULP energy per Si atom -5590.939017 kJ/mol
# Density = 2.164339 g / cm^3
# Si number density = 21.692764 Si / 1000 Ang^3
#
#
#
# Elastic Constant Matrix: (Units=GPa)
#
#
# Indices 1 2 3 4 5 6 
#
# 1 173.9213 22.9674 46.8225 0.0000 0.0000 0.0000
# 2 22.9674 129.9312 28.1279 0.0000 0.0000 0.0000
# 3 46.8225 28.1279 100.7239 0.0000 0.0000 0.0000
# 4 0.0000 0.0000 0.0000 33.3313 0.0000 0.0000
# 5 0.0000 0.0000 0.0000 0.0000 30.6261 0.0000
# 6 0.0000 0.0000 0.0000 0.0000 0.0000 23.2024
#
#
#
# Elastic Compliance Matrix: (Units=1/GPa)
#
#
# Indices 1 2 3 4 5 6 
#
# 1 0.006607 -0.000535 -0.002922 0.000000 0.000000 0.000000
# 2 -0.000535 0.008235 -0.002051 0.000000 0.000000 0.000000
# 3 -0.002922 -0.002051 0.011859 0.000000 0.000000 0.000000
# 4 0.000000 0.000000 0.000000 0.030002 0.000000 0.000000
# 5 0.000000 0.000000 0.000000 0.000000 0.032652 0.000000
# 6 0.000000 0.000000 0.000000 0.000000 0.000000 0.043099
#
#
# Mechanical properties :
#
#
# Convention : Reuss Voigt Hill
#
# Bulk Modulus (GPa) = 63.75495 66.71246 65.23370
# Shear Modulus (GPa) = 33.62517 37.87587 35.75052
#
# Velocity S-wave (km/s) = 3.94136 4.18307 4.06401
# Velocity P-wave (km/s) = 7.08281 7.35872 7.22208
#
# Compressibility (1/GPa) = 0.01568506
#
# Stress axis : x y z
#
# Youngs Moduli (GPa) = 151.35390 121.43316 84.32358
#
# Poissons Ratio (x) = 0.06501 0.24638
# Poissons Ratio (y) = 0.08103 0.17293
# Poissons Ratio (z) = 0.44223 0.24904
#
# Static dielectric constant tensor:
#      x y z
#    x 1.898860 0.000000 0.000000 
#    y 0.000000 1.407050 0.000000 
#    z 0.000000 0.000000 1.540340 
# 
# From -- ./inp_files/34657.got.cif
#   From: 2010.05.17/outbox.cif.g08.bks.cpg/sg53_18_cif.got.tgz:34657.got - 2010.06.03 12:45:16.
