data_PCOD9416370
_publ_section_title
;
Structure prediction by ZEFSAII (Michael W. Deem and Ramdas Pophale) SiO2 
 PCOD9416370
Probable space group: P M N A
;
_chemical_formula_sum "Si O2"
_cell_formula_units_Z 64
_cell_length_a 9.005916
_cell_length_b 22.007421
_cell_length_c 17.809783
_cell_angle_alpha 90.000000
_cell_angle_beta 90.000000
_cell_angle_gamma 90.000000
_cell_volume 3529.845292
_symmetry_space_group_name_H-M "P M N A"
_symmetry_group_IT_number 53
_symmetry_cell_setting 'orthorhombic'
loop_
_space_group_symop_operation_xyz
x,y,z
1/2-x,-y,1/2+z
x,-y,-z
1/2-x,y,1/2-z
-x,-y,-z
1/2+x,y,1/2-z
-x,y,z
1/2+x,-y,1/2+z
loop_
_atom_site_type_symbol
_atom_site_label
_atom_site_fract_x
_atom_site_fract_y
_atom_site_fract_z
Si Si1 0.177608 0.880225 0.401079
Si Si2 0.676948 0.995776 0.327851
Si Si3 0.323957 0.625715 0.325310
Si Si4 0.821571 0.569661 0.014352
Si Si5 0.176708 0.685621 0.554626
Si Si6 0.676664 0.106976 0.437116
Si Si7 0.177445 0.223229 0.168287
Si Si8 0.323475 0.741678 0.109359
O O1 0.255867 0.931271 0.351533
O O2 0.231662 0.888295 0.486671
O O3 0.216964 0.811496 0.377423
O O4 0.000000 0.886625 0.396859
O O5 0.750000 0.016114 0.250000
O O6 0.500000 0.991695 0.319195
O O7 0.708402 0.044883 0.392736
O O8 0.250000 0.601434 0.250000
O O9 0.500000 0.626519 0.317041
O O10 0.285509 0.587847 0.399907
O O11 0.264493 0.693495 0.341174
O O12 0.000000 0.575958 0.004692
O O13 0.780687 0.500000 0.000000
O O14 0.740905 0.618755 0.961831
O O15 0.256040 0.719952 0.622624
O O16 0.205270 0.724012 0.477879
O O17 0.000000 0.683634 0.566219
O O18 0.500000 0.108263 0.454970
O O19 0.708743 0.163289 0.381786
O O20 0.250000 0.217922 0.250000
O O21 0.000000 0.228834 0.175214
O O22 0.500000 0.734067 0.121937
#
# Coordination Sequence:
#
# PCOD9416370 Si02
#       8
#     8   8   8   8   8   8   8   8
#     4  11  22  37  59  85 111 145 186 231 283 340
#     4  11  24  41  57  78 109 146 188 236 288 341
#     4  10  20  34  56  84 114 149 186 230 279 329
#     4   9  19  37  60  85 114 153 196 234 277 331
#     4  10  19  35  57  83 114 146 184 230 277 332
#     4  10  22  39  59  82 110 145 187 235 285 342
#     4  11  22  36  57  84 114 148 187 233 287 340
#     4   9  19  35  55  80 110 143 181 226 273 329
#
# _framework density 18.131107
#
# number of rings (size 3 to 8) (size 9 to 14) (size 15 to 20)
#    0.000    1.875    1.250    2.625    0.000    5.750 
#    0.000    0.625    0.000    1.500    0.000    0.000 
#    0.000    0.000    0.000    0.000    0.000    0.000 
#
# Total GULP energy -357554.507995 kJ/mol
# GULP energy per Si atom -5586.789187 kJ/mol
# Density = 1.808984 g / cm^3
# Si number density = 18.131107 Si / 1000 Ang^3
#
#
#
# Elastic Constant Matrix: (Units=GPa)
#
#
# Indices 1 2 3 4 5 6 
#
# 1 36.3299 27.1883 20.3480 0.0000 0.0000 0.0000
# 2 27.1883 99.2515 2.5498 0.0000 0.0000 0.0000
# 3 20.3480 2.5498 42.1198 0.0000 0.0000 0.0000
# 4 0.0000 0.0000 0.0000 12.0918 0.0000 0.0000
# 5 0.0000 0.0000 0.0000 0.0000 35.3928 0.0000
# 6 0.0000 0.0000 0.0000 0.0000 0.0000 12.3076
#
#
#
# Elastic Compliance Matrix: (Units=1/GPa)
#
#
# Indices 1 2 3 4 5 6 
#
# 1 0.050759 -0.013295 -0.023717 0.000000 0.000000 0.000000
# 2 -0.013295 0.013574 0.005601 0.000000 0.000000 0.000000
# 3 -0.023717 0.005601 0.034860 0.000000 0.000000 0.000000
# 4 0.000000 0.000000 0.000000 0.082701 0.000000 0.000000
# 5 0.000000 0.000000 0.000000 0.000000 0.028254 0.000000
# 6 0.000000 0.000000 0.000000 0.000000 0.000000 0.081251
#
#
# Mechanical properties :
#
#
# Convention : Reuss Voigt Hill
#
# Bulk Modulus (GPa) = 27.49431 30.87483 29.18457
# Shear Modulus (GPa) = 13.64839 20.46610 17.05725
#
# Velocity S-wave (km/s) = 2.74663 3.36338 3.07053
# Velocity P-wave (km/s) = 5.02550 5.66999 5.35744
#
# Compressibility (1/GPa) = 0.03637117
#
# Stress axis : x y z
#
# Youngs Moduli (GPa) = 19.70104 73.67282 28.68601
#
# Poissons Ratio (x) = 0.97950 0.68034
# Poissons Ratio (y) = 0.26193 -0.16068
# Poissons Ratio (z) = 0.46724 -0.41266
#
# Static dielectric constant tensor:
#      x y z
#    x 1.600730 0.000000 0.000000 
#    y 0.000000 1.604900 0.000000 
#    z 0.000000 0.000000 1.606120 
# 
# From -- ./inp_files/26950.got.cif
#   From: 2010.05.17/outbox.cif.g08.bks.cpg/sg53_14_cif.got.tgz:26950.got - 2010.06.03 12:45:16.
