data_PCOD9416738
_publ_section_title
;
Structure prediction by ZEFSAII (Michael W. Deem and Ramdas Pophale) SiO2 
 PCOD9416738
Probable space group: P M N A
;
_chemical_formula_sum "Si O2"
_cell_formula_units_Z 44
_cell_length_a 10.408515
_cell_length_b 8.056085
_cell_length_c 24.121811
_cell_angle_alpha 90.000000
_cell_angle_beta 90.000000
_cell_angle_gamma 90.000000
_cell_volume 2022.659239
_symmetry_space_group_name_H-M "P M N A"
_symmetry_group_IT_number 53
_symmetry_cell_setting 'orthorhombic'
loop_
_space_group_symop_operation_xyz
x,y,z
1/2-x,-y,1/2+z
x,-y,-z
1/2-x,y,1/2-z
-x,-y,-z
1/2+x,y,1/2-z
-x,y,z
1/2+x,-y,1/2+z
loop_
_atom_site_type_symbol
_atom_site_label
_atom_site_fract_x
_atom_site_fract_y
_atom_site_fract_z
Si Si1 0.355813 0.176920 0.029104
Si Si2 0.250000 0.514444 0.750000
Si Si3 0.148869 0.397418 0.071850
Si Si4 0.633367 0.803255 0.685682
Si Si5 0.650025 0.626762 0.135346
Si Si6 0.138422 0.989048 0.647674
O O1 0.500000 0.236579 0.011323
O O2 0.235255 0.302243 0.025447
O O3 0.365983 0.129363 0.094034
O O4 0.331982 0.000000 0.000000
O O5 0.148007 0.642374 0.776121
O O6 0.311224 0.414648 0.800981
O O7 0.133498 0.270354 0.123374
O O8 0.245692 0.536101 0.096615
O O9 0.000000 0.445106 0.058191
O O10 0.500000 0.892091 0.695547
O O11 0.752921 0.924008 0.687696
O O12 0.500000 0.575988 0.125731
O O13 0.659221 0.823840 0.127492
O O14 0.000000 0.982462 0.675329
#
# Coordination Sequence:
#
# PCOD9416738 Si02
#       6
#     8   4   8   8   8   8
#     4   9  17  32  55  79 102 133 175 217 257 308
#     4  10  20  32  50  74  96 128 170 206 242 294
#     4   9  18  32  51  75 102 133 167 205 252 302
#     4   9  18  32  49  69  94 125 162 201 241 288
#     4  10  20  35  53  73 102 136 168 206 253 304
#     4   9  19  34  52  75 101 130 165 208 257 302
#
# _framework density 21.753541999999999
#
# number of rings (size 3 to 8) (size 9 to 14) (size 15 to 20)
#    0.000    2.727    0.000    1.091    0.000    7.636 
#    0.000    2.727    0.000    5.455    0.000    0.000 
#    0.000    0.000    0.000    0.000    0.000    0.000 
#
# Total GULP energy -245288.100946 kJ/mol
# GULP energy per Si atom -5574.729567 kJ/mol
# Density = 2.170403 g / cm^3
# Si number density = 21.753542 Si / 1000 Ang^3
#
#
#
# Elastic Constant Matrix: (Units=GPa)
#
#
# Indices 1 2 3 4 5 6 
#
# 1 205.9127 68.6785 24.5983 0.0000 0.0000 0.0000
# 2 68.6785 48.7746 0.7304 0.0000 0.0000 0.0000
# 3 24.5983 0.7304 64.9963 0.0000 0.0000 0.0000
# 4 0.0000 0.0000 0.0000 35.4230 0.0000 0.0000
# 5 0.0000 0.0000 0.0000 0.0000 8.5443 0.0000
# 6 0.0000 0.0000 0.0000 0.0000 0.0000 20.4523
#
#
#
# Elastic Compliance Matrix: (Units=1/GPa)
#
#
# Indices 1 2 3 4 5 6 
#
# 1 0.009935 -0.013935 -0.003603 0.000000 0.000000 0.000000
# 2 -0.013935 0.040051 0.004824 0.000000 0.000000 0.000000
# 3 -0.003603 0.004824 0.016695 0.000000 0.000000 0.000000
# 4 0.000000 0.000000 0.000000 0.028230 0.000000 0.000000
# 5 0.000000 0.000000 0.000000 0.000000 0.117037 0.000000
# 6 0.000000 0.000000 0.000000 0.000000 0.000000 0.048894
#
#
# Mechanical properties :
#
#
# Convention : Reuss Voigt Hill
#
# Bulk Modulus (GPa) = 24.24109 56.41090 40.32599
# Shear Modulus (GPa) = 16.66546 27.92900 22.29723
#
# Velocity S-wave (km/s) = 2.77086 3.58702 3.20502
# Velocity P-wave (km/s) = 4.62651 6.56839 5.68103
#
# Compressibility (1/GPa) = 0.04125228
#
# Stress axis : x y z
#
# Youngs Moduli (GPa) = 100.65916 24.96796 59.89835
#
# Poissons Ratio (x) = 0.34792 0.21583
# Poissons Ratio (y) = 1.40265 -0.28892
# Poissons Ratio (z) = 0.36269 -0.12043
#
# Static dielectric constant tensor:
#      x y z
#    x 1.823170 0.000000 0.000000 
#    y 0.000000 1.754060 0.000000 
#    z 0.000000 0.000000 1.857720 
# 
# From -- ./inp_files/37597.got.cif
#   From: 2010.05.17/outbox.cif.g08.bks.cpg/sg53_19_cif.got.tgz:37597.got - 2010.06.03 12:45:16.
