data_PCOD9416504
_publ_section_title
;
Structure prediction by ZEFSAII (Michael W. Deem and Ramdas Pophale) SiO2 
 PCOD9416504
Probable space group: P M N A
;
_chemical_formula_sum "Si O2"
_cell_formula_units_Z 40
_cell_length_a 8.872943
_cell_length_b 8.172309
_cell_length_c 26.041342
_cell_angle_alpha 90.000000
_cell_angle_beta 90.000000
_cell_angle_gamma 90.000000
_cell_volume 1888.321039
_symmetry_space_group_name_H-M "P M N A"
_symmetry_group_IT_number 53
_symmetry_cell_setting 'orthorhombic'
loop_
_space_group_symop_operation_xyz
x,y,z
1/2-x,-y,1/2+z
x,-y,-z
1/2-x,y,1/2-z
-x,-y,-z
1/2+x,y,1/2-z
-x,y,z
1/2+x,-y,1/2+z
loop_
_atom_site_type_symbol
_atom_site_label
_atom_site_fract_x
_atom_site_fract_y
_atom_site_fract_z
Si Si1 0.839827 0.133867 0.543878
Si Si2 0.174712 0.965813 0.338315
Si Si3 0.673813 0.661507 0.525663
Si Si4 0.818721 0.678999 0.635240
Si Si5 0.819652 0.625838 0.194914
O O1 0.824641 0.064657 0.600402
O O2 0.692094 0.220895 0.523070
O O3 0.000000 0.230707 0.543482
O O4 0.856671 0.000000 0.500000
O O5 0.267885 0.813186 0.316248
O O6 0.000000 0.952436 0.320553
O O7 0.225023 0.155644 0.332835
O O8 0.738356 0.500000 0.500000
O O9 0.500000 0.640935 0.540110
O O10 0.764678 0.704668 0.576631
O O11 0.746992 0.509971 0.655741
O O12 0.000000 0.668525 0.636885
O O13 0.750000 0.581802 0.250000
O O14 0.000000 0.616817 0.194872
#
# Coordination Sequence:
#
# PCOD9416504 Si02
#       5
#     8   8   8   8   8
#     4  10  19  36  59  88 124 167 212 253 307 374
#     4  10  22  42  69  98 131 172 219 268 323 386
#     4  11  23  36  54  88 130 172 215 261 315 374
#     4  11  23  43  69  96 128 170 218 268 323 386
#     4  12  27  47  70  97 129 166 213 270 333 393
#
# _framework density 21.182839000000001
#
# number of rings (size 3 to 8) (size 9 to 14) (size 15 to 20)
#    0.000    1.200    2.000    4.200    0.000    8.400 
#    0.000    0.000    0.000    0.000    0.000    0.000 
#    0.000    0.000    0.000    0.000    0.000    0.000 
#
# Total GULP energy -222946.299134 kJ/mol
# GULP energy per Si atom -5573.657478 kJ/mol
# Density = 2.113463 g / cm^3
# Si number density = 21.182839 Si / 1000 Ang^3
#
#
#
# Elastic Constant Matrix: (Units=GPa)
#
#
# Indices 1 2 3 4 5 6 
#
# 1 87.5055 46.5790 21.4217 0.0000 0.0000 0.0000
# 2 46.5790 98.0083 -0.8976 0.0000 0.0000 0.0000
# 3 21.4217 -0.8976 38.9621 0.0000 0.0000 0.0000
# 4 0.0000 0.0000 0.0000 24.1505 0.0000 0.0000
# 5 0.0000 0.0000 0.0000 0.0000 -10.9727 0.0000
# 6 0.0000 0.0000 0.0000 0.0000 0.0000 -253.9054
#
#
#
# Elastic Compliance Matrix: (Units=1/GPa)
#
#
# Indices 1 2 3 4 5 6 
#
# 1 0.018827 -0.009044 -0.010560 0.000000 0.000000 0.000000
# 2 -0.009044 0.014550 0.005308 0.000000 0.000000 0.000000
# 3 -0.010560 0.005308 0.031594 0.000000 0.000000 0.000000
# 4 0.000000 0.000000 0.000000 0.041407 0.000000 0.000000
# 5 0.000000 0.000000 0.000000 0.000000 -0.091135 0.000000
# 6 0.000000 0.000000 0.000000 0.000000 0.000000 -0.003938
#
#
# Mechanical properties :
#
#
# Convention : Reuss Voigt Hill
#
# Bulk Modulus (GPa) = 27.48839 39.85358 33.67098
# Shear Modulus (GPa) = 96.10995 -37.65400 29.22798
#
# Velocity S-wave (km/s) = 6.74315 -4.22070 3.71859
# Velocity P-wave (km/s) = 8.58089 2.21302 5.86235
#
# Compressibility (1/GPa) = 0.03637900
#
# Stress axis : x y z
#
# Youngs Moduli (GPa) = 53.11448 68.72735 31.65152
#
# Poissons Ratio (x) = 0.62160 0.33423
# Poissons Ratio (y) = 0.48039 -0.16800
# Poissons Ratio (z) = 0.56088 -0.36480
#
# Static dielectric constant tensor:
#      x y z
#    x 1.786400 0.000000 0.000000 
#    y 0.000000 1.766420 0.000000 
#    z 0.000000 0.000000 1.728890 
# 
# From -- ./inp_files/33658.got.cif
#   From: 2010.05.17/outbox.cif.g08.bks.cpg/sg53_17_cif.got.tgz:33658.got - 2010.06.03 12:45:16.
