data_PCOD9416880
_publ_section_title
;
Structure prediction by ZEFSAII (Michael W. Deem and Ramdas Pophale) SiO2 
 PCOD9416880
Probable space group: P M N A
;
_chemical_formula_sum "Si O2"
_cell_formula_units_Z 64
_cell_length_a 8.201187
_cell_length_b 26.586325
_cell_length_c 14.531051
_cell_angle_alpha 90.000000
_cell_angle_beta 90.000000
_cell_angle_gamma 90.000000
_cell_volume 3168.341975
_symmetry_space_group_name_H-M "P M N A"
_symmetry_group_IT_number 53
_symmetry_cell_setting 'orthorhombic'
loop_
_space_group_symop_operation_xyz
x,y,z
1/2-x,-y,1/2+z
x,-y,-z
1/2-x,y,1/2-z
-x,-y,-z
1/2+x,y,1/2-z
-x,y,z
1/2+x,-y,1/2+z
loop_
_atom_site_type_symbol
_atom_site_label
_atom_site_fract_x
_atom_site_fract_y
_atom_site_fract_z
Si Si1 0.800928 0.424466 0.957405
Si Si2 0.189747 0.808794 0.849801
Si Si3 0.805643 0.779524 0.447036
Si Si4 0.188434 0.088746 0.064525
Si Si5 0.803757 0.009210 0.652511
Si Si6 0.805034 0.323893 0.855948
Si Si7 0.682933 0.118681 0.880901
Si Si8 0.696378 0.473448 0.354806
O O1 0.743825 0.372554 0.912604
O O2 0.751773 0.471484 0.892658
O O3 0.000000 0.424231 0.958122
O O4 0.749713 0.435631 0.063013
O O5 0.250000 0.791299 0.750000
O O6 0.262786 0.786824 0.945007
O O7 0.208815 0.869591 0.856330
O O8 0.000000 0.797309 0.855200
O O9 0.749015 0.726989 0.406225
O O10 0.738288 0.826124 0.383746
O O11 0.000000 0.783336 0.439361
O O12 0.000000 0.093818 0.032668
O O13 0.226220 0.031248 0.085203
O O14 0.317275 0.106448 0.989080
O O15 0.750000 0.987905 0.750000
O O16 0.737609 0.066533 0.651647
O O17 0.000000 0.010614 0.640613
O O18 0.750000 0.325121 0.750000
O O19 0.000000 0.325635 0.856557
O O20 0.500000 0.121342 0.841421
O O21 0.750000 0.464017 0.250000
O O22 0.500000 0.472859 0.354548
#
# Coordination Sequence:
#
# PCOD9416880 Si02
#       8
#     8   8   8   8   8   8   8   8
#     4   8  17  33  54  79 114 155 191 228 275 330
#     4  10  20  35  56  82 109 139 174 216 268 326
#     4  10  21  39  59  80 106 139 181 228 275 326
#     4  10  20  33  52  77 102 129 163 203 251 312
#     4  11  22  34  48  69  97 128 162 203 253 311
#     4  11  22  38  59  83 110 144 186 233 281 328
#     4   9  20  37  54  71  96 130 166 208 259 311
#     4   9  16  31  54  82 115 154 193 229 274 325
#
# _framework density 20.199839000000001
#
# number of rings (size 3 to 8) (size 9 to 14) (size 15 to 20)
#    0.000    2.250    0.000    3.750    0.000    6.000 
#    0.000    5.000    0.000    1.500    0.000    0.000 
#    0.000    0.000    0.000    0.000    0.000    0.000 
#
# Total GULP energy -356477.034040 kJ/mol
# GULP energy per Si atom -5569.953657 kJ/mol
# Density = 2.015386 g / cm^3
# Si number density = 20.199839 Si / 1000 Ang^3
#
#
#
# Elastic Constant Matrix: (Units=GPa)
#
#
# Indices 1 2 3 4 5 6 
#
# 1 41.9752 19.4893 18.3055 0.0000 0.0000 0.0000
# 2 19.4893 157.6655 70.5028 0.0000 0.0000 0.0000
# 3 18.3055 70.5028 123.4781 0.0000 0.0000 0.0000
# 4 0.0000 0.0000 0.0000 21.4733 0.0000 0.0000
# 5 0.0000 0.0000 0.0000 0.0000 28.2192 0.0000
# 6 0.0000 0.0000 0.0000 0.0000 0.0000 17.6426
#
#
#
# Elastic Compliance Matrix: (Units=1/GPa)
#
#
# Indices 1 2 3 4 5 6 
#
# 1 0.025930 -0.001996 -0.002704 0.000000 0.000000 0.000000
# 2 -0.001996 0.008671 -0.004655 0.000000 0.000000 0.000000
# 3 -0.002704 -0.004655 0.011157 0.000000 0.000000 0.000000
# 4 0.000000 0.000000 0.000000 0.046570 0.000000 0.000000
# 5 0.000000 0.000000 0.000000 0.000000 0.035437 0.000000
# 6 0.000000 0.000000 0.000000 0.000000 0.000000 0.056681
#
#
# Mechanical properties :
#
#
# Convention : Reuss Voigt Hill
#
# Bulk Modulus (GPa) = 36.97216 59.96825 48.47020
# Shear Modulus (GPa) = 23.56585 27.78843 25.67714
#
# Velocity S-wave (km/s) = 3.41931 3.71303 3.56919
# Velocity P-wave (km/s) = 5.82510 6.93787 6.40570
#
# Compressibility (1/GPa) = 0.02704738
#
# Stress axis : x y z
#
# Youngs Moduli (GPa) = 38.56576 115.33000 89.62693
#
# Poissons Ratio (x) = 0.23018 0.24239
# Poissons Ratio (y) = 0.07697 0.41720
# Poissons Ratio (z) = 0.10430 0.53685
#
# Static dielectric constant tensor:
#      x y z
#    x 1.719600 0.000000 0.000000 
#    y 0.000000 1.745300 0.000000 
#    z 0.000000 0.000000 1.740640 
# 
# From -- ./inp_files/20905.got.cif
#   From: 2010.05.17/outbox.cif.g08.bks.cpg/sg53_11_cif.got.tgz:20905.got - 2010.06.03 12:45:16.
