data_PCOD9416434
_publ_section_title
;
Structure prediction by ZEFSAII (Michael W. Deem and Ramdas Pophale) SiO2 
 PCOD9416434
Probable space group: P M N A
;
_chemical_formula_sum "Si O2"
_cell_formula_units_Z 64
_cell_length_a 8.573331
_cell_length_b 22.239039
_cell_length_c 18.122892
_cell_angle_alpha 90.000000
_cell_angle_beta 90.000000
_cell_angle_gamma 90.000000
_cell_volume 3455.358478
_symmetry_space_group_name_H-M "P M N A"
_symmetry_group_IT_number 53
_symmetry_cell_setting 'orthorhombic'
loop_
_space_group_symop_operation_xyz
x,y,z
1/2-x,-y,1/2+z
x,-y,-z
1/2-x,y,1/2-z
-x,-y,-z
1/2+x,y,1/2-z
-x,y,z
1/2+x,-y,1/2+z
loop_
_atom_site_type_symbol
_atom_site_label
_atom_site_fract_x
_atom_site_fract_y
_atom_site_fract_z
Si Si1 0.186966 0.685122 0.050533
Si Si2 0.187377 0.891193 0.429032
Si Si3 0.687452 0.999115 0.331231
Si Si4 0.686711 0.225088 0.832816
Si Si5 0.810823 0.744769 0.895596
Si Si6 0.312931 0.378634 0.328277
Si Si7 0.187104 0.567379 0.521645
Si Si8 0.688628 0.877671 0.594744
O O1 0.253219 0.716851 0.122829
O O2 0.000000 0.684303 0.053331
O O3 0.234138 0.725204 0.978844
O O4 0.247796 0.618370 0.033395
O O5 0.248273 0.950860 0.389082
O O6 0.236420 0.833639 0.379856
O O7 0.254652 0.886215 0.511090
O O8 0.000000 0.892208 0.432481
O O9 0.750000 0.985107 0.250000
O O10 0.500000 0.996669 0.331222
O O11 0.738776 0.065918 0.356051
O O12 0.750000 0.222272 0.750000
O O13 0.500000 0.225854 0.830745
O O14 0.759529 0.690447 0.843129
O O15 0.755958 0.811945 0.878641
O O16 0.000000 0.745292 0.893841
O O17 0.250000 0.399716 0.250000
O O18 0.500000 0.380022 0.329119
O O19 0.250401 0.416031 0.397475
O O20 0.234073 0.500000 0.500000
O O21 0.000000 0.570974 0.521804
O O22 0.500000 0.877313 0.594291
#
# Coordination Sequence:
#
# PCOD9416434 Si02
#       8
#     8   8   8   8   8   8   8   8
#     4  10  19  35  60  85 114 149 185 231 279 334
#     4  11  23  38  58  83 110 144 189 238 287 344
#     4  11  24  39  56  77 107 148 189 237 291 343
#     4  11  23  37  56  84 114 147 188 235 291 346
#     4   8  16  32  55  81 109 144 183 224 276 335
#     4  10  20  35  57  87 120 156 196 240 288 336
#     4  10  21  38  61  88 120 158 197 238 282 334
#     4  10  20  37  59  82 110 146 189 232 284 345
#
# _framework density 18.521955999999999
#
# number of rings (size 3 to 8) (size 9 to 14) (size 15 to 20)
#    0.000    1.875    1.250    3.750    0.000    6.500 
#    0.000    1.250    0.000    3.000    0.000    0.000 
#    0.000    0.000    0.000    0.000    0.000    0.000 
#
# Total GULP energy -357451.628322 kJ/mol
# GULP energy per Si atom -5585.181693 kJ/mol
# Density = 1.847980 g / cm^3
# Si number density = 18.521956 Si / 1000 Ang^3
#
#
#
# Elastic Constant Matrix: (Units=GPa)
#
#
# Indices 1 2 3 4 5 6 
#
# 1 28.6531 14.8645 1.8740 0.0000 0.0000 0.0000
# 2 14.8645 111.6427 6.0186 0.0000 0.0000 0.0000
# 3 1.8740 6.0186 40.0888 0.0000 0.0000 0.0000
# 4 0.0000 0.0000 0.0000 8.7508 0.0000 0.0000
# 5 0.0000 0.0000 0.0000 0.0000 30.0717 0.0000
# 6 0.0000 0.0000 0.0000 0.0000 0.0000 20.3774
#
#
#
# Elastic Compliance Matrix: (Units=1/GPa)
#
#
# Indices 1 2 3 4 5 6 
#
# 1 0.037530 -0.004942 -0.001012 0.000000 0.000000 0.000000
# 2 -0.004942 0.009681 -0.001222 0.000000 0.000000 0.000000
# 3 -0.001012 -0.001222 0.025175 0.000000 0.000000 0.000000
# 4 0.000000 0.000000 0.000000 0.114276 0.000000 0.000000
# 5 0.000000 0.000000 0.000000 0.000000 0.033254 0.000000
# 6 0.000000 0.000000 0.000000 0.000000 0.000000 0.049074
#
#
# Mechanical properties :
#
#
# Convention : Reuss Voigt Hill
#
# Bulk Modulus (GPa) = 17.23168 25.09987 21.16578
# Shear Modulus (GPa) = 16.51860 22.34847 19.43353
#
# Velocity S-wave (km/s) = 2.98961 3.47737 3.24267
# Velocity P-wave (km/s) = 4.60875 5.45011 5.04699
#
# Compressibility (1/GPa) = 0.05803264
#
# Stress axis : x y z
#
# Youngs Moduli (GPa) = 26.64508 103.29414 39.72118
#
# Poissons Ratio (x) = 0.51052 0.04021
# Poissons Ratio (y) = 0.13169 0.04856
# Poissons Ratio (z) = 0.02698 0.12627
#
# Static dielectric constant tensor:
#      x y z
#    x 1.627330 0.000000 0.000000 
#    y 0.000000 1.647620 0.000000 
#    z 0.000000 0.000000 1.599310 
# 
# From -- ./inp_files/26861.got.cif
#   From: 2010.05.17/outbox.cif.g08.bks.cpg/sg53_14_cif.got.tgz:26861.got - 2010.06.03 12:45:16.
