data_PCOD9416030
_publ_section_title
;
Structure prediction by ZEFSAII (Michael W. Deem and Ramdas Pophale) SiO2 
 PCOD9416030
Probable space group: P M N A
;
_chemical_formula_sum "Si O2"
_cell_formula_units_Z 52
_cell_length_a 19.342236
_cell_length_b 13.534389
_cell_length_c 8.785499
_cell_angle_alpha 90.000000
_cell_angle_beta 90.000000
_cell_angle_gamma 90.000000
_cell_volume 2299.914897
_symmetry_space_group_name_H-M "P M N A"
_symmetry_group_IT_number 53
_symmetry_cell_setting 'orthorhombic'
loop_
_space_group_symop_operation_xyz
x,y,z
1/2-x,-y,1/2+z
x,-y,-z
1/2-x,y,1/2-z
-x,-y,-z
1/2+x,y,1/2-z
-x,y,z
1/2+x,-y,1/2+z
loop_
_atom_site_type_symbol
_atom_site_label
_atom_site_fract_x
_atom_site_fract_y
_atom_site_fract_z
Si Si1 0.000000 0.510932 0.244931
Si Si2 0.316646 0.189549 0.848050
Si Si3 0.081950 0.774206 0.072602
Si Si4 0.364218 0.421988 0.395100
Si Si5 0.920910 0.124771 0.221864
Si Si6 0.649629 0.293044 0.117360
Si Si7 0.880240 0.000000 0.500000
Si Si8 0.500000 0.656628 0.000818
O O1 0.931279 0.486251 0.154042
O O2 0.000000 0.432354 0.380809
O O3 0.000000 0.614809 0.329392
O O4 0.250000 0.170598 0.750000
O O5 0.377292 0.214300 0.729105
O O6 0.301835 0.274595 0.973940
O O7 0.337052 0.092916 0.942110
O O8 0.000000 0.764341 0.094378
O O9 0.110217 0.676142 0.985080
O O10 0.090693 0.870437 0.960559
O O11 0.322834 0.500000 0.500000
O O12 0.335689 0.381908 0.232886
O O13 0.860138 0.197172 0.278203
O O14 0.918970 0.036014 0.344635
O O15 0.000000 0.166081 0.235118
O O16 0.573280 0.294842 0.037935
#
# Coordination Sequence:
#
# PCOD9416030 Si02
#       8
#     4   8   8   8   8   8   4   4
#     4   9  17  26  48  92 133 159 205 258 306 340
#     4  11  26  44  63  89 120 160 209 255 314 380
#     4  10  22  38  62  92 125 158 204 261 310 365
#     4  10  19  33  55  93 131 165 207 258 304 351
#     4   9  17  35  59  92 128 159 194 250 317 375
#     4   9  19  35  56  86 131 170 203 247 306 366
#     4  10  23  40  64  86 117 162 200 252 312 388
#     4   9  16  28  52  91 125 165 204 256 299 355
#
# _framework density 22.609534
#
# number of rings (size 3 to 8) (size 9 to 14) (size 15 to 20)
#    0.000    2.308    1.538    0.462    3.231    3.077 
#    0.000    7.692    0.000    1.846    0.000    0.000 
#    0.000    0.000    0.000    0.000    0.000    0.000 
#
# Total GULP energy -289612.429671 kJ/mol
# GULP energy per Si atom -5569.469801 kJ/mol
# Density = 2.255807 g / cm^3
# Si number density = 22.609534 Si / 1000 Ang^3
#
#
#
# Elastic Constant Matrix: (Units=GPa)
#
#
# Indices 1 2 3 4 5 6 
#
# 1 38.4197 11.0378 32.7803 0.0000 0.0000 0.0000
# 2 11.0378 63.6325 62.8311 0.0000 0.0000 0.0000
# 3 32.7803 62.8311 183.0785 0.0000 0.0000 0.0000
# 4 0.0000 0.0000 0.0000 61.4025 0.0000 0.0000
# 5 0.0000 0.0000 0.0000 0.0000 14.1471 0.0000
# 6 0.0000 0.0000 0.0000 0.0000 0.0000 4.7537
#
#
#
# Elastic Compliance Matrix: (Units=1/GPa)
#
#
# Indices 1 2 3 4 5 6 
#
# 1 0.030723 0.000155 -0.005554 0.000000 0.000000 0.000000
# 2 0.000155 0.023771 -0.008186 0.000000 0.000000 0.000000
# 3 -0.005554 -0.008186 0.009266 0.000000 0.000000 0.000000
# 4 0.000000 0.000000 0.000000 0.016286 0.000000 0.000000
# 5 0.000000 0.000000 0.000000 0.000000 0.070686 0.000000
# 6 0.000000 0.000000 0.000000 0.000000 0.000000 0.210364
#
#
# Mechanical properties :
#
#
# Convention : Reuss Voigt Hill
#
# Bulk Modulus (GPa) = 27.33006 55.38102 41.35554
# Shear Modulus (GPa) = 12.48559 27.95942 20.22250
#
# Velocity S-wave (km/s) = 2.35250 3.52038 2.99394
# Velocity P-wave (km/s) = 4.41510 6.40873 5.50295
#
# Compressibility (1/GPa) = 0.03658974
#
# Stress axis : x y z
#
# Youngs Moduli (GPa) = 32.54927 42.06801 107.92271
#
# Poissons Ratio (x) = -0.00652 0.59941
# Poissons Ratio (y) = -0.00504 0.88343
# Poissons Ratio (z) = 0.18078 0.34436
#
# Static dielectric constant tensor:
#      x y z
#    x 1.859010 0.000000 0.000000 
#    y 0.000000 1.880910 0.000000 
#    z 0.000000 0.000000 1.972560 
# 
# From -- ./inp_files/11019.got.cif
#   From: 2010.05.17/outbox.cif.g08.bks.cpg/sg53_6_cif.got.tgz:11019.got - 2010.06.03 12:45:16.
