data_PCOD9416106
_publ_section_title
;
Structure prediction by ZEFSAII (Michael W. Deem and Ramdas Pophale) SiO2 
 PCOD9416106
Probable space group: P M N A
;
_chemical_formula_sum "Si O2"
_cell_formula_units_Z 56
_cell_length_a 25.164880
_cell_length_b 5.369409
_cell_length_c 25.307795
_cell_angle_alpha 90.000000
_cell_angle_beta 90.000000
_cell_angle_gamma 90.000000
_cell_volume 3419.602753
_symmetry_space_group_name_H-M "P M N A"
_symmetry_group_IT_number 53
_symmetry_cell_setting 'orthorhombic'
loop_
_space_group_symop_operation_xyz
x,y,z
1/2-x,-y,1/2+z
x,-y,-z
1/2-x,y,1/2-z
-x,-y,-z
1/2+x,y,1/2-z
-x,y,z
1/2+x,-y,1/2+z
loop_
_atom_site_type_symbol
_atom_site_label
_atom_site_fract_x
_atom_site_fract_y
_atom_site_fract_z
Si Si1 0.500000 0.123362 0.097439
Si Si2 0.337458 0.221325 0.257466
Si Si3 0.395408 0.682319 0.950385
Si Si4 0.000000 0.629337 0.331215
Si Si5 0.787262 0.011331 0.445428
Si Si6 0.389842 0.254629 0.778332
Si Si7 0.744848 0.753246 0.835390
Si Si8 0.333469 0.632208 0.123971
O O1 0.447083 0.153984 0.061847
O O2 0.500000 0.359404 0.139058
O O3 0.500000 0.856423 0.126219
O O4 0.362781 0.490599 0.243454
O O5 0.294079 0.157101 0.211695
O O6 0.303269 0.245608 0.311009
O O7 0.378483 0.990035 0.256674
O O8 0.340095 0.828080 0.957151
O O9 0.381060 0.543492 0.895372
O O10 0.405218 0.500000 0.000000
O O11 0.949214 0.673946 0.293817
O O12 0.760175 0.108175 0.391650
O O13 0.755424 0.000000 0.500000
O O14 0.810206 0.746607 0.428806
O O15 0.361995 0.190041 0.834773
O O16 0.717209 0.489311 0.847911
#
# Coordination Sequence:
#
# PCOD9416106 Si02
#       8
#     4   8   8   4   8   8   8   8
#     4  12  25  36  54  68  98 138 182 238 278 298
#     4  10  21  35  54  78  99 133 167 220 262 313
#     4  11  22  35  46  71  95 136 188 233 270 303
#     4  12  24  38  55  76  98 136 175 221 275 325
#     4  11  20  33  54  71 101 141 175 218 266 314
#     4  11  21  36  55  73 101 131 171 215 267 307
#     4   9  21  31  51  76 101 127 175 212 263 316
#     4  10  19  34  50  69  99 134 170 222 259 310
#
# _framework density 16.376172
#
# number of rings (size 3 to 8) (size 9 to 14) (size 15 to 20)
#    0.000    1.429    4.286    1.929    4.000    1.143 
#    0.000    1.071    0.000    0.000    0.000    0.000 
#    0.000    0.000    0.000    3.857    0.000    0.000 
#
# Total GULP energy -311805.313138 kJ/mol
# GULP energy per Si atom -5567.952020 kJ/mol
# Density = 1.633890 g / cm^3
# Si number density = 16.376172 Si / 1000 Ang^3
#
#
#
# Elastic Constant Matrix: (Units=GPa)
#
#
# Indices 1 2 3 4 5 6 
#
# 1 51.3361 11.1143 41.2971 0.0000 0.0000 0.0000
# 2 11.1143 43.9921 11.9283 0.0000 0.0000 0.0000
# 3 41.2971 11.9283 88.5230 0.0000 0.0000 0.0000
# 4 0.0000 0.0000 0.0000 14.3386 0.0000 0.0000
# 5 0.0000 0.0000 0.0000 0.0000 10.0867 0.0000
# 6 0.0000 0.0000 0.0000 0.0000 0.0000 -13.1274
#
#
#
# Elastic Compliance Matrix: (Units=1/GPa)
#
#
# Indices 1 2 3 4 5 6 
#
# 1 0.031904 -0.004177 -0.014321 0.000000 0.000000 0.000000
# 2 -0.004177 0.024140 -0.001304 0.000000 0.000000 0.000000
# 3 -0.014321 -0.001304 0.018153 0.000000 0.000000 0.000000
# 4 0.000000 0.000000 0.000000 0.069742 0.000000 0.000000
# 5 0.000000 0.000000 0.000000 0.000000 0.099140 0.000000
# 6 0.000000 0.000000 0.000000 0.000000 0.000000 -0.076176
#
#
# Mechanical properties :
#
#
# Convention : Reuss Voigt Hill
#
# Bulk Modulus (GPa) = 28.90752 34.72563 31.81658
# Shear Modulus (GPa) = 22.93171 10.22701 16.57936
#
# Velocity S-wave (km/s) = 3.74613 2.50172 3.18529
# Velocity P-wave (km/s) = 6.03339 5.44020 5.74446
#
# Compressibility (1/GPa) = 0.03459307
#
# Stress axis : x y z
#
# Youngs Moduli (GPa) = 31.34385 41.42447 55.08711
#
# Poissons Ratio (x) = 0.17304 0.78889
# Poissons Ratio (y) = 0.13093 0.07184
# Poissons Ratio (z) = 0.44887 0.05402
#
# Static dielectric constant tensor:
#      x y z
#    x 1.545260 0.000000 0.000000 
#    y 0.000000 1.666820 0.000000 
#    z 0.000000 0.000000 7.543930 
# 
# From -- ./inp_files/35614.got.cif
#   From: 2010.05.17/outbox.cif.g08.bks.cpg/sg53_18_cif.got.tgz:35614.got - 2010.06.03 12:45:16.
