data_PCOD9416101
_publ_section_title
;
Structure prediction by ZEFSAII (Michael W. Deem and Ramdas Pophale) SiO2 
 PCOD9416101
Probable space group: P M N A
;
_chemical_formula_sum "Si O2"
_cell_formula_units_Z 64
_cell_length_a 13.674606
_cell_length_b 13.399235
_cell_length_c 17.145830
_cell_angle_alpha 90.000000
_cell_angle_beta 90.000000
_cell_angle_gamma 90.000000
_cell_volume 3141.617731
_symmetry_space_group_name_H-M "P M N A"
_symmetry_group_IT_number 53
_symmetry_cell_setting 'orthorhombic'
loop_
_space_group_symop_operation_xyz
x,y,z
1/2-x,-y,1/2+z
x,-y,-z
1/2-x,y,1/2-z
-x,-y,-z
1/2+x,y,1/2-z
-x,y,z
1/2+x,-y,1/2+z
loop_
_atom_site_type_symbol
_atom_site_label
_atom_site_fract_x
_atom_site_fract_y
_atom_site_fract_z
Si Si1 0.108942 0.434231 0.121971
Si Si2 0.390935 0.605302 0.045611
Si Si3 0.723148 0.693216 0.918568
Si Si4 0.609563 0.158649 0.472069
Si Si5 0.886008 0.264921 0.258046
Si Si6 0.713202 0.624638 0.333508
Si Si7 0.614448 0.837923 0.342220
Si Si8 0.886575 0.948356 0.818172
O O1 0.205154 0.402695 0.074180
O O2 0.115424 0.354891 0.194360
O O3 0.127224 0.548932 0.142814
O O4 0.000000 0.423514 0.087931
O O5 0.500000 0.618416 0.078934
O O6 0.304968 0.615608 0.108277
O O7 0.389906 0.500000 0.000000
O O8 0.365595 0.684429 0.978265
O O9 0.798944 0.776414 0.945574
O O10 0.679710 0.707904 0.832395
O O11 0.500000 0.202074 0.455267
O O12 0.615044 0.146464 0.564079
O O13 0.615871 0.067790 0.411732
O O14 0.855902 0.156864 0.221293
O O15 0.000000 0.256242 0.281530
O O16 0.750000 0.588963 0.250000
O O17 0.674330 0.737419 0.327302
O O18 0.500000 0.823776 0.319904
O O19 0.654188 0.940802 0.304025
O O20 0.000000 0.956266 0.795845
#
# Coordination Sequence:
#
# PCOD9416101 Si02
#       8
#     8   8   8   8   8   8   8   8
#     4  11  23  38  59  92 131 161 196 259 321 367
#     4  11  25  44  65  90 126 172 215 257 306 374
#     4  12  20  37  60  94 126 165 209 253 312 380
#     4  10  19  33  59  92 125 154 198 257 314 371
#     4  10  21  36  58  92 128 165 208 262 318 367
#     4  12  25  44  62  91 122 163 215 253 301 370
#     4  10  21  39  62  88 120 162 205 254 311 372
#     4   9  18  35  59  90 125 157 200 258 315 366
#
# _framework density 20.371670000000002
#
# number of rings (size 3 to 8) (size 9 to 14) (size 15 to 20)
#    0.000    1.375    3.750    2.625    0.000    2.500 
#    2.250    0.625    0.000    0.000    0.000    0.875 
#    0.000    0.000    0.000    0.000    0.000    0.000 
#
# Total GULP energy -356739.054234 kJ/mol
# GULP energy per Si atom -5574.047722 kJ/mol
# Density = 2.032530 g / cm^3
# Si number density = 20.371670 Si / 1000 Ang^3
#
#
#
# Elastic Constant Matrix: (Units=GPa)
#
#
# Indices 1 2 3 4 5 6 
#
# 1 109.4596 33.5307 10.0671 0.0000 0.0000 0.0000
# 2 33.5307 108.5066 -8.7012 0.0000 0.0000 0.0000
# 3 10.0671 -8.7012 32.8050 0.0000 0.0000 0.0000
# 4 0.0000 0.0000 0.0000 -6.9079 0.0000 0.0000
# 5 0.0000 0.0000 0.0000 0.0000 18.2375 0.0000
# 6 0.0000 0.0000 0.0000 0.0000 0.0000 -54.7155
#
#
#
# Elastic Compliance Matrix: (Units=1/GPa)
#
#
# Indices 1 2 3 4 5 6 
#
# 1 0.010635 -0.003625 -0.004225 0.000000 0.000000 0.000000
# 2 -0.003625 0.010652 0.003938 0.000000 0.000000 0.000000
# 3 -0.004225 0.003938 0.032824 0.000000 0.000000 0.000000
# 4 0.000000 0.000000 0.000000 -0.144762 0.000000 0.000000
# 5 0.000000 0.000000 0.000000 0.000000 0.054832 0.000000
# 6 0.000000 0.000000 0.000000 0.000000 0.000000 -0.018276
#
#
# Mechanical properties :
#
#
# Convention : Reuss Voigt Hill
#
# Bulk Modulus (GPa) = 21.60472 35.61829 28.61151
# Shear Modulus (GPa) = -162.12318 5.71444 -78.20437
#
# Velocity S-wave (km/s) = -8.93059 1.67666 -6.20259
# Velocity P-wave (km/s) = 9.78326 4.61199 6.10090
#
# Compressibility (1/GPa) = 0.04628617
#
# Stress axis : x y z
#
# Youngs Moduli (GPa) = 94.03010 93.87846 30.46526
#
# Poissons Ratio (x) = 0.34033 0.12872
# Poissons Ratio (y) = 0.34088 -0.11997
# Poissons Ratio (z) = 0.39729 -0.36968
#
# Static dielectric constant tensor:
#      x y z
#    x 1.731220 0.000000 0.000000 
#    y 0.000000 1.807790 0.000000 
#    z 0.000000 0.000000 1.728120 
# 
# From -- ./inp_files/28555.got.cif
#   From: 2010.05.17/outbox.cif.g08.bks.cpg/sg53_15_cif.got.tgz:28555.got - 2010.06.03 12:45:16.
