data_PCOD9416435
_publ_section_title
;
Structure prediction by ZEFSAII (Michael W. Deem and Ramdas Pophale) SiO2 
 PCOD9416435
Probable space group: P M N A
;
_chemical_formula_sum "Si O2"
_cell_formula_units_Z 48
_cell_length_a 28.905257
_cell_length_b 9.029068
_cell_length_c 10.036081
_cell_angle_alpha 90.000000
_cell_angle_beta 90.000000
_cell_angle_gamma 90.000000
_cell_volume 2619.292001
_symmetry_space_group_name_H-M "P M N A"
_symmetry_group_IT_number 53
_symmetry_cell_setting 'orthorhombic'
loop_
_space_group_symop_operation_xyz
x,y,z
1/2-x,-y,1/2+z
x,-y,-z
1/2-x,y,1/2-z
-x,-y,-z
1/2+x,y,1/2-z
-x,y,z
1/2+x,-y,1/2+z
loop_
_atom_site_type_symbol
_atom_site_label
_atom_site_fract_x
_atom_site_fract_y
_atom_site_fract_z
Si Si1 0.305356 0.144901 0.404876
Si Si2 0.947833 0.814889 0.735198
Si Si3 0.798899 0.148051 0.410632
Si Si4 0.555170 0.169960 0.784520
Si Si5 0.612954 0.674341 0.982567
Si Si6 0.902192 0.820345 0.003201
O O1 0.310800 0.113569 0.245724
O O2 0.253623 0.209519 0.416209
O O3 0.350768 0.230009 0.458582
O O4 0.303306 0.000000 0.500000
O O5 0.912181 0.719679 0.653054
O O6 0.939052 0.782959 0.889827
O O7 0.000000 0.780974 0.694894
O O8 0.940026 0.990581 0.709320
O O9 0.835787 0.259992 0.471524
O O10 0.801286 0.000000 0.500000
O O11 0.500000 0.201054 0.786688
O O12 0.579220 0.221722 0.647423
O O13 0.582834 0.245142 0.903808
O O14 0.613278 0.500000 0.000000
O O15 0.899934 0.000000 0.000000
#
# Coordination Sequence:
#
# PCOD9416435 Si02
#       6
#     8   8   8   8   8   8
#     4   9  18  33  61  94 115 137 180 235 290 332
#     4  10  19  35  60  86 111 143 187 236 287 334
#     4  10  20  36  62  88 116 144 186 235 283 335
#     4  10  21  37  60  87 113 143 187 242 289 335
#     4  12  25  38  54  79 116 159 193 228 279 334
#     4   9  17  32  58  90 115 138 177 233 291 339
#
# _framework density 18.325562999999999
#
# number of rings (size 3 to 8) (size 9 to 14) (size 15 to 20)
#    0.000    2.000    1.667    2.500    4.667    4.667 
#    0.000    0.833    7.333    2.000    0.000    0.000 
#    0.000    0.000    0.000    0.000    0.000    0.000 
#
# Total GULP energy -267565.144116 kJ/mol
# GULP energy per Si atom -5574.273836 kJ/mol
# Density = 1.828385 g / cm^3
# Si number density = 18.325563 Si / 1000 Ang^3
#
#
#
# Elastic Constant Matrix: (Units=GPa)
#
#
# Indices 1 2 3 4 5 6 
#
# 1 128.1863 35.7095 26.7588 0.0000 0.0000 0.0000
# 2 35.7095 30.2816 9.5656 0.0000 0.0000 0.0000
# 3 26.7588 9.5656 80.1124 0.0000 0.0000 0.0000
# 4 0.0000 0.0000 0.0000 -8.8718 0.0000 0.0000
# 5 0.0000 0.0000 0.0000 0.0000 33.6694 0.0000
# 6 0.0000 0.0000 0.0000 0.0000 0.0000 -3.8512
#
#
#
# Elastic Compliance Matrix: (Units=1/GPa)
#
#
# Indices 1 2 3 4 5 6 
#
# 1 0.012053 -0.013449 -0.002420 0.000000 0.000000 0.000000
# 2 -0.013449 0.049324 -0.001397 0.000000 0.000000 0.000000
# 3 -0.002420 -0.001397 0.013458 0.000000 0.000000 0.000000
# 4 0.000000 0.000000 0.000000 -0.112716 0.000000 0.000000
# 5 0.000000 0.000000 0.000000 0.000000 0.029701 0.000000
# 6 0.000000 0.000000 0.000000 0.000000 0.000000 -0.259660
#
#
# Mechanical properties :
#
#
# Convention : Reuss Voigt Hill
#
# Bulk Modulus (GPa) = 24.81239 42.51646 33.66442
# Shear Modulus (GPa) = -22.74030 15.29236 -3.72397
#
# Velocity S-wave (km/s) = -3.52647 2.89187 -1.42707
# Velocity P-wave (km/s) = 1.73556 5.86529 3.96165
#
# Compressibility (1/GPa) = 0.04030245
#
# Stress axis : x y z
#
# Youngs Moduli (GPa) = 82.96803 20.27396 74.30728
#
# Poissons Ratio (x) = 0.27266 0.17982
# Poissons Ratio (y) = 1.11582 0.10383
# Poissons Ratio (z) = 0.20078 0.02833
#
# Static dielectric constant tensor:
#      x y z
#    x 1.659110 0.000000 0.000000 
#    y 0.000000 1.593470 0.000000 
#    z 0.000000 0.000000 1.640520 
# 
# From -- ./inp_files/12977.got.cif
#   From: 2010.05.17/outbox.cif.g08.bks.cpg/sg53_7_cif.got.tgz:12977.got - 2010.06.03 12:45:16.
