data_PCOD9416127
_publ_section_title
;
Structure prediction by ZEFSAII (Michael W. Deem and Ramdas Pophale) SiO2 
 PCOD9416127
Probable space group: P M N A
;
_chemical_formula_sum "Si O2"
_cell_formula_units_Z 56
_cell_length_a 8.055978
_cell_length_b 19.984820
_cell_length_c 18.681426
_cell_angle_alpha 90.000000
_cell_angle_beta 90.000000
_cell_angle_gamma 90.000000
_cell_volume 3007.658590
_symmetry_space_group_name_H-M "P M N A"
_symmetry_group_IT_number 53
_symmetry_cell_setting 'orthorhombic'
loop_
_space_group_symop_operation_xyz
x,y,z
1/2-x,-y,1/2+z
x,-y,-z
1/2-x,y,1/2-z
-x,-y,-z
1/2+x,y,1/2-z
-x,y,z
1/2+x,-y,1/2+z
loop_
_atom_site_type_symbol
_atom_site_label
_atom_site_fract_x
_atom_site_fract_y
_atom_site_fract_z
Si Si1 0.809616 0.049750 0.068690
Si Si2 0.802057 0.156027 0.963517
Si Si3 0.299932 0.653472 0.830775
Si Si4 0.698775 0.500275 0.169198
Si Si5 0.798889 0.065413 0.832339
Si Si6 0.306221 0.568650 0.465477
Si Si7 0.306282 0.708527 0.975988
O O1 0.000000 0.065525 0.089739
O O2 0.737351 0.005120 0.132985
O O3 0.731912 0.115687 0.032874
O O4 0.815577 0.000000 0.000000
O O5 0.742559 0.123030 0.888821
O O6 0.000000 0.144097 0.964291
O O7 0.773120 0.233831 0.976260
O O8 0.250000 0.671121 0.750000
O O9 0.500000 0.652821 0.833598
O O10 0.245336 0.576635 0.845864
O O11 0.238448 0.700762 0.894772
O O12 0.750000 0.513382 0.250000
O O13 0.500000 0.503192 0.160623
O O14 0.784165 0.553251 0.117757
O O15 0.750000 0.074865 0.750000
O O16 0.000000 0.063925 0.834834
O O17 0.237697 0.500000 0.500000
O O18 0.500000 0.574829 0.484666
O O19 0.216385 0.635323 0.490055
O O20 0.500000 0.724440 0.971566
#
# Coordination Sequence:
#
# PCOD9416127 Si02
#       7
#     8   8   8   8   8   8   8
#     4   7  12  27  51  74  97 129 169 208 246 295
#     4   9  18  34  54  76 104 142 183 219 258 317
#     4   9  19  33  51  73  98 129 166 210 263 321
#     4  10  19  34  54  76 103 132 167 216 273 324
#     4   9  17  31  54  82 109 139 177 217 261 311
#     4  11  22  35  54  79 103 134 180 227 271 325
#     4  11  22  36  53  77 108 142 178 222 276 323
#
# _framework density 18.619133000000001
#
# number of rings (size 3 to 8) (size 9 to 14) (size 15 to 20)
#    0.000    2.571    1.429    3.000    0.000    2.857 
#    0.000    2.143    0.000    7.714    0.000    0.000 
#    0.000    0.000    0.000    0.000    0.000    0.000 
#
# Total GULP energy -311925.191471 kJ/mol
# GULP energy per Si atom -5570.092705 kJ/mol
# Density = 1.857676 g / cm^3
# Si number density = 18.619133 Si / 1000 Ang^3
#
#
#
# Elastic Constant Matrix: (Units=GPa)
#
#
# Indices 1 2 3 4 5 6 
#
# 1 19.7265 2.0746 4.1837 0.0000 0.0000 0.0000
# 2 2.0746 90.0995 56.2134 0.0000 0.0000 0.0000
# 3 4.1837 56.2134 131.6396 0.0000 0.0000 0.0000
# 4 0.0000 0.0000 0.0000 23.2669 0.0000 0.0000
# 5 0.0000 0.0000 0.0000 0.0000 23.2850 0.0000
# 6 0.0000 0.0000 0.0000 0.0000 0.0000 10.1393
#
#
#
# Elastic Compliance Matrix: (Units=1/GPa)
#
#
# Indices 1 2 3 4 5 6 
#
# 1 0.051041 -0.000222 -0.001527 0.000000 0.000000 0.000000
# 2 -0.000222 0.015131 -0.006454 0.000000 0.000000 0.000000
# 3 -0.001527 -0.006454 0.010401 0.000000 0.000000 0.000000
# 4 0.000000 0.000000 0.000000 0.042979 0.000000 0.000000
# 5 0.000000 0.000000 0.000000 0.000000 0.042946 0.000000
# 6 0.000000 0.000000 0.000000 0.000000 0.000000 0.098626
#
#
# Mechanical properties :
#
#
# Convention : Reuss Voigt Hill
#
# Bulk Modulus (GPa) = 16.62099 40.71213 28.66656
# Shear Modulus (GPa) = 16.80185 23.27118 20.03652
#
# Velocity S-wave (km/s) = 3.00725 3.53916 3.28399
# Velocity P-wave (km/s) = 4.58304 6.21402 5.45978
#
# Compressibility (1/GPa) = 0.06016488
#
# Stress axis : x y z
#
# Youngs Moduli (GPa) = 19.59227 66.09073 96.14365
#
# Poissons Ratio (x) = 0.01470 0.14683
# Poissons Ratio (y) = 0.00436 0.62052
# Poissons Ratio (z) = 0.02992 0.42656
#
# Static dielectric constant tensor:
#      x y z
#    x 1.670540 0.000000 0.000000 
#    y 0.000000 1.652310 0.000000 
#    z 0.000000 0.000000 1.697180 
# 
# From -- ./inp_files/26686.got.cif
#   From: 2010.05.17/outbox.cif.g08.bks.cpg/sg53_14_cif.got.tgz:26686.got - 2010.06.03 12:45:16.
