data_PCOD9416325
_publ_section_title
;
Structure prediction by ZEFSAII (Michael W. Deem and Ramdas Pophale) SiO2 
 PCOD9416325
Probable space group: P M N A
;
_chemical_formula_sum "Si O2"
_cell_formula_units_Z 48
_cell_length_a 26.921349
_cell_length_b 5.298339
_cell_length_c 16.698852
_cell_angle_alpha 90.000000
_cell_angle_beta 90.000000
_cell_angle_gamma 90.000000
_cell_volume 2381.898088
_symmetry_space_group_name_H-M "P M N A"
_symmetry_group_IT_number 53
_symmetry_cell_setting 'orthorhombic'
loop_
_space_group_symop_operation_xyz
x,y,z
1/2-x,-y,1/2+z
x,-y,-z
1/2-x,y,1/2-z
-x,-y,-z
1/2+x,y,1/2-z
-x,y,z
1/2+x,-y,1/2+z
loop_
_atom_site_type_symbol
_atom_site_label
_atom_site_fract_x
_atom_site_fract_y
_atom_site_fract_z
Si Si1 0.152307 0.667113 0.774869
Si Si2 0.812368 0.748613 0.954883
Si Si3 0.199481 0.155055 0.707390
Si Si4 0.798527 0.748225 0.476925
Si Si5 0.058473 0.960765 0.409030
Si Si6 0.941598 0.475741 0.309135
O O1 0.170807 0.740358 0.863448
O O2 0.180489 0.411988 0.748403
O O3 0.094665 0.590482 0.764607
O O4 0.164658 0.909527 0.718782
O O5 0.831052 0.500000 0.000000
O O6 0.752175 0.743719 0.969158
O O7 0.829476 0.000000 0.000000
O O8 0.250000 0.074926 0.750000
O O9 0.211690 0.230081 0.616468
O O10 0.827517 0.500000 0.500000
O O11 0.825449 0.000000 0.500000
O O12 0.062255 0.229040 0.365022
O O13 0.000000 0.894590 0.413929
O O14 0.074237 0.000000 0.500000
O O15 0.078610 0.723828 0.356823
O O16 0.000000 0.510224 0.287819
#
# Coordination Sequence:
#
# PCOD9416325 Si02
#       6
#     8   8   8   8   8   8
#     4  12  24  40  62  90 119 157 204 246 302 367
#     4  10  20  37  59  82 109 149 196 236 287 356
#     4  12  23  38  60  87 119 153 197 249 297 357
#     4  10  19  35  54  77 111 152 188 229 287 342
#     4   9  17  33  59  85 113 154 199 242 295 357
#     4  10  21  38  60  88 122 159 203 255 303 351
#
# _framework density 20.151993999999998
#
# number of rings (size 3 to 8) (size 9 to 14) (size 15 to 20)
#    0.000    1.500    0.000    8.000    0.000    2.000 
#    0.000    8.333    0.000    1.000    0.000    0.000 
#    0.000    0.000    0.000    0.000    0.000    0.000 
#
# Total GULP energy -267997.810248 kJ/mol
# GULP energy per Si atom -5583.287713 kJ/mol
# Density = 2.010613 g / cm^3
# Si number density = 20.151994 Si / 1000 Ang^3
#
#
#
# Elastic Constant Matrix: (Units=GPa)
#
#
# Indices 1 2 3 4 5 6 
#
# 1 81.8150 30.6171 43.9463 0.0000 0.0000 0.0000
# 2 30.6171 161.6198 30.4794 0.0000 0.0000 0.0000
# 3 43.9463 30.4794 95.9867 0.0000 0.0000 0.0000
# 4 0.0000 0.0000 0.0000 33.5466 0.0000 0.0000
# 5 0.0000 0.0000 0.0000 0.0000 -4.9380 0.0000
# 6 0.0000 0.0000 0.0000 0.0000 0.0000 20.2021
#
#
#
# Elastic Compliance Matrix: (Units=1/GPa)
#
#
# Indices 1 2 3 4 5 6 
#
# 1 0.016704 -0.001832 -0.007066 0.000000 0.000000 0.000000
# 2 -0.001832 0.006782 -0.001315 0.000000 0.000000 0.000000
# 3 -0.007066 -0.001315 0.014071 0.000000 0.000000 0.000000
# 4 0.000000 0.000000 0.000000 0.029809 0.000000 0.000000
# 5 0.000000 0.000000 0.000000 0.000000 -0.202510 0.000000
# 6 0.000000 0.000000 0.000000 0.000000 0.000000 0.049500
#
#
# Mechanical properties :
#
#
# Convention : Reuss Voigt Hill
#
# Bulk Modulus (GPa) = 58.37255 61.05635 59.71445
# Shear Modulus (GPa) = -84.02088 25.38738 -29.31675
#
# Velocity S-wave (km/s) = -6.46406 3.55321 -3.81830
# Velocity P-wave (km/s) = 5.16557 6.87004 3.20268
#
# Compressibility (1/GPa) = 0.01713134
#
# Stress axis : x y z
#
# Youngs Moduli (GPa) = 59.86740 147.44119 71.06975
#
# Poissons Ratio (x) = 0.27008 0.50217
# Poissons Ratio (y) = 0.10966 0.09346
# Poissons Ratio (z) = 0.42302 0.19388
#
# Static dielectric constant tensor:
#      x y z
#    x 1.750480 0.000000 0.000000 
#    y 0.000000 1.604320 0.000000 
#    z 0.000000 0.000000 1.666070 
# 
# From -- ./inp_files/24935.got.cif
#   From: 2010.05.17/outbox.cif.g08.bks.cpg/sg53_13_cif.got.tgz:24935.got - 2010.06.03 12:45:16.
