data_PCOD9416942
_publ_section_title
;
Structure prediction by ZEFSAII (Michael W. Deem and Ramdas Pophale) SiO2 
 PCOD9416942
Probable space group: P M N A
;
_chemical_formula_sum "Si O2"
_cell_formula_units_Z 60
_cell_length_a 9.193524
_cell_length_b 19.749210
_cell_length_c 16.712726
_cell_angle_alpha 90.000000
_cell_angle_beta 90.000000
_cell_angle_gamma 90.000000
_cell_volume 3034.443357
_symmetry_space_group_name_H-M "P M N A"
_symmetry_group_IT_number 53
_symmetry_cell_setting 'orthorhombic'
loop_
_space_group_symop_operation_xyz
x,y,z
1/2-x,-y,1/2+z
x,-y,-z
1/2-x,y,1/2-z
-x,-y,-z
1/2+x,y,1/2-z
-x,y,z
1/2+x,-y,1/2+z
loop_
_atom_site_type_symbol
_atom_site_label
_atom_site_fract_x
_atom_site_fract_y
_atom_site_fract_z
Si Si1 0.339008 0.390803 0.136629
Si Si2 0.750000 0.728421 0.750000
Si Si3 0.669797 0.622130 0.054380
Si Si4 0.827844 0.522379 0.169221
Si Si5 0.176144 0.037184 0.163190
Si Si6 0.832747 0.179076 0.105912
Si Si7 0.824534 0.241319 0.943345
Si Si8 0.173400 0.111861 0.835469
O O1 0.500000 0.422048 0.148712
O O2 0.331616 0.323209 0.190109
O O3 0.215265 0.443449 0.161872
O O4 0.320540 0.378230 0.042171
O O5 0.671059 0.778899 0.688198
O O6 0.500000 0.617258 0.075636
O O7 0.757690 0.560855 0.094007
O O8 0.741843 0.691757 0.083976
O O9 0.750000 0.548072 0.250000
O O10 0.000000 0.531472 0.172258
O O11 0.250000 0.039146 0.250000
O O12 0.229979 0.103955 0.117208
O O13 0.000000 0.042555 0.171438
O O14 0.208583 0.962576 0.128566
O O15 0.000000 0.168155 0.082427
O O16 0.772173 0.222735 0.033065
O O17 0.791290 0.175445 0.890614
O O18 0.000000 0.253652 0.942165
O O19 0.250000 0.117463 0.750000
O O20 0.000000 0.112629 0.823058
#
# Coordination Sequence:
#
# PCOD9416942 Si02
#       8
#     8   4   8   8   8   8   8   8
#     4  11  24  41  63  93 127 161 199 247 301 360
#     4  12  20  36  62  92 124 158 196 240 298 356
#     4  11  24  43  64  90 125 162 201 251 305 358
#     4  12  26  44  68  95 123 159 203 249 300 359
#     4   9  17  32  53  81 113 153 196 244 296 352
#     4  10  20  33  55  86 121 157 197 242 295 358
#     4  10  21  38  57  85 118 155 201 251 302 359
#     4   9  19  35  58  82 112 151 199 250 301 356
#
# _framework density 19.772983
#
# number of rings (size 3 to 8) (size 9 to 14) (size 15 to 20)
#    0.000    1.600    2.667    2.400    0.000    4.800 
#    0.000    4.667    0.000    0.000    0.000    4.667 
#    0.000    0.000    0.000    0.000    0.000    0.000 
#
# Total GULP energy -334707.871928 kJ/mol
# GULP energy per Si atom -5578.464532 kJ/mol
# Density = 1.972798 g / cm^3
# Si number density = 19.772983 Si / 1000 Ang^3
#
#
#
# Elastic Constant Matrix: (Units=GPa)
#
#
# Indices 1 2 3 4 5 6 
#
# 1 79.2967 35.1853 27.4252 0.0000 0.0000 0.0000
# 2 35.1853 101.9670 24.0227 0.0000 0.0000 0.0000
# 3 27.4252 24.0227 60.1747 0.0000 0.0000 0.0000
# 4 0.0000 0.0000 0.0000 32.1075 0.0000 0.0000
# 5 0.0000 0.0000 0.0000 0.0000 19.6974 0.0000
# 6 0.0000 0.0000 0.0000 0.0000 0.0000 20.0845
#
#
#
# Elastic Compliance Matrix: (Units=1/GPa)
#
#
# Indices 1 2 3 4 5 6 
#
# 1 0.016546 -0.004341 -0.005808 0.000000 0.000000 0.000000
# 2 -0.004341 0.011964 -0.002798 0.000000 0.000000 0.000000
# 3 -0.005808 -0.002798 0.020382 0.000000 0.000000 0.000000
# 4 0.000000 0.000000 0.000000 0.031145 0.000000 0.000000
# 5 0.000000 0.000000 0.000000 0.000000 0.050768 0.000000
# 6 0.000000 0.000000 0.000000 0.000000 0.000000 0.049790
#
#
# Mechanical properties :
#
#
# Convention : Reuss Voigt Hill
#
# Bulk Modulus (GPa) = 43.48079 46.07829 44.77954
# Shear Modulus (GPa) = 23.34756 24.69821 24.02289
#
# Velocity S-wave (km/s) = 3.43998 3.53808 3.48937
# Velocity P-wave (km/s) = 6.14944 6.32811 6.23941
#
# Compressibility (1/GPa) = 0.02299866
#
# Stress axis : x y z
#
# Youngs Moduli (GPa) = 60.43845 83.58271 49.06237
#
# Poissons Ratio (x) = 0.36284 0.28495
# Poissons Ratio (y) = 0.26237 0.13727
# Poissons Ratio (z) = 0.35102 0.23385
#
# Static dielectric constant tensor:
#      x y z
#    x 1.681870 0.000000 0.000000 
#    y 0.000000 1.721210 0.000000 
#    z 0.000000 0.000000 1.698870 
# 
# From -- ./inp_files/26568.got.cif
#   From: 2010.05.17/outbox.cif.g08.bks.cpg/sg53_14_cif.got.tgz:26568.got - 2010.06.03 12:45:16.
