data_PCOD9416828
_publ_section_title
;
Structure prediction by ZEFSAII (Michael W. Deem and Ramdas Pophale) SiO2 
 PCOD9416828
Probable space group: P M N A
;
_chemical_formula_sum "Si O2"
_cell_formula_units_Z 52
_cell_length_a 14.429794
_cell_length_b 21.070474
_cell_length_c 8.968645
_cell_angle_alpha 90.000000
_cell_angle_beta 90.000000
_cell_angle_gamma 90.000000
_cell_volume 2726.850138
_symmetry_space_group_name_H-M "P M N A"
_symmetry_group_IT_number 53
_symmetry_cell_setting 'orthorhombic'
loop_
_space_group_symop_operation_xyz
x,y,z
1/2-x,-y,1/2+z
x,-y,-z
1/2-x,y,1/2-z
-x,-y,-z
1/2+x,y,1/2-z
-x,y,z
1/2+x,-y,1/2+z
loop_
_atom_site_type_symbol
_atom_site_label
_atom_site_fract_x
_atom_site_fract_y
_atom_site_fract_z
Si Si1 0.750000 0.865544 0.750000
Si Si2 0.231107 0.435598 0.573225
Si Si3 0.603972 0.645206 0.480872
Si Si4 0.105966 0.680626 0.372749
Si Si5 0.111798 0.787654 0.955986
Si Si6 0.892334 0.075161 0.475897
Si Si7 0.611669 0.815545 0.203684
O O1 0.677778 0.823518 0.656772
O O2 0.683875 0.906888 0.855059
O O3 0.196433 0.500000 0.500000
O O4 0.250000 0.444695 0.750000
O O5 0.325957 0.411960 0.497472
O O6 0.164234 0.375161 0.554901
O O7 0.500000 0.626740 0.520046
O O8 0.605927 0.664026 0.304361
O O9 0.626590 0.712032 0.557587
O O10 0.145895 0.752092 0.382207
O O11 0.000000 0.679971 0.425821
O O12 0.000000 0.798732 0.936991
O O13 0.138385 0.810660 0.123520
O O14 0.869177 0.119012 0.619858
O O15 0.000000 0.091283 0.434369
O O16 0.889686 0.000000 0.500000
O O17 0.500000 0.807831 0.205131
#
# Coordination Sequence:
#
# PCOD9416828 Si02
#       7
#     4   8   8   8   8   8   8
#     4  12  24  34  58  90 120 154 182 234 298 348
#     4  10  20  33  50  76 108 140 177 225 273 329
#     4   8  16  33  54  74 102 141 185 226 271 325
#     4   8  15  30  55  80 102 135 182 228 270 320
#     4   9  19  37  59  87 114 144 191 243 286 331
#     4  10  23  42  59  82 121 159 192 235 285 338
#     4   8  16  35  62  83 104 146 198 236 271 331
#
# _framework density 19.069621000000001
#
# number of rings (size 3 to 8) (size 9 to 14) (size 15 to 20)
#    0.000    2.923    0.000    2.308    2.154    2.462 
#    1.385    0.000    0.000    4.615    0.000    0.000 
#    0.000    0.000    0.000    0.000    0.000    0.000 
#
# Total GULP energy -289935.632177 kJ/mol
# GULP energy per Si atom -5575.685234 kJ/mol
# Density = 1.902622 g / cm^3
# Si number density = 19.069621 Si / 1000 Ang^3
#
#
#
# Elastic Constant Matrix: (Units=GPa)
#
#
# Indices 1 2 3 4 5 6 
#
# 1 78.7990 46.2548 34.2145 0.0000 0.0000 0.0000
# 2 46.2548 120.2270 39.3756 0.0000 0.0000 0.0000
# 3 34.2145 39.3756 44.6782 0.0000 0.0000 0.0000
# 4 0.0000 0.0000 0.0000 17.8152 0.0000 0.0000
# 5 0.0000 0.0000 0.0000 0.0000 20.2108 0.0000
# 6 0.0000 0.0000 0.0000 0.0000 0.0000 32.1334
#
#
#
# Elastic Compliance Matrix: (Units=1/GPa)
#
#
# Indices 1 2 3 4 5 6 
#
# 1 0.020175 -0.003798 -0.012103 0.000000 0.000000 0.000000
# 2 -0.003798 0.012408 -0.008026 0.000000 0.000000 0.000000
# 3 -0.012103 -0.008026 0.038724 0.000000 0.000000 0.000000
# 4 0.000000 0.000000 0.000000 0.056132 0.000000 0.000000
# 5 0.000000 0.000000 0.000000 0.000000 0.049479 0.000000
# 6 0.000000 0.000000 0.000000 0.000000 0.000000 0.031120
#
#
# Mechanical properties :
#
#
# Convention : Reuss Voigt Hill
#
# Bulk Modulus (GPa) = 42.63933 53.71042 48.17487
# Shear Modulus (GPa) = 18.96029 22.28916 20.62473
#
# Velocity S-wave (km/s) = 3.15662 3.42253 3.29226
# Velocity P-wave (km/s) = 5.97445 6.62154 6.30630
#
# Compressibility (1/GPa) = 0.02345253
#
# Stress axis : x y z
#
# Youngs Moduli (GPa) = 49.56639 80.59589 25.82367
#
# Poissons Ratio (x) = 0.30612 0.31253
# Poissons Ratio (y) = 0.18826 0.20727
# Poissons Ratio (z) = 0.59988 0.64689
#
# Static dielectric constant tensor:
#      x y z
#    x 1.700600 0.000000 0.000000 
#    y 0.000000 1.646090 0.000000 
#    z 0.000000 0.000000 1.669240 
# 
# From -- ./inp_files/8799.got.cif
#   From: 2010.05.17/outbox.cif.g08.bks.cpg/sg53_5_cif.got.tgz:8799.got - 2010.06.03 12:45:16.
