data_PCOD9416904
_publ_section_title
;
Structure prediction by ZEFSAII (Michael W. Deem and Ramdas Pophale) SiO2 
 PCOD9416904
Probable space group: P M N A
;
_chemical_formula_sum "Si O2"
_cell_formula_units_Z 48
_cell_length_a 16.197288
_cell_length_b 10.970688
_cell_length_c 13.965882
_cell_angle_alpha 90.000000
_cell_angle_beta 90.000000
_cell_angle_gamma 90.000000
_cell_volume 2481.672892
_symmetry_space_group_name_H-M "P M N A"
_symmetry_group_IT_number 53
_symmetry_cell_setting 'orthorhombic'
loop_
_space_group_symop_operation_xyz
x,y,z
1/2-x,-y,1/2+z
x,-y,-z
1/2-x,y,1/2-z
-x,-y,-z
1/2+x,y,1/2-z
-x,y,z
1/2+x,-y,1/2+z
loop_
_atom_site_type_symbol
_atom_site_label
_atom_site_fract_x
_atom_site_fract_y
_atom_site_fract_z
Si Si1 0.599702 0.466362 0.790136
Si Si2 0.824888 0.500000 0.500000
Si Si3 0.000000 0.902907 0.163090
Si Si4 0.000000 0.176881 0.188168
Si Si5 0.677662 0.309997 0.508902
Si Si6 0.160831 0.720057 0.792109
Si Si7 0.000000 0.313418 0.992046
Si Si8 0.335392 0.792894 0.289893
O O1 0.500000 0.458995 0.777994
O O2 0.622917 0.493211 0.901665
O O3 0.637496 0.578770 0.729302
O O4 0.642613 0.340732 0.754775
O O5 0.759912 0.388930 0.503618
O O6 0.082665 0.871920 0.221490
O O7 0.000000 0.809267 0.073409
O O8 0.000000 0.044867 0.140751
O O9 0.916364 0.202029 0.245970
O O10 0.000000 0.277654 0.103488
O O11 0.667627 0.252973 0.404810
O O12 0.588134 0.374341 0.529402
O O13 0.682517 0.220509 0.597467
O O14 0.250000 0.745152 0.750000
O O15 0.250000 0.841638 0.250000
#
# Coordination Sequence:
#
# PCOD9416904 Si02
#       8
#     8   4   4   4   8   8   4   8
#     4  12  23  38  56  86 115 155 186 232 285 338
#     4  12  21  35  56  82 116 154 194 219 273 348
#     4  10  21  37  59  84 110 149 198 236 281 335
#     4  10  21  37  59  84 110 149 198 236 281 335
#     4  10  20  33  52  86 112 148 181 225 284 342
#     4  11  21  38  58  83 120 149 186 237 286 340
#     4   8  19  35  54  82 114 145 176 238 297 330
#     4  11  21  38  58  83 120 149 186 237 286 340
#
# _framework density 19.341792999999999
#
# number of rings (size 3 to 8) (size 9 to 14) (size 15 to 20)
#    0.000    1.333    5.000    2.000    0.000    1.000 
#    0.000    0.000    0.000    0.000    0.000    5.833 
#    0.000    0.000    0.000    0.000    0.000    0.000 
#
# Total GULP energy -267508.537617 kJ/mol
# GULP energy per Si atom -5573.094534 kJ/mol
# Density = 1.929777 g / cm^3
# Si number density = 19.341793 Si / 1000 Ang^3
#
#
#
# Elastic Constant Matrix: (Units=GPa)
#
#
# Indices 1 2 3 4 5 6 
#
# 1 164.4377 1.0052 25.2422 0.0000 0.0000 0.0000
# 2 1.0052 31.8583 -11.4386 0.0000 0.0000 0.0000
# 3 25.2422 -11.4386 70.8774 0.0000 0.0000 0.0000
# 4 0.0000 0.0000 0.0000 9.0819 0.0000 0.0000
# 5 0.0000 0.0000 0.0000 0.0000 30.6632 0.0000
# 6 0.0000 0.0000 0.0000 0.0000 0.0000 2.3905
#
#
#
# Elastic Compliance Matrix: (Units=1/GPa)
#
#
# Indices 1 2 3 4 5 6 
#
# 1 0.006469 -0.001095 -0.002480 0.000000 0.000000 0.000000
# 2 -0.001095 0.033505 0.005797 0.000000 0.000000 0.000000
# 3 -0.002480 0.005797 0.015928 0.000000 0.000000 0.000000
# 4 0.000000 0.000000 0.000000 0.110109 0.000000 0.000000
# 5 0.000000 0.000000 0.000000 0.000000 0.032612 0.000000
# 6 0.000000 0.000000 0.000000 0.000000 0.000000 0.418316
#
#
# Mechanical properties :
#
#
# Convention : Reuss Voigt Hill
#
# Bulk Modulus (GPa) = 16.57130 32.97679 24.77404
# Shear Modulus (GPa) = 7.90376 25.25142 16.57759
#
# Velocity S-wave (km/s) = 2.02367 3.61714 2.93078
# Velocity P-wave (km/s) = 3.74787 5.87635 4.92839
#
# Compressibility (1/GPa) = 0.06034530
#
# Stress axis : x y z
#
# Youngs Moduli (GPa) = 154.58843 29.84639 62.78323
#
# Poissons Ratio (x) = 0.03267 0.15573
# Poissons Ratio (y) = 0.16923 -0.36396
# Poissons Ratio (z) = 0.38345 -0.17302
#
# Static dielectric constant tensor:
#      x y z
#    x 1.768440 0.000000 0.000000 
#    y 0.000000 1.731080 0.000000 
#    z 0.000000 0.000000 1.687190 
# 
# From -- ./inp_files/22739.got.cif
#   From: 2010.05.17/outbox.cif.g08.bks.cpg/sg53_12_cif.got.tgz:22739.got - 2010.06.03 12:45:16.
