data_PCOD9416742
_publ_section_title
;
Structure prediction by ZEFSAII (Michael W. Deem and Ramdas Pophale) SiO2 
 PCOD9416742
Probable space group: P M N A
;
_chemical_formula_sum "Si O2"
_cell_formula_units_Z 64
_cell_length_a 7.404584
_cell_length_b 10.068471
_cell_length_c 37.186122
_cell_angle_alpha 90.000000
_cell_angle_beta 90.000000
_cell_angle_gamma 90.000000
_cell_volume 2772.330977
_symmetry_space_group_name_H-M "P M N A"
_symmetry_group_IT_number 53
_symmetry_cell_setting 'orthorhombic'
loop_
_space_group_symop_operation_xyz
x,y,z
1/2-x,-y,1/2+z
x,-y,-z
1/2-x,y,1/2-z
-x,-y,-z
1/2+x,y,1/2-z
-x,y,z
1/2+x,-y,1/2+z
loop_
_atom_site_type_symbol
_atom_site_label
_atom_site_fract_x
_atom_site_fract_y
_atom_site_fract_z
Si Si1 0.719344 0.687953 0.389625
Si Si2 0.707833 0.402343 0.418045
Si Si3 0.290101 0.752880 0.192858
Si Si4 0.279236 0.813343 0.529480
Si Si5 0.280568 0.103298 0.550300
Si Si6 0.283779 0.957219 0.790952
Si Si7 0.784897 0.474468 0.288477
Si Si8 0.219330 0.735007 0.654053
O O1 0.500000 0.685012 0.388422
O O2 0.783048 0.542524 0.403468
O O3 0.781735 0.724176 0.349674
O O4 0.777270 0.803455 0.417092
O O5 0.500000 0.432746 0.427188
O O6 0.786086 0.321397 0.451741
O O7 0.713590 0.295413 0.385658
O O8 0.500000 0.759187 0.203701
O O9 0.207439 0.622300 0.210710
O O10 0.210767 0.894140 0.203613
O O11 0.500000 0.810743 0.530421
O O12 0.227001 0.833397 0.488011
O O13 0.223268 0.949066 0.549950
O O14 0.500000 0.101990 0.550792
O O15 0.250000 0.912463 0.750000
O O16 0.500000 0.959471 0.795064
O O17 0.219369 0.862453 0.823184
O O18 0.750000 0.410512 0.250000
O O19 0.718555 0.388448 0.321487
O O20 0.000000 0.482432 0.293060
O O21 0.000000 0.736713 0.652343
#
# Coordination Sequence:
#
# PCOD9416742 Si02
#       8
#     8   8   8   8   8   8   8   8
#     4  10  20  32  50  79 107 134 174 217 253 296
#     4  10  20  32  50  79 107 134 174 217 253 296
#     4  10  21  37  53  74 105 139 170 205 257 313
#     4   8  15  29  49  74 105 138 170 208 256 304
#     4   8  15  29  49  74 105 138 170 208 256 304
#     4  10  22  38  56  78 103 132 171 215 260 311
#     4  10  20  34  54  74  97 132 169 205 250 301
#     4  10  21  37  53  74 105 139 170 205 257 313
#
# _framework density 23.085266000000001
#
# number of rings (size 3 to 8) (size 9 to 14) (size 15 to 20)
#    0.000    2.500    1.250    1.500    1.750    2.500 
#    0.000    2.500    0.000    0.750    0.000    3.500 
#    0.000    0.000    0.000    0.000    0.000    0.000 
#
# Total GULP energy -357442.887570 kJ/mol
# GULP energy per Si atom -5585.045118 kJ/mol
# Density = 2.303272 g / cm^3
# Si number density = 23.085266 Si / 1000 Ang^3
#
#
#
# Elastic Constant Matrix: (Units=GPa)
#
#
# Indices 1 2 3 4 5 6 
#
# 1 80.6950 0.8135 -17.9341 0.0000 0.0000 0.0000
# 2 0.8135 77.8307 8.7278 0.0000 0.0000 0.0000
# 3 -17.9341 8.7278 66.7797 0.0000 0.0000 0.0000
# 4 0.0000 0.0000 0.0000 50.2008 0.0000 0.0000
# 5 0.0000 0.0000 0.0000 0.0000 -10.1091 0.0000
# 6 0.0000 0.0000 0.0000 0.0000 0.0000 8.4016
#
#
#
# Elastic Compliance Matrix: (Units=1/GPa)
#
#
# Indices 1 2 3 4 5 6 
#
# 1 0.013202 -0.000544 0.003616 0.000000 0.000000 0.000000
# 2 -0.000544 0.013062 -0.001853 0.000000 0.000000 0.000000
# 3 0.003616 -0.001853 0.016188 0.000000 0.000000 0.000000
# 4 0.000000 0.000000 0.000000 0.019920 0.000000 0.000000
# 5 0.000000 0.000000 0.000000 0.000000 -0.098920 0.000000
# 6 0.000000 0.000000 0.000000 0.000000 0.000000 0.119024
#
#
# Mechanical properties :
#
#
# Convention : Reuss Voigt Hill
#
# Bulk Modulus (GPa) = 22.27621 23.16889 22.72255
# Shear Modulus (GPa) = 52.63189 25.27854 38.95521
#
# Velocity S-wave (km/s) = 4.78000 3.31268 4.11231
# Velocity P-wave (km/s) = 6.33522 4.96888 5.69319
#
# Compressibility (1/GPa) = 0.04489095
#
# Stress axis : x y z
#
# Youngs Moduli (GPa) = 75.74868 76.55862 61.77418
#
# Poissons Ratio (x) = 0.04161 -0.22340
# Poissons Ratio (y) = 0.04117 0.11447
# Poissons Ratio (z) = -0.27394 0.14187
#
# Static dielectric constant tensor:
#      x y z
#    x 1.825790 0.000000 0.000000 
#    y 0.000000 1.882610 0.000000 
#    z 0.000000 0.000000 1.766700 
# 
# From -- ./inp_files/38733.got.cif
#   From: 2010.05.17/outbox.cif.g08.bks.cpg/sg53_20_cif.got.tgz:38733.got - 2010.06.03 12:45:16.
