data_PCOD9416406
_publ_section_title
;
Structure prediction by ZEFSAII (Michael W. Deem and Ramdas Pophale) SiO2 
 PCOD9416406
Probable space group: P M N A
;
_chemical_formula_sum "Si O2"
_cell_formula_units_Z 56
_cell_length_a 19.633673
_cell_length_b 13.856946
_cell_length_c 11.403568
_cell_angle_alpha 90.000000
_cell_angle_beta 90.000000
_cell_angle_gamma 90.000000
_cell_volume 3102.486030
_symmetry_space_group_name_H-M "P M N A"
_symmetry_group_IT_number 53
_symmetry_cell_setting 'orthorhombic'
loop_
_space_group_symop_operation_xyz
x,y,z
1/2-x,-y,1/2+z
x,-y,-z
1/2-x,y,1/2-z
-x,-y,-z
1/2+x,y,1/2-z
-x,y,z
1/2+x,-y,1/2+z
loop_
_atom_site_type_symbol
_atom_site_label
_atom_site_fract_x
_atom_site_fract_y
_atom_site_fract_z
Si Si1 0.324168 0.528778 0.262414
Si Si2 0.672068 0.307361 0.934929
Si Si3 0.921972 0.235308 0.149398
Si Si4 0.826453 0.684127 0.047184
Si Si5 0.577771 0.621003 0.858491
Si Si6 0.830675 0.846572 0.247534
Si Si7 0.419020 0.014477 0.360799
O O1 0.250000 0.478907 0.250000
O O2 0.319333 0.617127 0.171095
O O3 0.334653 0.580720 0.387769
O O4 0.383299 0.460736 0.215676
O O5 0.747636 0.302635 0.989511
O O6 0.653070 0.207110 0.870660
O O7 0.618602 0.350673 0.025275
O O8 0.922387 0.286436 0.274293
O O9 0.899000 0.125076 0.162389
O O10 0.000000 0.232978 0.103797
O O11 0.875828 0.295871 0.060405
O O12 0.840475 0.766975 0.144589
O O13 0.500000 0.592652 0.883803
O O14 0.750000 0.869830 0.250000
O O15 0.876054 0.937952 0.213789
O O16 0.500000 0.002490 0.337895
O O17 0.408027 0.000000 0.500000
#
# Coordination Sequence:
#
# PCOD9416406 Si02
#       7
#     8   8   8   8   8   8   8
#     4   9  20  37  58  83 108 143 191 234 280 335
#     4   9  20  37  58  80 111 153 187 226 279 337
#     4  10  22  37  54  81 115 146 185 235 284 335
#     4   9  18  36  59  81 111 144 183 238 287 333
#     4  11  24  39  53  80 119 152 189 232 274 336
#     4   9  18  36  57  86 116 139 187 243 278 328
#     4  10  19  35  59  84 110 144 186 232 282 333
#
# _framework density 18.050039999999999
#
# number of rings (size 3 to 8) (size 9 to 14) (size 15 to 20)
#    0.000    2.429    1.429    2.143    2.000    2.857 
#    2.571    5.000    0.000    2.571    0.000    0.000 
#    0.000    0.000    0.000    0.000    0.000    0.000 
#
# Total GULP energy -312314.570938 kJ/mol
# GULP energy per Si atom -5577.045910 kJ/mol
# Density = 1.800896 g / cm^3
# Si number density = 18.050040 Si / 1000 Ang^3
#
#
#
# Elastic Constant Matrix: (Units=GPa)
#
#
# Indices 1 2 3 4 5 6 
#
# 1 82.0756 25.4187 36.7205 0.0000 0.0000 0.0000
# 2 25.4187 62.2841 10.6690 0.0000 0.0000 0.0000
# 3 36.7205 10.6690 53.6213 0.0000 0.0000 0.0000
# 4 0.0000 0.0000 0.0000 11.6012 0.0000 0.0000
# 5 0.0000 0.0000 0.0000 0.0000 31.7211 0.0000
# 6 0.0000 0.0000 0.0000 0.0000 0.0000 20.6040
#
#
#
# Elastic Compliance Matrix: (Units=1/GPa)
#
#
# Indices 1 2 3 4 5 6 
#
# 1 0.019427 -0.005849 -0.012140 0.000000 0.000000 0.000000
# 2 -0.005849 0.018383 0.000348 0.000000 0.000000 0.000000
# 3 -0.012140 0.000348 0.026894 0.000000 0.000000 0.000000
# 4 0.000000 0.000000 0.000000 0.086198 0.000000 0.000000
# 5 0.000000 0.000000 0.000000 0.000000 0.031525 0.000000
# 6 0.000000 0.000000 0.000000 0.000000 0.000000 0.048534
#
#
# Mechanical properties :
#
#
# Convention : Reuss Voigt Hill
#
# Bulk Modulus (GPa) = 33.98902 38.17747 36.08324
# Shear Modulus (GPa) = 18.11275 21.13011 19.62143
#
# Velocity S-wave (km/s) = 3.17120 3.42517 3.30063
# Velocity P-wave (km/s) = 5.68155 6.06953 5.87874
#
# Compressibility (1/GPa) = 0.02942127
#
# Stress axis : x y z
#
# Youngs Moduli (GPa) = 51.47599 54.39862 37.18351
#
# Poissons Ratio (x) = 0.31816 0.45140
# Poissons Ratio (y) = 0.30107 -0.01292
# Poissons Ratio (z) = 0.62491 -0.01891
#
# Static dielectric constant tensor:
#      x y z
#    x 1.628820 0.000000 0.000000 
#    y 0.000000 1.623320 0.000000 
#    z 0.000000 0.000000 1.605140 
# 
# From -- ./inp_files/16060.got.cif
#   From: 2010.05.17/outbox.cif.g08.bks.cpg/sg53_9_cif.got.tgz:16060.got - 2010.06.03 12:45:16.
