data_PCOD9416165
_publ_section_title
;
Structure prediction by ZEFSAII (Michael W. Deem and Ramdas Pophale) SiO2 
 PCOD9416165
Probable space group: P M N A
;
_chemical_formula_sum "Si O2"
_cell_formula_units_Z 64
_cell_length_a 7.892495
_cell_length_b 15.133149
_cell_length_c 24.751924
_cell_angle_alpha 90.000000
_cell_angle_beta 90.000000
_cell_angle_gamma 90.000000
_cell_volume 2956.327794
_symmetry_space_group_name_H-M "P M N A"
_symmetry_group_IT_number 53
_symmetry_cell_setting 'orthorhombic'
loop_
_space_group_symop_operation_xyz
x,y,z
1/2-x,-y,1/2+z
x,-y,-z
1/2-x,y,1/2-z
-x,-y,-z
1/2+x,y,1/2-z
-x,y,z
1/2+x,-y,1/2+z
loop_
_atom_site_type_symbol
_atom_site_label
_atom_site_fract_x
_atom_site_fract_y
_atom_site_fract_z
Si Si1 0.208424 0.808128 0.380234
Si Si2 0.806837 0.876298 0.890766
Si Si3 0.293586 0.547808 0.842160
Si Si4 0.203828 0.217246 0.498403
Si Si5 0.804645 0.028364 0.688626
Si Si6 0.297475 0.735105 0.807671
Si Si7 0.793064 0.585198 0.534333
Si Si8 0.296357 0.355472 0.810103
O O1 0.263424 0.813440 0.442519
O O2 0.273034 0.886078 0.341244
O O3 0.260580 0.714874 0.354430
O O4 0.000000 0.810578 0.380893
O O5 0.746914 0.850824 0.950570
O O6 0.787359 0.786975 0.856221
O O7 0.000000 0.905083 0.893345
O O8 0.713120 0.948584 0.854023
O O9 0.500000 0.545190 0.840248
O O10 0.238879 0.633702 0.809319
O O11 0.245834 0.566483 0.903927
O O12 0.229693 0.454135 0.820988
O O13 0.264581 0.317549 0.485040
O O14 0.000000 0.222625 0.500157
O O15 0.750000 0.008297 0.750000
O O16 0.000000 0.049777 0.694875
O O17 0.250000 0.775143 0.750000
O O18 0.500000 0.739014 0.815327
O O19 0.737419 0.500000 0.500000
O O20 0.000000 0.587007 0.531841
O O21 0.250000 0.326158 0.750000
O O22 0.500000 0.359077 0.813647
#
# Coordination Sequence:
#
# PCOD9416165 Si02
#       8
#     8   8   8   8   8   8   8   8
#     4   9  20  37  62  91 118 152 195 246 296 348
#     4  12  25  41  60  86 118 155 195 242 297 352
#     4   9  17  29  49  81 116 151 191 236 285 339
#     4  10  19  37  62  89 120 155 198 243 292 350
#     4  11  23  42  65  91 120 153 196 244 298 357
#     4  11  21  36  56  83 116 154 194 237 288 345
#     4   9  15  26  51  84 114 149 196 244 283 330
#     4  10  19  34  55  84 120 155 197 243 292 349
#
# _framework density 21.648479999999999
#
# number of rings (size 3 to 8) (size 9 to 14) (size 15 to 20)
#    0.000    1.875    1.250    3.750    0.000    3.500 
#    0.000    5.625    0.000    0.375    0.000    0.000 
#    0.000    0.000    0.000    0.000    0.000    0.000 
#
# Total GULP energy -357396.968621 kJ/mol
# GULP energy per Si atom -5584.327635 kJ/mol
# Density = 2.159921 g / cm^3
# Si number density = 21.648480 Si / 1000 Ang^3
#
#
#
# Elastic Constant Matrix: (Units=GPa)
#
#
# Indices 1 2 3 4 5 6 
#
# 1 17.2129 -8.5881 0.6763 0.0000 0.0000 0.0000
# 2 -8.5881 75.9170 32.8432 0.0000 0.0000 0.0000
# 3 0.6763 32.8432 146.0125 0.0000 0.0000 0.0000
# 4 0.0000 0.0000 0.0000 30.2015 0.0000 0.0000
# 5 0.0000 0.0000 0.0000 0.0000 17.6472 0.0000
# 6 0.0000 0.0000 0.0000 0.0000 0.0000 -17.8956
#
#
#
# Elastic Compliance Matrix: (Units=1/GPa)
#
#
# Indices 1 2 3 4 5 6 
#
# 1 0.062131 0.007924 -0.002070 0.000000 0.000000 0.000000
# 2 0.007924 0.015603 -0.003546 0.000000 0.000000 0.000000
# 3 -0.002070 -0.003546 0.007656 0.000000 0.000000 0.000000
# 4 0.000000 0.000000 0.000000 0.033111 0.000000 0.000000
# 5 0.000000 0.000000 0.000000 0.000000 0.056666 0.000000
# 6 0.000000 0.000000 0.000000 0.000000 0.000000 -0.055880
#
#
# Mechanical properties :
#
#
# Convention : Reuss Voigt Hill
#
# Bulk Modulus (GPa) = 11.11049 32.11169 21.61109
# Shear Modulus (GPa) = 34.56048 20.27135 27.41591
#
# Velocity S-wave (km/s) = 3.99988 3.06336 3.56253
# Velocity P-wave (km/s) = 5.14543 5.23237 5.18908
#
# Compressibility (1/GPa) = 0.09000504
#
# Stress axis : x y z
#
# Youngs Moduli (GPa) = 16.09505 64.09069 130.61642
#
# Poissons Ratio (x) = -0.50786 0.27040
# Poissons Ratio (y) = -0.12754 0.46321
# Poissons Ratio (z) = 0.03332 0.22729
#
# Static dielectric constant tensor:
#      x y z
#    x 1.798220 0.000000 0.000000 
#    y 0.000000 1.795810 0.000000 
#    z 0.000000 0.000000 1.764590 
# 
# From -- ./inp_files/34281.got.cif
#   From: 2010.05.17/outbox.cif.g08.bks.cpg/sg53_18_cif.got.tgz:34281.got - 2010.06.03 12:45:16.
