data_PCOD9416311
_publ_section_title
;
Structure prediction by ZEFSAII (Michael W. Deem and Ramdas Pophale) SiO2 
 PCOD9416311
Probable space group: P M N A
;
_chemical_formula_sum "Si O2"
_cell_formula_units_Z 56
_cell_length_a 14.430858
_cell_length_b 9.804665
_cell_length_c 20.980586
_cell_angle_alpha 90.000000
_cell_angle_beta 90.000000
_cell_angle_gamma 90.000000
_cell_volume 2968.537414
_symmetry_space_group_name_H-M "P M N A"
_symmetry_group_IT_number 53
_symmetry_cell_setting 'orthorhombic'
loop_
_space_group_symop_operation_xyz
x,y,z
1/2-x,-y,1/2+z
x,-y,-z
1/2-x,y,1/2-z
-x,-y,-z
1/2+x,y,1/2-z
-x,y,z
1/2+x,-y,1/2+z
loop_
_atom_site_type_symbol
_atom_site_label
_atom_site_fract_x
_atom_site_fract_y
_atom_site_fract_z
Si Si1 0.266133 0.887827 0.053664
Si Si2 0.108772 0.340596 0.499631
Si Si3 0.799386 0.980624 0.183758
Si Si4 0.606872 0.358285 0.143229
Si Si5 0.106063 0.239850 0.887921
Si Si6 0.890534 0.738172 0.782218
Si Si7 0.723398 0.468310 0.680759
O O1 0.161658 0.825479 0.052749
O O2 0.269081 0.955018 0.123905
O O3 0.334650 0.761664 0.043575
O O4 0.280569 0.000000 0.000000
O O5 0.137782 0.500000 0.500000
O O6 0.119823 0.293037 0.426000
O O7 0.000000 0.337642 0.516011
O O8 0.750000 0.949917 0.250000
O O9 0.840613 0.131814 0.187895
O O10 0.881710 0.875149 0.166931
O O11 0.500000 0.407888 0.145854
O O12 0.620227 0.262708 0.204987
O O13 0.681164 0.478640 0.150416
O O14 0.166011 0.366309 0.862707
O O15 0.000000 0.272360 0.899953
O O16 0.839836 0.601067 0.805264
O O17 0.000000 0.735615 0.796295
O O18 0.750000 0.407695 0.750000
#
# Coordination Sequence:
#
# PCOD9416311 Si02
#       7
#     8   8   8   8   8   8   8
#     4  10  25  41  63  89 123 166 204 256 314 368
#     4  10  21  41  65  92 127 166 207 252 315 387
#     4  10  22  40  61  88 122 163 205 253 305 373
#     4   9  19  33  60  94 123 158 204 253 306 369
#     4  10  22  40  60  87 121 161 207 255 310 370
#     4  10  20  35  60  93 123 162 210 259 310 365
#     4  10  19  34  61  90 128 159 200 261 309 368
#
# _framework density 18.864508000000001
#
# number of rings (size 3 to 8) (size 9 to 14) (size 15 to 20)
#    0.857    1.286    0.000    3.429    4.000    1.143 
#    0.000    1.429    0.000    1.286    0.000    0.000 
#    0.000    0.000    0.000    0.000    0.000    0.000 
#
# Total GULP energy -312110.306900 kJ/mol
# GULP energy per Si atom -5573.398338 kJ/mol
# Density = 1.882157 g / cm^3
# Si number density = 18.864508 Si / 1000 Ang^3
#
#
#
# Elastic Constant Matrix: (Units=GPa)
#
#
# Indices 1 2 3 4 5 6 
#
# 1 75.6034 41.2685 21.0491 0.0000 0.0000 0.0000
# 2 41.2685 105.9128 40.9803 0.0000 0.0000 0.0000
# 3 21.0491 40.9803 84.2488 0.0000 0.0000 0.0000
# 4 0.0000 0.0000 0.0000 20.4622 0.0000 0.0000
# 5 0.0000 0.0000 0.0000 0.0000 27.7624 0.0000
# 6 0.0000 0.0000 0.0000 0.0000 0.0000 18.0902
#
#
#
# Elastic Compliance Matrix: (Units=1/GPa)
#
#
# Indices 1 2 3 4 5 6 
#
# 1 0.016907 -0.006102 -0.001256 0.000000 0.000000 0.000000
# 2 -0.006102 0.013833 -0.005204 0.000000 0.000000 0.000000
# 3 -0.001256 -0.005204 0.014715 0.000000 0.000000 0.000000
# 4 0.000000 0.000000 0.000000 0.048871 0.000000 0.000000
# 5 0.000000 0.000000 0.000000 0.000000 0.036020 0.000000
# 6 0.000000 0.000000 0.000000 0.000000 0.000000 0.055279
#
#
# Mechanical properties :
#
#
# Convention : Reuss Voigt Hill
#
# Bulk Modulus (GPa) = 49.18617 52.48451 50.83534
# Shear Modulus (GPa) = 22.98583 24.09409 23.53996
#
# Velocity S-wave (km/s) = 3.49445 3.57770 3.53632
# Velocity P-wave (km/s) = 6.51241 6.70438 6.60910
#
# Compressibility (1/GPa) = 0.02033092
#
# Stress axis : x y z
#
# Youngs Moduli (GPa) = 59.14581 72.29156 67.95871
#
# Poissons Ratio (x) = 0.44111 0.08537
# Poissons Ratio (y) = 0.36090 0.35366
# Poissons Ratio (z) = 0.07430 0.37621
#
# Static dielectric constant tensor:
#      x y z
#    x 1.655280 0.000000 0.000000 
#    y 0.000000 1.656520 0.000000 
#    z 0.000000 0.000000 1.679460 
# 
# From -- ./inp_files/32486.got.cif
#   From: 2010.05.17/outbox.cif.g08.bks.cpg/sg53_17_cif.got.tgz:32486.got - 2010.06.03 12:45:16.
