data_PCOD9416878
_publ_section_title
;
Structure prediction by ZEFSAII (Michael W. Deem and Ramdas Pophale) SiO2 
 PCOD9416878
Probable space group: P M N A
;
_chemical_formula_sum "Si O2"
_cell_formula_units_Z 48
_cell_length_a 24.513572
_cell_length_b 21.743189
_cell_length_c 5.138977
_cell_angle_alpha 90.000000
_cell_angle_beta 90.000000
_cell_angle_gamma 90.000000
_cell_volume 2739.091335
_symmetry_space_group_name_H-M "P M N A"
_symmetry_group_IT_number 53
_symmetry_cell_setting 'orthorhombic'
loop_
_space_group_symop_operation_xyz
x,y,z
1/2-x,-y,1/2+z
x,-y,-z
1/2-x,y,1/2-z
-x,-y,-z
1/2+x,y,1/2-z
-x,y,z
1/2+x,-y,1/2+z
loop_
_atom_site_type_symbol
_atom_site_label
_atom_site_fract_x
_atom_site_fract_y
_atom_site_fract_z
Si Si1 0.629790 0.163929 0.137114
Si Si2 0.375784 0.670430 0.358943
Si Si3 0.311020 0.798041 0.358976
Si Si4 0.787173 0.427112 0.998561
Si Si5 0.935913 0.291108 0.358283
Si Si6 0.063646 0.041621 0.242910
O O1 0.676787 0.178314 0.350257
O O2 0.588454 0.221939 0.136097
O O3 0.598866 0.102430 0.217326
O O4 0.654146 0.162340 0.847706
O O5 0.334543 0.728646 0.353433
O O6 0.341263 0.612569 0.457915
O O7 0.421844 0.684284 0.572449
O O8 0.403248 0.669626 0.075210
O O9 0.250000 0.798348 0.250000
O O10 0.750000 0.413973 0.750000
O O11 0.799291 0.500000 0.000000
O O12 0.750000 0.412036 0.250000
O O13 0.000000 0.291053 0.410826
O O14 0.000000 0.058669 0.199301
O O15 0.066502 0.000000 0.500000
O O16 0.081526 0.000000 0.000000
#
# Coordination Sequence:
#
# PCOD9416878 Si02
#       6
#     8   8   8   8   8   8
#     4  10  20  34  53  76 102 132 166 208 255 303
#     4  10  20  33  53  78 104 136 171 212 258 305
#     4  10  20  33  52  76 102 133 167 207 253 301
#     4  10  20  34  54  79 107 138 172 215 263 309
#     4  10  20  34  53  77 105 136 170 211 258 307
#     4  10  20  34  54  77 100 128 163 207 255 301
#
# _framework density 17.524059000000001
#
# number of rings (size 3 to 8) (size 9 to 14) (size 15 to 20)
#    0.000    2.000    0.000    4.000    0.000    2.667 
#    0.000    5.000    0.000   13.000    0.000    0.000 
#    0.000    0.000    0.000    0.000    0.000    0.000 
#
# Total GULP energy -267843.038331 kJ/mol
# GULP energy per Si atom -5580.063299 kJ/mol
# Density = 1.748417 g / cm^3
# Si number density = 17.524059 Si / 1000 Ang^3
#
#
#
# Elastic Constant Matrix: (Units=GPa)
#
#
# Indices 1 2 3 4 5 6 
#
# 1 81.7562 35.3524 12.2129 0.0000 0.0000 0.0000
# 2 35.3524 47.4387 23.6064 0.0000 0.0000 0.0000
# 3 12.2129 23.6064 97.0345 0.0000 0.0000 0.0000
# 4 0.0000 0.0000 0.0000 45.8146 0.0000 0.0000
# 5 0.0000 0.0000 0.0000 0.0000 -2.7405 0.0000
# 6 0.0000 0.0000 0.0000 0.0000 0.0000 -16.3333
#
#
#
# Elastic Compliance Matrix: (Units=1/GPa)
#
#
# Indices 1 2 3 4 5 6 
#
# 1 0.018158 -0.014102 0.001145 0.000000 0.000000 0.000000
# 2 -0.014102 0.034935 -0.006724 0.000000 0.000000 0.000000
# 3 0.001145 -0.006724 0.011797 0.000000 0.000000 0.000000
# 4 0.000000 0.000000 0.000000 0.021827 0.000000 0.000000
# 5 0.000000 0.000000 0.000000 0.000000 -0.364900 0.000000
# 6 0.000000 0.000000 0.000000 0.000000 0.000000 -0.061225
#
#
# Mechanical properties :
#
#
# Convention : Reuss Voigt Hill
#
# Bulk Modulus (GPa) = 39.17090 40.95254 40.06172
# Shear Modulus (GPa) = -17.15053 15.68533 -0.73260
#
# Velocity S-wave (km/s) = -3.13179 2.99502 -0.64727
# Velocity P-wave (km/s) = 3.05347 5.94813 4.72779
#
# Compressibility (1/GPa) = 0.02552916
#
# Stress axis : x y z
#
# Youngs Moduli (GPa) = 55.07156 28.62472 84.76530
#
# Poissons Ratio (x) = 0.40366 -0.09708
# Poissons Ratio (y) = 0.77661 0.56996
# Poissons Ratio (z) = -0.06307 0.19247
#
# Static dielectric constant tensor:
#      x y z
#    x 1.501540 0.000000 0.000000 
#    y 0.000000 1.588720 0.000000 
#    z 0.000000 0.000000 1.599740 
# 
# From -- ./inp_files/3736.got.cif
#   From: 2010.05.17/outbox.cif.g08.bks.cpg/sg53_2_cif.got.tgz:3736.got - 2010.06.03 12:45:16.
