data_PCOD9416851
_publ_section_title
;
Structure prediction by ZEFSAII (Michael W. Deem and Ramdas Pophale) SiO2 
 PCOD9416851
Probable space group: P M N A
;
_chemical_formula_sum "Si O2"
_cell_formula_units_Z 64
_cell_length_a 7.555145
_cell_length_b 9.635978
_cell_length_c 42.059175
_cell_angle_alpha 90.000000
_cell_angle_beta 90.000000
_cell_angle_gamma 90.000000
_cell_volume 3061.958874
_symmetry_space_group_name_H-M "P M N A"
_symmetry_group_IT_number 53
_symmetry_cell_setting 'orthorhombic'
loop_
_space_group_symop_operation_xyz
x,y,z
1/2-x,-y,1/2+z
x,-y,-z
1/2-x,y,1/2-z
-x,-y,-z
1/2+x,y,1/2-z
-x,y,z
1/2+x,-y,1/2+z
loop_
_atom_site_type_symbol
_atom_site_label
_atom_site_fract_x
_atom_site_fract_y
_atom_site_fract_z
Si Si1 0.786684 0.842920 0.963992
Si Si2 0.711975 0.342020 0.213953
Si Si3 0.709999 0.656384 0.095860
Si Si4 0.717107 0.840604 0.154829
Si Si5 0.790001 0.343615 0.404140
Si Si6 0.711975 0.342021 0.786047
Si Si7 0.282893 0.840604 0.845171
Si Si8 0.786684 0.842920 0.036008
O O1 0.733880 0.732804 0.937649
O O2 0.000000 0.845761 0.964584
O O3 0.726440 1.000000 0.955899
O O4 0.726699 0.811064 0.000000
O O5 0.750000 0.297148 0.250000
O O6 0.500000 0.348897 0.210665
O O7 0.780373 0.500000 0.209953
O O8 0.775522 0.238367 0.186760
O O9 0.500000 0.645385 0.101329
O O10 0.778433 0.753378 0.124253
O O11 0.782800 0.500000 0.096055
O O12 0.733880 0.732804 0.062351
O O13 0.500000 0.842087 0.154671
O O14 0.775522 0.761632 0.186760
O O15 0.774595 1.000000 0.153620
O O16 0.721567 0.246622 0.375747
O O17 0.000000 0.354615 0.398671
O O18 0.750000 0.297148 0.750000
O O19 0.500000 0.348897 0.789335
O O20 0.500000 0.842088 0.845329
O O21 0.000000 0.845761 0.035416
#
# Coordination Sequence:
#
# PCOD9416851 Si02
#       8
#     8   8   8   8   8   8   8   8
#     4   9  19  36  55  74  99 132 167 202 244 295
#     4   9  17  30  48  69  94 124 157 194 238 288
#     4  10  20  33  51  76 103 130 164 206 248 292
#     4   9  17  30  49  71  95 126 163 201 242 288
#     4  10  20  33  51  76 103 130 164 206 248 292
#     4   9  17  30  48  69  94 124 157 194 238 288
#     4   9  17  30  49  71  95 126 163 201 242 288
#     4   9  19  36  55  74  99 132 167 202 244 295
#
# _framework density 20.901654000000001
#
# number of rings (size 3 to 8) (size 9 to 14) (size 15 to 20)
#    0.000    2.750    0.000    2.250    0.000    6.500 
#    0.000    5.000    0.000    4.500    0.000    0.000 
#    0.000    0.000    0.000    0.000    0.000    0.000 
#
# Total GULP energy -357313.697799 kJ/mol
# GULP energy per Si atom -5583.026528 kJ/mol
# Density = 2.085408 g / cm^3
# Si number density = 20.901654 Si / 1000 Ang^3
#
#
#
# Elastic Constant Matrix: (Units=GPa)
#
#
# Indices 1 2 3 4 5 6 
#
# 1 47.3303 7.0170 -1.7886 0.0000 0.0000 0.0000
# 2 7.0170 206.0862 152.3170 0.0000 0.0000 0.0000
# 3 -1.7886 152.3170 180.5645 0.0000 0.0000 0.0000
# 4 0.0000 0.0000 0.0000 42.7922 0.0000 0.0000
# 5 0.0000 0.0000 0.0000 0.0000 20.3397 0.0000
# 6 0.0000 0.0000 0.0000 0.0000 0.0000 8.9374
#
#
#
# Elastic Compliance Matrix: (Units=1/GPa)
#
#
# Indices 1 2 3 4 5 6 
#
# 1 0.021563 -0.002369 0.002212 0.000000 0.000000 0.000000
# 2 -0.002369 0.013147 -0.011114 0.000000 0.000000 0.000000
# 3 0.002212 -0.011114 0.014935 0.000000 0.000000 0.000000
# 4 0.000000 0.000000 0.000000 0.023369 0.000000 0.000000
# 5 0.000000 0.000000 0.000000 0.000000 0.049165 0.000000
# 6 0.000000 0.000000 0.000000 0.000000 0.000000 0.111889
#
#
# Mechanical properties :
#
#
# Convention : Reuss Voigt Hill
#
# Bulk Modulus (GPa) = 36.89550 83.23021 60.06285
# Shear Modulus (GPa) = 18.82214 32.84292 25.83253
#
# Velocity S-wave (km/s) = 3.00410 3.96827 3.51936
# Velocity P-wave (km/s) = 5.45189 7.80401 6.73148
#
# Compressibility (1/GPa) = 0.02710357
#
# Stress axis : x y z
#
# Youngs Moduli (GPa) = 46.37588 76.06138 66.95498
#
# Poissons Ratio (x) = 0.18020 -0.14811
# Poissons Ratio (y) = 0.10987 0.74414
# Poissons Ratio (z) = -0.10259 0.84534
#
# Static dielectric constant tensor:
#      x y z
#    x 1.762840 0.000000 0.000000 
#    y 0.000000 1.726520 0.000000 
#    z 0.000000 0.000000 1.714000 
# 
# From -- ./inp_files/38718.got.cif
#   From: 2010.05.17/outbox.cif.g08.bks.cpg/sg53_20_cif.got.tgz:38718.got - 2010.06.03 12:45:16.
