data_PCOD9416864
_publ_section_title
;
Structure prediction by ZEFSAII (Michael W. Deem and Ramdas Pophale) SiO2 
 PCOD9416864
Probable space group: P M N A
;
_chemical_formula_sum "Si O2"
_cell_formula_units_Z 40
_cell_length_a 9.069723
_cell_length_b 13.763108
_cell_length_c 18.652575
_cell_angle_alpha 90.000000
_cell_angle_beta 90.000000
_cell_angle_gamma 90.000000
_cell_volume 2328.355745
_symmetry_space_group_name_H-M "P M N A"
_symmetry_group_IT_number 53
_symmetry_cell_setting 'orthorhombic'
loop_
_space_group_symop_operation_xyz
x,y,z
1/2-x,-y,1/2+z
x,-y,-z
1/2-x,y,1/2-z
-x,-y,-z
1/2+x,y,1/2-z
-x,y,z
1/2+x,-y,1/2+z
loop_
_atom_site_type_symbol
_atom_site_label
_atom_site_fract_x
_atom_site_fract_y
_atom_site_fract_z
Si Si1 0.323134 0.100680 0.463394
Si Si2 0.824367 0.307018 0.969071
Si Si3 0.825674 0.395919 0.395202
Si Si4 0.174019 0.815753 0.674116
Si Si5 0.676086 0.583477 0.326001
O O1 0.500000 0.098747 0.452858
O O2 0.289624 0.195182 0.512247
O O3 0.244969 0.118929 0.387908
O O4 0.278502 0.000000 0.500000
O O5 0.791803 0.337651 0.887953
O O6 0.000000 0.321428 0.980906
O O7 0.737844 0.373868 0.025779
O O8 0.803425 0.296031 0.350998
O O9 0.740410 0.482632 0.356626
O O10 0.000000 0.416639 0.398406
O O11 0.250000 0.831646 0.750000
O O12 0.000000 0.832683 0.678893
O O13 0.750000 0.605508 0.250000
O O14 0.500000 0.575687 0.317501
#
# Coordination Sequence:
#
# PCOD9416864 Si02
#       5
#     8   8   8   8   8
#     4   9  18  35  58  78  99 131 169 209 255 305
#     4   9  19  35  53  74 101 133 169 208 251 301
#     4  10  20  33  52  77 103 133 169 207 249 298
#     4  10  20  33  51  77 106 133 164 207 255 300
#     4  11  22  34  49  71 102 138 172 206 246 293
#
# _framework density 17.179504999999999
#
# number of rings (size 3 to 8) (size 9 to 14) (size 15 to 20)
#    0.000    2.200    0.000    3.000    0.000    8.400 
#    0.000    1.000    0.000    2.400    0.000    0.000 
#    0.000    0.000    0.000    0.000    0.000    0.000 
#
# Total GULP energy -223333.321674 kJ/mol
# GULP energy per Si atom -5583.333042 kJ/mol
# Density = 1.714040 g / cm^3
# Si number density = 17.179505 Si / 1000 Ang^3
#
#
#
# Elastic Constant Matrix: (Units=GPa)
#
#
# Indices 1 2 3 4 5 6 
#
# 1 64.6752 55.4188 87.2339 0.0000 0.0000 0.0000
# 2 55.4188 81.4314 82.9024 0.0000 0.0000 0.0000
# 3 87.2339 82.9024 191.2121 0.0000 0.0000 0.0000
# 4 0.0000 0.0000 0.0000 18.1781 0.0000 0.0000
# 5 0.0000 0.0000 0.0000 0.0000 36.2836 0.0000
# 6 0.0000 0.0000 0.0000 0.0000 0.0000 8.3165
#
#
#
# Elastic Compliance Matrix: (Units=1/GPa)
#
#
# Indices 1 2 3 4 5 6 
#
# 1 0.055340 -0.021409 -0.015965 0.000000 0.000000 0.000000
# 2 -0.021409 0.030266 -0.003355 0.000000 0.000000 0.000000
# 3 -0.015965 -0.003355 0.013968 0.000000 0.000000 0.000000
# 4 0.000000 0.000000 0.000000 0.055011 0.000000 0.000000
# 5 0.000000 0.000000 0.000000 0.000000 0.027561 0.000000
# 6 0.000000 0.000000 0.000000 0.000000 0.000000 0.120243
#
#
# Mechanical properties :
#
#
# Convention : Reuss Voigt Hill
#
# Bulk Modulus (GPa) = 55.19929 87.60323 71.40126
# Shear Modulus (GPa) = 12.82425 20.00654 16.41540
#
# Velocity S-wave (km/s) = 2.73515 3.41626 3.09451
# Velocity P-wave (km/s) = 6.49426 8.16485 7.37700
#
# Compressibility (1/GPa) = 0.01811617
#
# Stress axis : x y z
#
# Youngs Moduli (GPa) = 18.07002 33.04031 71.59244
#
# Poissons Ratio (x) = 0.70736 1.14297
# Poissons Ratio (y) = 0.38686 0.24020
# Poissons Ratio (z) = 0.28849 0.11086
#
# Static dielectric constant tensor:
#      x y z
#    x 1.570440 0.000000 0.000000 
#    y 0.000000 1.567620 0.000000 
#    z 0.000000 0.000000 1.560980 
# 
# From -- ./inp_files/19828.got.cif
#   From: 2010.05.17/outbox.cif.g08.bks.cpg/sg53_10_cif.got.tgz:19828.got - 2010.06.03 12:45:16.
