data_PCOD9416556
_publ_section_title
;
Structure prediction by ZEFSAII (Michael W. Deem and Ramdas Pophale) SiO2 
 PCOD9416556
Probable space group: P M N A
;
_chemical_formula_sum "Si O2"
_cell_formula_units_Z 56
_cell_length_a 13.883058
_cell_length_b 7.109707
_cell_length_c 28.273192
_cell_angle_alpha 90.000000
_cell_angle_beta 90.000000
_cell_angle_gamma 90.000000
_cell_volume 2790.690563
_symmetry_space_group_name_H-M "P M N A"
_symmetry_group_IT_number 53
_symmetry_cell_setting 'orthorhombic'
loop_
_space_group_symop_operation_xyz
x,y,z
1/2-x,-y,1/2+z
x,-y,-z
1/2-x,y,1/2-z
-x,-y,-z
1/2+x,y,1/2-z
-x,y,z
1/2+x,-y,1/2+z
loop_
_atom_site_type_symbol
_atom_site_label
_atom_site_fract_x
_atom_site_fract_y
_atom_site_fract_z
Si Si1 0.113166 0.865711 0.456711
Si Si2 0.779375 0.597473 0.047370
Si Si3 0.112654 0.097147 0.896835
Si Si4 0.608624 0.074510 0.144263
Si Si5 0.672368 0.626130 0.312887
Si Si6 0.204034 0.296501 0.131059
Si Si7 0.609885 0.290292 0.793181
O O1 0.171446 0.673478 0.458583
O O2 0.126824 0.964833 0.405559
O O3 0.000000 0.167607 0.537804
O O4 0.144639 0.000000 0.500000
O O5 0.836958 0.785329 0.061526
O O6 0.784198 0.445664 0.088913
O O7 0.815090 0.500000 0.000000
O O8 0.136447 0.221645 0.850512
O O9 0.000000 0.091422 0.904924
O O10 0.151857 0.889040 0.887942
O O11 0.500000 0.152296 0.142007
O O12 0.612226 0.922147 0.186397
O O13 0.692477 0.224948 0.149182
O O14 0.647184 0.414490 0.329034
O O15 0.789870 0.627084 0.313751
O O16 0.628841 0.683912 0.262586
O O17 0.500000 0.359160 0.804609
#
# Coordination Sequence:
#
# PCOD9416556 Si02
#       7
#     8   8   8   8   8   8   8
#     4  10  20  37  65  97 133 177 214 251 315 394
#     4  11  24  39  66  96 129 165 210 268 319 378
#     4  11  24  44  66  88 123 166 214 269 324 383
#     4  10  19  36  64  93 129 170 210 259 321 379
#     4  10  22  41  65  91 127 168 212 264 317 385
#     4  11  22  41  64  92 124 171 213 258 323 381
#     4  10  20  39  64  92 129 167 206 261 319 374
#
# _framework density 20.066718999999999
#
# number of rings (size 3 to 8) (size 9 to 14) (size 15 to 20)
#    0.000    1.571    2.857    2.143    0.000    4.571 
#    5.143    0.714    0.000    0.000    0.000    0.000 
#    0.000    0.000    0.000    0.000    0.000    0.000 
#
# Total GULP energy -312521.494310 kJ/mol
# GULP energy per Si atom -5580.740970 kJ/mol
# Density = 2.002105 g / cm^3
# Si number density = 20.066719 Si / 1000 Ang^3
#
#
#
# Elastic Constant Matrix: (Units=GPa)
#
#
# Indices 1 2 3 4 5 6 
#
# 1 82.7509 40.0192 9.6382 0.0000 0.0000 0.0000
# 2 40.0192 126.6954 47.4434 0.0000 0.0000 0.0000
# 3 9.6382 47.4434 90.0518 0.0000 0.0000 0.0000
# 4 0.0000 0.0000 0.0000 24.6306 0.0000 0.0000
# 5 0.0000 0.0000 0.0000 0.0000 20.0064 0.0000
# 6 0.0000 0.0000 0.0000 0.0000 0.0000 -6.7132
#
#
#
# Elastic Compliance Matrix: (Units=1/GPa)
#
#
# Indices 1 2 3 4 5 6 
#
# 1 0.014344 -0.004928 0.001061 0.000000 0.000000 0.000000
# 2 -0.004928 0.011526 -0.005545 0.000000 0.000000 0.000000
# 3 0.001061 -0.005545 0.013912 0.000000 0.000000 0.000000
# 4 0.000000 0.000000 0.000000 0.040600 0.000000 0.000000
# 5 0.000000 0.000000 0.000000 0.000000 0.049984 0.000000
# 6 0.000000 0.000000 0.000000 0.000000 0.000000 -0.148960
#
#
# Mechanical properties :
#
#
# Convention : Reuss Voigt Hill
#
# Bulk Modulus (GPa) = 47.71307 54.85554 51.28430
# Shear Modulus (GPa) = 692.81268 21.07791 356.94530
#
# Velocity S-wave (km/s) = 18.60119 3.24449 13.35161
# Velocity P-wave (km/s) = 22.02652 6.43673 16.22651
#
# Compressibility (1/GPa) = 0.02095862
#
# Stress axis : x y z
#
# Youngs Moduli (GPa) = 69.71446 86.75994 71.87782
#
# Poissons Ratio (x) = 0.42758 -0.07628
# Poissons Ratio (y) = 0.34357 0.39856
# Poissons Ratio (z) = -0.07398 0.48108
#
# Static dielectric constant tensor:
#      x y z
#    x 1.727660 0.000000 0.000000 
#    y 0.000000 1.693170 0.000000 
#    z 0.000000 0.000000 1.728450 
# 
# From -- ./inp_files/38862.got.cif
#   From: 2010.05.17/outbox.cif.g08.bks.cpg/sg53_20_cif.got.tgz:38862.got - 2010.06.03 12:45:16.
