data_PCOD9416575
_publ_section_title
;
Structure prediction by ZEFSAII (Michael W. Deem and Ramdas Pophale) SiO2 
 PCOD9416575
Probable space group: P M N A
;
_chemical_formula_sum "Si O2"
_cell_formula_units_Z 64
_cell_length_a 8.713913
_cell_length_b 24.712655
_cell_length_c 14.967244
_cell_angle_alpha 90.000000
_cell_angle_beta 90.000000
_cell_angle_gamma 90.000000
_cell_volume 3223.105079
_symmetry_space_group_name_H-M "P M N A"
_symmetry_group_IT_number 53
_symmetry_cell_setting 'orthorhombic'
loop_
_space_group_symop_operation_xyz
x,y,z
1/2-x,-y,1/2+z
x,-y,-z
1/2-x,y,1/2-z
-x,-y,-z
1/2+x,y,1/2-z
-x,y,z
1/2+x,-y,1/2+z
loop_
_atom_site_type_symbol
_atom_site_label
_atom_site_fract_x
_atom_site_fract_y
_atom_site_fract_z
Si Si1 0.179134 0.512296 0.105597
Si Si2 0.815319 0.882433 0.539890
Si Si3 0.820064 0.595870 0.657411
Si Si4 0.816892 0.975709 0.844151
Si Si5 0.683256 0.319019 0.470200
Si Si6 0.183493 0.903293 0.343236
Si Si7 0.316366 0.223680 0.150495
Si Si8 0.684548 0.364401 0.653718
O O1 0.285702 0.467754 0.151074
O O2 0.225865 0.573432 0.128865
O O3 0.000000 0.504585 0.132658
O O4 0.186947 0.500000 0.000000
O O5 0.736767 0.936354 0.577330
O O6 0.776799 0.873291 0.435620
O O7 0.770542 0.832515 0.602791
O O8 0.000000 0.889306 0.545277
O O9 0.750000 0.616846 0.750000
O O10 0.730275 0.625350 0.578236
O O11 0.000000 0.607082 0.652255
O O12 0.750000 0.953996 0.750000
O O13 0.000000 0.978606 0.839603
O O14 0.748166 0.035756 0.853891
O O15 0.500000 0.312990 0.467675
O O16 0.759398 0.271679 0.413307
O O17 0.734471 0.325411 0.572870
O O18 0.250000 0.881281 0.250000
O O19 0.000000 0.906061 0.335338
O O20 0.250000 0.228039 0.250000
O O21 0.500000 0.225415 0.155973
O O22 0.750000 0.350400 0.750000
O O23 0.500000 0.362889 0.656531
#
# Coordination Sequence:
#
# PCOD9416575 Si02
#       8
#     8   8   8   8   8   8   8   8
#     4  10  19  37  59  84 120 157 190 234 286 341
#     4  10  22  39  59  84 118 156 196 242 296 350
#     4  12  24  37  57  86 117 153 193 235 285 344
#     4  11  21  33  54  85 121 159 200 244 291 349
#     4  11  23  43  64  85 114 152 193 239 294 346
#     4  10  20  36  57  83 118 160 200 243 291 343
#     4  11  24  43  65  91 118 149 189 240 295 351
#     4  10  22  39  62  87 117 155 193 237 288 341
#
# _framework density 19.856629999999999
#
# number of rings (size 3 to 8) (size 9 to 14) (size 15 to 20)
#    0.000    1.375    1.250    5.625    0.000    7.250 
#    0.000    0.625    0.000    3.000    0.000    0.000 
#    0.000    0.000    0.000    0.000    0.000    0.000 
#
# Total GULP energy -357761.693128 kJ/mol
# GULP energy per Si atom -5590.026455 kJ/mol
# Density = 1.981144 g / cm^3
# Si number density = 19.856630 Si / 1000 Ang^3
#
#
#
# Elastic Constant Matrix: (Units=GPa)
#
#
# Indices 1 2 3 4 5 6 
#
# 1 37.7765 16.1593 33.4323 0.0000 0.0000 0.0000
# 2 16.1593 52.1497 39.8259 0.0000 0.0000 0.0000
# 3 33.4323 39.8259 170.8899 0.0000 0.0000 0.0000
# 4 0.0000 0.0000 0.0000 32.4206 0.0000 0.0000
# 5 0.0000 0.0000 0.0000 0.0000 32.4326 0.0000
# 6 0.0000 0.0000 0.0000 0.0000 0.0000 136.2528
#
#
#
# Elastic Compliance Matrix: (Units=1/GPa)
#
#
# Indices 1 2 3 4 5 6 
#
# 1 0.033781 -0.006594 -0.005072 0.000000 0.000000 0.000000
# 2 -0.006594 0.024614 -0.004446 0.000000 0.000000 0.000000
# 3 -0.005072 -0.004446 0.007880 0.000000 0.000000 0.000000
# 4 0.000000 0.000000 0.000000 0.030845 0.000000 0.000000
# 5 0.000000 0.000000 0.000000 0.000000 0.030833 0.000000
# 6 0.000000 0.000000 0.000000 0.000000 0.000000 0.007339
#
#
# Mechanical properties :
#
#
# Convention : Reuss Voigt Hill
#
# Bulk Modulus (GPa) = 29.36799 48.85013 39.10906
# Shear Modulus (GPa) = 27.95361 51.64776 39.80069
#
# Velocity S-wave (km/s) = 3.75610 5.10557 4.48191
# Velocity P-wave (km/s) = 5.79941 7.70782 6.82069
#
# Compressibility (1/GPa) = 0.03405068
#
# Stress axis : x y z
#
# Youngs Moduli (GPa) = 29.60250 40.62657 126.89998
#
# Poissons Ratio (x) = 0.26789 0.64364
# Poissons Ratio (y) = 0.19520 0.56424
# Poissons Ratio (z) = 0.15014 0.18064
#
# Static dielectric constant tensor:
#      x y z
#    x 1.667870 0.000000 0.000000 
#    y 0.000000 1.691240 0.000000 
#    z 0.000000 0.000000 1.712440 
# 
# From -- ./inp_files/20878.got.cif
#   From: 2010.05.17/outbox.cif.g08.bks.cpg/sg53_11_cif.got.tgz:20878.got - 2010.06.03 12:45:16.
