data_PCOD9416547
_publ_section_title
;
Structure prediction by ZEFSAII (Michael W. Deem and Ramdas Pophale) SiO2 
 PCOD9416547
Probable space group: P M N A
;
_chemical_formula_sum "Si O2"
_cell_formula_units_Z 64
_cell_length_a 18.900808
_cell_length_b 18.730551
_cell_length_c 9.412338
_cell_angle_alpha 90.000000
_cell_angle_beta 90.000000
_cell_angle_gamma 90.000000
_cell_volume 3332.179883
_symmetry_space_group_name_H-M "P M N A"
_symmetry_group_IT_number 53
_symmetry_cell_setting 'orthorhombic'
loop_
_space_group_symop_operation_xyz
x,y,z
1/2-x,-y,1/2+z
x,-y,-z
1/2-x,y,1/2-z
-x,-y,-z
1/2+x,y,1/2-z
-x,y,z
1/2+x,-y,1/2+z
loop_
_atom_site_type_symbol
_atom_site_label
_atom_site_fract_x
_atom_site_fract_y
_atom_site_fract_z
Si Si1 0.831733 0.562212 0.202273
Si Si2 0.078293 0.224057 0.524236
Si Si3 0.834528 0.405126 0.236416
Si Si4 0.582517 0.171101 0.653416
Si Si5 0.157380 0.698395 0.997079
Si Si6 0.918821 0.605593 0.475681
Si Si7 0.775002 0.804977 0.588825
Si Si8 0.288999 0.069284 0.598956
O O1 0.750000 0.562883 0.250000
O O2 0.845626 0.480415 0.155851
O O3 0.882766 0.574859 0.335781
O O4 0.840168 0.629615 0.098897
O O5 0.090802 0.191897 0.680848
O O6 0.079995 0.309076 0.540396
O O7 0.141343 0.203372 0.420847
O O8 0.000000 0.202349 0.475374
O O9 0.750000 0.394971 0.250000
O O10 0.864348 0.336800 0.152634
O O11 0.870907 0.411598 0.388572
O O12 0.500000 0.156873 0.626067
O O13 0.608579 0.239309 0.560881
O O14 0.634185 0.104910 0.623793
O O15 0.233945 0.735810 0.974615
O O16 0.000000 0.582164 0.494071
O O17 0.750000 0.814875 0.750000
O O18 0.753407 0.870649 0.489160
O O19 0.250000 0.056201 0.750000
O O20 0.292966 0.000000 0.500000
#
# Coordination Sequence:
#
# PCOD9416547 Si02
#       8
#     8   8   8   8   8   8   8   8
#     4  11  22  36  58  81 118 167 217 266 325 387
#     4  10  19  36  63  91 124 164 210 259 310 369
#     4  11  23  39  54  85 123 163 211 272 328 382
#     4  10  22  40  64  94 127 164 208 255 307 373
#     4  11  22  35  61  88 119 159 214 269 318 373
#     4  11  23  39  60  86 119 163 213 264 321 384
#     4  11  22  39  64  98 129 162 208 262 310 367
#     4  11  23  42  69 100 133 171 206 245 298 364
#
# _framework density 19.206647
#
# number of rings (size 3 to 8) (size 9 to 14) (size 15 to 20)
#    0.000    1.250    2.500    4.500    0.000    3.750 
#    0.000    3.750    0.000    5.250    0.000    0.000 
#    0.000    0.000    0.000    0.000    0.000    0.000 
#
# Total GULP energy -357521.952165 kJ/mol
# GULP energy per Si atom -5586.280503 kJ/mol
# Density = 1.916293 g / cm^3
# Si number density = 19.206647 Si / 1000 Ang^3
#
#
#
# Elastic Constant Matrix: (Units=GPa)
#
#
# Indices 1 2 3 4 5 6 
#
# 1 136.6190 39.8804 60.0704 0.0000 0.0000 0.0000
# 2 39.8804 128.0414 52.6965 0.0000 0.0000 0.0000
# 3 60.0704 52.6965 110.1327 0.0000 0.0000 0.0000
# 4 0.0000 0.0000 0.0000 24.0455 0.0000 0.0000
# 5 0.0000 0.0000 0.0000 0.0000 24.4234 0.0000
# 6 0.0000 0.0000 0.0000 0.0000 0.0000 1.8908
#
#
#
# Elastic Compliance Matrix: (Units=1/GPa)
#
#
# Indices 1 2 3 4 5 6 
#
# 1 0.009742 -0.001055 -0.004809 0.000000 0.000000 0.000000
# 2 -0.001055 0.009839 -0.004132 0.000000 0.000000 0.000000
# 3 -0.004809 -0.004132 0.013680 0.000000 0.000000 0.000000
# 4 0.000000 0.000000 0.000000 0.041588 0.000000 0.000000
# 5 0.000000 0.000000 0.000000 0.000000 0.040944 0.000000
# 6 0.000000 0.000000 0.000000 0.000000 0.000000 0.528888
#
#
# Mechanical properties :
#
#
# Convention : Reuss Voigt Hill
#
# Bulk Modulus (GPa) = 75.36507 75.56530 75.46519
# Shear Modulus (GPa) = 7.47276 24.88166 16.17721
#
# Velocity S-wave (km/s) = 1.97463 3.60317 2.90534
# Velocity P-wave (km/s) = 6.67256 7.53254 7.11556
#
# Compressibility (1/GPa) = 0.01326875
#
# Stress axis : x y z
#
# Youngs Moduli (GPa) = 102.64796 101.63265 73.09885
#
# Poissons Ratio (x) = 0.10724 0.35152
# Poissons Ratio (y) = 0.10832 0.30207
# Poissons Ratio (z) = 0.49361 0.41999
#
# Static dielectric constant tensor:
#      x y z
#    x 1.657900 0.000000 0.000000 
#    y 0.000000 1.661980 0.000000 
#    z 0.000000 0.000000 1.671700 
# 
# From -- ./inp_files/10261.got.cif
#   From: 2010.05.17/outbox.cif.g08.bks.cpg/sg53_6_cif.got.tgz:10261.got - 2010.06.03 12:45:16.
