data_PCOD9416637
_publ_section_title
;
Structure prediction by ZEFSAII (Michael W. Deem and Ramdas Pophale) SiO2 
 PCOD9416637
Probable space group: P M N A
;
_chemical_formula_sum "Si O2"
_cell_formula_units_Z 64
_cell_length_a 18.375059
_cell_length_b 12.737996
_cell_length_c 14.288361
_cell_angle_alpha 90.000000
_cell_angle_beta 90.000000
_cell_angle_gamma 90.000000
_cell_volume 3344.354180
_symmetry_space_group_name_H-M "P M N A"
_symmetry_group_IT_number 53
_symmetry_cell_setting 'orthorhombic'
loop_
_space_group_symop_operation_xyz
x,y,z
1/2-x,-y,1/2+z
x,-y,-z
1/2-x,y,1/2-z
-x,-y,-z
1/2+x,y,1/2-z
-x,y,z
1/2+x,-y,1/2+z
loop_
_atom_site_type_symbol
_atom_site_label
_atom_site_fract_x
_atom_site_fract_y
_atom_site_fract_z
Si Si1 0.824027 0.275312 0.193626
Si Si2 0.585629 0.897364 0.806583
Si Si3 0.825424 0.678922 0.193994
Si Si4 0.759386 0.274429 0.004165
Si Si5 0.388249 0.824413 0.009503
Si Si6 0.082417 0.868096 0.278557
Si Si7 0.623146 0.399422 0.059656
Si Si8 0.586208 0.467320 0.270054
O O1 0.750000 0.302272 0.250000
O O2 0.867672 0.193760 0.258316
O O3 0.872112 0.377742 0.172282
O O4 0.802483 0.230817 0.092729
O O5 0.500000 0.878973 0.790298
O O6 0.597614 0.895279 0.918950
O O7 0.605335 0.011076 0.765559
O O8 0.750000 0.662451 0.250000
O O9 0.805653 0.692041 0.084922
O O10 0.864633 0.782834 0.233538
O O11 0.877250 0.579666 0.212805
O O12 0.698268 0.190079 0.974832
O O13 0.708595 0.370536 0.043137
O O14 0.413282 0.707748 0.976667
O O15 0.419890 0.853075 0.109033
O O16 0.000000 0.853921 0.242663
O O17 0.602924 0.427740 0.164664
O O18 0.603128 0.500000 0.000000
O O19 0.500000 0.470129 0.285695
#
# Coordination Sequence:
#
# PCOD9416637 Si02
#       8
#     8   8   8   8   8   8   8   8
#     4  12  21  41  66  95 126 165 212 265 315 378
#     4  11  23  41  65  94 133 168 208 265 324 381
#     4  12  24  44  65  92 130 169 212 259 314 381
#     4  10  23  39  62  98 123 167 208 268 317 367
#     4  10  19  38  63  97 128 158 209 264 327 378
#     4  11  24  42  64  93 130 172 211 260 323 384
#     4  10  20  36  60  92 127 159 203 255 320 374
#     4  12  25  40  65  93 129 170 208 259 317 381
#
# _framework density 19.13673
#
# number of rings (size 3 to 8) (size 9 to 14) (size 15 to 20)
#    0.750    0.250    5.000    3.375    1.750    2.250 
#    0.000    3.750    0.000    1.500    0.000    0.000 
#    0.000    0.000    0.000    0.000    0.000    0.000 
#
# Total GULP energy -357180.759666 kJ/mol
# GULP energy per Si atom -5580.949370 kJ/mol
# Density = 1.909317 g / cm^3
# Si number density = 19.136730 Si / 1000 Ang^3
#
#
#
# Elastic Constant Matrix: (Units=GPa)
#
#
# Indices 1 2 3 4 5 6 
#
# 1 118.7735 64.4527 25.6614 0.0000 0.0000 0.0000
# 2 64.4527 97.4619 9.0740 0.0000 0.0000 0.0000
# 3 25.6614 9.0740 67.6690 0.0000 0.0000 0.0000
# 4 0.0000 0.0000 0.0000 10.5029 0.0000 0.0000
# 5 0.0000 0.0000 0.0000 0.0000 2.0562 0.0000
# 6 0.0000 0.0000 0.0000 0.0000 0.0000 14.3851
#
#
#
# Elastic Compliance Matrix: (Units=1/GPa)
#
#
# Indices 1 2 3 4 5 6 
#
# 1 0.014211 -0.009009 -0.004181 0.000000 0.000000 0.000000
# 2 -0.009009 0.016101 0.001257 0.000000 0.000000 0.000000
# 3 -0.004181 0.001257 0.016195 0.000000 0.000000 0.000000
# 4 0.000000 0.000000 0.000000 0.095212 0.000000 0.000000
# 5 0.000000 0.000000 0.000000 0.000000 0.486326 0.000000
# 6 0.000000 0.000000 0.000000 0.000000 0.000000 0.069516
#
#
# Mechanical properties :
#
#
# Convention : Reuss Voigt Hill
#
# Bulk Modulus (GPa) = 44.16635 53.58673 48.87654
# Shear Modulus (GPa) = 6.85895 17.70327 12.28111
#
# Velocity S-wave (km/s) = 1.89525 3.04483 2.53604
# Velocity P-wave (km/s) = 5.28382 6.35800 5.84564
#
# Compressibility (1/GPa) = 0.02264167
#
# Stress axis : x y z
#
# Youngs Moduli (GPa) = 70.36568 62.10771 61.74815
#
# Poissons Ratio (x) = 0.55952 0.25818
# Poissons Ratio (y) = 0.63392 -0.07764
# Poissons Ratio (z) = 0.29422 -0.07809
#
# Static dielectric constant tensor:
#      x y z
#    x 1.689350 0.000000 0.000000 
#    y 0.000000 1.675490 0.000000 
#    z 0.000000 0.000000 1.671910 
# 
# From -- ./inp_files/23913.got.cif
#   From: 2010.05.17/outbox.cif.g08.bks.cpg/sg53_12_cif.got.tgz:23913.got - 2010.06.03 12:45:16.
