data_PCOD9416536
_publ_section_title
;
Structure prediction by ZEFSAII (Michael W. Deem and Ramdas Pophale) SiO2 
 PCOD9416536
Probable space group: P M N A
;
_chemical_formula_sum "Si O2"
_cell_formula_units_Z 58
_cell_length_a 7.585285
_cell_length_b 12.851588
_cell_length_c 26.677990
_cell_angle_alpha 90.000000
_cell_angle_beta 90.000000
_cell_angle_gamma 90.000000
_cell_volume 2600.649370
_symmetry_space_group_name_H-M "P M N A"
_symmetry_group_IT_number 53
_symmetry_cell_setting 'orthorhombic'
loop_
_space_group_symop_operation_xyz
x,y,z
1/2-x,-y,1/2+z
x,-y,-z
1/2-x,y,1/2-z
-x,-y,-z
1/2+x,y,1/2-z
-x,y,z
1/2+x,-y,1/2+z
loop_
_atom_site_type_symbol
_atom_site_label
_atom_site_fract_x
_atom_site_fract_y
_atom_site_fract_z
Si Si1 0.294624 0.021488 0.583429
Si Si2 0.806527 0.013851 0.194892
Si Si3 0.792346 0.532944 0.804645
Si Si4 0.783689 0.246151 0.546489
Si Si5 0.784856 0.694099 0.563463
Si Si6 0.297634 0.465157 0.911933
Si Si7 0.792932 0.232775 0.329329
Si Si8 0.500000 0.000000 0.000000
O O1 0.500000 0.984583 0.579096
O O2 0.222268 0.006689 0.640374
O O3 0.292082 0.144951 0.572260
O O4 0.156371 0.977779 0.542717
O O5 0.750000 0.977103 0.250000
O O6 0.000000 0.969739 0.188026
O O7 0.805950 0.139408 0.197018
O O8 0.750000 0.489236 0.750000
O O9 0.500000 0.531462 0.687249
O O10 0.707001 0.476288 0.851990
O O11 0.730554 0.652861 0.806505
O O12 0.733907 0.254611 0.488324
O O13 0.725264 0.354788 0.570993
O O14 0.000000 0.234560 0.548260
O O15 0.721940 0.573884 0.567296
O O16 0.729807 0.754593 0.613243
O O17 0.000000 0.690114 0.565514
O O18 0.500000 0.463040 0.929886
O O19 0.000000 0.207773 0.328190
#
# Coordination Sequence:
#
# PCOD9416536 Si02
#       8
#     8   8   8   8   8   8   8   2
#     4  11  27  45  68 102 132 171 221 275 329 397
#     4  11  25  43  65  92 127 168 217 271 327 393
#     4  11  21  35  54  78 113 152 198 254 310 365
#     4  10  19  36  62  89 123 166 204 252 315 374
#     4   8  16  30  55  89 121 160 203 242 294 372
#     4   9  18  34  56  85 119 157 202 242 294 371
#     4  10  20  34  58  88 121 157 201 249 312 383
#     4  12  26  48  76  94 138 172 218 274 344 394
#
# _framework density 22.302123000000002
#
# number of rings (size 3 to 8) (size 9 to 14) (size 15 to 20)
#    0.000    1.931    0.690    3.931    3.862    2.207 
#    0.000    3.448    0.000    5.793    0.000    0.000 
#    0.000    0.000    0.000    0.000    0.000    0.000 
#
# Total GULP energy -323414.256714 kJ/mol
# GULP energy per Si atom -5576.107874 kJ/mol
# Density = 2.225136 g / cm^3
# Si number density = 22.302123 Si / 1000 Ang^3
#
#
#
# Elastic Constant Matrix: (Units=GPa)
#
#
# Indices 1 2 3 4 5 6 
#
# 1 98.7031 -0.1041 14.1034 0.0000 0.0000 0.0000
# 2 -0.1041 61.1320 25.1513 0.0000 0.0000 0.0000
# 3 14.1034 25.1513 157.0839 0.0000 0.0000 0.0000
# 4 0.0000 0.0000 0.0000 12.7737 0.0000 0.0000
# 5 0.0000 0.0000 0.0000 0.0000 22.5794 0.0000
# 6 0.0000 0.0000 0.0000 0.0000 0.0000 9.6682
#
#
#
# Elastic Compliance Matrix: (Units=1/GPa)
#
#
# Indices 1 2 3 4 5 6 
#
# 1 0.010273 0.000425 -0.000990 0.000000 0.000000 0.000000
# 2 0.000425 0.017529 -0.002845 0.000000 0.000000 0.000000
# 3 -0.000990 -0.002845 0.006910 0.000000 0.000000 0.000000
# 4 0.000000 0.000000 0.000000 0.078286 0.000000 0.000000
# 5 0.000000 0.000000 0.000000 0.000000 0.044288 0.000000
# 6 0.000000 0.000000 0.000000 0.000000 0.000000 0.103432
#
#
# Mechanical properties :
#
#
# Convention : Reuss Voigt Hill
#
# Bulk Modulus (GPa) = 35.85195 43.91336 39.88265
# Shear Modulus (GPa) = 18.06118 27.52217 22.79168
#
# Velocity S-wave (km/s) = 2.84886 3.51673 3.20026
# Velocity P-wave (km/s) = 5.18959 6.01854 5.61937
#
# Compressibility (1/GPa) = 0.02789248
#
# Stress axis : x y z
#
# Youngs Moduli (GPa) = 97.33919 57.04766 144.70860
#
# Poissons Ratio (x) = -0.02424 0.14332
# Poissons Ratio (y) = -0.04137 0.41167
# Poissons Ratio (z) = 0.09641 0.16229
#
# Static dielectric constant tensor:
#      x y z
#    x 1.874610 0.000000 0.000000 
#    y 0.000000 1.825990 0.000000 
#    z 0.000000 0.000000 1.853810 
# 
# From -- ./inp_files/34124.got.cif
#   From: 2010.05.17/outbox.cif.g08.bks.cpg/sg53_18_cif.got.tgz:34124.got - 2010.06.03 12:45:16.
