data_PCOD9416969
_publ_section_title
;
Structure prediction by ZEFSAII (Michael W. Deem and Ramdas Pophale) SiO2 
 PCOD9416969
Probable space group: P M N A
;
_chemical_formula_sum "Si O2"
_cell_formula_units_Z 64
_cell_length_a 8.765831
_cell_length_b 17.049388
_cell_length_c 24.434128
_cell_angle_alpha 90.000000
_cell_angle_beta 90.000000
_cell_angle_gamma 90.000000
_cell_volume 3651.730614
_symmetry_space_group_name_H-M "P M N A"
_symmetry_group_IT_number 53
_symmetry_cell_setting 'orthorhombic'
loop_
_space_group_symop_operation_xyz
x,y,z
1/2-x,-y,1/2+z
x,-y,-z
1/2-x,y,1/2-z
-x,-y,-z
1/2+x,y,1/2-z
-x,y,z
1/2+x,-y,1/2+z
loop_
_atom_site_type_symbol
_atom_site_label
_atom_site_fract_x
_atom_site_fract_y
_atom_site_fract_z
Si Si1 0.821304 0.878699 0.693047
Si Si2 0.182431 0.817623 0.527443
Si Si3 0.681498 0.148628 0.584903
Si Si4 0.316904 0.754943 0.310814
Si Si5 0.818250 0.732340 0.869458
Si Si6 0.178066 0.020300 0.414690
Si Si7 0.817698 0.581444 0.688280
Si Si8 0.817212 0.420394 0.811263
O O1 0.750000 0.904654 0.750000
O O2 0.734468 0.801937 0.671245
O O3 0.808937 0.944252 0.646235
O O4 0.000000 0.859513 0.699333
O O5 0.238824 0.808067 0.465843
O O6 0.259664 0.759676 0.570985
O O7 0.221656 0.906923 0.546376
O O8 0.000000 0.810540 0.532153
O O9 0.500000 0.159067 0.580842
O O10 0.733109 0.183009 0.643486
O O11 0.724187 0.057387 0.580386
O O12 0.250000 0.765957 0.250000
O O13 0.500000 0.759335 0.305380
O O14 0.281373 0.666783 0.332619
O O15 0.741828 0.652881 0.848183
O O16 0.000000 0.725206 0.868970
O O17 0.000000 0.000998 0.425527
O O18 0.750000 0.589969 0.750000
O O19 0.758476 0.498257 0.664474
O O20 0.000000 0.581411 0.691917
O O21 0.750000 0.418125 0.750000
O O22 0.000000 0.430136 0.810005
#
# Coordination Sequence:
#
# PCOD9416969 Si02
#       8
#     8   8   8   8   8   8   8   8
#     4  10  20  34  50  71 103 140 175 212 258 308
#     4  10  21  38  56  75 101 134 172 214 260 306
#     4  11  22  35  54  80 104 131 170 214 258 307
#     4   9  20  36  54  78 108 137 168 208 255 306
#     4  11  21  34  52  75 103 136 173 212 255 301
#     4   9  20  36  52  72 100 134 172 216 261 303
#     4  11  20  31  49  77 109 139 173 210 250 299
#     4   9  16  30  50  73 102 135 169 207 251 297
#
# _framework density 17.525938
#
# number of rings (size 3 to 8) (size 9 to 14) (size 15 to 20)
#    0.000    2.000    0.000    6.000    0.000    6.500 
#    0.000    2.500    0.000    0.750    0.000    5.250 
#    0.000    0.000    0.000    0.000    0.000    0.000 
#
# Total GULP energy -357156.493929 kJ/mol
# GULP energy per Si atom -5580.570218 kJ/mol
# Density = 1.748605 g / cm^3
# Si number density = 17.525938 Si / 1000 Ang^3
#
#
#
# Elastic Constant Matrix: (Units=GPa)
#
#
# Indices 1 2 3 4 5 6 
#
# 1 92.4192 30.5385 38.5385 0.0000 0.0000 0.0000
# 2 30.5385 56.3045 35.9903 0.0000 0.0000 0.0000
# 3 38.5385 35.9903 99.5549 0.0000 0.0000 0.0000
# 4 0.0000 0.0000 0.0000 8.4383 0.0000 0.0000
# 5 0.0000 0.0000 0.0000 0.0000 26.3638 0.0000
# 6 0.0000 0.0000 0.0000 0.0000 0.0000 -107.1221
#
#
#
# Elastic Compliance Matrix: (Units=1/GPa)
#
#
# Indices 1 2 3 4 5 6 
#
# 1 0.014059 -0.005393 -0.003493 0.000000 0.000000 0.000000
# 2 -0.005393 0.025167 -0.007011 0.000000 0.000000 0.000000
# 3 -0.003493 -0.007011 0.013931 0.000000 0.000000 0.000000
# 4 0.000000 0.000000 0.000000 0.118507 0.000000 0.000000
# 5 0.000000 0.000000 0.000000 0.000000 0.037931 0.000000
# 6 0.000000 0.000000 0.000000 0.000000 0.000000 -0.009335
#
#
# Mechanical properties :
#
#
# Convention : Reuss Voigt Hill
#
# Bulk Modulus (GPa) = 46.80608 50.93480 48.87044
# Shear Modulus (GPa) = 20.90545 -4.91657 7.99444
#
# Velocity S-wave (km/s) = 3.45748 -1.67672 2.13808
# Velocity P-wave (km/s) = 6.53480 5.03757 5.83441
#
# Compressibility (1/GPa) = 0.02136474
#
# Stress axis : x y z
#
# Youngs Moduli (GPa) = 71.13084 39.73532 71.78150
#
# Poissons Ratio (x) = 0.21427 0.25071
# Poissons Ratio (y) = 0.38357 0.50323
# Poissons Ratio (z) = 0.24844 0.27857
#
# Static dielectric constant tensor:
#      x y z
#    x 1.587290 0.000000 0.000000 
#    y 0.000000 1.611130 0.000000 
#    z 0.000000 0.000000 1.583710 
# 
# From -- ./inp_files/34484.got.cif
#   From: 2010.05.17/outbox.cif.g08.bks.cpg/sg53_18_cif.got.tgz:34484.got - 2010.06.03 12:45:16.
