data_PCOD9416183
_publ_section_title
;
Structure prediction by ZEFSAII (Michael W. Deem and Ramdas Pophale) SiO2 
 PCOD9416183
Probable space group: P M N A
;
_chemical_formula_sum "Si O2"
_cell_formula_units_Z 32
_cell_length_a 8.487336
_cell_length_b 9.513036
_cell_length_c 21.069723
_cell_angle_alpha 90.000000
_cell_angle_beta 90.000000
_cell_angle_gamma 90.000000
_cell_volume 1701.176449
_symmetry_space_group_name_H-M "P M N A"
_symmetry_group_IT_number 53
_symmetry_cell_setting 'orthorhombic'
loop_
_space_group_symop_operation_xyz
x,y,z
1/2-x,-y,1/2+z
x,-y,-z
1/2-x,y,1/2-z
-x,-y,-z
1/2+x,y,1/2-z
-x,y,z
1/2+x,-y,1/2+z
loop_
_atom_site_type_symbol
_atom_site_label
_atom_site_fract_x
_atom_site_fract_y
_atom_site_fract_z
Si Si1 0.310827 0.594123 0.319481
Si Si2 0.807721 0.589548 0.939098
Si Si3 0.809160 0.913299 0.937602
Si Si4 0.812372 0.090535 0.680292
O O1 0.250000 0.552506 0.250000
O O2 0.500000 0.597952 0.318398
O O3 0.258642 0.488618 0.374702
O O4 0.250873 0.751912 0.332561
O O5 0.757310 0.751309 0.941949
O O6 0.000000 0.589702 0.939832
O O7 0.755648 0.500000 0.000000
O O8 0.000000 0.915656 0.935431
O O9 0.746386 0.987724 0.874583
O O10 0.759899 0.000000 0.000000
O O11 0.750000 0.049122 0.750000
O O12 0.000000 0.094402 0.682032
#
# Coordination Sequence:
#
# PCOD9416183 Si02
#       4
#     8   8   8   8
#     4  10  19  34  56  80 108 140 178 222 271 325
#     4   9  18  33  55  82 108 139 181 224 266 319
#     4  10  20  36  59  84 112 146 183 224 272 325
#     4  11  22  37  57  81 111 145 185 227 272 325
#
# _framework density 18.810511999999999
#
# number of rings (size 3 to 8) (size 9 to 14) (size 15 to 20)
#    0.000    2.000    0.000    6.000    0.000    5.500 
#    0.000    5.000    0.000    5.250    0.000    0.000 
#    0.000    0.000    0.000    0.000    0.000    0.000 
#
# Total GULP energy -178764.328877 kJ/mol
# GULP energy per Si atom -5586.385277 kJ/mol
# Density = 1.876770 g / cm^3
# Si number density = 18.810512 Si / 1000 Ang^3
#
#
#
# Elastic Constant Matrix: (Units=GPa)
#
#
# Indices 1 2 3 4 5 6 
#
# 1 48.8561 37.4311 38.1478 0.0000 0.0000 0.0000
# 2 37.4311 174.5802 153.9262 0.0000 0.0000 0.0000
# 3 38.1478 153.9262 191.5994 0.0000 0.0000 0.0000
# 4 0.0000 0.0000 0.0000 43.4725 0.0000 0.0000
# 5 0.0000 0.0000 0.0000 0.0000 31.2980 0.0000
# 6 0.0000 0.0000 0.0000 0.0000 0.0000 25.5490
#
#
#
# Elastic Compliance Matrix: (Units=1/GPa)
#
#
# Indices 1 2 3 4 5 6 
#
# 1 0.024779 -0.003301 -0.002281 0.000000 0.000000 0.000000
# 2 -0.003301 0.020079 -0.015473 0.000000 0.000000 0.000000
# 3 -0.002281 -0.015473 0.018104 0.000000 0.000000 0.000000
# 4 0.000000 0.000000 0.000000 0.023003 0.000000 0.000000
# 5 0.000000 0.000000 0.000000 0.000000 0.031951 0.000000
# 6 0.000000 0.000000 0.000000 0.000000 0.000000 0.039141
#
#
# Mechanical properties :
#
#
# Convention : Reuss Voigt Hill
#
# Bulk Modulus (GPa) = 47.96202 97.11622 72.53912
# Shear Modulus (GPa) = 24.25791 32.43260 28.34526
#
# Velocity S-wave (km/s) = 3.59499 4.15682 3.88607
# Velocity P-wave (km/s) = 6.54100 8.64752 7.66695
#
# Compressibility (1/GPa) = 0.02084983
#
# Stress axis : x y z
#
# Youngs Moduli (GPa) = 40.35695 49.80421 55.23530
#
# Poissons Ratio (x) = 0.16442 0.12601
# Poissons Ratio (y) = 0.13323 0.85468
# Poissons Ratio (z) = 0.09207 0.77064
#
# Static dielectric constant tensor:
#      x y z
#    x 1.645150 0.000000 0.000000 
#    y 0.000000 1.627690 0.000000 
#    z 0.000000 0.000000 1.629770 
# 
# From -- ./inp_files/30005.got.cif
#   From: 2010.05.17/outbox.cif.g08.bks.cpg/sg53_16_cif.got.tgz:30005.got - 2010.06.03 12:45:16.
