data_PCOD9416976
_publ_section_title
;
Structure prediction by ZEFSAII (Michael W. Deem and Ramdas Pophale) SiO2 
 PCOD9416976
Probable space group: P M N A
;
_chemical_formula_sum "Si O2"
_cell_formula_units_Z 40
_cell_length_a 8.194570
_cell_length_b 27.311213
_cell_length_c 9.769590
_cell_angle_alpha 90.000000
_cell_angle_beta 90.000000
_cell_angle_gamma 90.000000
_cell_volume 2186.469869
_symmetry_space_group_name_H-M "P M N A"
_symmetry_group_IT_number 53
_symmetry_cell_setting 'orthorhombic'
loop_
_space_group_symop_operation_xyz
x,y,z
1/2-x,-y,1/2+z
x,-y,-z
1/2-x,y,1/2-z
-x,-y,-z
1/2+x,y,1/2-z
-x,y,z
1/2+x,-y,1/2+z
loop_
_atom_site_type_symbol
_atom_site_label
_atom_site_fract_x
_atom_site_fract_y
_atom_site_fract_z
Si Si1 0.696648 0.848172 0.408532
Si Si2 0.302365 0.741427 0.408005
Si Si3 0.804873 0.455617 0.406710
Si Si4 0.695098 0.347964 0.406828
Si Si5 0.802383 0.045014 0.908091
O O1 0.750000 0.848131 0.250000
O O2 0.500000 0.848185 0.415864
O O3 0.752958 0.795143 0.462192
O O4 0.753024 0.901227 0.461875
O O5 0.250000 0.736491 0.250000
O O6 0.500000 0.741074 0.410915
O O7 0.242428 0.696208 0.498786
O O8 0.742031 0.500000 0.500000
O O9 0.750000 0.461638 0.250000
O O10 0.749909 0.401807 0.454192
O O11 0.000000 0.456407 0.409245
O O12 0.750000 0.341821 0.250000
O O13 0.500000 0.347113 0.409062
O O14 0.750000 0.039892 0.750000
O O15 0.000000 0.044661 0.910810
O O16 0.742893 0.000000 0.000000
#
# Coordination Sequence:
#
# PCOD9416976 Si02
#       5
#     8   8   8   8   8
#     4   8  14  27  45  64  89 119 152 190 231 274
#     4   9  18  31  49  72  94 120 156 196 234 274
#     4  10  21  36  54  75  98 126 159 193 231 275
#     4  10  20  34  51  71  97 128 158 189 231 279
#     4   9  17  29  46  67  91 121 155 192 234 278
#
# _framework density 18.294331
#
# number of rings (size 3 to 8) (size 9 to 14) (size 15 to 20)
#    0.000    2.800    0.000    2.400    0.000    4.400 
#    0.000    5.000    0.000    0.000    0.000    0.000 
#    0.000    0.000    0.000    0.000    0.000    0.000 
#
# Total GULP energy -222772.723388 kJ/mol
# GULP energy per Si atom -5569.318085 kJ/mol
# Density = 1.825269 g / cm^3
# Si number density = 18.294331 Si / 1000 Ang^3
#
#
#
# Elastic Constant Matrix: (Units=GPa)
#
#
# Indices 1 2 3 4 5 6 
#
# 1 19.7669 19.4497 4.7269 0.0000 0.0000 0.0000
# 2 19.4497 245.7177 88.4387 0.0000 0.0000 0.0000
# 3 4.7269 88.4387 51.1333 0.0000 0.0000 0.0000
# 4 0.0000 0.0000 0.0000 37.3989 0.0000 0.0000
# 5 0.0000 0.0000 0.0000 0.0000 16.7011 0.0000
# 6 0.0000 0.0000 0.0000 0.0000 0.0000 -113.9031
#
#
#
# Elastic Compliance Matrix: (Units=1/GPa)
#
#
# Indices 1 2 3 4 5 6 
#
# 1 0.055681 -0.006768 0.006558 0.000000 0.000000 0.000000
# 2 -0.006768 0.011604 -0.019443 0.000000 0.000000 0.000000
# 3 0.006558 -0.019443 0.052579 0.000000 0.000000 0.000000
# 4 0.000000 0.000000 0.000000 0.026739 0.000000 0.000000
# 5 0.000000 0.000000 0.000000 0.000000 0.059876 0.000000
# 6 0.000000 0.000000 0.000000 0.000000 0.000000 -0.008779
#
#
# Mechanical properties :
#
#
# Convention : Reuss Voigt Hill
#
# Bulk Modulus (GPa) = 12.41354 60.20540 36.30947
# Shear Modulus (GPa) = 18.94958 1.63953 10.29455
#
# Velocity S-wave (km/s) = 3.22190 0.94770 2.37474
# Velocity P-wave (km/s) = 4.54324 5.84622 5.23543
#
# Compressibility (1/GPa) = 0.08055718
#
# Stress axis : x y z
#
# Youngs Moduli (GPa) = 17.95957 86.18079 19.01886
#
# Poissons Ratio (x) = 0.58325 -0.12473
# Poissons Ratio (y) = 0.12155 0.36979
# Poissons Ratio (z) = -0.11778 1.67565
#
# Static dielectric constant tensor:
#      x y z
#    x 1.633910 0.000000 0.000000 
#    y 0.000000 1.700280 0.000000 
#    z 0.000000 0.000000 1.581540 
# 
# From -- ./inp_files/6436.got.cif
#   From: 2010.05.17/outbox.cif.g08.bks.cpg/sg53_4_cif.got.tgz:6436.got - 2010.06.03 12:45:16.
