data_PCOD9416497
_publ_section_title
;
Structure prediction by ZEFSAII (Michael W. Deem and Ramdas Pophale) SiO2 
 PCOD9416497
Probable space group: P M N A
;
_chemical_formula_sum "Si O2"
_cell_formula_units_Z 56
_cell_length_a 15.045807
_cell_length_b 16.925691
_cell_length_c 10.242510
_cell_angle_alpha 90.000000
_cell_angle_beta 90.000000
_cell_angle_gamma 90.000000
_cell_volume 2608.364563
_symmetry_space_group_name_H-M "P M N A"
_symmetry_group_IT_number 53
_symmetry_cell_setting 'orthorhombic'
loop_
_space_group_symop_operation_xyz
x,y,z
1/2-x,-y,1/2+z
x,-y,-z
1/2-x,y,1/2-z
-x,-y,-z
1/2+x,y,1/2-z
-x,y,z
1/2+x,-y,1/2+z
loop_
_atom_site_type_symbol
_atom_site_label
_atom_site_fract_x
_atom_site_fract_y
_atom_site_fract_z
Si Si1 0.344698 0.257027 0.986032
Si Si2 0.895544 0.978029 0.856390
Si Si3 0.632705 0.739748 0.466851
Si Si4 0.138434 0.564996 0.104696
Si Si5 0.102193 0.813112 0.755214
Si Si6 0.144337 0.431720 0.597859
Si Si7 0.857521 0.142633 0.741012
O O1 0.354291 0.232984 0.136059
O O2 0.239646 0.261151 0.959428
O O3 0.381653 0.343431 0.948169
O O4 0.381624 0.188356 0.891555
O O5 0.887518 0.053205 0.762584
O O6 0.000000 0.960666 0.878593
O O7 0.857573 0.898647 0.792203
O O8 0.857235 0.000000 0.000000
O O9 0.604470 0.651769 0.431624
O O10 0.605463 0.764274 0.611094
O O11 0.605587 0.804988 0.360834
O O12 0.247025 0.566901 0.099132
O O13 0.114677 0.550094 0.254989
O O14 0.109444 0.500000 0.000000
O O15 0.000000 0.824658 0.714904
O O16 0.114510 0.500000 0.500000
O O17 0.750000 0.140997 0.750000
#
# Coordination Sequence:
#
# PCOD9416497 Si02
#       7
#     8   8   8   8   8   8   8
#     4  10  21  36  56  86 117 145 181 232 282 329
#     4  10  21  39  59  79 107 146 192 234 274 330
#     4  10  19  36  59  83 114 149 185 227 275 329
#     4   9  17  29  51  85 115 142 183 223 264 326
#     4  11  24  39  56  81 111 146 191 234 274 333
#     4   9  17  30  50  82 120 146 172 222 279 322
#     4  10  20  36  58  84 114 145 181 230 284 335
#
# _framework density 21.469391000000002
#
# number of rings (size 3 to 8) (size 9 to 14) (size 15 to 20)
#    0.000    2.143    2.857    0.429    2.000    2.286 
#    0.000    1.429    0.000    0.857    0.000    0.000 
#    0.000    0.000    0.000    0.000    0.000    0.000 
#
# Total GULP energy -312831.995689 kJ/mol
# GULP energy per Si atom -5586.285637 kJ/mol
# Density = 2.142053 g / cm^3
# Si number density = 21.469391 Si / 1000 Ang^3
#
#
#
# Elastic Constant Matrix: (Units=GPa)
#
#
# Indices 1 2 3 4 5 6 
#
# 1 42.2480 -2.7441 -6.5945 0.0000 0.0000 0.0000
# 2 -2.7441 150.1409 87.0390 0.0000 0.0000 0.0000
# 3 -6.5945 87.0390 166.3043 0.0000 0.0000 0.0000
# 4 0.0000 0.0000 0.0000 37.4218 0.0000 0.0000
# 5 0.0000 0.0000 0.0000 0.0000 -27.7384 0.0000
# 6 0.0000 0.0000 0.0000 0.0000 0.0000 -36.4198
#
#
#
# Elastic Compliance Matrix: (Units=1/GPa)
#
#
# Indices 1 2 3 4 5 6 
#
# 1 0.023820 -0.000161 0.001029 0.000000 0.000000 0.000000
# 2 -0.000161 0.009563 -0.005011 0.000000 0.000000 0.000000
# 3 0.001029 -0.005011 0.008677 0.000000 0.000000 0.000000
# 4 0.000000 0.000000 0.000000 0.026722 0.000000 0.000000
# 5 0.000000 0.000000 0.000000 0.000000 -0.036051 0.000000
# 6 0.000000 0.000000 0.000000 0.000000 0.000000 -0.027458
#
#
# Mechanical properties :
#
#
# Convention : Reuss Voigt Hill
#
# Bulk Modulus (GPa) = 29.61015 57.12155 43.36585
# Shear Modulus (GPa) = 201.47623 13.38556 107.43089
#
# Velocity S-wave (km/s) = 9.69779 2.49965 7.08151
# Velocity P-wave (km/s) = 11.79907 5.91564 9.33308
#
# Compressibility (1/GPa) = 0.03377220
#
# Stress axis : x y z
#
# Youngs Moduli (GPa) = 41.98171 104.57516 115.25305
#
# Poissons Ratio (x) = 0.01685 -0.11858
# Poissons Ratio (y) = 0.00676 0.57755
# Poissons Ratio (z) = -0.04319 0.52404
#
# Static dielectric constant tensor:
#      x y z
#    x 1.847940 0.000000 0.000000 
#    y 0.000000 1.753730 0.000000 
#    z 0.000000 0.000000 1.738870 
# 
# From -- ./inp_files/11043.got.cif
#   From: 2010.05.17/outbox.cif.g08.bks.cpg/sg53_6_cif.got.tgz:11043.got - 2010.06.03 12:45:16.
