data_PCOD9416290
_publ_section_title
;
Structure prediction by ZEFSAII (Michael W. Deem and Ramdas Pophale) SiO2 
 PCOD9416290
Probable space group: P M N A
;
_chemical_formula_sum "Si O2"
_cell_formula_units_Z 48
_cell_length_a 7.504867
_cell_length_b 12.237752
_cell_length_c 22.644906
_cell_angle_alpha 90.000000
_cell_angle_beta 90.000000
_cell_angle_gamma 90.000000
_cell_volume 2079.769334
_symmetry_space_group_name_H-M "P M N A"
_symmetry_group_IT_number 53
_symmetry_cell_setting 'orthorhombic'
loop_
_space_group_symop_operation_xyz
x,y,z
1/2-x,-y,1/2+z
x,-y,-z
1/2-x,y,1/2-z
-x,-y,-z
1/2+x,y,1/2-z
-x,y,z
1/2+x,-y,1/2+z
loop_
_atom_site_type_symbol
_atom_site_label
_atom_site_fract_x
_atom_site_fract_y
_atom_site_fract_z
Si Si1 0.784034 0.141879 0.342559
Si Si2 0.216960 0.265187 0.584787
Si Si3 0.212189 0.900756 0.314543
Si Si4 0.201250 0.616380 0.816029
Si Si5 0.203801 0.509096 0.933170
Si Si6 0.283418 0.118693 0.022451
O O1 0.713342 0.252401 0.314556
O O2 0.730097 0.140836 0.411070
O O3 0.000000 0.146009 0.338238
O O4 0.719864 0.025354 0.317838
O O5 0.277189 0.179774 0.634659
O O6 0.291692 0.385531 0.590657
O O7 0.270178 0.212889 0.522350
O O8 0.000000 0.272116 0.586802
O O9 0.250000 0.855503 0.250000
O O10 0.000000 0.908984 0.323597
O O11 0.250000 0.576742 0.750000
O O12 0.288145 0.578631 0.878758
O O13 0.000000 0.579427 0.823213
O O14 0.000000 0.548576 0.942701
O O15 0.284100 0.500000 0.000000
O O16 0.500000 0.115149 0.021895
O O17 0.223057 0.000000 0.000000
#
# Coordination Sequence:
#
# PCOD9416290 Si02
#       6
#     8   8   8   8   8   8
#     4  10  19  34  59  87 117 151 188 234 287 344
#     4  10  20  35  58  86 112 143 187 232 277 336
#     4  10  21  35  52  79 114 150 185 226 277 333
#     4  11  24  41  61  85 116 155 200 248 298 352
#     4  10  23  43  63  84 116 154 191 241 301 352
#     4   9  15  29  55  85 116 147 181 226 281 337
#
# _framework density 23.079481999999999
#
# number of rings (size 3 to 8) (size 9 to 14) (size 15 to 20)
#    0.000    2.000    1.667    2.000    0.000    5.000 
#    0.000    3.333    0.000    1.000    0.000    0.000 
#    0.000    0.000    0.000    0.000    0.000    0.000 
#
# Total GULP energy -268047.073177 kJ/mol
# GULP energy per Si atom -5584.314025 kJ/mol
# Density = 2.302695 g / cm^3
# Si number density = 23.079482 Si / 1000 Ang^3
#
#
#
# Elastic Constant Matrix: (Units=GPa)
#
#
# Indices 1 2 3 4 5 6 
#
# 1 61.5347 -7.5948 5.3365 0.0000 0.0000 0.0000
# 2 -7.5948 93.0175 28.3799 0.0000 0.0000 0.0000
# 3 5.3365 28.3799 180.5293 0.0000 0.0000 0.0000
# 4 0.0000 0.0000 0.0000 41.3910 0.0000 0.0000
# 5 0.0000 0.0000 0.0000 0.0000 13.4843 0.0000
# 6 0.0000 0.0000 0.0000 0.0000 0.0000 18.6340
#
#
#
# Elastic Compliance Matrix: (Units=1/GPa)
#
#
# Indices 1 2 3 4 5 6 
#
# 1 0.016509 0.001572 -0.000735 0.000000 0.000000 0.000000
# 2 0.001572 0.011442 -0.001845 0.000000 0.000000 0.000000
# 3 -0.000735 -0.001845 0.005851 0.000000 0.000000 0.000000
# 4 0.000000 0.000000 0.000000 0.024160 0.000000 0.000000
# 5 0.000000 0.000000 0.000000 0.000000 0.074160 0.000000
# 6 0.000000 0.000000 0.000000 0.000000 0.000000 0.053665
#
#
# Mechanical properties :
#
#
# Convention : Reuss Voigt Hill
#
# Bulk Modulus (GPa) = 31.46078 43.03608 37.24843
# Shear Modulus (GPa) = 25.20175 35.29918 30.25047
#
# Velocity S-wave (km/s) = 3.30806 3.91508 3.62430
# Velocity P-wave (km/s) = 5.31527 6.25496 5.80416
#
# Compressibility (1/GPa) = 0.03178561
#
# Stress axis : x y z
#
# Youngs Moduli (GPa) = 60.57375 87.39718 170.90883
#
# Poissons Ratio (x) = -0.13741 0.12565
# Poissons Ratio (y) = -0.09524 0.31536
# Poissons Ratio (z) = 0.04453 0.16127
#
# Static dielectric constant tensor:
#      x y z
#    x 1.897990 0.000000 0.000000 
#    y 0.000000 1.819810 0.000000 
#    z 0.000000 0.000000 1.902580 
# 
# From -- ./inp_files/33880.got.cif
#   From: 2010.05.17/outbox.cif.g08.bks.cpg/sg53_17_cif.got.tgz:33880.got - 2010.06.03 12:45:16.
