data_PCOD9416080
_publ_section_title
;
Structure prediction by ZEFSAII (Michael W. Deem and Ramdas Pophale) SiO2 
 PCOD9416080
Probable space group: P M N A
;
_chemical_formula_sum "Si O2"
_cell_formula_units_Z 44
_cell_length_a 18.081053
_cell_length_b 9.323871
_cell_length_c 14.771351
_cell_angle_alpha 90.000000
_cell_angle_beta 90.000000
_cell_angle_gamma 90.000000
_cell_volume 2490.234201
_symmetry_space_group_name_H-M "P M N A"
_symmetry_group_IT_number 53
_symmetry_cell_setting 'orthorhombic'
loop_
_space_group_symop_operation_xyz
x,y,z
1/2-x,-y,1/2+z
x,-y,-z
1/2-x,y,1/2-z
-x,-y,-z
1/2+x,y,1/2-z
-x,y,z
1/2+x,-y,1/2+z
loop_
_atom_site_type_symbol
_atom_site_label
_atom_site_fract_x
_atom_site_fract_y
_atom_site_fract_z
Si Si1 0.203128 0.513399 0.603509
Si Si2 0.584985 0.420677 0.258829
Si Si3 0.725062 0.000000 0.500000
Si Si4 0.843896 0.724733 0.912431
Si Si5 0.415430 0.688144 0.398925
Si Si6 0.264924 0.197556 0.649322
O O1 0.175731 0.500000 0.500000
O O2 0.140806 0.555000 0.676007
O O3 0.269962 0.628758 0.600824
O O4 0.236369 0.359464 0.633387
O O5 0.500000 0.409708 0.229605
O O6 0.610618 0.287305 0.320233
O O7 0.590080 0.552908 0.330940
O O8 0.678785 0.116084 0.442403
O O9 0.768484 0.095403 0.572688
O O10 0.890513 0.661877 0.997303
O O11 0.500000 0.737569 0.398029
O O12 0.353235 0.797957 0.365093
O O13 0.250000 0.149833 0.750000
#
# Coordination Sequence:
#
# PCOD9416080 Si02
#       6
#     8   8   4   8   8   8
#     4  12  20  37  63  82 113 149 199 247 283 328
#     4  11  22  34  57  90 114 147 192 242 294 337
#     4  10  24  34  57  90 117 154 190 232 290 346
#     4  11  20  37  57  88 116 147 184 237 297 351
#     4  10  19  33  57  88 112 139 181 236 296 343
#     4  11  20  39  57  87 114 153 194 234 290 344
#
# _framework density 17.669021000000001
#
# number of rings (size 3 to 8) (size 9 to 14) (size 15 to 20)
#    0.000    1.091    7.273    1.636    0.000    3.273 
#    0.000   11.364    0.000    0.000    0.000    1.909 
#    0.000    0.000    0.000    0.000    0.000    0.000 
#
# Total GULP energy -245377.836291 kJ/mol
# GULP energy per Si atom -5576.769007 kJ/mol
# Density = 1.762881 g / cm^3
# Si number density = 17.669021 Si / 1000 Ang^3
#
#
#
# Elastic Constant Matrix: (Units=GPa)
#
#
# Indices 1 2 3 4 5 6 
#
# 1 118.9949 21.1220 74.8664 0.0000 0.0000 0.0000
# 2 21.1220 79.0043 24.1244 0.0000 0.0000 0.0000
# 3 74.8664 24.1244 126.5655 0.0000 0.0000 0.0000
# 4 0.0000 0.0000 0.0000 21.1459 0.0000 0.0000
# 5 0.0000 0.0000 0.0000 0.0000 29.0672 0.0000
# 6 0.0000 0.0000 0.0000 0.0000 0.0000 5.0223
#
#
#
# Elastic Compliance Matrix: (Units=1/GPa)
#
#
# Indices 1 2 3 4 5 6 
#
# 1 0.013499 -0.001243 -0.007748 0.000000 0.000000 0.000000
# 2 -0.001243 0.013554 -0.001848 0.000000 0.000000 0.000000
# 3 -0.007748 -0.001848 0.012837 0.000000 0.000000 0.000000
# 4 0.000000 0.000000 0.000000 0.047290 0.000000 0.000000
# 5 0.000000 0.000000 0.000000 0.000000 0.034403 0.000000
# 6 0.000000 0.000000 0.000000 0.000000 0.000000 0.199111
#
#
# Mechanical properties :
#
#
# Convention : Reuss Voigt Hill
#
# Bulk Modulus (GPa) = 54.91177 62.75450 58.83313
# Shear Modulus (GPa) = 14.34954 24.67722 19.51338
#
# Velocity S-wave (km/s) = 2.85288 3.74122 3.32683
# Velocity P-wave (km/s) = 6.48054 7.36587 6.93734
#
# Compressibility (1/GPa) = 0.01821103
#
# Stress axis : x y z
#
# Youngs Moduli (GPa) = 74.07875 73.77762 77.90280
#
# Poissons Ratio (x) = 0.09171 0.60360
# Poissons Ratio (y) = 0.09209 0.14398
# Poissons Ratio (z) = 0.57397 0.13636
#
# Static dielectric constant tensor:
#      x y z
#    x 1.596560 0.000000 0.000000 
#    y 0.000000 1.642070 0.000000 
#    z 0.000000 0.000000 1.630480 
# 
# From -- ./inp_files/23547.got.cif
#   From: 2010.05.17/outbox.cif.g08.bks.cpg/sg53_12_cif.got.tgz:23547.got - 2010.06.03 12:45:16.
