data_PCOD9416263
_publ_section_title
;
Structure prediction by ZEFSAII (Michael W. Deem and Ramdas Pophale) SiO2 
 PCOD9416263
Probable space group: P M N A
;
_chemical_formula_sum "Si O2"
_cell_formula_units_Z 64
_cell_length_a 7.882785
_cell_length_b 12.895298
_cell_length_c 30.587101
_cell_angle_alpha 90.000000
_cell_angle_beta 90.000000
_cell_angle_gamma 90.000000
_cell_volume 3109.205172
_symmetry_space_group_name_H-M "P M N A"
_symmetry_group_IT_number 53
_symmetry_cell_setting 'orthorhombic'
loop_
_space_group_symop_operation_xyz
x,y,z
1/2-x,-y,1/2+z
x,-y,-z
1/2-x,y,1/2-z
-x,-y,-z
1/2+x,y,1/2-z
-x,y,z
1/2+x,-y,1/2+z
loop_
_atom_site_type_symbol
_atom_site_label
_atom_site_fract_x
_atom_site_fract_y
_atom_site_fract_z
Si Si1 0.703810 0.411848 0.081151
Si Si2 0.705873 0.637227 0.107674
Si Si3 0.302220 0.882606 0.701959
Si Si4 0.796800 0.786257 0.964442
Si Si5 0.796652 0.427610 0.703143
Si Si6 0.208925 0.051774 0.108220
Si Si7 0.794777 0.346609 0.322179
Si Si8 0.298413 0.846272 0.440937
O O1 0.500000 0.414762 0.081410
O O2 0.761491 0.531262 0.083119
O O3 0.757800 0.334647 0.043040
O O4 0.758175 0.359928 0.127196
O O5 0.500000 0.639003 0.106954
O O6 0.761235 0.627125 0.158453
O O7 0.770190 0.740365 0.085148
O O8 0.250000 0.918770 0.750000
O O9 0.500000 0.901629 0.699456
O O10 0.227232 0.932434 0.657727
O O11 0.271050 0.759270 0.697848
O O12 0.735741 0.854098 0.923291
O O13 0.000000 0.796326 0.965221
O O14 0.728773 0.830718 0.010106
O O15 0.750000 0.381567 0.750000
O O16 0.735420 0.547184 0.700561
O O17 0.000000 0.431020 0.700569
O O18 0.000000 0.052717 0.109066
O O19 0.266391 0.945020 0.085876
O O20 0.000000 0.343423 0.320587
O O21 0.500000 0.863463 0.445549
#
# Coordination Sequence:
#
# PCOD9416263 Si02
#       8
#     8   8   8   8   8   8   8   8
#     4   9  18  33  54  79 112 147 173 209 263 323
#     4   9  20  38  54  74 110 148 179 215 267 323
#     4  11  21  33  52  78 108 141 175 212 263 322
#     4  10  19  34  58  85 108 134 176 226 274 322
#     4   9  18  32  51  75 103 138 177 218 263 313
#     4   9  19  37  57  78 107 141 176 219 271 318
#     4   9  17  31  50  76 109 140 172 211 258 314
#     4  10  21  37  58  80 103 138 185 230 267 313
#
# _framework density 20.584038
#
# number of rings (size 3 to 8) (size 9 to 14) (size 15 to 20)
#    0.000    2.500    1.250    2.625    0.000    5.000 
#    0.000    7.500    0.000    4.500    0.000    0.000 
#    0.000    0.000    0.000    0.000    0.000    0.000 
#
# Total GULP energy -357075.850326 kJ/mol
# GULP energy per Si atom -5579.310161 kJ/mol
# Density = 2.053719 g / cm^3
# Si number density = 20.584038 Si / 1000 Ang^3
#
#
#
# Elastic Constant Matrix: (Units=GPa)
#
#
# Indices 1 2 3 4 5 6 
#
# 1 12.7834 -8.4314 0.5822 0.0000 0.0000 0.0000
# 2 -8.4314 76.6912 28.2525 0.0000 0.0000 0.0000
# 3 0.5822 28.2525 93.0077 0.0000 0.0000 0.0000
# 4 0.0000 0.0000 0.0000 25.0406 0.0000 0.0000
# 5 0.0000 0.0000 0.0000 0.0000 21.8083 0.0000
# 6 0.0000 0.0000 0.0000 0.0000 0.0000 34.6722
#
#
#
# Elastic Compliance Matrix: (Units=1/GPa)
#
#
# Indices 1 2 3 4 5 6 
#
# 1 0.085530 0.010810 -0.003819 0.000000 0.000000 0.000000
# 2 0.010810 0.016049 -0.004943 0.000000 0.000000 0.000000
# 3 -0.003819 -0.004943 0.012277 0.000000 0.000000 0.000000
# 4 0.000000 0.000000 0.000000 0.039935 0.000000 0.000000
# 5 0.000000 0.000000 0.000000 0.000000 0.045854 0.000000
# 6 0.000000 0.000000 0.000000 0.000000 0.000000 0.028842
#
#
# Mechanical properties :
#
#
# Convention : Reuss Voigt Hill
#
# Bulk Modulus (GPa) = 8.47801 24.80989 16.64395
# Shear Modulus (GPa) = 18.96042 27.10949 23.03495
#
# Velocity S-wave (km/s) = 3.03829 3.63301 3.34888
# Velocity P-wave (km/s) = 4.05413 5.44770 4.80174
#
# Compressibility (1/GPa) = 0.11795225
#
# Stress axis : x y z
#
# Youngs Moduli (GPa) = 11.69181 62.31076 81.45239
#
# Poissons Ratio (x) = -0.67358 0.31107
# Poissons Ratio (y) = -0.12639 0.40259
# Poissons Ratio (z) = 0.04465 0.30798
#
# Static dielectric constant tensor:
#      x y z
#    x 1.739260 0.000000 0.000000 
#    y 0.000000 1.706210 0.000000 
#    z 0.000000 0.000000 1.774350 
# 
# From -- ./inp_files/38151.got.cif
#   From: 2010.05.17/outbox.cif.g08.bks.cpg/sg53_20_cif.got.tgz:38151.got - 2010.06.03 12:45:16.
