data_PCOD9416541
_publ_section_title
;
Structure prediction by ZEFSAII (Michael W. Deem and Ramdas Pophale) SiO2 
 PCOD9416541
Probable space group: P M N A
;
_chemical_formula_sum "Si O2"
_cell_formula_units_Z 60
_cell_length_a 15.905651
_cell_length_b 13.199134
_cell_length_c 12.534182
_cell_angle_alpha 90.000000
_cell_angle_beta 90.000000
_cell_angle_gamma 90.000000
_cell_volume 2631.436433
_symmetry_space_group_name_H-M "P M N A"
_symmetry_group_IT_number 53
_symmetry_cell_setting 'orthorhombic'
loop_
_space_group_symop_operation_xyz
x,y,z
1/2-x,-y,1/2+z
x,-y,-z
1/2-x,y,1/2-z
-x,-y,-z
1/2+x,y,1/2-z
-x,y,z
1/2+x,-y,1/2+z
loop_
_atom_site_type_symbol
_atom_site_label
_atom_site_fract_x
_atom_site_fract_y
_atom_site_fract_z
Si Si1 0.596295 0.674271 0.631718
Si Si2 0.711398 0.364348 0.860473
Si Si3 0.404548 0.264335 0.013274
Si Si4 0.095818 0.970072 0.178802
Si Si5 0.186479 0.891224 0.657496
Si Si6 0.661159 0.500000 0.500000
Si Si7 0.840111 0.131784 0.020255
Si Si8 0.902467 0.441300 0.329909
O O1 0.500000 0.709534 0.644715
O O2 0.602392 0.568891 0.571183
O O3 0.646687 0.755511 0.563020
O O4 0.633109 0.640117 0.745177
O O5 0.750000 0.327793 0.750000
O O6 0.646065 0.454337 0.831806
O O7 0.664964 0.273102 0.921605
O O8 0.779761 0.424251 0.932028
O O9 0.500000 0.245148 0.977087
O O10 0.381201 0.185157 0.106886
O O11 0.400694 0.378597 0.060819
O O12 0.143720 0.012835 0.283306
O O13 0.000000 0.942652 0.203487
O O14 0.139598 0.885274 0.103856
O O15 0.098173 0.064797 0.095426
O O16 0.250000 0.849919 0.750000
O O17 0.249708 0.907413 0.559324
O O18 0.000000 0.458972 0.302788
#
# Coordination Sequence:
#
# PCOD9416541 Si02
#       8
#     8   8   8   8   8   4   8   8
#     4  11  22  37  58  91 131 178 229 279 331 400
#     4  12  23  37  56  83 124 182 233 285 335 384
#     4  11  22  38  62  95 133 176 226 285 343 409
#     4  10  19  36  63 100 138 174 209 272 351 418
#     4  10  21  36  63 103 136 168 215 278 343 414
#     4  12  23  38  59  84 126 182 234 280 337 384
#     4  10  20  35  61  97 136 171 220 280 342 407
#     4  10  20  34  55  83 121 170 225 276 331 391
#
# _framework density 22.801234000000001
#
# number of rings (size 3 to 8) (size 9 to 14) (size 15 to 20)
#    0.000    1.333    2.667    5.000    0.000    2.667 
#    0.000    0.000    0.000   19.200    0.000   75.600 
#    0.000    0.000    0.000    0.000    0.000    0.000 
#
# Total GULP energy -334952.405422 kJ/mol
# GULP energy per Si atom -5582.540090 kJ/mol
# Density = 2.274934 g / cm^3
# Si number density = 22.801234 Si / 1000 Ang^3
#
#
#
# Elastic Constant Matrix: (Units=GPa)
#
#
# Indices 1 2 3 4 5 6 
#
# 1 81.7314 18.4392 44.7687 0.0000 0.0000 0.0000
# 2 18.4392 48.8150 34.5410 0.0000 0.0000 0.0000
# 3 44.7687 34.5410 107.6960 0.0000 0.0000 0.0000
# 4 0.0000 0.0000 0.0000 37.0920 0.0000 0.0000
# 5 0.0000 0.0000 0.0000 0.0000 23.1228 0.0000
# 6 0.0000 0.0000 0.0000 0.0000 0.0000 36.5569
#
#
#
# Elastic Compliance Matrix: (Units=1/GPa)
#
#
# Indices 1 2 3 4 5 6 
#
# 1 0.015954 -0.001725 -0.006079 0.000000 0.000000 0.000000
# 2 -0.001725 0.026686 -0.007842 0.000000 0.000000 0.000000
# 3 -0.006079 -0.007842 0.014327 0.000000 0.000000 0.000000
# 4 0.000000 0.000000 0.000000 0.026960 0.000000 0.000000
# 5 0.000000 0.000000 0.000000 0.000000 0.043247 0.000000
# 6 0.000000 0.000000 0.000000 0.000000 0.000000 0.027355
#
#
# Mechanical properties :
#
#
# Convention : Reuss Voigt Hill
#
# Bulk Modulus (GPa) = 38.94682 48.19336 43.57009
# Shear Modulus (GPa) = 25.72292 28.72058 27.22175
#
# Velocity S-wave (km/s) = 3.36242 3.55294 3.45899
# Velocity P-wave (km/s) = 5.67385 6.16550 5.92478
#
# Compressibility (1/GPa) = 0.02567603
#
# Stress axis : x y z
#
# Youngs Moduli (GPa) = 62.67996 37.47295 69.79655
#
# Poissons Ratio (x) = 0.06465 0.42427
# Poissons Ratio (y) = 0.10813 0.54733
# Poissons Ratio (z) = 0.38101 0.29385
#
# Static dielectric constant tensor:
#      x y z
#    x 1.869630 0.000000 0.000000 
#    y 0.000000 1.857190 0.000000 
#    z 0.000000 0.000000 1.996810 
# 
# From -- ./inp_files/17050.got.cif
#   From: 2010.05.17/outbox.cif.g08.bks.cpg/sg53_9_cif.got.tgz:17050.got - 2010.06.03 12:45:16.
