data_PCOD9416245
_publ_section_title
;
Structure prediction by ZEFSAII (Michael W. Deem and Ramdas Pophale) SiO2 
 PCOD9416245
Probable space group: P M N A
;
_chemical_formula_sum "Si O2"
_cell_formula_units_Z 48
_cell_length_a 8.576213
_cell_length_b 10.503871
_cell_length_c 28.918778
_cell_angle_alpha 90.000000
_cell_angle_beta 90.000000
_cell_angle_gamma 90.000000
_cell_volume 2605.102859
_symmetry_space_group_name_H-M "P M N A"
_symmetry_group_IT_number 53
_symmetry_cell_setting 'orthorhombic'
loop_
_space_group_symop_operation_xyz
x,y,z
1/2-x,-y,1/2+z
x,-y,-z
1/2-x,y,1/2-z
-x,-y,-z
1/2+x,y,1/2-z
-x,y,z
1/2+x,-y,1/2+z
loop_
_atom_site_type_symbol
_atom_site_label
_atom_site_fract_x
_atom_site_fract_y
_atom_site_fract_z
Si Si1 0.187078 0.241150 0.607486
Si Si2 0.811341 0.732083 0.605058
Si Si3 0.189843 0.989021 0.552697
Si Si4 0.185666 0.142752 0.800317
Si Si5 0.686594 0.515170 0.446443
Si Si6 0.312905 0.142906 0.199869
O O1 0.256517 0.233836 0.658847
O O2 0.241012 0.361031 0.577665
O O3 0.000000 0.240517 0.610532
O O4 0.239377 0.111701 0.581752
O O5 0.763112 0.856844 0.575965
O O6 0.737256 0.607871 0.582801
O O7 0.769002 0.763353 0.658131
O O8 0.000000 0.720951 0.602660
O O9 0.000000 0.989809 0.552642
O O10 0.243210 0.000000 0.500000
O O11 0.250000 0.180247 0.750000
O O12 0.000000 0.137991 0.798921
O O13 0.249689 0.999614 0.809575
O O14 0.738088 0.500000 0.500000
O O15 0.500000 0.526949 0.446208
O O16 0.250000 0.182176 0.250000
O O17 0.500000 0.134279 0.201262
#
# Coordination Sequence:
#
# PCOD9416245 Si02
#       6
#     8   8   8   8   8   8
#     4  11  21  38  62  87 117 154 199 247 295 350
#     4  10  20  37  59  85 115 151 199 244 290 351
#     4   9  17  31  55  85 113 142 187 245 293 341
#     4  11  21  35  58  88 123 157 194 239 295 352
#     4  11  25  42  58  83 121 160 198 243 298 358
#     4  10  19  34  57  87 120 152 193 241 291 348
#
# _framework density 18.425377000000001
#
# number of rings (size 3 to 8) (size 9 to 14) (size 15 to 20)
#    0.000    1.667    1.667    5.000    0.000    4.000 
#    0.000    0.833    0.000    5.500    0.000    0.000 
#    0.000    0.000    0.000    0.000    0.000    0.000 
#
# Total GULP energy -268155.711876 kJ/mol
# GULP energy per Si atom -5586.577331 kJ/mol
# Density = 1.838344 g / cm^3
# Si number density = 18.425377 Si / 1000 Ang^3
#
#
#
# Elastic Constant Matrix: (Units=GPa)
#
#
# Indices 1 2 3 4 5 6 
#
# 1 65.6789 20.6447 39.7627 0.0000 0.0000 0.0000
# 2 20.6447 77.4199 38.5828 0.0000 0.0000 0.0000
# 3 39.7627 38.5828 145.2435 0.0000 0.0000 0.0000
# 4 0.0000 0.0000 0.0000 33.0174 0.0000 0.0000
# 5 0.0000 0.0000 0.0000 0.0000 6.4894 0.0000
# 6 0.0000 0.0000 0.0000 0.0000 0.0000 20.5646
#
#
#
# Elastic Compliance Matrix: (Units=1/GPa)
#
#
# Indices 1 2 3 4 5 6 
#
# 1 0.018769 -0.002817 -0.004390 0.000000 0.000000 0.000000
# 2 -0.002817 0.015310 -0.003296 0.000000 0.000000 0.000000
# 3 -0.004390 -0.003296 0.008962 0.000000 0.000000 0.000000
# 4 0.000000 0.000000 0.000000 0.030287 0.000000 0.000000
# 5 0.000000 0.000000 0.000000 0.000000 0.154098 0.000000
# 6 0.000000 0.000000 0.000000 0.000000 0.000000 0.048627
#
#
# Mechanical properties :
#
#
# Convention : Reuss Voigt Hill
#
# Bulk Modulus (GPa) = 45.38095 54.03584 49.70840
# Shear Modulus (GPa) = 16.42551 24.63777 20.53164
#
# Velocity S-wave (km/s) = 2.98897 3.66069 3.34175
# Velocity P-wave (km/s) = 6.04938 6.87445 6.47507
#
# Compressibility (1/GPa) = 0.02203568
#
# Stress axis : x y z
#
# Youngs Moduli (GPa) = 53.28001 65.31560 111.57846
#
# Poissons Ratio (x) = 0.18400 0.48982
# Poissons Ratio (y) = 0.15010 0.36774
# Poissons Ratio (z) = 0.23389 0.21527
#
# Static dielectric constant tensor:
#      x y z
#    x 1.622290 0.000000 0.000000 
#    y 0.000000 1.599000 0.000000 
#    z 0.000000 0.000000 1.652330 
# 
# From -- ./inp_files/37759.got.cif
#   From: 2010.05.17/outbox.cif.g08.bks.cpg/sg53_19_cif.got.tgz:37759.got - 2010.06.03 12:45:16.
