data_PCOD9416071
_publ_section_title
;
Structure prediction by ZEFSAII (Michael W. Deem and Ramdas Pophale) SiO2 
 PCOD9416071
Probable space group: P M N A
;
_chemical_formula_sum "Si O2"
_cell_formula_units_Z 40
_cell_length_a 7.763223
_cell_length_b 13.031815
_cell_length_c 17.781001
_cell_angle_alpha 90.000000
_cell_angle_beta 90.000000
_cell_angle_gamma 90.000000
_cell_volume 1798.884062
_symmetry_space_group_name_H-M "P M N A"
_symmetry_group_IT_number 53
_symmetry_cell_setting 'orthorhombic'
loop_
_space_group_symop_operation_xyz
x,y,z
1/2-x,-y,1/2+z
x,-y,-z
1/2-x,y,1/2-z
-x,-y,-z
1/2+x,y,1/2-z
-x,y,z
1/2+x,-y,1/2+z
loop_
_atom_site_type_symbol
_atom_site_label
_atom_site_fract_x
_atom_site_fract_y
_atom_site_fract_z
Si Si1 0.197182 0.094930 0.335924
Si Si2 0.794726 0.687810 0.837539
Si Si3 0.289534 0.479835 0.585930
Si Si4 0.708134 0.265276 0.660758
Si Si5 0.693599 0.925869 0.436342
O O1 0.250000 0.107526 0.250000
O O2 0.500000 0.062713 0.157888
O O3 0.220110 0.207420 0.372020
O O4 0.314228 0.007323 0.369313
O O5 0.750000 0.684438 0.750000
O O6 0.731651 0.581665 0.871261
O O7 0.000000 0.694285 0.846640
O O8 0.237852 0.500000 0.500000
O O9 0.500000 0.476758 0.587211
O O10 0.233240 0.375210 0.627132
O O11 0.750000 0.252773 0.750000
O O12 0.500000 0.261355 0.656960
O O13 0.770165 0.175513 0.603225
O O14 0.500000 0.899271 0.464333
O O15 0.778295 0.000000 0.500000
#
# Coordination Sequence:
#
# PCOD9416071 Si02
#       5
#     8   8   8   8   8
#     4  11  22  37  58  83 115 151 193 238 290 346
#     4  10  19  33  57  83 112 147 188 234 285 343
#     4   9  19  34  57  86 114 148 192 240 286 341
#     4  10  21  38  61  88 118 155 197 241 291 352
#     4  10  22  38  60  88 117 152 197 244 294 351
#
# _framework density 22.236008000000002
#
# number of rings (size 3 to 8) (size 9 to 14) (size 15 to 20)
#    0.000    2.000    0.000    4.800    2.800    2.800 
#    0.000    1.000    0.000    3.000    0.000    0.000 
#    0.000    0.000    0.000    0.000    0.000    0.000 
#
# Total GULP energy -223060.490128 kJ/mol
# GULP energy per Si atom -5576.512253 kJ/mol
# Density = 2.218540 g / cm^3
# Si number density = 22.236008 Si / 1000 Ang^3
#
#
#
# Elastic Constant Matrix: (Units=GPa)
#
#
# Indices 1 2 3 4 5 6 
#
# 1 64.3780 -3.3660 -8.6148 0.0000 0.0000 0.0000
# 2 -3.3660 114.2451 5.8866 0.0000 0.0000 0.0000
# 3 -8.6148 5.8866 46.8557 0.0000 0.0000 0.0000
# 4 0.0000 0.0000 0.0000 34.5603 0.0000 0.0000
# 5 0.0000 0.0000 0.0000 0.0000 17.2519 0.0000
# 6 0.0000 0.0000 0.0000 0.0000 0.0000 6.0363
#
#
#
# Elastic Compliance Matrix: (Units=1/GPa)
#
#
# Indices 1 2 3 4 5 6 
#
# 1 0.015937 0.000321 0.002890 0.000000 0.000000 0.000000
# 2 0.000321 0.008817 -0.001049 0.000000 0.000000 0.000000
# 3 0.002890 -0.001049 0.022005 0.000000 0.000000 0.000000
# 4 0.000000 0.000000 0.000000 0.028935 0.000000 0.000000
# 5 0.000000 0.000000 0.000000 0.000000 0.057965 0.000000
# 6 0.000000 0.000000 0.000000 0.000000 0.000000 0.165663
#
#
# Mechanical properties :
#
#
# Convention : Reuss Voigt Hill
#
# Bulk Modulus (GPa) = 19.57636 23.69894 21.63765
# Shear Modulus (GPa) = 16.02435 27.00791 21.51613
#
# Velocity S-wave (km/s) = 2.68740 3.48890 3.11404
# Velocity P-wave (km/s) = 4.29564 5.18757 4.76253
#
# Compressibility (1/GPa) = 0.05108201
#
# Stress axis : x y z
#
# Youngs Moduli (GPa) = 62.74817 113.42245 45.44384
#
# Poissons Ratio (x) = -0.03637 -0.13132
# Poissons Ratio (y) = -0.02012 0.04766
# Poissons Ratio (z) = -0.18133 0.11895
#
# Static dielectric constant tensor:
#      x y z
#    x 1.859810 0.000000 0.000000 
#    y 0.000000 1.856920 0.000000 
#    z 0.000000 0.000000 1.749250 
# 
# From -- ./inp_files/21638.got.cif
#   From: 2010.05.17/outbox.cif.g08.bks.cpg/sg53_11_cif.got.tgz:21638.got - 2010.06.03 12:45:16.
