data_PCOD9416408
_publ_section_title
;
Structure prediction by ZEFSAII (Michael W. Deem and Ramdas Pophale) SiO2 
 PCOD9416408
Probable space group: P M N A
;
_chemical_formula_sum "Si O2"
_cell_formula_units_Z 52
_cell_length_a 19.760377
_cell_length_b 8.702366
_cell_length_c 16.473806
_cell_angle_alpha 90.000000
_cell_angle_beta 90.000000
_cell_angle_gamma 90.000000
_cell_volume 2832.869170
_symmetry_space_group_name_H-M "P M N A"
_symmetry_group_IT_number 53
_symmetry_cell_setting 'orthorhombic'
loop_
_space_group_symop_operation_xyz
x,y,z
1/2-x,-y,1/2+z
x,-y,-z
1/2-x,y,1/2-z
-x,-y,-z
1/2+x,y,1/2-z
-x,y,z
1/2+x,-y,1/2+z
loop_
_atom_site_type_symbol
_atom_site_label
_atom_site_fract_x
_atom_site_fract_y
_atom_site_fract_z
Si Si1 0.075862 0.305110 0.828926
Si Si2 0.825794 0.873640 0.769728
Si Si3 0.312027 0.165360 0.951816
Si Si4 0.337309 0.911459 0.417044
Si Si5 0.421671 0.925471 0.174991
Si Si6 0.199847 0.475372 0.178953
Si Si7 0.729618 0.500000 0.000000
O O1 0.105231 0.214650 0.906344
O O2 0.077242 0.187966 0.752710
O O3 0.130140 0.435279 0.814573
O O4 0.000000 0.359953 0.840475
O O5 0.750000 0.931076 0.750000
O O6 0.816520 0.698158 0.794027
O O7 0.848757 0.963883 0.848395
O O8 0.878790 0.922279 0.700271
O O9 0.238195 0.158194 0.908465
O O10 0.376476 0.156319 0.893312
O O11 0.309447 0.333878 0.995062
O O12 0.314163 0.000000 0.000000
O O13 0.340114 0.000000 0.500000
O O14 0.500000 0.956521 0.152664
O O15 0.250000 0.536468 0.250000
O O16 0.229608 0.485485 0.086637
#
# Coordination Sequence:
#
# PCOD9416408 Si02
#       7
#     8   8   8   8   8   8   4
#     4  10  22  38  58  85 122 164 206 256 329 391
#     4  10  20  35  62  90 117 160 217 264 316 378
#     4  11  22  38  67  92 128 169 214 273 328 390
#     4  10  19  35  59  84 114 156 206 257 310 373
#     4  10  22  41  62  91 126 169 215 266 336 400
#     4  11  23  38  64  93 129 169 219 271 324 386
#     4  12  24  40  66 106 132 164 230 278 322 398
#
# _framework density 18.355948999999999
#
# number of rings (size 3 to 8) (size 9 to 14) (size 15 to 20)
#    0.000    1.538    3.077    2.769    2.154    1.231 
#    0.000    0.769    0.000    0.000    0.000    0.000 
#    0.000    0.000    0.000    0.000    0.000    0.000 
#
# Total GULP energy -289531.973182 kJ/mol
# GULP energy per Si atom -5567.922561 kJ/mol
# Density = 1.831417 g / cm^3
# Si number density = 18.355949 Si / 1000 Ang^3
#
#
#
# Elastic Constant Matrix: (Units=GPa)
#
#
# Indices 1 2 3 4 5 6 
#
# 1 162.6578 50.7911 67.3336 0.0000 0.0000 0.0000
# 2 50.7911 102.1670 33.4766 0.0000 0.0000 0.0000
# 3 67.3336 33.4766 66.8179 0.0000 0.0000 0.0000
# 4 0.0000 0.0000 0.0000 23.0913 0.0000 0.0000
# 5 0.0000 0.0000 0.0000 0.0000 16.4884 0.0000
# 6 0.0000 0.0000 0.0000 0.0000 0.0000 9.1993
#
#
#
# Elastic Compliance Matrix: (Units=1/GPa)
#
#
# Indices 1 2 3 4 5 6 
#
# 1 0.010941 -0.002185 -0.009931 0.000000 0.000000 0.000000
# 2 -0.002185 0.012147 -0.003884 0.000000 0.000000 0.000000
# 3 -0.009931 -0.003884 0.026919 0.000000 0.000000 0.000000
# 4 0.000000 0.000000 0.000000 0.043306 0.000000 0.000000
# 5 0.000000 0.000000 0.000000 0.000000 0.060649 0.000000
# 6 0.000000 0.000000 0.000000 0.000000 0.000000 0.108704
#
#
# Mechanical properties :
#
#
# Convention : Reuss Voigt Hill
#
# Bulk Modulus (GPa) = 55.53103 70.53836 63.03469
# Shear Modulus (GPa) = 16.62966 21.75856 19.19411
#
# Velocity S-wave (km/s) = 3.01317 3.44665 3.23718
# Velocity P-wave (km/s) = 6.51334 7.37229 6.95609
#
# Compressibility (1/GPa) = 0.01800795
#
# Stress axis : x y z
#
# Youngs Moduli (GPa) = 91.39788 82.32628 37.14832
#
# Poissons Ratio (x) = 0.17991 0.36891
# Poissons Ratio (y) = 0.19973 0.14427
# Poissons Ratio (z) = 0.90765 0.31971
#
# Static dielectric constant tensor:
#      x y z
#    x 1.624680 0.000000 0.000000 
#    y 0.000000 1.682350 0.000000 
#    z 0.000000 0.000000 1.690150 
# 
# From -- ./inp_files/24238.got.cif
#   From: 2010.05.17/outbox.cif.g08.bks.cpg/sg53_13_cif.got.tgz:24238.got - 2010.06.03 12:45:16.
