data_PCOD9416454
_publ_section_title
;
Structure prediction by ZEFSAII (Michael W. Deem and Ramdas Pophale) SiO2 
 PCOD9416454
Probable space group: P M N A
;
_chemical_formula_sum "Si O2"
_cell_formula_units_Z 56
_cell_length_a 14.401427
_cell_length_b 9.755670
_cell_length_c 20.048526
_cell_angle_alpha 90.000000
_cell_angle_beta 90.000000
_cell_angle_gamma 90.000000
_cell_volume 2816.729075
_symmetry_space_group_name_H-M "P M N A"
_symmetry_group_IT_number 53
_symmetry_cell_setting 'orthorhombic'
loop_
_space_group_symop_operation_xyz
x,y,z
1/2-x,-y,1/2+z
x,-y,-z
1/2-x,y,1/2-z
-x,-y,-z
1/2+x,y,1/2-z
-x,y,z
1/2+x,-y,1/2+z
loop_
_atom_site_type_symbol
_atom_site_label
_atom_site_fract_x
_atom_site_fract_y
_atom_site_fract_z
Si Si1 0.793330 0.577329 0.062519
Si Si2 0.321642 0.615740 0.688166
Si Si3 0.893177 0.322116 0.594641
Si Si4 0.603186 0.625365 0.241070
Si Si5 0.612276 0.187421 0.641302
Si Si6 0.392430 0.001964 0.079326
Si Si7 0.275220 0.079588 0.328146
O O1 0.794678 0.466771 0.122110
O O2 0.688000 0.626185 0.046669
O O3 0.849902 0.712265 0.084011
O O4 0.835532 0.500000 0.000000
O O5 0.250000 0.611550 0.750000
O O6 0.399666 0.519561 0.721391
O O7 0.328763 0.775124 0.670724
O O8 0.860652 0.379457 0.666559
O O9 0.890338 0.157872 0.599868
O O10 0.000000 0.362231 0.578935
O O11 0.500000 0.678538 0.229850
O O12 0.646432 0.734013 0.291383
O O13 0.500000 0.180568 0.639919
O O14 0.660239 0.040545 0.643140
O O15 0.500000 0.051346 0.086475
O O16 0.318325 0.080076 0.126070
O O17 0.370124 0.000000 0.000000
O O18 0.250000 0.053514 0.250000
#
# Coordination Sequence:
#
# PCOD9416454 Si02
#       7
#     8   8   8   8   8   8   8
#     4  11  23  38  62  89 121 164 203 259 302 366
#     4  10  21  37  56  87 125 158 201 249 312 364
#     4  10  19  35  63  93 119 160 211 253 306 374
#     4   9  18  35  61  88 119 158 204 255 305 366
#     4  10  22  39  62  89 117 157 207 255 304 367
#     4  10  22  40  63  93 132 172 214 263 320 387
#     4  11  23  37  62  94 127 165 207 259 317 380
#
# _framework density 19.881215999999998
#
# number of rings (size 3 to 8) (size 9 to 14) (size 15 to 20)
#    0.000    1.857    2.857    0.857    2.000    2.857 
#    0.000    2.857    0.000    3.000    0.000    0.000 
#    0.000    0.000    0.000    0.000    0.000    0.000 
#
# Total GULP energy -311881.336227 kJ/mol
# GULP energy per Si atom -5569.309575 kJ/mol
# Density = 1.983597 g / cm^3
# Si number density = 19.881216 Si / 1000 Ang^3
#
#
#
# Elastic Constant Matrix: (Units=GPa)
#
#
# Indices 1 2 3 4 5 6 
#
# 1 74.9363 29.1363 22.2805 0.0000 0.0000 0.0000
# 2 29.1363 125.5282 30.2124 0.0000 0.0000 0.0000
# 3 22.2805 30.2124 80.5842 0.0000 0.0000 0.0000
# 4 0.0000 0.0000 0.0000 18.4662 0.0000 0.0000
# 5 0.0000 0.0000 0.0000 0.0000 17.1750 0.0000
# 6 0.0000 0.0000 0.0000 0.0000 0.0000 11.5888
#
#
#
# Elastic Compliance Matrix: (Units=1/GPa)
#
#
# Indices 1 2 3 4 5 6 
#
# 1 0.015386 -0.002800 -0.003204 0.000000 0.000000 0.000000
# 2 -0.002800 0.009266 -0.002700 0.000000 0.000000 0.000000
# 3 -0.003204 -0.002700 0.014308 0.000000 0.000000 0.000000
# 4 0.000000 0.000000 0.000000 0.054153 0.000000 0.000000
# 5 0.000000 0.000000 0.000000 0.000000 0.058224 0.000000
# 6 0.000000 0.000000 0.000000 0.000000 0.000000 0.086291
#
#
# Mechanical properties :
#
#
# Convention : Reuss Voigt Hill
#
# Bulk Modulus (GPa) = 46.40074 49.36745 47.88409
# Shear Modulus (GPa) = 19.06801 22.74063 20.90432
#
# Velocity S-wave (km/s) = 3.10029 3.38572 3.24614
# Velocity P-wave (km/s) = 6.01709 6.33792 6.17959
#
# Compressibility (1/GPa) = 0.02155138
#
# Stress axis : x y z
#
# Youngs Moduli (GPa) = 64.99382 107.92075 69.89324
#
# Poissons Ratio (x) = 0.30218 0.22396
# Poissons Ratio (y) = 0.18199 0.18870
# Poissons Ratio (z) = 0.20826 0.29137
#
# Static dielectric constant tensor:
#      x y z
#    x 1.726670 0.000000 0.000000 
#    y 0.000000 1.702190 0.000000 
#    z 0.000000 0.000000 1.744360 
# 
# From -- ./inp_files/32438.got.cif
#   From: 2010.05.17/outbox.cif.g08.bks.cpg/sg53_17_cif.got.tgz:32438.got - 2010.06.03 12:45:16.
