data_PCOD9416399
_publ_section_title
;
Structure prediction by ZEFSAII (Michael W. Deem and Ramdas Pophale) SiO2 
 PCOD9416399
Probable space group: P M N A
;
_chemical_formula_sum "Si O2"
_cell_formula_units_Z 64
_cell_length_a 13.963141
_cell_length_b 12.636026
_cell_length_c 17.274649
_cell_angle_alpha 90.000000
_cell_angle_beta 90.000000
_cell_angle_gamma 90.000000
_cell_volume 3047.915105
_symmetry_space_group_name_H-M "P M N A"
_symmetry_group_IT_number 53
_symmetry_cell_setting 'orthorhombic'
loop_
_space_group_symop_operation_xyz
x,y,z
1/2-x,-y,1/2+z
x,-y,-z
1/2-x,y,1/2-z
-x,-y,-z
1/2+x,y,1/2-z
-x,y,z
1/2+x,-y,1/2+z
loop_
_atom_site_type_symbol
_atom_site_label
_atom_site_fract_x
_atom_site_fract_y
_atom_site_fract_z
Si Si1 0.743578 0.878096 0.657445
Si Si2 0.255319 0.881638 0.343362
Si Si3 0.109456 0.722322 0.923395
Si Si4 0.228659 0.616113 0.493584
Si Si5 0.885103 0.684212 0.640743
Si Si6 0.609729 0.312559 0.684732
Si Si7 0.607930 0.278929 0.869649
Si Si8 0.612684 0.453949 0.290835
O O1 0.750000 0.881871 0.750000
O O2 0.649249 0.820775 0.625145
O O3 0.831765 0.798344 0.638430
O O4 0.736992 0.998486 0.627651
O O5 0.250000 0.890779 0.250000
O O6 0.333978 0.787523 0.350772
O O7 0.159285 0.833310 0.379794
O O8 0.184755 0.696681 0.990551
O O9 0.117322 0.625521 0.862639
O O10 0.000000 0.733730 0.947932
O O11 0.270277 0.500000 0.500000
O O12 0.151961 0.629368 0.562850
O O13 0.171671 0.637852 0.415481
O O14 0.853233 0.610710 0.714361
O O15 0.000000 0.695410 0.644280
O O16 0.500000 0.312802 0.655972
O O17 0.608591 0.296244 0.777758
O O18 0.652336 0.431976 0.681896
O O19 0.500000 0.281884 0.898106
O O20 0.500000 0.476030 0.273735
#
# Coordination Sequence:
#
# PCOD9416399 Si02
#       8
#     8   8   8   8   8   8   8   8
#     4  10  19  35  58  88 119 150 194 243 292 351
#     4   9  20  36  57  87 118 151 194 240 293 352
#     4  10  22  39  58  86 118 152 193 241 297 346
#     4  11  24  37  57  84 116 163 200 236 286 349
#     4  10  20  35  56  87 119 151 196 245 294 346
#     4   9  18  34  59  89 118 148 186 236 295 355
#     4  10  21  39  56  80 117 155 193 236 287 340
#     4   9  17  32  57  86 114 145 183 236 298 351
#
# _framework density 20.997959000000002
#
# number of rings (size 3 to 8) (size 9 to 14) (size 15 to 20)
#    0.000    2.250    1.250    1.125    1.750    3.250 
#    6.750    5.625    0.000    5.250    0.000    0.000 
#    0.000    0.000    0.000    0.000    0.000    0.000 
#
# Total GULP energy -356959.538668 kJ/mol
# GULP energy per Si atom -5577.492792 kJ/mol
# Density = 2.095017 g / cm^3
# Si number density = 20.997959 Si / 1000 Ang^3
#
#
#
# Elastic Constant Matrix: (Units=GPa)
#
#
# Indices 1 2 3 4 5 6 
#
# 1 125.3709 44.3429 31.1216 0.0000 0.0000 0.0000
# 2 44.3429 162.1412 17.8909 0.0000 0.0000 0.0000
# 3 31.1216 17.8909 44.1566 0.0000 0.0000 0.0000
# 4 0.0000 0.0000 0.0000 6.3043 0.0000 0.0000
# 5 0.0000 0.0000 0.0000 0.0000 17.5379 0.0000
# 6 0.0000 0.0000 0.0000 0.0000 0.0000 40.8170
#
#
#
# Elastic Compliance Matrix: (Units=1/GPa)
#
#
# Indices 1 2 3 4 5 6 
#
# 1 0.010316 -0.002114 -0.006415 0.000000 0.000000 0.000000
# 2 -0.002114 0.006889 -0.001302 0.000000 0.000000 0.000000
# 3 -0.006415 -0.001302 0.027695 0.000000 0.000000 0.000000
# 4 0.000000 0.000000 0.000000 0.158623 0.000000 0.000000
# 5 0.000000 0.000000 0.000000 0.000000 0.057019 0.000000
# 6 0.000000 0.000000 0.000000 0.000000 0.000000 0.024500
#
#
# Mechanical properties :
#
#
# Convention : Reuss Voigt Hill
#
# Bulk Modulus (GPa) = 39.61821 57.59773 48.60797
# Shear Modulus (GPa) = 15.96857 28.81938 22.39397
#
# Velocity S-wave (km/s) = 2.76068 3.70873 3.26925
# Velocity P-wave (km/s) = 5.39170 6.76973 6.11962
#
# Compressibility (1/GPa) = 0.02524092
#
# Stress axis : x y z
#
# Youngs Moduli (GPa) = 96.93506 145.15681 36.10760
#
# Poissons Ratio (x) = 0.30679 0.23161
# Poissons Ratio (y) = 0.20487 0.04700
# Poissons Ratio (z) = 0.62179 0.18894
#
# Static dielectric constant tensor:
#      x y z
#    x 1.782480 0.000000 0.000000 
#    y 0.000000 1.762890 0.000000 
#    z 0.000000 0.000000 1.792780 
# 
# From -- ./inp_files/28553.got.cif
#   From: 2010.05.17/outbox.cif.g08.bks.cpg/sg53_15_cif.got.tgz:28553.got - 2010.06.03 12:45:16.
