data_PCOD9416971
_publ_section_title
;
Structure prediction by ZEFSAII (Michael W. Deem and Ramdas Pophale) SiO2 
 PCOD9416971
Probable space group: P M N A
;
_chemical_formula_sum "Si O2"
_cell_formula_units_Z 56
_cell_length_a 18.034337
_cell_length_b 11.905650
_cell_length_c 15.100615
_cell_angle_alpha 90.000000
_cell_angle_beta 90.000000
_cell_angle_gamma 90.000000
_cell_volume 3242.260662
_symmetry_space_group_name_H-M "P M N A"
_symmetry_group_IT_number 53
_symmetry_cell_setting 'orthorhombic'
loop_
_space_group_symop_operation_xyz
x,y,z
1/2-x,-y,1/2+z
x,-y,-z
1/2-x,y,1/2-z
-x,-y,-z
1/2+x,y,1/2-z
-x,y,z
1/2+x,-y,1/2+z
loop_
_atom_site_type_symbol
_atom_site_label
_atom_site_fract_x
_atom_site_fract_y
_atom_site_fract_z
Si Si1 0.090299 0.159267 0.167118
Si Si2 0.586546 0.377153 0.238938
Si Si3 0.143473 0.457183 0.872492
Si Si4 0.410604 0.257547 0.521136
Si Si5 0.817082 0.521554 0.397945
Si Si6 0.411013 0.903652 0.314144
Si Si7 0.333745 0.277728 0.780124
O O1 0.110170 0.249160 0.242429
O O2 0.000000 0.157467 0.164293
O O3 0.115374 0.031786 0.181208
O O4 0.114781 0.207314 0.072096
O O5 0.500000 0.382247 0.213922
O O6 0.595914 0.440548 0.334042
O O7 0.637061 0.439727 0.166854
O O8 0.120067 0.381482 0.955994
O O9 0.229057 0.492879 0.880664
O O10 0.136784 0.366654 0.792491
O O11 0.500000 0.265504 0.521612
O O12 0.389557 0.168171 0.598253
O O13 0.833597 0.500000 0.500000
O O14 0.833855 0.650565 0.369731
O O15 0.500000 0.904278 0.311600
O O16 0.380290 0.834547 0.230718
O O17 0.250000 0.253077 0.750000
#
# Coordination Sequence:
#
# PCOD9416971 Si02
#       7
#     8   8   8   8   8   8   8
#     4   9  18  29  45  74 106 134 161 200 250 299
#     4  10  20  34  50  72 103 132 167 207 253 306
#     4   9  18  32  50  74 102 133 161 202 254 306
#     4   9  16  27  48  78 106 134 166 201 244 298
#     4  10  21  35  53  73  97 133 171 216 259 300
#     4   9  16  29  50  72  99 133 168 202 244 298
#     4   8  16  32  49  69  96 124 164 207 248 291
#
# _framework density 17.271899000000001
#
# number of rings (size 3 to 8) (size 9 to 14) (size 15 to 20)
#    0.000    2.857    0.000    2.143    2.000    5.429 
#    0.000    3.571    0.000    0.857    0.000    3.000 
#    0.000    0.000    0.000    0.000    0.000    0.000 
#
# Total GULP energy -311946.871373 kJ/mol
# GULP energy per Si atom -5570.479846 kJ/mol
# Density = 1.723259 g / cm^3
# Si number density = 17.271899 Si / 1000 Ang^3
#
#
#
# Elastic Constant Matrix: (Units=GPa)
#
#
# Indices 1 2 3 4 5 6 
#
# 1 31.0699 42.6784 22.4634 0.0000 0.0000 0.0000
# 2 42.6784 130.3535 51.5413 0.0000 0.0000 0.0000
# 3 22.4634 51.5413 89.3543 0.0000 0.0000 0.0000
# 4 0.0000 0.0000 0.0000 22.0070 0.0000 0.0000
# 5 0.0000 0.0000 0.0000 0.0000 14.1609 0.0000
# 6 0.0000 0.0000 0.0000 0.0000 0.0000 -8.3064
#
#
#
# Elastic Compliance Matrix: (Units=1/GPa)
#
#
# Indices 1 2 3 4 5 6 
#
# 1 0.060082 -0.017746 -0.004868 0.000000 0.000000 0.000000
# 2 -0.017746 0.015180 -0.004295 0.000000 0.000000 0.000000
# 3 -0.004868 -0.004295 0.014892 0.000000 0.000000 0.000000
# 4 0.000000 0.000000 0.000000 0.045440 0.000000 0.000000
# 5 0.000000 0.000000 0.000000 0.000000 0.070617 0.000000
# 6 0.000000 0.000000 0.000000 0.000000 0.000000 -0.120389
#
#
# Mechanical properties :
#
#
# Convention : Reuss Voigt Hill
#
# Bulk Modulus (GPa) = 27.52075 53.79373 40.65724
# Shear Modulus (GPa) = 32.94861 14.51195 23.73028
#
# Velocity S-wave (km/s) = 4.37239 2.90177 3.71067
# Velocity P-wave (km/s) = 6.43886 6.51459 6.47683
#
# Compressibility (1/GPa) = 0.03633622
#
# Stress axis : x y z
#
# Youngs Moduli (GPa) = 16.64397 65.87733 67.14829
#
# Poissons Ratio (x) = 1.16908 0.32688
# Poissons Ratio (y) = 0.29537 0.28837
# Poissons Ratio (z) = 0.08102 0.28292
#
# Static dielectric constant tensor:
#      x y z
#    x 1.581750 0.000000 0.000000 
#    y 0.000000 1.613800 0.000000 
#    z 0.000000 0.000000 1.617840 
# 
# From -- ./inp_files/29074.got.cif
#   From: 2010.05.17/outbox.cif.g08.bks.cpg/sg53_15_cif.got.tgz:29074.got - 2010.06.03 12:45:16.
