data_PCOD9416317
_publ_section_title
;
Structure prediction by ZEFSAII (Michael W. Deem and Ramdas Pophale) SiO2 
 PCOD9416317
Probable space group: P M N A
;
_chemical_formula_sum "Si O2"
_cell_formula_units_Z 48
_cell_length_a 8.447431
_cell_length_b 16.041655
_cell_length_c 20.710454
_cell_angle_alpha 90.000000
_cell_angle_beta 90.000000
_cell_angle_gamma 90.000000
_cell_volume 2806.489646
_symmetry_space_group_name_H-M "P M N A"
_symmetry_group_IT_number 53
_symmetry_cell_setting 'orthorhombic'
loop_
_space_group_symop_operation_xyz
x,y,z
1/2-x,-y,1/2+z
x,-y,-z
1/2-x,y,1/2-z
-x,-y,-z
1/2+x,y,1/2-z
-x,y,z
1/2+x,-y,1/2+z
loop_
_atom_site_type_symbol
_atom_site_label
_atom_site_fract_x
_atom_site_fract_y
_atom_site_fract_z
Si Si1 0.813360 0.720193 0.462149
Si Si2 0.308694 0.413823 0.321518
Si Si3 0.808803 0.750241 0.893280
Si Si4 0.191323 0.542038 0.067825
Si Si5 0.188297 0.106868 0.934538
Si Si6 0.689074 0.929060 0.587936
O O1 0.734213 0.726111 0.533192
O O2 0.755599 0.635451 0.429351
O O3 0.767204 0.804087 0.423612
O O4 0.000000 0.718185 0.471291
O O5 0.250000 0.431054 0.250000
O O6 0.500000 0.412840 0.321984
O O7 0.252937 0.323007 0.346438
O O8 0.257469 0.483194 0.373353
O O9 0.748600 0.844332 0.879513
O O10 0.000000 0.753075 0.890249
O O11 0.000000 0.545419 0.067570
O O12 0.240867 0.500000 0.000000
O O13 0.000000 0.114420 0.923134
O O14 0.250490 0.022688 0.899899
O O15 0.207995 0.088758 0.011302
O O16 0.500000 0.933269 0.599712
#
# Coordination Sequence:
#
# PCOD9416317 Si02
#       6
#     8   8   8   8   8   8
#     4  11  20  27  42  71 100 126 156 203 252 286
#     4  10  21  35  53  73  97 128 160 202 247 294
#     4   9  16  31  49  66  91 129 166 194 231 289
#     4  10  19  35  54  70  91 128 172 203 239 294
#     4   8  13  24  40  61  90 124 157 193 231 279
#     4   7  11  21  42  64  84 117 162 196 220 264
#
# _framework density 17.103217000000001
#
# number of rings (size 3 to 8) (size 9 to 14) (size 15 to 20)
#    0.000    2.833    1.667    3.500    0.000    1.667 
#    0.000    6.667    0.000    0.000    0.000    1.167 
#    0.000    2.667    0.000    0.000    0.000    0.000 
#
# Total GULP energy -267202.663234 kJ/mol
# GULP energy per Si atom -5566.722151 kJ/mol
# Density = 1.706429 g / cm^3
# Si number density = 17.103217 Si / 1000 Ang^3
#
#
#
# Elastic Constant Matrix: (Units=GPa)
#
#
# Indices 1 2 3 4 5 6 
#
# 1 3.6362 20.5658 4.5532 0.0000 0.0000 0.0000
# 2 20.5658 187.1165 56.7688 0.0000 0.0000 0.0000
# 3 4.5532 56.7688 65.2122 0.0000 0.0000 0.0000
# 4 0.0000 0.0000 0.0000 14.8867 0.0000 0.0000
# 5 0.0000 0.0000 0.0000 0.0000 13.0520 0.0000
# 6 0.0000 0.0000 0.0000 0.0000 0.0000 -27.1806
#
#
#
# Elastic Compliance Matrix: (Units=1/GPa)
#
#
# Indices 1 2 3 4 5 6 
#
# 1 0.759576 -0.091582 0.026690 0.000000 0.000000 0.000000
# 2 -0.091582 0.018304 -0.009540 0.000000 0.000000 0.000000
# 3 0.026690 -0.009540 0.021776 0.000000 0.000000 0.000000
# 4 0.000000 0.000000 0.000000 0.067174 0.000000 0.000000
# 5 0.000000 0.000000 0.000000 0.000000 0.076616 0.000000
# 6 0.000000 0.000000 0.000000 0.000000 0.000000 -0.036791
#
#
# Mechanical properties :
#
#
# Convention : Reuss Voigt Hill
#
# Bulk Modulus (GPa) = 1.53659 46.63782 24.08720
# Shear Modulus (GPa) = 3.92943 11.75677 7.84310
#
# Velocity S-wave (km/s) = 1.51739 2.62468 2.14376
# Velocity P-wave (km/s) = 1.99257 6.04259 4.49907
#
# Compressibility (1/GPa) = 0.65079274
#
# Stress axis : x y z
#
# Youngs Moduli (GPa) = 1.31652 54.63206 45.92248
#
# Poissons Ratio (x) = 5.00331 -1.22568
# Poissons Ratio (y) = 0.12057 0.43810
# Poissons Ratio (z) = -0.03514 0.52119
#
# Static dielectric constant tensor:
#      x y z
#    x 1.577990 0.000000 0.000000 
#    y 0.000000 1.648070 0.000000 
#    z 0.000000 0.000000 1.543550 
# 
# From -- ./inp_files/30529.got.cif
#   From: 2010.05.17/outbox.cif.g08.bks.cpg/sg53_16_cif.got.tgz:30529.got - 2010.06.03 12:45:16.
