data_PCOD9416558
_publ_section_title
;
Structure prediction by ZEFSAII (Michael W. Deem and Ramdas Pophale) SiO2 
 PCOD9416558
Probable space group: P M N A
;
_chemical_formula_sum "Si O2"
_cell_formula_units_Z 64
_cell_length_a 8.810742
_cell_length_b 20.316591
_cell_length_c 18.932585
_cell_angle_alpha 90.000000
_cell_angle_beta 90.000000
_cell_angle_gamma 90.000000
_cell_volume 3389.013020
_symmetry_space_group_name_H-M "P M N A"
_symmetry_group_IT_number 53
_symmetry_cell_setting 'orthorhombic'
loop_
_space_group_symop_operation_xyz
x,y,z
1/2-x,-y,1/2+z
x,-y,-z
1/2-x,y,1/2-z
-x,-y,-z
1/2+x,y,1/2-z
-x,y,z
1/2+x,-y,1/2+z
loop_
_atom_site_type_symbol
_atom_site_label
_atom_site_fract_x
_atom_site_fract_y
_atom_site_fract_z
Si Si1 0.180165 0.024250 0.826838
Si Si2 0.815263 0.662008 0.585905
Si Si3 0.182449 0.089010 0.423406
Si Si4 0.680590 0.606216 0.327902
Si Si5 0.182256 0.214025 0.326290
Si Si6 0.182034 0.487391 0.416829
Si Si7 0.682596 0.867801 0.079932
Si Si8 0.183156 0.286628 0.569398
O O1 0.250000 0.010737 0.750000
O O2 0.237509 0.093995 0.856856
O O3 0.000000 0.022597 0.822051
O O4 0.238294 0.970090 0.882610
O O5 0.763994 0.716161 0.642336
O O6 0.768186 0.587203 0.599749
O O7 0.770699 0.685826 0.507569
O O8 0.000000 0.662271 0.586248
O O9 0.218027 0.156416 0.381772
O O10 0.224683 0.098513 0.505148
O O11 0.000000 0.079029 0.420682
O O12 0.750000 0.605444 0.250000
O O13 0.500000 0.607455 0.324099
O O14 0.735981 0.541917 0.370451
O O15 0.741055 0.669187 0.370961
O O16 0.250000 0.200041 0.250000
O O17 0.000000 0.216258 0.320563
O O18 0.208636 0.500000 0.500000
O O19 0.000000 0.492916 0.405552
O O20 0.500000 0.873660 0.087332
O O21 0.719497 0.790507 0.075900
O O22 0.000000 0.293321 0.574210
#
# Coordination Sequence:
#
# PCOD9416558 Si02
#       8
#     8   8   8   8   8   8   8   8
#     4  12  26  42  60  85 122 162 203 251 304 361
#     4   9  17  34  61  89 117 153 198 240 292 359
#     4  10  20  38  64  91 121 157 199 244 297 360
#     4  12  26  42  61  89 126 163 207 258 308 363
#     4  10  20  35  56  86 121 156 193 237 289 349
#     4  10  19  36  65  91 118 158 201 246 301 363
#     4  10  21  39  67  95 120 155 201 251 301 366
#     4  10  19  39  67  92 118 157 203 247 302 366
#
# _framework density 18.884554000000001
#
# number of rings (size 3 to 8) (size 9 to 14) (size 15 to 20)
#    0.000    1.625    2.500    3.000    0.000    5.250 
#    0.000    2.500    0.000    0.000    0.000    0.000 
#    0.000    0.000    0.000    0.000    0.000    0.000 
#
# Total GULP energy -357681.985226 kJ/mol
# GULP energy per Si atom -5588.781019 kJ/mol
# Density = 1.884157 g / cm^3
# Si number density = 18.884554 Si / 1000 Ang^3
#
#
#
# Elastic Constant Matrix: (Units=GPa)
#
#
# Indices 1 2 3 4 5 6 
#
# 1 41.6817 42.5168 31.1534 0.0000 0.0000 0.0000
# 2 42.5168 108.6866 31.0027 0.0000 0.0000 0.0000
# 3 31.1534 31.0027 73.4926 0.0000 0.0000 0.0000
# 4 0.0000 0.0000 0.0000 24.0905 0.0000 0.0000
# 5 0.0000 0.0000 0.0000 0.0000 25.6118 0.0000
# 6 0.0000 0.0000 0.0000 0.0000 0.0000 20.0648
#
#
#
# Elastic Compliance Matrix: (Units=1/GPa)
#
#
# Indices 1 2 3 4 5 6 
#
# 1 0.051412 -0.015796 -0.015130 0.000000 0.000000 0.000000
# 2 -0.015796 0.015313 0.000236 0.000000 0.000000 0.000000
# 3 -0.015130 0.000236 0.019921 0.000000 0.000000 0.000000
# 4 0.000000 0.000000 0.000000 0.041510 0.000000 0.000000
# 5 0.000000 0.000000 0.000000 0.000000 0.039044 0.000000
# 6 0.000000 0.000000 0.000000 0.000000 0.000000 0.049838
#
#
# Mechanical properties :
#
#
# Convention : Reuss Voigt Hill
#
# Bulk Modulus (GPa) = 39.57879 48.13408 43.85644
# Shear Modulus (GPa) = 17.43134 21.89931 19.66532
#
# Velocity S-wave (km/s) = 3.04147 3.40904 3.23049
# Velocity P-wave (km/s) = 5.77389 6.40620 6.09824
#
# Compressibility (1/GPa) = 0.02526606
#
# Stress axis : x y z
#
# Youngs Moduli (GPa) = 19.45066 65.30602 50.19901
#
# Poissons Ratio (x) = 1.03157 0.75951
# Poissons Ratio (y) = 0.30724 -0.01186
# Poissons Ratio (z) = 0.29429 -0.01543
#
# Static dielectric constant tensor:
#      x y z
#    x 1.633750 0.000000 0.000000 
#    y 0.000000 1.656350 0.000000 
#    z 0.000000 0.000000 1.622420 
# 
# From -- ./inp_files/26843.got.cif
#   From: 2010.05.17/outbox.cif.g08.bks.cpg/sg53_14_cif.got.tgz:26843.got - 2010.06.03 12:45:16.
