data_PCOD9416231
_publ_section_title
;
Structure prediction by ZEFSAII (Michael W. Deem and Ramdas Pophale) SiO2 
 PCOD9416231
Probable space group: P M N A
;
_chemical_formula_sum "Si O2"
_cell_formula_units_Z 64
_cell_length_a 8.623697
_cell_length_b 22.259543
_cell_length_c 18.233241
_cell_angle_alpha 90.000000
_cell_angle_beta 90.000000
_cell_angle_gamma 90.000000
_cell_volume 3500.044814
_symmetry_space_group_name_H-M "P M N A"
_symmetry_group_IT_number 53
_symmetry_cell_setting 'orthorhombic'
loop_
_space_group_symop_operation_xyz
x,y,z
1/2-x,-y,1/2+z
x,-y,-z
1/2-x,y,1/2-z
-x,-y,-z
1/2+x,y,1/2-z
-x,y,z
1/2+x,-y,1/2+z
loop_
_atom_site_type_symbol
_atom_site_label
_atom_site_fract_x
_atom_site_fract_y
_atom_site_fract_z
Si Si1 0.813956 0.256201 0.099756
Si Si2 0.686636 0.688875 0.050199
Si Si3 0.686907 0.121544 0.413972
Si Si4 0.686319 0.999342 0.668490
Si Si5 0.814371 0.372454 0.327693
Si Si6 0.314999 0.889143 0.078034
Si Si7 0.185061 0.775421 0.167857
Si Si8 0.688616 0.434174 0.022012
O O1 0.771218 0.187408 0.116227
O O2 0.745327 0.305434 0.154576
O O3 0.000000 0.261398 0.098695
O O4 0.748734 0.273250 0.019368
O O5 0.500000 0.693035 0.051591
O O6 0.755954 0.717378 0.123217
O O7 0.731428 0.619883 0.033065
O O8 0.500000 0.120245 0.422634
O O9 0.760313 0.114010 0.494077
O O10 0.731148 0.066293 0.362107
O O11 0.750000 0.008465 0.750000
O O12 0.500000 0.003792 0.668941
O O13 0.753795 0.050083 0.615219
O O14 0.750000 0.393148 0.250000
O O15 0.763171 0.413191 0.396673
O O16 0.000000 0.371772 0.326293
O O17 0.500000 0.886632 0.081695
O O18 0.246095 0.833089 0.123050
O O19 0.250000 0.776623 0.250000
O O20 0.000000 0.776640 0.169226
O O21 0.500000 0.435890 0.022397
O O22 0.745215 0.500000 0.000000
#
# Coordination Sequence:
#
# PCOD9416231 Si02
#       8
#     8   8   8   8   8   8   8   8
#     4  10  19  34  57  83 113 149 187 229 282 336
#     4  10  19  34  57  86 116 148 187 230 278 336
#     4  10  22  39  60  85 113 150 187 232 285 343
#     4  11  24  42  59  79 112 149 191 237 290 344
#     4  10  20  34  55  83 116 152 194 240 289 340
#     4  12  24  39  61  86 112 145 190 238 287 347
#     4  12  24  39  59  84 115 150 189 237 292 344
#     4   8  16  33  58  85 115 154 195 234 280 336
#
# _framework density 18.28548
#
# number of rings (size 3 to 8) (size 9 to 14) (size 15 to 20)
#    0.000    1.625    1.250    5.250    0.000    3.500 
#    0.000    1.875    0.000   15.000    0.000    0.000 
#    0.000    0.000    0.000    0.000    0.000    0.000 
#
# Total GULP energy -357577.480608 kJ/mol
# GULP energy per Si atom -5587.148134 kJ/mol
# Density = 1.824386 g / cm^3
# Si number density = 18.285480 Si / 1000 Ang^3
#
#
#
# Elastic Constant Matrix: (Units=GPa)
#
#
# Indices 1 2 3 4 5 6 
#
# 1 55.7813 24.3674 7.2517 0.0000 0.0000 0.0000
# 2 24.3674 128.1163 18.7286 0.0000 0.0000 0.0000
# 3 7.2517 18.7286 42.1831 0.0000 0.0000 0.0000
# 4 0.0000 0.0000 0.0000 15.8651 0.0000 0.0000
# 5 0.0000 0.0000 0.0000 0.0000 31.5886 0.0000
# 6 0.0000 0.0000 0.0000 0.0000 0.0000 17.6413
#
#
#
# Elastic Compliance Matrix: (Units=1/GPa)
#
#
# Indices 1 2 3 4 5 6 
#
# 1 0.019684 -0.003475 -0.001841 0.000000 0.000000 0.000000
# 2 -0.003475 0.008961 -0.003381 0.000000 0.000000 0.000000
# 3 -0.001841 -0.003381 0.025524 0.000000 0.000000 0.000000
# 4 0.000000 0.000000 0.000000 0.063032 0.000000 0.000000
# 5 0.000000 0.000000 0.000000 0.000000 0.031657 0.000000
# 6 0.000000 0.000000 0.000000 0.000000 0.000000 0.056685
#
#
# Mechanical properties :
#
#
# Convention : Reuss Voigt Hill
#
# Bulk Modulus (GPa) = 27.19250 36.30845 31.75047
# Shear Modulus (GPa) = 21.25897 24.73451 22.99674
#
# Velocity S-wave (km/s) = 3.41341 3.68188 3.55018
# Velocity P-wave (km/s) = 5.51711 6.16235 5.84864
#
# Compressibility (1/GPa) = 0.03677485
#
# Stress axis : x y z
#
# Youngs Moduli (GPa) = 50.80156 111.60036 39.17914
#
# Poissons Ratio (x) = 0.38779 0.07214
# Poissons Ratio (y) = 0.17652 0.13246
# Poissons Ratio (z) = 0.09354 0.37732
#
# Static dielectric constant tensor:
#      x y z
#    x 1.616520 0.000000 0.000000 
#    y 0.000000 1.631630 0.000000 
#    z 0.000000 0.000000 1.596190 
# 
# From -- ./inp_files/26927.got.cif
#   From: 2010.05.17/outbox.cif.g08.bks.cpg/sg53_14_cif.got.tgz:26927.got - 2010.06.03 12:45:16.
