data_PCOD9416920
_publ_section_title
;
Structure prediction by ZEFSAII (Michael W. Deem and Ramdas Pophale) SiO2 
 PCOD9416920
Probable space group: P M N A
;
_chemical_formula_sum "Si O2"
_cell_formula_units_Z 64
_cell_length_a 8.789692
_cell_length_b 11.005773
_cell_length_c 34.171786
_cell_angle_alpha 90.000000
_cell_angle_beta 90.000000
_cell_angle_gamma 90.000000
_cell_volume 3305.688190
_symmetry_space_group_name_H-M "P M N A"
_symmetry_group_IT_number 53
_symmetry_cell_setting 'orthorhombic'
loop_
_space_group_symop_operation_xyz
x,y,z
1/2-x,-y,1/2+z
x,-y,-z
1/2-x,y,1/2-z
-x,-y,-z
1/2+x,y,1/2-z
-x,y,z
1/2+x,-y,1/2+z
loop_
_atom_site_type_symbol
_atom_site_label
_atom_site_fract_x
_atom_site_fract_y
_atom_site_fract_z
Si Si1 0.177683 0.932247 0.555794
Si Si2 0.320304 0.567112 0.906373
Si Si3 0.182410 0.810105 0.055148
Si Si4 0.680919 0.669098 0.367619
Si Si5 0.179457 0.051010 0.208968
Si Si6 0.820615 0.691461 0.978537
Si Si7 0.676046 0.820758 0.861589
Si Si8 0.318693 0.215724 0.791969
O O1 0.231264 0.066224 0.544963
O O2 0.000000 0.911276 0.545801
O O3 0.280000 0.826375 0.537372
O O4 0.192497 0.915010 0.602573
O O5 0.500000 0.541758 0.906384
O O6 0.230775 0.458061 0.886401
O O7 0.266502 0.599406 0.950283
O O8 0.294377 0.689635 0.880897
O O9 0.218362 0.768409 0.098968
O O10 0.000000 0.830162 0.052089
O O11 0.220888 0.703535 0.024211
O O12 0.500000 0.671497 0.361292
O O13 0.764770 0.699920 0.327434
O O14 0.250000 0.093921 0.250000
O O15 0.255602 0.920256 0.200335
O O16 0.000000 0.033730 0.213163
O O17 0.218288 0.141872 0.173982
O O18 0.000000 0.667410 0.975204
O O19 0.500000 0.823766 0.848505
O O20 0.250000 0.253592 0.750000
O O21 0.500000 0.212258 0.789521
#
# Coordination Sequence:
#
# PCOD9416920 Si02
#       8
#     8   8   8   8   8   8   8   8
#     4  10  20  33  53  81 111 143 181 230 284 335
#     4  10  22  40  59  80 108 145 189 235 281 328
#     4  10  22  36  53  80 113 149 187 229 278 334
#     4  11  23  40  60  83 112 147 190 234 277 328
#     4  11  21  34  56  86 117 146 178 218 270 330
#     4  10  20  36  56  78 109 149 189 230 279 333
#     4   9  19  36  55  77 108 143 180 224 275 330
#     4  11  22  39  62  88 118 149 182 222 273 328
#
# _framework density 19.360567
#
# number of rings (size 3 to 8) (size 9 to 14) (size 15 to 20)
#    0.000    1.750    0.000    6.375    0.000    9.000 
#    0.000    3.125    0.000    3.000    0.000    0.000 
#    0.000    0.000    0.000    0.000    0.000    0.000 
#
# Total GULP energy -357661.274528 kJ/mol
# GULP energy per Si atom -5588.457414 kJ/mol
# Density = 1.931650 g / cm^3
# Si number density = 19.360567 Si / 1000 Ang^3
#
#
#
# Elastic Constant Matrix: (Units=GPa)
#
#
# Indices 1 2 3 4 5 6 
#
# 1 79.7316 14.3936 34.5524 0.0000 0.0000 0.0000
# 2 14.3936 32.4148 5.4039 0.0000 0.0000 0.0000
# 3 34.5524 5.4039 73.8411 0.0000 0.0000 0.0000
# 4 0.0000 0.0000 0.0000 20.3578 0.0000 0.0000
# 5 0.0000 0.0000 0.0000 0.0000 30.8689 0.0000
# 6 0.0000 0.0000 0.0000 0.0000 0.0000 25.2761
#
#
#
# Elastic Compliance Matrix: (Units=1/GPa)
#
#
# Indices 1 2 3 4 5 6 
#
# 1 0.016901 -0.006263 -0.007450 0.000000 0.000000 0.000000
# 2 -0.006263 0.033552 0.000475 0.000000 0.000000 0.000000
# 3 -0.007450 0.000475 0.016994 0.000000 0.000000 0.000000
# 4 0.000000 0.000000 0.000000 0.049121 0.000000 0.000000
# 5 0.000000 0.000000 0.000000 0.000000 0.032395 0.000000
# 6 0.000000 0.000000 0.000000 0.000000 0.000000 0.039563
#
#
# Mechanical properties :
#
#
# Convention : Reuss Voigt Hill
#
# Bulk Modulus (GPa) = 24.40739 32.74304 28.57522
# Shear Modulus (GPa) = 21.86654 24.07638 22.97146
#
# Velocity S-wave (km/s) = 3.36436 3.53027 3.44831
# Velocity P-wave (km/s) = 5.26555 5.79362 5.53588
#
# Compressibility (1/GPa) = 0.04097120
#
# Stress axis : x y z
#
# Youngs Moduli (GPa) = 59.16690 29.80462 58.84414
#
# Poissons Ratio (x) = 0.18666 0.43841
# Poissons Ratio (y) = 0.37055 -0.02796
# Poissons Ratio (z) = 0.44081 -0.01416
#
# Static dielectric constant tensor:
#      x y z
#    x 1.646640 0.000000 0.000000 
#    y 0.000000 1.657810 0.000000 
#    z 0.000000 0.000000 1.691290 
# 
# From -- ./inp_files/38154.got.cif
#   From: 2010.05.17/outbox.cif.g08.bks.cpg/sg53_20_cif.got.tgz:38154.got - 2010.06.03 12:45:16.
