data_PCOD9416802
_publ_section_title
;
Structure prediction by ZEFSAII (Michael W. Deem and Ramdas Pophale) SiO2 
 PCOD9416802
Probable space group: P M N A
;
_chemical_formula_sum "Si O2"
_cell_formula_units_Z 64
_cell_length_a 9.160127
_cell_length_b 10.893861
_cell_length_c 34.650334
_cell_angle_alpha 90.000000
_cell_angle_beta 90.000000
_cell_angle_gamma 90.000000
_cell_volume 3457.727387
_symmetry_space_group_name_H-M "P M N A"
_symmetry_group_IT_number 53
_symmetry_cell_setting 'orthorhombic'
loop_
_space_group_symop_operation_xyz
x,y,z
1/2-x,-y,1/2+z
x,-y,-z
1/2-x,y,1/2-z
-x,-y,-z
1/2+x,y,1/2-z
-x,y,z
1/2+x,-y,1/2+z
loop_
_atom_site_type_symbol
_atom_site_label
_atom_site_fract_x
_atom_site_fract_y
_atom_site_fract_z
Si Si1 0.330878 0.549900 0.058887
Si Si2 0.673771 0.426974 0.710709
Si Si3 0.328029 0.667319 0.371650
Si Si4 0.172654 0.927904 0.086601
Si Si5 0.824151 0.716244 0.790135
Si Si6 0.673820 0.695623 0.551995
Si Si7 0.669886 0.812770 0.015914
Si Si8 0.323104 0.173892 0.370758
O O1 0.500000 0.513348 0.059448
O O2 0.268313 0.582077 0.100954
O O3 0.237523 0.437797 0.042706
O O4 0.319524 0.677011 0.035427
O O5 0.750000 0.386753 0.750000
O O6 0.500000 0.418014 0.715690
O O7 0.713995 0.351004 0.672705
O O8 0.708372 0.571205 0.704089
O O9 0.500000 0.632646 0.375614
O O10 0.313060 0.805322 0.387440
O O11 0.258464 0.903814 0.046955
O O12 0.000000 0.944093 0.077820
O O13 0.224278 0.043691 0.111618
O O14 0.750000 0.754759 0.750000
O O15 0.772545 0.789188 0.828131
O O16 0.000000 0.728069 0.786868
O O17 0.500000 0.697115 0.547725
O O18 0.743336 0.796716 0.523786
O O19 0.712682 0.727075 0.596250
O O20 0.500000 0.840777 0.009664
O O21 0.500000 0.169925 0.368462
#
# Coordination Sequence:
#
# PCOD9416802 Si02
#       8
#     8   8   8   8   8   8   8   8
#     4  10  20  33  50  73 102 132 162 203 257 308
#     4   9  17  29  47  73 102 129 159 199 248 301
#     4   9  17  31  52  74  96 127 168 208 245 294
#     4   9  18  35  56  73  93 130 176 211 244 292
#     4   9  17  32  52  73 100 130 159 197 246 295
#     4  11  21  33  52  76 101 132 171 210 248 297
#     4  10  21  36  51  72 104 135 163 205 259 302
#     4   9  19  35  54  75 100 131 169 213 251 285
#
# _framework density 18.509267999999999
#
# number of rings (size 3 to 8) (size 9 to 14) (size 15 to 20)
#    0.000    2.500    0.000    2.250    0.000    6.000 
#    0.000    8.750    0.000    0.000    0.000    0.000 
#    0.000    0.000    0.000    0.000    0.000    0.000 
#
# Total GULP energy -357142.123178 kJ/mol
# GULP energy per Si atom -5580.345675 kJ/mol
# Density = 1.846714 g / cm^3
# Si number density = 18.509268 Si / 1000 Ang^3
#
#
#
# Elastic Constant Matrix: (Units=GPa)
#
#
# Indices 1 2 3 4 5 6 
#
# 1 51.0303 25.0376 37.5626 0.0000 0.0000 0.0000
# 2 25.0376 48.0395 13.7541 0.0000 0.0000 0.0000
# 3 37.5626 13.7541 103.1072 0.0000 0.0000 0.0000
# 4 0.0000 0.0000 0.0000 22.8241 0.0000 0.0000
# 5 0.0000 0.0000 0.0000 0.0000 29.0381 0.0000
# 6 0.0000 0.0000 0.0000 0.0000 0.0000 15.4925
#
#
#
# Elastic Compliance Matrix: (Units=1/GPa)
#
#
# Indices 1 2 3 4 5 6 
#
# 1 0.034885 -0.015120 -0.010692 0.000000 0.000000 0.000000
# 2 -0.015120 0.028197 0.001747 0.000000 0.000000 0.000000
# 3 -0.010692 0.001747 0.013361 0.000000 0.000000 0.000000
# 4 0.000000 0.000000 0.000000 0.043813 0.000000 0.000000
# 5 0.000000 0.000000 0.000000 0.000000 0.034437 0.000000
# 6 0.000000 0.000000 0.000000 0.000000 0.000000 0.064547
#
#
# Mechanical properties :
#
#
# Convention : Reuss Voigt Hill
#
# Bulk Modulus (GPa) = 35.32067 39.43171 37.37619
# Shear Modulus (GPa) = 18.06306 21.85914 19.96110
#
# Velocity S-wave (km/s) = 3.12732 3.44027 3.28752
# Velocity P-wave (km/s) = 5.67136 6.09349 5.88621
#
# Compressibility (1/GPa) = 0.02831204
#
# Stress axis : x y z
#
# Youngs Moduli (GPa) = 28.66559 35.46531 74.84652
#
# Poissons Ratio (x) = 0.53625 0.80025
# Poissons Ratio (y) = 0.43344 -0.13077
# Poissons Ratio (z) = 0.30649 -0.06196
#
# Static dielectric constant tensor:
#      x y z
#    x 1.619980 0.000000 0.000000 
#    y 0.000000 1.649290 0.000000 
#    z 0.000000 0.000000 1.636740 
# 
# From -- ./inp_files/38305.got.cif
#   From: 2010.05.17/outbox.cif.g08.bks.cpg/sg53_20_cif.got.tgz:38305.got - 2010.06.03 12:45:16.
