data_PCOD9416766
_publ_section_title
;
Structure prediction by ZEFSAII (Michael W. Deem and Ramdas Pophale) SiO2 
 PCOD9416766
Probable space group: P M N A
;
_chemical_formula_sum "Si O2"
_cell_formula_units_Z 56
_cell_length_a 9.373091
_cell_length_b 18.306004
_cell_length_c 20.392130
_cell_angle_alpha 90.000000
_cell_angle_beta 90.000000
_cell_angle_gamma 90.000000
_cell_volume 3498.959998
_symmetry_space_group_name_H-M "P M N A"
_symmetry_group_IT_number 53
_symmetry_cell_setting 'orthorhombic'
loop_
_space_group_symop_operation_xyz
x,y,z
1/2-x,-y,1/2+z
x,-y,-z
1/2-x,y,1/2-z
-x,-y,-z
1/2+x,y,1/2-z
-x,y,z
1/2+x,-y,1/2+z
loop_
_atom_site_type_symbol
_atom_site_label
_atom_site_fract_x
_atom_site_fract_y
_atom_site_fract_z
Si Si1 0.173630 0.462488 0.567747
Si Si2 0.164488 0.846113 0.063341
Si Si3 0.835827 0.132276 0.095294
Si Si4 0.831207 0.701752 0.453103
Si Si5 0.832532 0.275837 0.390616
Si Si6 0.171771 0.573622 0.681718
Si Si7 0.164671 0.010712 0.579434
O O1 0.222058 0.500000 0.500000
O O2 0.217018 0.377951 0.570799
O O3 0.215322 0.512290 0.628924
O O4 0.000000 0.462075 0.565427
O O5 0.242281 0.769249 0.075024
O O6 0.251567 0.914278 0.092201
O O7 0.000000 0.846031 0.084398
O O8 0.165360 0.857393 0.984072
O O9 0.761587 0.204721 0.123205
O O10 0.000000 0.125181 0.115751
O O11 0.746159 0.059191 0.108431
O O12 0.816511 0.703608 0.532395
O O13 0.000000 0.711359 0.439201
O O14 0.794849 0.346630 0.348246
O O15 0.000000 0.258710 0.380795
O O16 0.250000 0.563201 0.750000
O O17 0.000000 0.569884 0.689252
O O18 0.000000 0.014122 0.600026
O O19 0.164882 0.000000 0.500000
#
# Coordination Sequence:
#
# PCOD9416766 Si02
#       7
#     8   8   8   8   8   8   8
#     4   9  15  28  50  71  88 115 159 203 237 277
#     4   9  16  24  34  53  85 117 143 177 227 276
#     4   9  16  24  36  55  81 113 146 181 223 268
#     4   9  15  25  44  65  83 109 152 197 230 268
#     4   9  16  27  43  62  84 113 151 190 226 269
#     4  10  20  33  49  69  94 123 155 195 242 287
#     4   9  15  23  35  52  77 112 152 185 215 258
#
# _framework density 16.004753999999998
#
# number of rings (size 3 to 8) (size 9 to 14) (size 15 to 20)
#    0.000    2.857    1.429    1.286    0.000    5.714 
#    0.000    0.714    0.000    0.857    0.000    0.000 
#    0.000    1.143    0.000    7.143    0.000    7.571 
#
# Total GULP energy -311965.793399 kJ/mol
# GULP energy per Si atom -5570.817739 kJ/mol
# Density = 1.596833 g / cm^3
# Si number density = 16.004754 Si / 1000 Ang^3
#
#
#
# Elastic Constant Matrix: (Units=GPa)
#
#
# Indices 1 2 3 4 5 6 
#
# 1 95.1367 93.1132 32.7196 0.0000 0.0000 0.0000
# 2 93.1132 188.3585 48.2126 0.0000 0.0000 0.0000
# 3 32.7196 48.2126 42.3173 0.0000 0.0000 0.0000
# 4 0.0000 0.0000 0.0000 8.7908 0.0000 0.0000
# 5 0.0000 0.0000 0.0000 0.0000 14.6253 0.0000
# 6 0.0000 0.0000 0.0000 0.0000 0.0000 10.4781
#
#
#
# Elastic Compliance Matrix: (Units=1/GPa)
#
#
# Indices 1 2 3 4 5 6 
#
# 1 0.021518 -0.009004 -0.006379 0.000000 0.000000 0.000000
# 2 -0.009004 0.011263 -0.005869 0.000000 0.000000 0.000000
# 3 -0.006379 -0.005869 0.035250 0.000000 0.000000 0.000000
# 4 0.000000 0.000000 0.000000 0.113755 0.000000 0.000000
# 5 0.000000 0.000000 0.000000 0.000000 0.068374 0.000000
# 6 0.000000 0.000000 0.000000 0.000000 0.000000 0.095437
#
#
# Mechanical properties :
#
#
# Convention : Reuss Voigt Hill
#
# Bulk Modulus (GPa) = 39.17653 74.87815 57.02734
# Shear Modulus (GPa) = 12.60682 16.89667 14.75174
#
# Velocity S-wave (km/s) = 2.80963 3.25272 3.03926
# Velocity P-wave (km/s) = 5.92086 7.80983 6.93001
#
# Compressibility (1/GPa) = 0.02552549
#
# Stress axis : x y z
#
# Youngs Moduli (GPa) = 46.47291 88.78895 28.36871
#
# Poissons Ratio (x) = 0.79950 0.18095
# Poissons Ratio (y) = 0.41846 0.16651
# Poissons Ratio (z) = 0.29643 0.52114
#
# Static dielectric constant tensor:
#      x y z
#    x 1.534590 0.000000 0.000000 
#    y 0.000000 1.537750 0.000000 
#    z 0.000000 0.000000 1.502540 
# 
# From -- ./inp_files/31002.got.cif
#   From: 2010.05.17/outbox.cif.g08.bks.cpg/sg53_16_cif.got.tgz:31002.got - 2010.06.03 12:45:16.
