data_PCOD9416377
_publ_section_title
;
Structure prediction by ZEFSAII (Michael W. Deem and Ramdas Pophale) SiO2 
 PCOD9416377
Probable space group: P M N A
;
_chemical_formula_sum "Si O2"
_cell_formula_units_Z 64
_cell_length_a 7.996245
_cell_length_b 22.638573
_cell_length_c 16.825641
_cell_angle_alpha 90.000000
_cell_angle_beta 90.000000
_cell_angle_gamma 90.000000
_cell_volume 3045.837705
_symmetry_space_group_name_H-M "P M N A"
_symmetry_group_IT_number 53
_symmetry_cell_setting 'orthorhombic'
loop_
_space_group_symop_operation_xyz
x,y,z
1/2-x,-y,1/2+z
x,-y,-z
1/2-x,y,1/2-z
-x,-y,-z
1/2+x,y,1/2-z
-x,y,z
1/2+x,-y,1/2+z
loop_
_atom_site_type_symbol
_atom_site_label
_atom_site_fract_x
_atom_site_fract_y
_atom_site_fract_z
Si Si1 0.200906 0.997619 0.589627
Si Si2 0.801064 0.874920 0.659965
Si Si3 0.795818 0.568558 0.000162
Si Si4 0.799484 0.752306 0.911972
Si Si5 0.795552 0.245744 0.909461
Si Si6 0.798445 0.634246 0.838020
Si Si7 0.199336 0.877067 0.159484
Si Si8 0.701355 0.365744 0.662103
O O1 0.238289 0.059346 0.631332
O O2 0.000000 0.992204 0.586603
O O3 0.266225 0.000000 0.500000
O O4 0.266988 0.938552 0.631936
O O5 0.750000 0.864178 0.750000
O O6 0.744966 0.819027 0.609095
O O7 0.000000 0.877445 0.655471
O O8 0.741389 0.598837 0.917019
O O9 0.000000 0.572182 0.000294
O O10 0.748390 0.500000 0.000000
O O11 0.740617 0.598967 0.083142
O O12 0.737833 0.701895 0.851846
O O13 0.000000 0.748547 0.911679
O O14 0.743358 0.738203 0.001318
O O15 0.736575 0.180006 0.888371
O O16 0.741377 0.297761 0.850548
O O17 0.000000 0.244707 0.907938
O O18 0.750000 0.612920 0.750000
O O19 0.000000 0.633340 0.839963
O O20 0.250000 0.868140 0.250000
O O21 0.000000 0.877982 0.152365
O O22 0.750000 0.387416 0.750000
O O23 0.500000 0.366505 0.659374
#
# Coordination Sequence:
#
# PCOD9416377 Si02
#       8
#     8   8   8   8   8   8   8   8
#     4  10  22  40  58  77 105 139 177 225 281 336
#     4  11  23  37  54  78 107 141 179 223 276 332
#     4   9  18  35  59  84 113 154 197 230 272 339
#     4  10  19  35  58  81 108 143 185 231 279 331
#     4   9  18  34  56  81 109 145 185 228 277 335
#     4  10  20  35  57  84 114 150 190 235 284 334
#     4  11  22  35  54  79 107 140 182 227 276 333
#     4  10  19  35  58  84 116 151 192 236 282 335
#
# _framework density 21.012281999999999
#
# number of rings (size 3 to 8) (size 9 to 14) (size 15 to 20)
#    0.000    2.000    1.250    2.625    0.000    4.250 
#    0.000    2.500    0.000    0.750    0.000    0.000 
#    0.000    0.000    0.000    0.000    0.000    0.000 
#
# Total GULP energy -357264.071598 kJ/mol
# GULP energy per Si atom -5582.251119 kJ/mol
# Density = 2.096446 g / cm^3
# Si number density = 21.012282 Si / 1000 Ang^3
#
#
#
# Elastic Constant Matrix: (Units=GPa)
#
#
# Indices 1 2 3 4 5 6 
#
# 1 14.1001 8.5177 8.8496 0.0000 0.0000 0.0000
# 2 8.5177 128.8962 60.2374 0.0000 0.0000 0.0000
# 3 8.8496 60.2374 151.8499 0.0000 0.0000 0.0000
# 4 0.0000 0.0000 0.0000 25.7054 0.0000 0.0000
# 5 0.0000 0.0000 0.0000 0.0000 28.3949 0.0000
# 6 0.0000 0.0000 0.0000 0.0000 0.0000 5.2907
#
#
#
# Elastic Compliance Matrix: (Units=1/GPa)
#
#
# Indices 1 2 3 4 5 6 
#
# 1 0.074931 -0.003573 -0.002949 0.000000 0.000000 0.000000
# 2 -0.003573 0.009694 -0.003637 0.000000 0.000000 0.000000
# 3 -0.002949 -0.003637 0.008200 0.000000 0.000000 0.000000
# 4 0.000000 0.000000 0.000000 0.038902 0.000000 0.000000
# 5 0.000000 0.000000 0.000000 0.000000 0.035218 0.000000
# 6 0.000000 0.000000 0.000000 0.000000 0.000000 0.189011
#
#
# Mechanical properties :
#
#
# Convention : Reuss Voigt Hill
#
# Bulk Modulus (GPa) = 13.79203 50.00618 31.89910
# Shear Modulus (GPa) = 12.48612 26.36098 19.42355
#
# Velocity S-wave (km/s) = 2.44033 3.54581 3.04368
# Velocity P-wave (km/s) = 3.81029 6.37290 5.25034
#
# Compressibility (1/GPa) = 0.07250564
#
# Stress axis : x y z
#
# Youngs Moduli (GPa) = 13.34557 103.15500 121.94779
#
# Poissons Ratio (x) = 0.36860 0.35968
# Poissons Ratio (y) = 0.04769 0.44356
# Poissons Ratio (z) = 0.03936 0.37521
#
# Static dielectric constant tensor:
#      x y z
#    x 1.766040 0.000000 0.000000 
#    y 0.000000 1.800290 0.000000 
#    z 0.000000 0.000000 1.745770 
# 
# From -- ./inp_files/20928.got.cif
#   From: 2010.05.17/outbox.cif.g08.bks.cpg/sg53_11_cif.got.tgz:20928.got - 2010.06.03 12:45:16.
