data_PCOD9416759
_publ_section_title
;
Structure prediction by ZEFSAII (Michael W. Deem and Ramdas Pophale) SiO2 
 PCOD9416759
Probable space group: P M N A
;
_chemical_formula_sum "Si O2"
_cell_formula_units_Z 32
_cell_length_a 22.835924
_cell_length_b 4.847495
_cell_length_c 15.641176
_cell_angle_alpha 90.000000
_cell_angle_beta 90.000000
_cell_angle_gamma 90.000000
_cell_volume 1731.431688
_symmetry_space_group_name_H-M "P M N A"
_symmetry_group_IT_number 53
_symmetry_cell_setting 'orthorhombic'
loop_
_space_group_symop_operation_xyz
x,y,z
1/2-x,-y,1/2+z
x,-y,-z
1/2-x,y,1/2-z
-x,-y,-z
1/2+x,y,1/2-z
-x,y,z
1/2+x,-y,1/2+z
loop_
_atom_site_type_symbol
_atom_site_label
_atom_site_fract_x
_atom_site_fract_y
_atom_site_fract_z
Si Si1 0.565822 0.239971 0.938257
Si Si2 0.755566 0.251240 0.057908
Si Si3 0.843658 0.515450 0.686598
Si Si4 0.314240 0.006938 0.287627
O O1 0.500000 0.156705 0.909884
O O2 0.606763 0.346637 0.862785
O O3 0.560694 0.500000 0.000000
O O4 0.589791 0.000000 0.000000
O O5 0.705292 0.397592 0.116131
O O6 0.805255 0.104042 0.115694
O O7 0.778836 0.500000 0.000000
O O8 0.730984 0.000000 0.000000
O O9 0.858661 0.799354 0.735004
O O10 0.822531 0.309522 0.761886
O O11 0.250000 0.075078 0.250000
#
# Coordination Sequence:
#
# PCOD9416759 Si02
#       4
#     8   8   8   8
#     4  10  21  35  50  72 100 129 167 209 241 281
#     4  11  21  33  50  73 103 136 172 205 244 299
#     4  11  20  33  50  69  98 135 166 195 245 292
#     4  10  20  33  47  69  99 129 164 204 240 288
#
# _framework density 18.481814
#
# number of rings (size 3 to 8) (size 9 to 14) (size 15 to 20)
#    0.000    1.500    0.000    9.000    0.000    4.000 
#    0.000    0.000    0.000    0.000    0.000    0.000 
#    0.000   20.000    0.000    0.000    0.000    0.500 
#
# Total GULP energy -178298.613832 kJ/mol
# GULP energy per Si atom -5571.831682 kJ/mol
# Density = 1.843975 g / cm^3
# Si number density = 18.481814 Si / 1000 Ang^3
#
#
#
# Elastic Constant Matrix: (Units=GPa)
#
#
# Indices 1 2 3 4 5 6 
#
# 1 40.1197 8.2512 15.1582 0.0000 0.0000 0.0000
# 2 8.2512 131.2920 35.9192 0.0000 0.0000 0.0000
# 3 15.1582 35.9192 62.7989 0.0000 0.0000 0.0000
# 4 0.0000 0.0000 0.0000 48.6923 0.0000 0.0000
# 5 0.0000 0.0000 0.0000 0.0000 25.9469 0.0000
# 6 0.0000 0.0000 0.0000 0.0000 0.0000 18.3551
#
#
#
# Elastic Compliance Matrix: (Units=1/GPa)
#
#
# Indices 1 2 3 4 5 6 
#
# 1 0.027428 0.000104 -0.006680 0.000000 0.000000 0.000000
# 2 0.000104 0.009030 -0.005190 0.000000 0.000000 0.000000
# 3 -0.006680 -0.005190 0.020505 0.000000 0.000000 0.000000
# 4 0.000000 0.000000 0.000000 0.020537 0.000000 0.000000
# 5 0.000000 0.000000 0.000000 0.000000 0.038540 0.000000
# 6 0.000000 0.000000 0.000000 0.000000 0.000000 0.054481
#
#
# Mechanical properties :
#
#
# Convention : Reuss Voigt Hill
#
# Bulk Modulus (GPa) = 29.91276 39.20754 34.56015
# Shear Modulus (GPa) = 24.36695 30.25767 27.31231
#
# Velocity S-wave (km/s) = 3.63496 4.05057 3.84838
# Velocity P-wave (km/s) = 5.81698 6.56783 6.20378
#
# Compressibility (1/GPa) = 0.03343055
#
# Stress axis : x y z
#
# Youngs Moduli (GPa) = 36.45930 110.74245 48.76938
#
# Poissons Ratio (x) = -0.01149 0.32577
# Poissons Ratio (y) = -0.00378 0.25311
# Poissons Ratio (z) = 0.24354 0.57474
#
# Static dielectric constant tensor:
#      x y z
#    x 1.666190 0.000000 0.000000 
#    y 0.000000 1.701080 0.000000 
#    z 0.000000 0.000000 1.729730 
# 
# From -- ./inp_files/24030.got.cif
#   From: 2010.05.17/outbox.cif.g08.bks.cpg/sg53_13_cif.got.tgz:24030.got - 2010.06.03 12:45:16.
