data_PCOD9416751
_publ_section_title
;
Structure prediction by ZEFSAII (Michael W. Deem and Ramdas Pophale) SiO2 
 PCOD9416751
Probable space group: P M N A
;
_chemical_formula_sum "Si O2"
_cell_formula_units_Z 28
_cell_length_a 13.476571
_cell_length_b 8.886932
_cell_length_c 12.865756
_cell_angle_alpha 90.000000
_cell_angle_beta 90.000000
_cell_angle_gamma 90.000000
_cell_volume 1540.872029
_symmetry_space_group_name_H-M "P M N A"
_symmetry_group_IT_number 53
_symmetry_cell_setting 'orthorhombic'
loop_
_space_group_symop_operation_xyz
x,y,z
1/2-x,-y,1/2+z
x,-y,-z
1/2-x,y,1/2-z
-x,-y,-z
1/2+x,y,1/2-z
-x,y,z
1/2+x,-y,1/2+z
loop_
_atom_site_type_symbol
_atom_site_label
_atom_site_fract_x
_atom_site_fract_y
_atom_site_fract_z
Si Si1 0.750000 0.772655 0.750000
Si Si2 0.811368 0.497443 0.617578
Si Si3 0.882926 0.999525 0.879651
Si Si4 0.387204 0.656068 0.317243
O O1 0.806714 0.661254 0.670625
O O2 0.823560 0.877749 0.814304
O O3 0.847303 0.500000 0.500000
O O4 0.698134 0.434089 0.621656
O O5 0.871403 0.391917 0.697313
O O6 0.870038 0.166968 0.833969
O O7 0.000000 0.963773 0.877700
O O8 0.850587 0.000000 0.000000
O O9 0.500000 0.621110 0.349758
#
# Coordination Sequence:
#
# PCOD9416751 Si02
#       4
#     4   8   8   8
#     4  10  20  32  54  80 104 132 170 218 254 300
#     4  10  21  35  53  77 105 139 173 208 254 304
#     4  10  20  35  56  79 103 134 171 213 260 305
#     4   9  19  35  53  74 104 137 171 212 254 303
#
# _framework density 18.171527999999999
#
# number of rings (size 3 to 8) (size 9 to 14) (size 15 to 20)
#    0.000    2.571    0.000    3.429    0.000    5.714 
#    0.000    0.000    0.000    4.286    0.000    0.000 
#    0.000    0.000    0.000    0.000    0.000    0.000 
#
# Total GULP energy -156222.322966 kJ/mol
# GULP energy per Si atom -5579.368677 kJ/mol
# Density = 1.813017 g / cm^3
# Si number density = 18.171528 Si / 1000 Ang^3
#
#
#
# Elastic Constant Matrix: (Units=GPa)
#
#
# Indices 1 2 3 4 5 6 
#
# 1 54.3057 46.5385 10.3521 0.0000 0.0000 0.0000
# 2 46.5385 118.0302 68.1619 0.0000 0.0000 0.0000
# 3 10.3521 68.1619 130.8055 0.0000 0.0000 0.0000
# 4 0.0000 0.0000 0.0000 11.5839 0.0000 0.0000
# 5 0.0000 0.0000 0.0000 0.0000 17.4279 0.0000
# 6 0.0000 0.0000 0.0000 0.0000 0.0000 -936.0942
#
#
#
# Elastic Compliance Matrix: (Units=1/GPa)
#
#
# Indices 1 2 3 4 5 6 
#
# 1 0.030331 -0.015124 0.005481 0.000000 0.000000 0.000000
# 2 -0.015124 0.019661 -0.009048 0.000000 0.000000 0.000000
# 3 0.005481 -0.009048 0.011926 0.000000 0.000000 0.000000
# 4 0.000000 0.000000 0.000000 0.086326 0.000000 0.000000
# 5 0.000000 0.000000 0.000000 0.000000 0.057379 0.000000
# 6 0.000000 0.000000 0.000000 0.000000 0.000000 -0.001068
#
#
# Mechanical properties :
#
#
# Convention : Reuss Voigt Hill
#
# Bulk Modulus (GPa) = 40.75933 61.47182 51.11558
# Shear Modulus (GPa) = 19.99062 -169.54389 -74.77664
#
# Velocity S-wave (km/s) = 3.32038 -9.66977 -6.42182
# Velocity P-wave (km/s) = 6.09745 9.52736 5.17647
#
# Compressibility (1/GPa) = 0.02453426
#
# Stress axis : x y z
#
# Youngs Moduli (GPa) = 32.97005 50.86167 83.84879
#
# Poissons Ratio (x) = 0.76924 -0.45955
# Poissons Ratio (y) = 0.49865 0.75869
# Poissons Ratio (z) = -0.18070 0.46021
#
# Static dielectric constant tensor:
#      x y z
#    x 1.625220 0.000000 0.000000 
#    y 0.000000 1.600330 0.000000 
#    z 0.000000 0.000000 1.621020 
# 
# From -- ./inp_files/22113.got.cif
#   From: 2010.05.17/outbox.cif.g08.bks.cpg/sg53_12_cif.got.tgz:22113.got - 2010.06.03 12:45:16.
