data_PCOD9416336
_publ_section_title
;
Structure prediction by ZEFSAII (Michael W. Deem and Ramdas Pophale) SiO2 
 PCOD9416336
Probable space group: P M N A
;
_chemical_formula_sum "Si O2"
_cell_formula_units_Z 48
_cell_length_a 11.498925
_cell_length_b 12.805859
_cell_length_c 20.044178
_cell_angle_alpha 90.000000
_cell_angle_beta 90.000000
_cell_angle_gamma 90.000000
_cell_volume 2951.577614
_symmetry_space_group_name_H-M "P M N A"
_symmetry_group_IT_number 53
_symmetry_cell_setting 'orthorhombic'
loop_
_space_group_symop_operation_xyz
x,y,z
1/2-x,-y,1/2+z
x,-y,-z
1/2-x,y,1/2-z
-x,-y,-z
1/2+x,y,1/2-z
-x,y,z
1/2+x,-y,1/2+z
loop_
_atom_site_type_symbol
_atom_site_label
_atom_site_fract_x
_atom_site_fract_y
_atom_site_fract_z
Si Si1 0.359626 0.799321 0.598957
Si Si2 0.500000 0.665297 0.040223
Si Si3 0.367411 0.968738 0.421461
Si Si4 0.749556 0.236798 0.548237
Si Si5 0.861659 0.453007 0.928957
Si Si6 0.254930 0.389285 0.171343
Si Si7 0.000000 0.440856 0.394646
O O1 0.500000 0.783414 0.594867
O O2 0.302986 0.773704 0.526794
O O3 0.299474 0.722234 0.650947
O O4 0.339212 0.921845 0.613944
O O5 0.615152 0.734823 0.047277
O O6 0.500000 0.565719 0.090468
O O7 0.500000 0.614739 0.966632
O O8 0.500000 0.937284 0.405117
O O9 0.282824 0.870687 0.414863
O O10 0.367305 0.000000 0.500000
O O11 0.686455 0.337111 0.579115
O O12 0.820100 0.526848 0.869921
O O13 0.000000 0.450917 0.932394
O O14 0.816879 0.500000 0.000000
O O15 0.250000 0.405024 0.250000
O O16 0.385395 0.405094 0.144419
#
# Coordination Sequence:
#
# PCOD9416336 Si02
#       7
#     8   4   8   8   8   8   4
#     4  10  19  35  55  79 109 142 183 233 279 320
#     4  11  20  34  56  79 116 159 174 221 284 347
#     4   8  16  30  52  79 107 135 173 229 276 311
#     4  11  18  32  53  84 109 143 182 222 281 330
#     4  11  20  33  56  83 109 139 185 238 278 322
#     4  12  25  37  55  81 113 151 188 229 277 340
#     4  11  22  40  51  76 120 154 185 214 282 348
#
# _framework density 16.262488999999999
#
# number of rings (size 3 to 8) (size 9 to 14) (size 15 to 20)
#    0.000    1.500    5.000    3.000    2.333    0.000 
#    0.000    4.583    0.000    1.000    0.000    0.000 
#    0.000    0.000    0.000    0.000    0.000    0.000 
#
# Total GULP energy -267782.045477 kJ/mol
# GULP energy per Si atom -5578.792614 kJ/mol
# Density = 1.622548 g / cm^3
# Si number density = 16.262489 Si / 1000 Ang^3
#
#
#
# Elastic Constant Matrix: (Units=GPa)
#
#
# Indices 1 2 3 4 5 6 
#
# 1 134.9074 78.0006 33.6038 0.0000 0.0000 0.0000
# 2 78.0006 144.9586 45.0890 0.0000 0.0000 0.0000
# 3 33.6038 45.0890 76.1419 0.0000 0.0000 0.0000
# 4 0.0000 0.0000 0.0000 13.7822 0.0000 0.0000
# 5 0.0000 0.0000 0.0000 0.0000 -4.6454 0.0000
# 6 0.0000 0.0000 0.0000 0.0000 0.0000 513.6224
#
#
#
# Elastic Compliance Matrix: (Units=1/GPa)
#
#
# Indices 1 2 3 4 5 6 
#
# 1 0.010925 -0.005368 -0.001643 0.000000 0.000000 0.000000
# 2 -0.005368 0.011093 -0.004200 0.000000 0.000000 0.000000
# 3 -0.001643 -0.004200 0.016346 0.000000 0.000000 0.000000
# 4 0.000000 0.000000 0.000000 0.072557 0.000000 0.000000
# 5 0.000000 0.000000 0.000000 0.000000 -0.215268 0.000000
# 6 0.000000 0.000000 0.000000 0.000000 0.000000 0.001947
#
#
# Mechanical properties :
#
#
# Convention : Reuss Voigt Hill
#
# Bulk Modulus (GPa) = 62.72591 74.37722 68.55156
# Shear Modulus (GPa) = -66.96705 117.83949 25.43622
#
# Velocity S-wave (km/s) = -6.42404 8.52163 3.95917
# Velocity P-wave (km/s) = 4.04595 11.94400 7.94636
#
# Compressibility (1/GPa) = 0.01594238
#
# Stress axis : x y z
#
# Youngs Moduli (GPa) = 91.53125 90.14483 61.17802
#
# Poissons Ratio (x) = 0.48387 0.10052
# Poissons Ratio (y) = 0.49131 0.25696
# Poissons Ratio (z) = 0.15039 0.37863
#
# Static dielectric constant tensor:
#      x y z
#    x 1.552230 0.000000 0.000000 
#    y 0.000000 1.566530 0.000000 
#    z 0.000000 0.000000 1.515240 
# 
# From -- ./inp_files/31930.got.cif
#   From: 2010.05.17/outbox.cif.g08.bks.cpg/sg53_16_cif.got.tgz:31930.got - 2010.06.03 12:45:16.
