data_PCOD9416413
_publ_section_title
;
Structure prediction by ZEFSAII (Michael W. Deem and Ramdas Pophale) SiO2 
 PCOD9416413
Probable space group: P M N A
;
_chemical_formula_sum "Si O2"
_cell_formula_units_Z 56
_cell_length_a 14.366089
_cell_length_b 12.100703
_cell_length_c 13.101154
_cell_angle_alpha 90.000000
_cell_angle_beta 90.000000
_cell_angle_gamma 90.000000
_cell_volume 2277.501680
_symmetry_space_group_name_H-M "P M N A"
_symmetry_group_IT_number 53
_symmetry_cell_setting 'orthorhombic'
loop_
_space_group_symop_operation_xyz
x,y,z
1/2-x,-y,1/2+z
x,-y,-z
1/2-x,y,1/2-z
-x,-y,-z
1/2+x,y,1/2-z
-x,y,z
1/2+x,-y,1/2+z
loop_
_atom_site_type_symbol
_atom_site_label
_atom_site_fract_x
_atom_site_fract_y
_atom_site_fract_z
Si Si1 0.387204 0.448516 0.395791
Si Si2 0.613103 0.206220 0.463094
Si Si3 0.153423 0.047876 0.211291
Si Si4 0.888192 0.237910 0.376837
Si Si5 0.114154 0.284918 0.596046
Si Si6 0.603660 0.806590 0.308680
Si Si7 0.886287 0.485338 0.325993
O O1 0.351195 0.500000 0.500000
O O2 0.500000 0.458087 0.397212
O O3 0.367617 0.318394 0.401403
O O4 0.356862 0.505561 0.291347
O O5 0.500000 0.190811 0.464315
O O6 0.654671 0.106843 0.398020
O O7 0.645549 0.215822 0.579903
O O8 0.250000 0.001432 0.250000
O O9 0.131951 0.143120 0.294670
O O10 0.093622 0.938310 0.202694
O O11 0.855970 0.221650 0.493686
O O12 0.853967 0.361263 0.349721
O O13 0.000000 0.244360 0.377746
O O14 0.146370 0.236075 0.703594
O O15 0.140050 0.414539 0.600074
O O16 0.000000 0.279209 0.595693
O O17 0.500000 0.754055 0.314069
O O18 0.000000 0.482551 0.328748
#
# Coordination Sequence:
#
# PCOD9416413 Si02
#       7
#     8   8   8   8   8   8   8
#     4   9  15  24  48  88 122 144 172 227 293 342
#     4  10  19  37  63  89 115 146 192 244 295 348
#     4  12  25  40  56  81 113 154 199 244 288 345
#     4  10  19  35  59  85 115 151 191 232 283 343
#     4   9  18  32  55  91 121 144 179 231 289 342
#     4  10  21  39  62  87 116 148 193 248 297 343
#     4   9  15  27  51  85 120 144 177 226 279 342
#
# _framework density 24.588346000000001
#
# number of rings (size 3 to 8) (size 9 to 14) (size 15 to 20)
#    0.000    2.143    1.429    3.000    0.000    6.857 
#    5.143    2.143    0.000    2.571    0.000    0.000 
#    0.000    0.000    0.000    0.000    0.000    0.000 
#
# Total GULP energy -313030.531351 kJ/mol
# GULP energy per Si atom -5589.830917 kJ/mol
# Density = 2.453238 g / cm^3
# Si number density = 24.588346 Si / 1000 Ang^3
#
#
#
# Elastic Constant Matrix: (Units=GPa)
#
#
# Indices 1 2 3 4 5 6 
#
# 1 55.3299 -11.5430 6.9512 0.0000 0.0000 0.0000
# 2 -11.5430 67.7841 18.3387 0.0000 0.0000 0.0000
# 3 6.9512 18.3387 148.0756 0.0000 0.0000 0.0000
# 4 0.0000 0.0000 0.0000 29.2074 0.0000 0.0000
# 5 0.0000 0.0000 0.0000 0.0000 12.4167 0.0000
# 6 0.0000 0.0000 0.0000 0.0000 0.0000 -26.8245
#
#
#
# Elastic Compliance Matrix: (Units=1/GPa)
#
#
# Indices 1 2 3 4 5 6 
#
# 1 0.018992 0.003596 -0.001337 0.000000 0.000000 0.000000
# 2 0.003596 0.015945 -0.002144 0.000000 0.000000 0.000000
# 3 -0.001337 -0.002144 0.007082 0.000000 0.000000 0.000000
# 4 0.000000 0.000000 0.000000 0.034238 0.000000 0.000000
# 5 0.000000 0.000000 0.000000 0.000000 0.080537 0.000000
# 6 0.000000 0.000000 0.000000 0.000000 0.000000 -0.037279
#
#
# Mechanical properties :
#
#
# Convention : Reuss Voigt Hill
#
# Bulk Modulus (GPa) = 23.66933 33.18703 28.42818
# Shear Modulus (GPa) = 37.49100 20.12278 28.80689
#
# Velocity S-wave (km/s) = 3.90904 2.86385 3.42653
# Velocity P-wave (km/s) = 5.47916 4.94589 5.21934
#
# Compressibility (1/GPa) = 0.04224876
#
# Stress axis : x y z
#
# Youngs Moduli (GPa) = 52.65513 62.71573 141.21241
#
# Poissons Ratio (x) = -0.22551 0.18878
# Poissons Ratio (y) = -0.18934 0.30269
# Poissons Ratio (z) = 0.07039 0.13443
#
# Static dielectric constant tensor:
#      x y z
#    x 2.187400 0.000000 0.000000 
#    y 0.000000 1.925390 0.000000 
#    z 0.000000 0.000000 1.937840 
# 
# From -- ./inp_files/17826.got.cif
#   From: 2010.05.17/outbox.cif.g08.bks.cpg/sg53_9_cif.got.tgz:17826.got - 2010.06.03 12:45:16.
