data_PCOD9416093
_publ_section_title
;
Structure prediction by ZEFSAII (Michael W. Deem and Ramdas Pophale) SiO2 
 PCOD9416093
Probable space group: P M N A
;
_chemical_formula_sum "Si O2"
_cell_formula_units_Z 64
_cell_length_a 8.123127
_cell_length_b 13.420463
_cell_length_c 29.098957
_cell_angle_alpha 90.000000
_cell_angle_beta 90.000000
_cell_angle_gamma 90.000000
_cell_volume 3172.255544
_symmetry_space_group_name_H-M "P M N A"
_symmetry_group_IT_number 53
_symmetry_cell_setting 'orthorhombic'
loop_
_space_group_symop_operation_xyz
x,y,z
1/2-x,-y,1/2+z
x,-y,-z
1/2-x,y,1/2-z
-x,-y,-z
1/2+x,y,1/2-z
-x,y,z
1/2+x,-y,1/2+z
loop_
_atom_site_type_symbol
_atom_site_label
_atom_site_fract_x
_atom_site_fract_y
_atom_site_fract_z
Si Si1 0.696466 0.735444 0.197111
Si Si2 0.698966 0.533992 0.353375
Si Si3 0.698450 0.139981 0.359382
Si Si4 0.701270 0.537006 0.549640
Si Si5 0.801074 0.906051 0.031325
Si Si6 0.304365 0.920154 0.136990
Si Si7 0.801206 0.331974 0.197292
Si Si8 0.700686 0.235424 0.453472
O O1 0.750000 0.738101 0.250000
O O2 0.500000 0.740165 0.196381
O O3 0.746995 0.632363 0.173007
O O4 0.763029 0.829576 0.167905
O O5 0.500000 0.532634 0.353161
O O6 0.753906 0.527336 0.406487
O O7 0.755741 0.432412 0.328318
O O8 0.500000 0.142205 0.359459
O O9 0.757121 0.230580 0.327334
O O10 0.753483 0.165345 0.411405
O O11 0.750027 0.029256 0.346262
O O12 0.757229 0.500000 0.500000
O O13 0.500000 0.535416 0.549300
O O14 0.752123 0.651765 0.555606
O O15 0.743953 0.909012 0.083559
O O16 0.000000 0.908767 0.032654
O O17 0.748030 0.809068 0.002381
O O18 0.748269 0.000000 0.000000
O O19 0.500000 0.916705 0.139504
O O20 0.750000 0.334208 0.250000
O O21 0.000000 0.331747 0.194373
O O22 0.500000 0.235104 0.453353
#
# Coordination Sequence:
#
# PCOD9416093 Si02
#       8
#     8   8   8   8   8   8   8   8
#     4  11  26  46  64  84 115 156 204 258 307 356
#     4  10  20  37  63  92 121 154 193 239 294 352
#     4  10  19  37  60  83 115 153 193 240 290 347
#     4   9  17  29  51  88 125 153 187 234 282 335
#     4  10  19  33  58  88 114 150 199 240 278 338
#     4  11  25  41  58  85 122 157 196 248 303 356
#     4  10  21  36  58  87 117 147 184 238 296 352
#     4   9  16  30  52  81 117 150 190 237 279 329
#
# _framework density 20.174921000000001
#
# number of rings (size 3 to 8) (size 9 to 14) (size 15 to 20)
#    0.000    2.000    2.500    1.125    1.750    4.750 
#    0.000    2.500    0.000    1.125    0.000    0.000 
#    0.000    0.000    0.000    0.000    0.000    0.000 
#
# Total GULP energy -357362.382210 kJ/mol
# GULP energy per Si atom -5583.787222 kJ/mol
# Density = 2.012900 g / cm^3
# Si number density = 20.174921 Si / 1000 Ang^3
#
#
#
# Elastic Constant Matrix: (Units=GPa)
#
#
# Indices 1 2 3 4 5 6 
#
# 1 14.0230 17.5693 16.5173 0.0000 0.0000 0.0000
# 2 17.5693 174.4319 109.4883 0.0000 0.0000 0.0000
# 3 16.5173 109.4883 174.4932 0.0000 0.0000 0.0000
# 4 0.0000 0.0000 0.0000 32.0012 0.0000 0.0000
# 5 0.0000 0.0000 0.0000 0.0000 3.0994 0.0000
# 6 0.0000 0.0000 0.0000 0.0000 0.0000 15.7974
#
#
#
# Elastic Compliance Matrix: (Units=1/GPa)
#
#
# Indices 1 2 3 4 5 6 
#
# 1 0.083553 -0.005694 -0.004336 0.000000 0.000000 0.000000
# 2 -0.005694 0.009846 -0.005639 0.000000 0.000000 0.000000
# 3 -0.004336 -0.005639 0.009680 0.000000 0.000000 0.000000
# 4 0.000000 0.000000 0.000000 0.031249 0.000000 0.000000
# 5 0.000000 0.000000 0.000000 0.000000 0.322644 0.000000
# 6 0.000000 0.000000 0.000000 0.000000 0.000000 0.063302
#
#
# Mechanical properties :
#
#
# Convention : Reuss Voigt Hill
#
# Bulk Modulus (GPa) = 13.93917 72.23309 43.08613
# Shear Modulus (GPa) = 8.68772 24.80447 16.74609
#
# Velocity S-wave (km/s) = 2.07739 3.51018 2.88418
# Velocity P-wave (km/s) = 3.56065 7.23254 5.70035
#
# Compressibility (1/GPa) = 0.07174027
#
# Stress axis : x y z
#
# Youngs Moduli (GPa) = 11.96844 101.56502 103.30993
#
# Poissons Ratio (x) = 0.57830 0.44798
# Poissons Ratio (y) = 0.06815 0.58256
# Poissons Ratio (z) = 0.05190 0.57272
#
# Static dielectric constant tensor:
#      x y z
#    x 1.723310 0.000000 0.000000 
#    y 0.000000 1.721880 0.000000 
#    z 0.000000 0.000000 1.699690 
# 
# From -- ./inp_files/38123.got.cif
#   From: 2010.05.17/outbox.cif.g08.bks.cpg/sg53_20_cif.got.tgz:38123.got - 2010.06.03 12:45:16.
