data_PCOD9416347
_publ_section_title
;
Structure prediction by ZEFSAII (Michael W. Deem and Ramdas Pophale) SiO2 
 PCOD9416347
Probable space group: P M N A
;
_chemical_formula_sum "Si O2"
_cell_formula_units_Z 56
_cell_length_a 17.877822
_cell_length_b 12.694131
_cell_length_c 12.817923
_cell_angle_alpha 90.000000
_cell_angle_beta 90.000000
_cell_angle_gamma 90.000000
_cell_volume 2908.943212
_symmetry_space_group_name_H-M "P M N A"
_symmetry_group_IT_number 53
_symmetry_cell_setting 'orthorhombic'
loop_
_space_group_symop_operation_xyz
x,y,z
1/2-x,-y,1/2+z
x,-y,-z
1/2-x,y,1/2-z
-x,-y,-z
1/2+x,y,1/2-z
-x,y,z
1/2+x,-y,1/2+z
loop_
_atom_site_type_symbol
_atom_site_label
_atom_site_fract_x
_atom_site_fract_y
_atom_site_fract_z
Si Si1 0.086964 0.917035 0.903086
Si Si2 0.840004 0.073814 0.759460
Si Si3 0.833129 0.122500 0.533018
Si Si4 0.910036 0.326937 0.481689
Si Si5 0.909823 0.517409 0.336403
Si Si6 0.586692 0.574679 0.399396
Si Si7 0.668273 0.779088 0.448186
O O1 0.000000 0.904283 0.882190
O O2 0.128127 0.965054 0.803453
O O3 0.123786 0.812776 0.948588
O O4 0.095763 0.000000 0.000000
O O5 0.750000 0.065950 0.750000
O O6 0.868098 0.111543 0.648125
O O7 0.861243 0.158698 0.846537
O O8 0.880772 0.208056 0.469944
O O9 0.751976 0.177759 0.539154
O O10 0.824543 0.000000 0.500000
O O11 0.884363 0.409461 0.392536
O O12 0.885471 0.382839 0.591562
O O13 0.000000 0.323912 0.481020
O O14 0.893880 0.525757 0.213718
O O15 0.000000 0.516559 0.345083
O O16 0.585348 0.500000 0.500000
O O17 0.500000 0.617193 0.390065
O O18 0.650062 0.660041 0.423809
#
# Coordination Sequence:
#
# PCOD9416347 Si02
#       7
#     8   8   8   8   8   8   8
#     4   9  17  31  54  82 107 139 189 238 279 339
#     4   9  18  33  53  77 107 152 192 233 284 336
#     4  11  22  36  55  82 119 160 194 239 295 347
#     4   9  18  35  60  84 112 152 196 244 289 345
#     4   8  16  35  61  86 110 143 189 242 300 346
#     4  10  20  35  57  85 116 144 183 241 298 351
#     4  10  19  35  56  78 112 153 189 235 290 352
#
# _framework density 19.250978
#
# number of rings (size 3 to 8) (size 9 to 14) (size 15 to 20)
#    0.000    2.571    0.000    4.286    0.000    1.429 
#    5.143    0.000    0.000    0.000    0.000    0.000 
#    0.000    0.000    0.000    0.000    0.000    0.000 
#
# Total GULP energy -311835.134151 kJ/mol
# GULP energy per Si atom -5568.484538 kJ/mol
# Density = 1.920716 g / cm^3
# Si number density = 19.250978 Si / 1000 Ang^3
#
#
#
# Elastic Constant Matrix: (Units=GPa)
#
#
# Indices 1 2 3 4 5 6 
#
# 1 19.5117 40.1928 20.2164 0.0000 0.0000 0.0000
# 2 40.1928 110.4660 59.8691 0.0000 0.0000 0.0000
# 3 20.2164 59.8691 60.3461 0.0000 0.0000 0.0000
# 4 0.0000 0.0000 0.0000 19.5468 0.0000 0.0000
# 5 0.0000 0.0000 0.0000 0.0000 24.0997 0.0000
# 6 0.0000 0.0000 0.0000 0.0000 0.0000 20.6952
#
#
#
# Elastic Compliance Matrix: (Units=1/GPa)
#
#
# Indices 1 2 3 4 5 6 
#
# 1 0.208350 -0.082149 0.011701 0.000000 0.000000 0.000000
# 2 -0.082149 0.051971 -0.024040 0.000000 0.000000 0.000000
# 3 0.011701 -0.024040 0.036501 0.000000 0.000000 0.000000
# 4 0.000000 0.000000 0.000000 0.051159 0.000000 0.000000
# 5 0.000000 0.000000 0.000000 0.000000 0.041494 0.000000
# 6 0.000000 0.000000 0.000000 0.000000 0.000000 0.048320
#
#
# Mechanical properties :
#
#
# Convention : Reuss Voigt Hill
#
# Bulk Modulus (GPa) = 9.27247 47.87559 28.57403
# Shear Modulus (GPa) = 7.54466 17.53805 12.54136
#
# Velocity S-wave (km/s) = 1.98182 3.02159 2.55515
# Velocity P-wave (km/s) = 3.17236 6.09069 4.85594
#
# Compressibility (1/GPa) = 0.10784613
#
# Stress axis : x y z
#
# Youngs Moduli (GPa) = 4.79962 19.24141 27.39665
#
# Poissons Ratio (x) = 1.58067 -0.32058
# Poissons Ratio (y) = 0.39429 0.65861
# Poissons Ratio (z) = -0.05616 0.46256
#
# Static dielectric constant tensor:
#      x y z
#    x 1.665860 0.000000 0.000000 
#    y 0.000000 1.719670 0.000000 
#    z 0.000000 0.000000 1.698240 
# 
# From -- ./inp_files/17849.got.cif
#   From: 2010.05.17/outbox.cif.g08.bks.cpg/sg53_9_cif.got.tgz:17849.got - 2010.06.03 12:45:16.
