data_PCOD9416616
_publ_section_title
;
Structure prediction by ZEFSAII (Michael W. Deem and Ramdas Pophale) SiO2 
 PCOD9416616
Probable space group: P M N A
;
_chemical_formula_sum "Si O2"
_cell_formula_units_Z 32
_cell_length_a 13.991877
_cell_length_b 10.580549
_cell_length_c 10.414311
_cell_angle_alpha 90.000000
_cell_angle_beta 90.000000
_cell_angle_gamma 90.000000
_cell_volume 1541.752723
_symmetry_space_group_name_H-M "P M N A"
_symmetry_group_IT_number 53
_symmetry_cell_setting 'orthorhombic'
loop_
_space_group_symop_operation_xyz
x,y,z
1/2-x,-y,1/2+z
x,-y,-z
1/2-x,y,1/2-z
-x,-y,-z
1/2+x,y,1/2-z
-x,y,z
1/2+x,-y,1/2+z
loop_
_atom_site_type_symbol
_atom_site_label
_atom_site_fract_x
_atom_site_fract_y
_atom_site_fract_z
Si Si1 0.888841 0.000637 0.642801
Si Si2 0.391096 0.297893 0.820631
Si Si3 0.699205 0.359718 0.548764
Si Si4 0.114801 0.120574 0.093698
O O1 0.885889 0.145840 0.685896
O O2 0.000000 0.962007 0.626287
O O3 0.844746 0.000000 0.500000
O O4 0.854672 0.917658 0.762123
O O5 0.500000 0.333372 0.851262
O O6 0.311599 0.342969 0.920654
O O7 0.358404 0.344839 0.681660
O O8 0.681147 0.500000 0.500000
O O9 0.665652 0.246027 0.457334
O O10 0.000000 0.141916 0.093026
O O11 0.130531 0.000000 0.000000
#
# Coordination Sequence:
#
# PCOD9416616 Si02
#       4
#     8   8   8   8
#     4   9  18  37  65  99 132 169 222 277 339 403
#     4  10  22  44  68  92 136 184 223 284 349 404
#     4  11  24  42  66 102 136 175 233 285 338 418
#     4  10  19  37  69 103 133 174 227 280 338 402
#
# _framework density 20.755599
#
# number of rings (size 3 to 8) (size 9 to 14) (size 15 to 20)
#    0.000    2.000    2.500    0.750    0.000    3.500 
#    9.000    0.000    0.000    0.000    0.000    0.000 
#    0.000    1.000    0.000    0.000    0.000    0.000 
#
# Total GULP energy -178803.042937 kJ/mol
# GULP energy per Si atom -5587.595092 kJ/mol
# Density = 2.070836 g / cm^3
# Si number density = 20.755599 Si / 1000 Ang^3
#
#
#
# Elastic Constant Matrix: (Units=GPa)
#
#
# Indices 1 2 3 4 5 6 
#
# 1 147.0917 61.1765 64.9864 0.0000 0.0000 0.0000
# 2 61.1765 137.0714 93.2614 0.0000 0.0000 0.0000
# 3 64.9864 93.2614 173.6071 0.0000 0.0000 0.0000
# 4 0.0000 0.0000 0.0000 33.6455 0.0000 0.0000
# 5 0.0000 0.0000 0.0000 0.0000 5.8840 0.0000
# 6 0.0000 0.0000 0.0000 0.0000 0.0000 2.3274
#
#
#
# Elastic Compliance Matrix: (Units=1/GPa)
#
#
# Indices 1 2 3 4 5 6 
#
# 1 0.008708 -0.002630 -0.001847 0.000000 0.000000 0.000000
# 2 -0.002630 0.012292 -0.005619 0.000000 0.000000 0.000000
# 3 -0.001847 -0.005619 0.009470 0.000000 0.000000 0.000000
# 4 0.000000 0.000000 0.000000 0.029722 0.000000 0.000000
# 5 0.000000 0.000000 0.000000 0.000000 0.169953 0.000000
# 6 0.000000 0.000000 0.000000 0.000000 0.000000 0.429657
#
#
# Mechanical properties :
#
#
# Convention : Reuss Voigt Hill
#
# Bulk Modulus (GPa) = 97.28694 99.62429 98.45562
# Shear Modulus (GPa) = 7.31614 24.26111 15.78863
#
# Velocity S-wave (km/s) = 1.87951 3.42262 2.76106
# Velocity P-wave (km/s) = 7.18919 7.98261 7.59627
#
# Compressibility (1/GPa) = 0.01027887
#
# Stress axis : x y z
#
# Youngs Moduli (GPa) = 114.83284 81.35194 105.59684
#
# Poissons Ratio (x) = 0.21395 0.19504
# Poissons Ratio (y) = 0.30201 0.59334
# Poissons Ratio (z) = 0.21209 0.45711
#
# Static dielectric constant tensor:
#      x y z
#    x 1.790930 0.000000 0.000000 
#    y 0.000000 1.662710 0.000000 
#    z 0.000000 0.000000 1.730070 
# 
# From -- ./inp_files/8028.got.cif
#   From: 2010.05.17/outbox.cif.g08.bks.cpg/sg53_5_cif.got.tgz:8028.got - 2010.06.03 12:45:16.
