data_PCOD9416252
_publ_section_title
;
Structure prediction by ZEFSAII (Michael W. Deem and Ramdas Pophale) SiO2 
 PCOD9416252
Probable space group: P M N A
;
_chemical_formula_sum "Si O2"
_cell_formula_units_Z 64
_cell_length_a 8.738350
_cell_length_b 20.402270
_cell_length_c 20.690192
_cell_angle_alpha 90.000000
_cell_angle_beta 90.000000
_cell_angle_gamma 90.000000
_cell_volume 3688.692453
_symmetry_space_group_name_H-M "P M N A"
_symmetry_group_IT_number 53
_symmetry_cell_setting 'orthorhombic'
loop_
_space_group_symop_operation_xyz
x,y,z
1/2-x,-y,1/2+z
x,-y,-z
1/2-x,y,1/2-z
-x,-y,-z
1/2+x,y,1/2-z
-x,y,z
1/2+x,-y,1/2+z
loop_
_atom_site_type_symbol
_atom_site_label
_atom_site_fract_x
_atom_site_fract_y
_atom_site_fract_z
Si Si1 0.682903 0.430599 0.180355
Si Si2 0.315650 0.946024 0.819804
Si Si3 0.816431 0.098063 0.679885
Si Si4 0.184098 0.525511 0.072157
Si Si5 0.816401 0.184620 0.935205
Si Si6 0.815899 0.692286 0.601760
Si Si7 0.815836 0.331689 0.961396
Si Si8 0.185215 0.161102 0.423828
O O1 0.750000 0.446403 0.250000
O O2 0.500000 0.431217 0.183520
O O3 0.737865 0.481446 0.126139
O O4 0.734609 0.358049 0.156872
O O5 0.250000 0.926630 0.750000
O O6 0.500000 0.943127 0.816449
O O7 0.265875 0.897721 0.877048
O O8 0.272204 0.021809 0.831856
O O9 0.750000 0.116577 0.750000
O O10 0.752576 0.143202 0.623130
O O11 0.000000 0.101804 0.681538
O O12 0.229314 0.602081 0.075241
O O13 0.000000 0.520417 0.079373
O O14 0.221713 0.500000 0.000000
O O15 0.771941 0.261729 0.931031
O O16 0.000000 0.180430 0.934192
O O17 0.755531 0.159573 0.004587
O O18 0.751961 0.667401 0.533371
O O19 0.771184 0.768470 0.607132
O O20 0.000000 0.690329 0.599064
O O21 0.000000 0.332662 0.967017
O O22 0.000000 0.159192 0.429848
#
# Coordination Sequence:
#
# PCOD9416252 Si02
#       8
#     8   8   8   8   8   8   8   8
#     4  11  23  36  51  76 109 142 177 218 260 308
#     4   9  19  34  53  75 102 137 178 219 260 311
#     4  10  20  36  56  77 102 136 176 218 265 316
#     4  10  19  34  58  81 102 134 173 214 262 313
#     4  10  20  34  53  80 109 136 171 216 261 310
#     4   9  18  32  51  74 102 136 173 210 251 303
#     4   9  18  33  54  79 104 131 168 211 256 308
#     4   9  18  34  53  76 107 141 175 213 259 308
#
# _framework density 17.350321000000001
#
# number of rings (size 3 to 8) (size 9 to 14) (size 15 to 20)
#    0.000    2.375    1.250    1.125    0.000    3.750 
#    0.000    3.125    0.000    0.000    0.000    0.000 
#    0.000    0.000    0.000    0.000    0.000    0.000 
#
# Total GULP energy -356980.716564 kJ/mol
# GULP energy per Si atom -5577.823696 kJ/mol
# Density = 1.731083 g / cm^3
# Si number density = 17.350321 Si / 1000 Ang^3
#
#
#
# Elastic Constant Matrix: (Units=GPa)
#
#
# Indices 1 2 3 4 5 6 
#
# 1 25.0397 37.1756 41.7948 0.0000 0.0000 0.0000
# 2 37.1756 116.6612 97.2522 0.0000 0.0000 0.0000
# 3 41.7948 97.2522 140.9429 0.0000 0.0000 0.0000
# 4 0.0000 0.0000 0.0000 26.9619 0.0000 0.0000
# 5 0.0000 0.0000 0.0000 0.0000 30.8835 0.0000
# 6 0.0000 0.0000 0.0000 0.0000 0.0000 22.1181
#
#
#
# Elastic Compliance Matrix: (Units=1/GPa)
#
#
# Indices 1 2 3 4 5 6 
#
# 1 0.088940 -0.014962 -0.016050 0.000000 0.000000 0.000000
# 2 -0.014962 0.022696 -0.011224 0.000000 0.000000 0.000000
# 3 -0.016050 -0.011224 0.019599 0.000000 0.000000 0.000000
# 4 0.000000 0.000000 0.000000 0.037089 0.000000 0.000000
# 5 0.000000 0.000000 0.000000 0.000000 0.032380 0.000000
# 6 0.000000 0.000000 0.000000 0.000000 0.000000 0.045212
#
#
# Mechanical properties :
#
#
# Convention : Reuss Voigt Hill
#
# Bulk Modulus (GPa) = 21.38416 70.56544 45.97480
# Shear Modulus (GPa) = 14.45184 23.08745 18.76964
#
# Velocity S-wave (km/s) = 2.88921 3.65178 3.29265
# Velocity P-wave (km/s) = 4.84579 7.65114 6.40397
#
# Compressibility (1/GPa) = 0.04676358
#
# Stress axis : x y z
#
# Youngs Moduli (GPa) = 11.24347 44.06019 51.02309
#
# Poissons Ratio (x) = 0.65925 0.81892
# Poissons Ratio (y) = 0.16823 0.57267
# Poissons Ratio (z) = 0.18046 0.49452
#
# Static dielectric constant tensor:
#      x y z
#    x 1.585200 0.000000 0.000000 
#    y 0.000000 1.612930 0.000000 
#    z 0.000000 0.000000 1.543300 
# 
# From -- ./inp_files/26812.got.cif
#   From: 2010.05.17/outbox.cif.g08.bks.cpg/sg53_14_cif.got.tgz:26812.got - 2010.06.03 12:45:16.
