data_PCOD9416533
_publ_section_title
;
Structure prediction by ZEFSAII (Michael W. Deem and Ramdas Pophale) SiO2 
 PCOD9416533
Probable space group: P M N A
;
_chemical_formula_sum "Si O2"
_cell_formula_units_Z 48
_cell_length_a 23.299505
_cell_length_b 8.257569
_cell_length_c 11.422654
_cell_angle_alpha 90.000000
_cell_angle_beta 90.000000
_cell_angle_gamma 90.000000
_cell_volume 2197.687448
_symmetry_space_group_name_H-M "P M N A"
_symmetry_group_IT_number 53
_symmetry_cell_setting 'orthorhombic'
loop_
_space_group_symop_operation_xyz
x,y,z
1/2-x,-y,1/2+z
x,-y,-z
1/2-x,y,1/2-z
-x,-y,-z
1/2+x,y,1/2-z
-x,y,z
1/2+x,-y,1/2+z
loop_
_atom_site_type_symbol
_atom_site_label
_atom_site_fract_x
_atom_site_fract_y
_atom_site_fract_z
Si Si1 0.435431 0.789276 0.121284
Si Si2 0.382706 0.244822 0.445694
Si Si3 0.851258 0.672402 0.564644
Si Si4 0.433445 0.549524 0.737598
Si Si5 0.742680 0.115676 0.384510
Si Si6 0.934058 0.078955 0.852523
O O1 0.500000 0.794690 0.070921
O O2 0.433106 0.629589 0.205116
O O3 0.425589 0.929410 0.213940
O O4 0.386316 0.780174 0.027174
O O5 0.405717 0.409015 0.387982
O O6 0.319197 0.200607 0.402009
O O7 0.390948 0.204381 0.583242
O O8 0.423357 0.100415 0.398194
O O9 0.841724 0.500000 0.500000
O O10 0.893902 0.647126 0.672533
O O11 0.792566 0.752245 0.603393
O O12 0.500000 0.598682 0.735315
O O13 0.750000 0.046855 0.250000
O O14 0.747987 0.000000 0.500000
O O15 0.000000 0.130839 0.872931
#
# Coordination Sequence:
#
# PCOD9416533 Si02
#       6
#     8   8   8   8   8   8
#     4   9  20  37  61  93 123 154 197 253 316 377
#     4  11  21  38  57  84 118 161 207 246 307 365
#     4  10  22  41  63  91 122 162 206 258 312 371
#     4  10  19  36  62  88 120 156 197 252 315 371
#     4  12  26  45  65  89 128 171 220 267 312 375
#     4  10  20  37  59  88 123 158 200 253 310 371
#
# _framework density 21.841141
#
# number of rings (size 3 to 8) (size 9 to 14) (size 15 to 20)
#    0.000    1.667    3.333    2.500    2.333    2.667 
#    3.000    3.333    0.000    4.000    0.000    0.000 
#    0.000    0.000    0.000    0.000    0.000    0.000 
#
# Total GULP energy -267875.289661 kJ/mol
# GULP energy per Si atom -5580.735201 kJ/mol
# Density = 2.179143 g / cm^3
# Si number density = 21.841141 Si / 1000 Ang^3
#
#
#
# Elastic Constant Matrix: (Units=GPa)
#
#
# Indices 1 2 3 4 5 6 
#
# 1 95.4045 2.9480 46.0938 0.0000 0.0000 0.0000
# 2 2.9480 29.5753 14.8218 0.0000 0.0000 0.0000
# 3 46.0938 14.8218 110.1982 0.0000 0.0000 0.0000
# 4 0.0000 0.0000 0.0000 32.2150 0.0000 0.0000
# 5 0.0000 0.0000 0.0000 0.0000 8.1240 0.0000
# 6 0.0000 0.0000 0.0000 0.0000 0.0000 -18.2996
#
#
#
# Elastic Compliance Matrix: (Units=1/GPa)
#
#
# Indices 1 2 3 4 5 6 
#
# 1 0.013203 0.001557 -0.005732 0.000000 0.000000 0.000000
# 2 0.001557 0.036439 -0.005552 0.000000 0.000000 0.000000
# 3 -0.005732 -0.005552 0.012219 0.000000 0.000000 0.000000
# 4 0.000000 0.000000 0.000000 0.031041 0.000000 0.000000
# 5 0.000000 0.000000 0.000000 0.000000 0.123092 0.000000
# 6 0.000000 0.000000 0.000000 0.000000 0.000000 -0.054646
#
#
# Mechanical properties :
#
#
# Convention : Reuss Voigt Hill
#
# Bulk Modulus (GPa) = 23.58156 40.32279 31.95217
# Shear Modulus (GPa) = 25.64903 15.82886 20.73894
#
# Velocity S-wave (km/s) = 3.43059 2.69500 3.08480
# Velocity P-wave (km/s) = 5.14900 5.30904 5.22963
#
# Compressibility (1/GPa) = 0.04240602
#
# Stress axis : x y z
#
# Youngs Moduli (GPa) = 75.74104 27.44288 81.84068
#
# Poissons Ratio (x) = -0.04272 0.46910
# Poissons Ratio (y) = -0.11789 0.45439
# Poissons Ratio (z) = 0.43414 0.15237
#
# Static dielectric constant tensor:
#      x y z
#    x 1.730280 0.000000 0.000000 
#    y 0.000000 1.850180 0.000000 
#    z 0.000000 0.000000 1.897630 
# 
# From -- ./inp_files/18271.got.cif
#   From: 2010.05.17/outbox.cif.g08.bks.cpg/sg53_10_cif.got.tgz:18271.got - 2010.06.03 12:45:16.
