data_PCOD9416458
_publ_section_title
;
Structure prediction by ZEFSAII (Michael W. Deem and Ramdas Pophale) SiO2 
 PCOD9416458
Probable space group: P M N A
;
_chemical_formula_sum "Si O2"
_cell_formula_units_Z 48
_cell_length_a 13.894803
_cell_length_b 5.764236
_cell_length_c 27.802119
_cell_angle_alpha 90.000000
_cell_angle_beta 90.000000
_cell_angle_gamma 90.000000
_cell_volume 2226.752995
_symmetry_space_group_name_H-M "P M N A"
_symmetry_group_IT_number 53
_symmetry_cell_setting 'orthorhombic'
loop_
_space_group_symop_operation_xyz
x,y,z
1/2-x,-y,1/2+z
x,-y,-z
1/2-x,y,1/2-z
-x,-y,-z
1/2+x,y,1/2-z
-x,y,z
1/2+x,-y,1/2+z
loop_
_atom_site_type_symbol
_atom_site_label
_atom_site_fract_x
_atom_site_fract_y
_atom_site_fract_z
Si Si1 0.634493 0.747953 0.255292
Si Si2 0.894293 0.331565 0.546085
Si Si3 0.650242 0.239769 0.219934
Si Si4 0.107156 0.687060 0.134246
Si Si5 0.295888 0.979824 0.447856
Si Si6 0.788979 0.631928 0.616784
O O1 0.750000 0.742811 0.250000
O O2 0.605417 0.492075 0.234755
O O3 0.607834 0.776158 0.311185
O O4 0.603340 0.990087 0.231034
O O5 0.894478 0.500000 0.500000
O O6 0.800218 0.172752 0.543525
O O7 0.873631 0.478399 0.594203
O O8 0.000000 0.216414 0.548115
O O9 0.750000 0.237051 0.250000
O O10 0.672812 0.237753 0.163330
O O11 0.135912 0.869636 0.092826
O O12 0.196360 0.512014 0.133681
O O13 0.000000 0.591803 0.124379
O O14 0.344039 0.000000 0.500000
O O15 0.253533 0.213712 0.425928
#
# Coordination Sequence:
#
# PCOD9416458 Si02
#       6
#     8   8   8   8   8   8
#     4  10  19  39  64  95 122 173 220 281 340 401
#     4  10  22  41  66  98 131 165 213 275 348 426
#     4  10  19  35  67  90 125 171 216 275 336 401
#     4  11  25  42  65  95 134 183 233 282 338 405
#     4  11  23  41  67  97 128 175 228 280 344 408
#     4  11  22  41  66  94 132 175 221 275 347 407
#
# _framework density 21.556049999999999
#
# number of rings (size 3 to 8) (size 9 to 14) (size 15 to 20)
#    0.000    1.500    5.000    2.000    2.333    2.000 
#    0.000    2.500    0.000    0.000    0.000    0.000 
#    0.000    0.000    0.000    0.000    0.000    0.000 
#
# Total GULP energy -267687.609031 kJ/mol
# GULP energy per Si atom -5576.825188 kJ/mol
# Density = 2.150699 g / cm^3
# Si number density = 21.556050 Si / 1000 Ang^3
#
#
#
# Elastic Constant Matrix: (Units=GPa)
#
#
# Indices 1 2 3 4 5 6 
#
# 1 109.4109 0.3537 1.5530 0.0000 0.0000 0.0000
# 2 0.3537 103.8060 15.1426 0.0000 0.0000 0.0000
# 3 1.5530 15.1426 109.2351 0.0000 0.0000 0.0000
# 4 0.0000 0.0000 0.0000 42.6109 0.0000 0.0000
# 5 0.0000 0.0000 0.0000 0.0000 97.3952 0.0000
# 6 0.0000 0.0000 0.0000 0.0000 0.0000 -18.9255
#
#
#
# Elastic Compliance Matrix: (Units=1/GPa)
#
#
# Indices 1 2 3 4 5 6 
#
# 1 0.009142 -0.000012 -0.000128 0.000000 0.000000 0.000000
# 2 -0.000012 0.009832 -0.001363 0.000000 0.000000 0.000000
# 3 -0.000128 -0.001363 0.009345 0.000000 0.000000 0.000000
# 4 0.000000 0.000000 0.000000 0.023468 0.000000 0.000000
# 5 0.000000 0.000000 0.000000 0.000000 0.010267 0.000000
# 6 0.000000 0.000000 0.000000 0.000000 0.000000 -0.052839
#
#
# Mechanical properties :
#
#
# Convention : Reuss Voigt Hill
#
# Bulk Modulus (GPa) = 39.50657 39.61674 39.56165
# Shear Modulus (GPa) = 242.00811 44.57630 143.29220
#
# Velocity S-wave (km/s) = 10.60721 4.55238 8.16202
# Velocity P-wave (km/s) = 12.97630 6.78606 10.35459
#
# Compressibility (1/GPa) = 0.02531225
#
# Stress axis : x y z
#
# Youngs Moduli (GPa) = 109.38863 101.70668 107.00556
#
# Poissons Ratio (x) = 0.00127 0.01372
# Poissons Ratio (y) = 0.00136 0.14583
# Poissons Ratio (z) = 0.01403 0.13861
#
# Static dielectric constant tensor:
#      x y z
#    x 1.771190 0.000000 0.000000 
#    y 0.000000 1.848500 0.000000 
#    z 0.000000 0.000000 1.855700 
# 
# From -- ./inp_files/36976.got.cif
#   From: 2010.05.17/outbox.cif.g08.bks.cpg/sg53_19_cif.got.tgz:36976.got - 2010.06.03 12:45:16.
