data_PCOD9416937
_publ_section_title
;
Structure prediction by ZEFSAII (Michael W. Deem and Ramdas Pophale) SiO2 
 PCOD9416937
Probable space group: P M N A
;
_chemical_formula_sum "Si O2"
_cell_formula_units_Z 64
_cell_length_a 14.004397
_cell_length_b 10.005246
_cell_length_c 20.472599
_cell_angle_alpha 90.000000
_cell_angle_beta 90.000000
_cell_angle_gamma 90.000000
_cell_volume 2868.568102
_symmetry_space_group_name_H-M "P M N A"
_symmetry_group_IT_number 53
_symmetry_cell_setting 'orthorhombic'
loop_
_space_group_symop_operation_xyz
x,y,z
1/2-x,-y,1/2+z
x,-y,-z
1/2-x,y,1/2-z
-x,-y,-z
1/2+x,y,1/2-z
-x,y,z
1/2+x,-y,1/2+z
loop_
_atom_site_type_symbol
_atom_site_label
_atom_site_fract_x
_atom_site_fract_y
_atom_site_fract_z
Si Si1 0.283565 0.051349 0.678952
Si Si2 0.895181 0.136685 0.614959
Si Si3 0.115641 0.841151 0.005074
Si Si4 0.890107 0.716370 0.244796
Si Si5 0.105057 0.585036 0.433580
Si Si6 0.386882 0.196656 0.361809
Si Si7 0.109359 0.550763 0.801365
Si Si8 0.679669 0.422851 0.569286
O O1 0.250000 0.999884 0.750000
O O2 0.198744 0.048715 0.625649
O O3 0.325164 0.196157 0.697054
O O4 0.366560 0.954577 0.656595
O O5 0.891564 0.217417 0.683999
O O6 0.890714 0.252674 0.560609
O O7 0.000000 0.070547 0.610569
O O8 0.147891 0.782745 0.935156
O O9 0.000000 0.835358 0.011816
O O10 0.158782 0.734707 0.056079
O O11 0.139613 0.000000 0.000000
O O12 0.855679 0.564538 0.246361
O O13 0.000000 0.718980 0.221457
O O14 0.101705 0.500000 0.500000
O O15 0.210724 0.554551 0.407013
O O16 0.000000 0.560377 0.400784
O O17 0.500000 0.216525 0.364093
O O18 0.344612 0.304850 0.311963
O O19 0.114846 0.482785 0.873401
O O20 0.000000 0.573504 0.781079
O O21 0.665362 0.500000 0.500000
#
# Coordination Sequence:
#
# PCOD9416937 Si02
#       8
#     8   8   8   8   8   8   8   8
#     4  10  20  35  56  81 106 143 185 222 270 324
#     4   9  18  34  55  79 105 134 179 234 275 316
#     4  10  22  35  51  81 114 145 178 217 270 329
#     4   9  18  32  54  83 109 137 175 218 265 321
#     4   9  19  34  54  78 103 137 180 227 277 321
#     4  10  21  37  54  78 115 148 177 218 271 329
#     4  10  20  33  54  84 115 145 177 214 266 332
#     4  11  20  34  55  76 108 146 181 219 267 322
#
# _framework density 22.310782
#
# number of rings (size 3 to 8) (size 9 to 14) (size 15 to 20)
#    0.000    2.250    1.250    1.500    3.500    1.000 
#    0.000    3.125    0.000    1.875    0.000    0.000 
#    0.000    0.000    0.000    0.000    0.000    0.000 
#
# Total GULP energy -356485.055871 kJ/mol
# GULP energy per Si atom -5570.078998 kJ/mol
# Density = 2.226000 g / cm^3
# Si number density = 22.310782 Si / 1000 Ang^3
#
#
#
# Elastic Constant Matrix: (Units=GPa)
#
#
# Indices 1 2 3 4 5 6 
#
# 1 73.0834 7.6262 -4.5661 0.0000 0.0000 0.0000
# 2 7.6262 94.9478 0.8645 0.0000 0.0000 0.0000
# 3 -4.5661 0.8645 35.9788 0.0000 0.0000 0.0000
# 4 0.0000 0.0000 0.0000 19.0670 0.0000 0.0000
# 5 0.0000 0.0000 0.0000 0.0000 17.8770 0.0000
# 6 0.0000 0.0000 0.0000 0.0000 0.0000 -8.8209
#
#
#
# Elastic Compliance Matrix: (Units=1/GPa)
#
#
# Indices 1 2 3 4 5 6 
#
# 1 0.013913 -0.001134 0.001793 0.000000 0.000000 0.000000
# 2 -0.001134 0.010627 -0.000399 0.000000 0.000000 0.000000
# 3 0.001793 -0.000399 0.028031 0.000000 0.000000 0.000000
# 4 0.000000 0.000000 0.000000 0.052447 0.000000 0.000000
# 5 0.000000 0.000000 0.000000 0.000000 0.055938 0.000000
# 6 0.000000 0.000000 0.000000 0.000000 0.000000 -0.113367
#
#
# Mechanical properties :
#
#
# Convention : Reuss Voigt Hill
#
# Bulk Modulus (GPa) = 18.83547 23.53990 21.18769
# Shear Modulus (GPa) = 77.20158 18.96366 48.08262
#
# Velocity S-wave (km/s) = 5.88880 2.91860 4.64737
# Velocity P-wave (km/s) = 7.39580 4.68310 6.18988
#
# Compressibility (1/GPa) = 0.05309131
#
# Stress axis : x y z
#
# Youngs Moduli (GPa) = 71.87351 94.10160 35.67440
#
# Poissons Ratio (x) = 0.10670 -0.06396
# Poissons Ratio (y) = 0.08149 0.01424
# Poissons Ratio (z) = -0.12887 0.03757
#
# Static dielectric constant tensor:
#      x y z
#    x 1.880110 0.000000 0.000000 
#    y 0.000000 1.852650 0.000000 
#    z 0.000000 0.000000 1.865070 
# 
# From -- ./inp_files/35319.got.cif
#   From: 2010.05.17/outbox.cif.g08.bks.cpg/sg53_18_cif.got.tgz:35319.got - 2010.06.03 12:45:16.
