data_PCOD9416155
_publ_section_title
;
Structure prediction by ZEFSAII (Michael W. Deem and Ramdas Pophale) SiO2 
 PCOD9416155
Probable space group: P M N A
;
_chemical_formula_sum "Si O2"
_cell_formula_units_Z 64
_cell_length_a 8.133679
_cell_length_b 19.866804
_cell_length_c 20.190353
_cell_angle_alpha 90.000000
_cell_angle_beta 90.000000
_cell_angle_gamma 90.000000
_cell_volume 3262.563310
_symmetry_space_group_name_H-M "P M N A"
_symmetry_group_IT_number 53
_symmetry_cell_setting 'orthorhombic'
loop_
_space_group_symop_operation_xyz
x,y,z
1/2-x,-y,1/2+z
x,-y,-z
1/2-x,y,1/2-z
-x,-y,-z
1/2+x,y,1/2-z
-x,y,z
1/2+x,-y,1/2+z
loop_
_atom_site_type_symbol
_atom_site_label
_atom_site_fract_x
_atom_site_fract_y
_atom_site_fract_z
Si Si1 0.195887 0.210550 0.060028
Si Si2 0.197339 0.981823 0.176260
Si Si3 0.307168 0.428905 0.421372
Si Si4 0.198487 0.692252 0.826478
Si Si5 0.305016 0.718909 0.070885
Si Si6 0.302725 0.829338 0.325036
Si Si7 0.192266 0.572962 0.428640
Si Si8 0.701152 0.059579 0.450857
O O1 0.258138 0.245293 0.127646
O O2 0.259793 0.136202 0.040668
O O3 0.000000 0.203201 0.068133
O O4 0.227109 0.260209 0.998922
O O5 0.250000 0.999042 0.250000
O O6 0.255005 0.905821 0.160483
O O7 0.000000 0.979648 0.174117
O O8 0.250817 0.034824 0.121858
O O9 0.500000 0.416230 0.434477
O O10 0.250611 0.375766 0.366004
O O11 0.284013 0.507068 0.402507
O O12 0.214214 0.422770 0.491451
O O13 0.250000 0.694323 0.750000
O O14 0.000000 0.693228 0.827309
O O15 0.500000 0.713630 0.060629
O O16 0.267459 0.776367 0.123696
O O17 0.246697 0.645686 0.095305
O O18 0.250000 0.814150 0.250000
O O19 0.500000 0.828212 0.329803
O O20 0.000000 0.564547 0.413432
O O21 0.500000 0.060632 0.456054
O O22 0.756095 0.000000 0.500000
#
# Coordination Sequence:
#
# PCOD9416155 Si02
#       8
#     8   8   8   8   8   8   8   8
#     4  10  20  36  56  79 109 145 189 232 276 331
#     4   9  18  33  53  77 102 136 179 221 270 328
#     4  10  19  34  55  80 107 138 180 223 266 323
#     4  10  22  37  55  80 111 149 189 231 279 327
#     4  11  22  35  54  82 113 144 181 225 274 329
#     4  10  20  35  56  79 108 143 180 224 274 332
#     4  10  20  33  54  82 109 139 174 219 271 321
#     4   9  17  31  53  79 105 137 179 226 274 326
#
# _framework density 19.616478000000001
#
# number of rings (size 3 to 8) (size 9 to 14) (size 15 to 20)
#    0.000    2.125    1.250    3.000    0.000    6.000 
#    0.000    1.250    0.000    3.000    0.000    0.000 
#    0.000    0.000    0.000    0.000    0.000    0.000 
#
# Total GULP energy -357081.531727 kJ/mol
# GULP energy per Si atom -5579.398933 kJ/mol
# Density = 1.957183 g / cm^3
# Si number density = 19.616478 Si / 1000 Ang^3
#
#
#
# Elastic Constant Matrix: (Units=GPa)
#
#
# Indices 1 2 3 4 5 6 
#
# 1 9.6242 9.1214 0.7401 0.0000 0.0000 0.0000
# 2 9.1214 118.4541 43.5518 0.0000 0.0000 0.0000
# 3 0.7401 43.5518 44.4508 0.0000 0.0000 0.0000
# 4 0.0000 0.0000 0.0000 32.4458 0.0000 0.0000
# 5 0.0000 0.0000 0.0000 0.0000 25.3372 0.0000
# 6 0.0000 0.0000 0.0000 0.0000 0.0000 19.0280
#
#
#
# Elastic Compliance Matrix: (Units=1/GPa)
#
#
# Indices 1 2 3 4 5 6 
#
# 1 0.115186 -0.012762 0.010586 0.000000 0.000000 0.000000
# 2 -0.012762 0.014609 -0.014102 0.000000 0.000000 0.000000
# 3 0.010586 -0.014102 0.036137 0.000000 0.000000 0.000000
# 4 0.000000 0.000000 0.000000 0.030821 0.000000 0.000000
# 5 0.000000 0.000000 0.000000 0.000000 0.039468 0.000000
# 6 0.000000 0.000000 0.000000 0.000000 0.000000 0.052554
#
#
# Mechanical properties :
#
#
# Convention : Reuss Voigt Hill
#
# Bulk Modulus (GPa) = 7.49753 31.03953 19.26853
# Shear Modulus (GPa) = 13.66909 23.30325 18.48617
#
# Velocity S-wave (km/s) = 2.64259 3.45039 3.07315
# Velocity P-wave (km/s) = 3.62511 5.63304 4.73670
#
# Compressibility (1/GPa) = 0.13337734
#
# Stress axis : x y z
#
# Youngs Moduli (GPa) = 8.68162 68.44868 27.67255
#
# Poissons Ratio (x) = 0.87354 -0.29294
# Poissons Ratio (y) = 0.11079 0.39023
# Poissons Ratio (z) = -0.09190 0.96523
#
# Static dielectric constant tensor:
#      x y z
#    x 1.694540 0.000000 0.000000 
#    y 0.000000 1.733010 0.000000 
#    z 0.000000 0.000000 1.652170 
# 
# From -- ./inp_files/31179.got.cif
#   From: 2010.05.17/outbox.cif.g08.bks.cpg/sg53_16_cif.got.tgz:31179.got - 2010.06.03 12:45:16.
