data_PCOD9416187
_publ_section_title
;
Structure prediction by ZEFSAII (Michael W. Deem and Ramdas Pophale) SiO2 
 PCOD9416187
Probable space group: P M N A
;
_chemical_formula_sum "Si O2"
_cell_formula_units_Z 64
_cell_length_a 7.681993
_cell_length_b 15.115280
_cell_length_c 24.717128
_cell_angle_alpha 90.000000
_cell_angle_beta 90.000000
_cell_angle_gamma 90.000000
_cell_volume 2870.041062
_symmetry_space_group_name_H-M "P M N A"
_symmetry_group_IT_number 53
_symmetry_cell_setting 'orthorhombic'
loop_
_space_group_symop_operation_xyz
x,y,z
1/2-x,-y,1/2+z
x,-y,-z
1/2-x,y,1/2-z
-x,-y,-z
1/2+x,y,1/2-z
-x,y,z
1/2+x,-y,1/2+z
loop_
_atom_site_type_symbol
_atom_site_label
_atom_site_fract_x
_atom_site_fract_y
_atom_site_fract_z
Si Si1 0.300049 0.880338 0.105338
Si Si2 0.790512 0.215985 0.500631
Si Si3 0.787659 0.446840 0.841126
Si Si4 0.707431 0.741910 0.308301
Si Si5 0.704988 0.195708 0.119965
Si Si6 0.209931 0.029779 0.313253
Si Si7 0.792986 0.360136 0.189628
Si Si8 0.210047 0.583379 0.035212
O O1 0.500000 0.906922 0.094333
O O2 0.295511 0.794241 0.143375
O O3 0.222626 0.955943 0.144265
O O4 0.221948 0.848239 0.048305
O O5 0.722005 0.193308 0.440818
O O6 0.758147 0.319193 0.514285
O O7 0.000000 0.205980 0.500364
O O8 0.731216 0.359558 0.809530
O O9 0.724178 0.540329 0.818728
O O10 0.734348 0.432087 0.903115
O O11 0.000000 0.448851 0.839454
O O12 0.750000 0.781936 0.250000
O O13 0.500000 0.744754 0.317061
O O14 0.500000 0.177143 0.114811
O O15 0.773402 0.123515 0.162603
O O16 0.724819 0.292482 0.145259
O O17 0.250000 0.017142 0.250000
O O18 0.000000 0.026388 0.315369
O O19 0.750000 0.329210 0.250000
O O20 0.000000 0.362405 0.183639
O O21 0.000000 0.580629 0.034664
O O22 0.273248 0.500000 0.000000
#
# Coordination Sequence:
#
# PCOD9416187 Si02
#       8
#     8   8   8   8   8   8   8   8
#     4  10  21  38  59  86 116 150 190 234 286 342
#     4  10  21  37  58  86 119 150 191 240 288 341
#     4   9  19  34  52  79 112 149 190 230 281 339
#     4  11  21  35  55  80 113 150 188 232 281 338
#     4  10  22  40  60  85 116 152 192 240 292 345
#     4  10  22  40  62  86 115 150 192 238 291 350
#     4  11  22  38  59  84 115 152 195 243 292 346
#     4  10  19  34  56  80 112 155 198 235 278 338
#
# _framework density 22.299334000000002
#
# number of rings (size 3 to 8) (size 9 to 14) (size 15 to 20)
#    0.000    1.875    1.250    2.625    0.000    5.250 
#    0.000    5.625    0.000    0.000    0.000    3.500 
#    0.000    0.000    0.000    0.000    0.000    0.000 
#
# Total GULP energy -357515.152427 kJ/mol
# GULP energy per Si atom -5586.174257 kJ/mol
# Density = 2.224858 g / cm^3
# Si number density = 22.299334 Si / 1000 Ang^3
#
#
#
# Elastic Constant Matrix: (Units=GPa)
#
#
# Indices 1 2 3 4 5 6 
#
# 1 43.8787 -2.4588 0.9500 0.0000 0.0000 0.0000
# 2 -2.4588 86.3527 26.6624 0.0000 0.0000 0.0000
# 3 0.9500 26.6624 142.7160 0.0000 0.0000 0.0000
# 4 0.0000 0.0000 0.0000 38.5282 0.0000 0.0000
# 5 0.0000 0.0000 0.0000 0.0000 15.9664 0.0000
# 6 0.0000 0.0000 0.0000 0.0000 0.0000 14.7022
#
#
#
# Elastic Compliance Matrix: (Units=1/GPa)
#
#
# Indices 1 2 3 4 5 6 
#
# 1 0.022838 0.000740 -0.000290 0.000000 0.000000 0.000000
# 2 0.000740 0.012313 -0.002305 0.000000 0.000000 0.000000
# 3 -0.000290 -0.002305 0.007440 0.000000 0.000000 0.000000
# 4 0.000000 0.000000 0.000000 0.025955 0.000000 0.000000
# 5 0.000000 0.000000 0.000000 0.000000 0.062631 0.000000
# 6 0.000000 0.000000 0.000000 0.000000 0.000000 0.068017
#
#
# Mechanical properties :
#
#
# Convention : Reuss Voigt Hill
#
# Bulk Modulus (GPa) = 25.72062 35.91718 30.81890
# Shear Modulus (GPa) = 23.16262 30.35895 26.76079
#
# Velocity S-wave (km/s) = 3.22640 3.69376 3.46796
# Velocity P-wave (km/s) = 5.04370 5.85949 5.46683
#
# Compressibility (1/GPa) = 0.03887932
#
# Stress axis : x y z
#
# Youngs Moduli (GPa) = 43.78700 81.21315 134.41695
#
# Poissons Ratio (x) = -0.06009 0.03902
# Poissons Ratio (y) = -0.03240 0.30987
# Poissons Ratio (z) = 0.01271 0.18722
#
# Static dielectric constant tensor:
#      x y z
#    x 1.855320 0.000000 0.000000 
#    y 0.000000 1.820790 0.000000 
#    z 0.000000 0.000000 1.807220 
# 
# From -- ./inp_files/34216.got.cif
#   From: 2010.05.17/outbox.cif.g08.bks.cpg/sg53_18_cif.got.tgz:34216.got - 2010.06.03 12:45:16.
