data_PCOD9416023
_publ_section_title
;
Structure prediction by ZEFSAII (Michael W. Deem and Ramdas Pophale) SiO2 
 PCOD9416023
Probable space group: P M N A
;
_chemical_formula_sum "Si O2"
_cell_formula_units_Z 58
_cell_length_a 7.738940
_cell_length_b 13.311358
_cell_length_c 28.971550
_cell_angle_alpha 90.000000
_cell_angle_beta 90.000000
_cell_angle_gamma 90.000000
_cell_volume 2984.527426
_symmetry_space_group_name_H-M "P M N A"
_symmetry_group_IT_number 53
_symmetry_cell_setting 'orthorhombic'
loop_
_space_group_symop_operation_xyz
x,y,z
1/2-x,-y,1/2+z
x,-y,-z
1/2-x,y,1/2-z
-x,-y,-z
1/2+x,y,1/2-z
-x,y,z
1/2+x,-y,1/2+z
loop_
_atom_site_type_symbol
_atom_site_label
_atom_site_fract_x
_atom_site_fract_y
_atom_site_fract_z
Si Si1 0.700335 0.000872 0.391167
Si Si2 0.792340 0.098655 0.198437
Si Si3 0.201322 0.201159 0.441297
Si Si4 0.299370 0.589185 0.898807
Si Si5 0.807155 0.397494 0.951127
Si Si6 0.795380 0.822647 0.046806
Si Si7 0.707056 0.330166 0.302437
Si Si8 0.500000 0.500000 0.000000
O O1 0.500000 0.972060 0.383868
O O2 0.777570 0.026235 0.341234
O O3 0.707504 0.106630 0.417807
O O4 0.777784 0.912960 0.422552
O O5 0.750000 0.066088 0.250000
O O6 0.731040 0.214105 0.192674
O O7 0.000000 0.103182 0.193754
O O8 0.267875 0.308258 0.422371
O O9 0.218058 0.187832 0.495922
O O10 0.000000 0.197540 0.427828
O O11 0.500000 0.573505 0.915049
O O12 0.204880 0.489077 0.915189
O O13 0.288620 0.607013 0.844132
O O14 0.778975 0.286998 0.930206
O O15 0.654196 0.419069 0.986635
O O16 0.000000 0.396147 0.972110
O O17 0.000000 0.842455 0.039455
O O18 0.750000 0.361655 0.250000
O O19 0.500000 0.332786 0.308143
#
# Coordination Sequence:
#
# PCOD9416023 Si02
#       8
#     8   8   8   8   8   8   8   2
#     4  10  20  38  57  79 111 152 191 232 281 343
#     4   9  18  32  54  80 111 142 181 230 285 346
#     4  11  23  34  52  82 114 149 189 237 287 339
#     4  11  22  37  57  84 119 152 195 248 293 349
#     4  11  24  40  60  85 114 157 200 246 299 346
#     4  10  23  39  57  78 110 154 200 238 282 343
#     4  10  19  33  55  84 115 149 184 233 298 358
#     4  12  22  40  60  86 114 148 202 252 292 336
#
# _framework density 19.433562999999999
#
# number of rings (size 3 to 8) (size 9 to 14) (size 15 to 20)
#    0.000    1.655    2.069    2.690    2.897    6.069 
#    0.000    0.000    0.000    0.828    0.000    1.931 
#    0.000    0.000    0.000    0.000    0.000    0.000 
#
# Total GULP energy -323459.290363 kJ/mol
# GULP energy per Si atom -5576.884317 kJ/mol
# Density = 1.938933 g / cm^3
# Si number density = 19.433563 Si / 1000 Ang^3
#
#
#
# Elastic Constant Matrix: (Units=GPa)
#
#
# Indices 1 2 3 4 5 6 
#
# 1 73.8063 3.0788 0.5771 0.0000 0.0000 0.0000
# 2 3.0788 91.6384 49.8988 0.0000 0.0000 0.0000
# 3 0.5771 49.8988 114.9684 0.0000 0.0000 0.0000
# 4 0.0000 0.0000 0.0000 21.3451 0.0000 0.0000
# 5 0.0000 0.0000 0.0000 0.0000 30.0501 0.0000
# 6 0.0000 0.0000 0.0000 0.0000 0.0000 28.1837
#
#
#
# Elastic Compliance Matrix: (Units=1/GPa)
#
#
# Indices 1 2 3 4 5 6 
#
# 1 0.013571 -0.000548 0.000170 0.000000 0.000000 0.000000
# 2 -0.000548 0.014312 -0.006209 0.000000 0.000000 0.000000
# 3 0.000170 -0.006209 0.011392 0.000000 0.000000 0.000000
# 4 0.000000 0.000000 0.000000 0.046849 0.000000 0.000000
# 5 0.000000 0.000000 0.000000 0.000000 0.033278 0.000000
# 6 0.000000 0.000000 0.000000 0.000000 0.000000 0.035482
#
#
# Mechanical properties :
#
#
# Convention : Reuss Voigt Hill
#
# Bulk Modulus (GPa) = 38.31499 43.05806 40.68653
# Shear Modulus (GPa) = 28.28738 31.03967 29.66353
#
# Velocity S-wave (km/s) = 3.81936 4.00086 3.91116
# Velocity P-wave (km/s) = 6.26169 6.59903 6.43257
#
# Compressibility (1/GPa) = 0.02609945
#
# Stress axis : x y z
#
# Youngs Moduli (GPa) = 73.68909 69.87284 87.78110
#
# Poissons Ratio (x) = 0.03832 -0.01492
# Poissons Ratio (y) = 0.04042 0.54502
# Poissons Ratio (z) = -0.01252 0.43383
#
# Static dielectric constant tensor:
#      x y z
#    x 1.718580 0.000000 0.000000 
#    y 0.000000 1.743470 0.000000 
#    z 0.000000 0.000000 1.254020 
# 
# From -- ./inp_files/36315.got.cif
#   From: 2010.05.17/outbox.cif.g08.bks.cpg/sg53_19_cif.got.tgz:36315.got - 2010.06.03 12:45:16.
