data_PCOD9416196
_publ_section_title
;
Structure prediction by ZEFSAII (Michael W. Deem and Ramdas Pophale) SiO2 
 PCOD9416196
Probable space group: P M N A
;
_chemical_formula_sum "Si O2"
_cell_formula_units_Z 48
_cell_length_a 8.507021
_cell_length_b 32.402994
_cell_length_c 9.253566
_cell_angle_alpha 90.000000
_cell_angle_beta 90.000000
_cell_angle_gamma 90.000000
_cell_volume 2550.772770
_symmetry_space_group_name_H-M "P M N A"
_symmetry_group_IT_number 53
_symmetry_cell_setting 'orthorhombic'
loop_
_space_group_symop_operation_xyz
x,y,z
1/2-x,-y,1/2+z
x,-y,-z
1/2-x,y,1/2-z
-x,-y,-z
1/2+x,y,1/2-z
-x,y,z
1/2+x,-y,1/2+z
loop_
_atom_site_type_symbol
_atom_site_label
_atom_site_fract_x
_atom_site_fract_y
_atom_site_fract_z
Si Si1 0.309917 0.459427 0.587557
Si Si2 0.312790 0.880084 0.087148
Si Si3 0.309727 0.621153 0.585575
Si Si4 0.810626 0.289017 0.085490
Si Si5 0.310630 0.198559 0.415167
Si Si6 0.311324 0.958994 0.586759
O O1 0.258297 0.500000 0.500000
O O2 0.250000 0.461094 0.750000
O O3 0.500000 0.459178 0.588517
O O4 0.255573 0.417615 0.508276
O O5 0.250000 0.882662 0.250000
O O6 0.500000 0.881020 0.088896
O O7 0.255424 0.838126 0.011429
O O8 0.250590 0.918681 0.994928
O O9 0.250000 0.617333 0.750000
O O10 0.500000 0.620420 0.589292
O O11 0.259934 0.666351 0.525204
O O12 0.750000 0.289256 0.250000
O O13 0.761506 0.244186 0.026954
O O14 0.000000 0.288918 0.085946
O O15 0.250000 0.194598 0.250000
O O16 0.500000 0.196367 0.413102
O O17 0.250000 0.960264 0.750000
O O18 0.500000 0.957714 0.588839
O O19 0.261337 0.000000 0.500000
#
# Coordination Sequence:
#
# PCOD9416196 Si02
#       6
#     8   8   8   8   8   8
#     4  10  21  35  51  73 101 133 170 213 260 313
#     4  12  25  41  60  83 114 150 189 232 279 329
#     4   9  17  31  51  76 104 134 172 215 261 313
#     4   8  15  28  49  75 104 137 173 217 263 312
#     4  10  19  34  56  82 111 144 184 227 273 322
#     4  11  24  42  65  92 121 153 189 229 274 324
#
# _framework density 18.817827000000001
#
# number of rings (size 3 to 8) (size 9 to 14) (size 15 to 20)
#    0.000    2.000    0.000    4.000    0.000    4.333 
#    0.000    0.833    0.000    2.000    0.000    0.000 
#    0.000    0.000    0.000    0.000    0.000    0.000 
#
# Total GULP energy -267882.631017 kJ/mol
# GULP energy per Si atom -5580.888146 kJ/mol
# Density = 1.877500 g / cm^3
# Si number density = 18.817827 Si / 1000 Ang^3
#
#
#
# Elastic Constant Matrix: (Units=GPa)
#
#
# Indices 1 2 3 4 5 6 
#
# 1 44.3616 46.3024 30.3879 0.0000 0.0000 0.0000
# 2 46.3024 242.1250 110.1106 0.0000 0.0000 0.0000
# 3 30.3879 110.1106 133.3700 0.0000 0.0000 0.0000
# 4 0.0000 0.0000 0.0000 33.1046 0.0000 0.0000
# 5 0.0000 0.0000 0.0000 0.0000 31.3414 0.0000
# 6 0.0000 0.0000 0.0000 0.0000 0.0000 32.6380
#
#
#
# Elastic Compliance Matrix: (Units=1/GPa)
#
#
# Indices 1 2 3 4 5 6 
#
# 1 0.029018 -0.004071 -0.003251 0.000000 0.000000 0.000000
# 2 -0.004071 0.007184 -0.005004 0.000000 0.000000 0.000000
# 3 -0.003251 -0.005004 0.012370 0.000000 0.000000 0.000000
# 4 0.000000 0.000000 0.000000 0.030207 0.000000 0.000000
# 5 0.000000 0.000000 0.000000 0.000000 0.031907 0.000000
# 6 0.000000 0.000000 0.000000 0.000000 0.000000 0.030639
#
#
# Mechanical properties :
#
#
# Convention : Reuss Voigt Hill
#
# Bulk Modulus (GPa) = 41.80425 88.16208 64.98317
# Shear Modulus (GPa) = 28.74411 34.95383 31.84897
#
# Velocity S-wave (km/s) = 3.91256 4.31453 4.11845
# Velocity P-wave (km/s) = 6.53255 8.47185 7.56461
#
# Compressibility (1/GPa) = 0.02392101
#
# Stress axis : x y z
#
# Youngs Moduli (GPa) = 34.46173 139.19646 80.84306
#
# Poissons Ratio (x) = 0.56665 0.26280
# Poissons Ratio (y) = 0.14029 0.40451
# Poissons Ratio (z) = 0.11202 0.69649
#
# Static dielectric constant tensor:
#      x y z
#    x 1.633090 0.000000 0.000000 
#    y 0.000000 1.693470 0.000000 
#    z 0.000000 0.000000 1.591130 
# 
# From -- ./inp_files/6723.got.cif
#   From: 2010.05.17/outbox.cif.g08.bks.cpg/sg53_4_cif.got.tgz:6723.got - 2010.06.03 12:45:16.
