data_PCOD9416519
_publ_section_title
;
Structure prediction by ZEFSAII (Michael W. Deem and Ramdas Pophale) SiO2 
 PCOD9416519
Probable space group: P M N A
;
_chemical_formula_sum "Si O2"
_cell_formula_units_Z 56
_cell_length_a 8.400180
_cell_length_b 16.882145
_cell_length_c 19.654848
_cell_angle_alpha 90.000000
_cell_angle_beta 90.000000
_cell_angle_gamma 90.000000
_cell_volume 2787.314076
_symmetry_space_group_name_H-M "P M N A"
_symmetry_group_IT_number 53
_symmetry_cell_setting 'orthorhombic'
loop_
_space_group_symop_operation_xyz
x,y,z
1/2-x,-y,1/2+z
x,-y,-z
1/2-x,y,1/2-z
-x,-y,-z
1/2+x,y,1/2-z
-x,y,z
1/2+x,-y,1/2+z
loop_
_atom_site_type_symbol
_atom_site_label
_atom_site_fract_x
_atom_site_fract_y
_atom_site_fract_z
Si Si1 0.807938 0.328037 0.578657
Si Si2 0.692350 0.077392 0.043352
Si Si3 0.309452 0.350667 0.172298
Si Si4 0.693729 0.501919 0.920556
Si Si5 0.691371 0.991085 0.174425
Si Si6 0.688259 0.250549 0.446333
Si Si7 0.307489 0.813470 0.173330
O O1 0.761150 0.414400 0.605525
O O2 0.751922 0.312544 0.502080
O O3 0.748345 0.255972 0.624867
O O4 0.000000 0.325658 0.577708
O O5 0.500000 0.082518 0.037707
O O6 0.758983 0.163704 0.028107
O O7 0.742143 0.055431 0.119975
O O8 0.740316 0.000000 0.000000
O O9 0.250000 0.349847 0.250000
O O10 0.500000 0.353399 0.174007
O O11 0.250449 0.427389 0.128520
O O12 0.258291 0.275171 0.126872
O O13 0.500000 0.507700 0.921924
O O14 0.744791 0.500000 0.000000
O O15 0.750000 0.006164 0.250000
O O16 0.500000 0.990204 0.174403
O O17 0.743842 0.902342 0.153060
O O18 0.500000 0.254219 0.442847
O O19 0.250000 0.800864 0.250000
O O20 0.500000 0.812478 0.172007
#
# Coordination Sequence:
#
# PCOD9416519 Si02
#       7
#     8   8   8   8   8   8   8
#     4  10  19  36  61  85 114 156 200 239 289 356
#     4  10  21  39  62  85 112 150 199 248 296 355
#     4  11  23  42  65  90 123 160 204 252 303 363
#     4   9  17  34  62  89 112 150 198 242 291 350
#     4   9  18  33  53  77 105 142 184 226 278 340
#     4  12  25  39  58  88 121 156 197 247 305 357
#     4   9  18  32  53  81 114 149 186 231 285 344
#
# _framework density 20.091027
#
# number of rings (size 3 to 8) (size 9 to 14) (size 15 to 20)
#    0.000    2.000    1.429    2.571    0.000    4.857 
#    0.000    6.429    0.000    0.000    0.000    0.000 
#    0.000    0.000    0.000    0.000    0.000    0.000 
#
# Total GULP energy -312541.144582 kJ/mol
# GULP energy per Si atom -5581.091868 kJ/mol
# Density = 2.004530 g / cm^3
# Si number density = 20.091027 Si / 1000 Ang^3
#
#
#
# Elastic Constant Matrix: (Units=GPa)
#
#
# Indices 1 2 3 4 5 6 
#
# 1 13.2377 15.6733 0.2066 0.0000 0.0000 0.0000
# 2 15.6733 92.5872 33.0619 0.0000 0.0000 0.0000
# 3 0.2066 33.0619 58.2365 0.0000 0.0000 0.0000
# 4 0.0000 0.0000 0.0000 35.2335 0.0000 0.0000
# 5 0.0000 0.0000 0.0000 0.0000 27.3060 0.0000
# 6 0.0000 0.0000 0.0000 0.0000 0.0000 -0.8722
#
#
#
# Elastic Compliance Matrix: (Units=1/GPa)
#
#
# Indices 1 2 3 4 5 6 
#
# 1 0.100414 -0.021161 0.011657 0.000000 0.000000 0.000000
# 2 -0.021161 0.018006 -0.010147 0.000000 0.000000 0.000000
# 3 0.011657 -0.010147 0.022891 0.000000 0.000000 0.000000
# 4 0.000000 0.000000 0.000000 0.028382 0.000000 0.000000
# 5 0.000000 0.000000 0.000000 0.000000 0.036622 0.000000
# 6 0.000000 0.000000 0.000000 0.000000 0.000000 -1.146566
#
#
# Mechanical properties :
#
#
# Convention : Reuss Voigt Hill
#
# Bulk Modulus (GPa) = 9.80308 29.10499 19.45404
# Shear Modulus (GPa) = -5.76737 20.00811 7.12037
#
# Velocity S-wave (km/s) = -1.69613 3.15917 1.88461
# Velocity P-wave (km/s) = 1.02670 5.27495 3.79995
#
# Compressibility (1/GPa) = 0.10200875
#
# Stress axis : x y z
#
# Youngs Moduli (GPa) = 9.95879 55.53615 43.68554
#
# Poissons Ratio (x) = 1.17519 -0.50925
# Poissons Ratio (y) = 0.21074 0.44330
# Poissons Ratio (z) = -0.11609 0.56355
#
# Static dielectric constant tensor:
#      x y z
#    x 1.693910 0.000000 0.000000 
#    y 0.000000 1.732350 0.000000 
#    z 0.000000 0.000000 1.705420 
# 
# From -- ./inp_files/30768.got.cif
#   From: 2010.05.17/outbox.cif.g08.bks.cpg/sg53_16_cif.got.tgz:30768.got - 2010.06.03 12:45:16.
