data_PCOD9416132
_publ_section_title
;
Structure prediction by ZEFSAII (Michael W. Deem and Ramdas Pophale) SiO2 
 PCOD9416132
Probable space group: P M N A
;
_chemical_formula_sum "Si O2"
_cell_formula_units_Z 40
_cell_length_a 8.755901
_cell_length_b 12.917133
_cell_length_c 20.294063
_cell_angle_alpha 90.000000
_cell_angle_beta 90.000000
_cell_angle_gamma 90.000000
_cell_volume 2295.281615
_symmetry_space_group_name_H-M "P M N A"
_symmetry_group_IT_number 53
_symmetry_cell_setting 'orthorhombic'
loop_
_space_group_symop_operation_xyz
x,y,z
1/2-x,-y,1/2+z
x,-y,-z
1/2-x,y,1/2-z
-x,-y,-z
1/2+x,y,1/2-z
-x,y,z
1/2+x,-y,1/2+z
loop_
_atom_site_type_symbol
_atom_site_label
_atom_site_fract_x
_atom_site_fract_y
_atom_site_fract_z
Si Si1 0.184318 0.805027 0.899325
Si Si2 0.817696 0.542798 0.073591
Si Si3 0.676170 0.968485 0.422461
Si Si4 0.682317 0.383455 0.178492
Si Si5 0.818849 0.760510 0.455494
O O1 0.251346 0.725993 0.846798
O O2 0.248656 0.772797 0.971040
O O3 0.000000 0.798279 0.901787
O O4 0.225342 0.925477 0.887113
O O5 0.737743 0.468896 0.126199
O O6 0.000000 0.540408 0.083304
O O7 0.785959 0.500000 0.000000
O O8 0.755428 0.659283 0.076393
O O9 0.500000 0.944976 0.405637
O O10 0.775870 0.865810 0.417013
O O11 0.678225 0.000000 0.500000
O O12 0.750000 0.407041 0.250000
O O13 0.500000 0.379602 0.180521
O O14 0.000000 0.748892 0.460488
#
# Coordination Sequence:
#
# PCOD9416132 Si02
#       5
#     8   8   8   8   8
#     4  10  19  34  54  78 110 147 186 228 278 332
#     4  11  22  37  59  82 112 151 192 237 286 339
#     4   8  16  30  49  74 108 145 179 219 271 328
#     4  12  25  40  59  83 114 149 190 235 286 345
#     4  11  20  30  51  83 115 145 183 232 284 334
#
# _framework density 17.427054999999999
#
# number of rings (size 3 to 8) (size 9 to 14) (size 15 to 20)
#    0.000    1.600    2.000    6.000    0.000    5.200 
#    0.000    0.000    0.000    1.200    0.000    2.800 
#    0.000    0.000    0.000    0.000    0.000    0.000 
#
# Total GULP energy -223346.038060 kJ/mol
# GULP energy per Si atom -5583.650952 kJ/mol
# Density = 1.738739 g / cm^3
# Si number density = 17.427055 Si / 1000 Ang^3
#
#
#
# Elastic Constant Matrix: (Units=GPa)
#
#
# Indices 1 2 3 4 5 6 
#
# 1 106.8429 57.8091 44.4521 0.0000 0.0000 0.0000
# 2 57.8091 127.3276 42.6526 0.0000 0.0000 0.0000
# 3 44.4521 42.6526 71.9405 0.0000 0.0000 0.0000
# 4 0.0000 0.0000 0.0000 16.0691 0.0000 0.0000
# 5 0.0000 0.0000 0.0000 0.0000 23.3394 0.0000
# 6 0.0000 0.0000 0.0000 0.0000 0.0000 30.5245
#
#
#
# Elastic Compliance Matrix: (Units=1/GPa)
#
#
# Indices 1 2 3 4 5 6 
#
# 1 0.014351 -0.004424 -0.006245 0.000000 0.000000 0.000000
# 2 -0.004424 0.011164 -0.003885 0.000000 0.000000 0.000000
# 3 -0.006245 -0.003885 0.020063 0.000000 0.000000 0.000000
# 4 0.000000 0.000000 0.000000 0.062231 0.000000 0.000000
# 5 0.000000 0.000000 0.000000 0.000000 0.042846 0.000000
# 6 0.000000 0.000000 0.000000 0.000000 0.000000 0.032761
#
#
# Mechanical properties :
#
#
# Convention : Reuss Voigt Hill
#
# Bulk Modulus (GPa) = 60.71782 66.21542 63.46662
# Shear Modulus (GPa) = 22.93437 24.73309 23.83373
#
# Velocity S-wave (km/s) = 3.63164 3.77136 3.70216
# Velocity P-wave (km/s) = 7.24581 7.55265 7.40082
#
# Compressibility (1/GPa) = 0.01646963
#
# Stress axis : x y z
#
# Youngs Moduli (GPa) = 69.68011 89.57525 49.84387
#
# Poissons Ratio (x) = 0.39627 0.31127
# Poissons Ratio (y) = 0.30825 0.19366
# Poissons Ratio (z) = 0.43514 0.34803
#
# Static dielectric constant tensor:
#      x y z
#    x 1.574690 0.000000 0.000000 
#    y 0.000000 1.615370 0.000000 
#    z 0.000000 0.000000 1.574480 
# 
# From -- ./inp_files/30362.got.cif
#   From: 2010.05.17/outbox.cif.g08.bks.cpg/sg53_16_cif.got.tgz:30362.got - 2010.06.03 12:45:16.
