data_PCOD9416179
_publ_section_title
;
Structure prediction by ZEFSAII (Michael W. Deem and Ramdas Pophale) SiO2 
 PCOD9416179
Probable space group: P M N A
;
_chemical_formula_sum "Si O2"
_cell_formula_units_Z 40
_cell_length_a 8.465998
_cell_length_b 13.222725
_cell_length_c 18.803858
_cell_angle_alpha 90.000000
_cell_angle_beta 90.000000
_cell_angle_gamma 90.000000
_cell_volume 2104.970870
_symmetry_space_group_name_H-M "P M N A"
_symmetry_group_IT_number 53
_symmetry_cell_setting 'orthorhombic'
loop_
_space_group_symop_operation_xyz
x,y,z
1/2-x,-y,1/2+z
x,-y,-z
1/2-x,y,1/2-z
-x,-y,-z
1/2+x,y,1/2-z
-x,y,z
1/2+x,-y,1/2+z
loop_
_atom_site_type_symbol
_atom_site_label
_atom_site_fract_x
_atom_site_fract_y
_atom_site_fract_z
Si Si1 0.191067 0.001817 0.669571
Si Si2 0.191259 0.201489 0.584434
Si Si3 0.692704 0.807125 0.920865
Si Si4 0.687973 0.392971 0.669814
Si Si5 0.810330 0.613935 0.669928
O O1 0.250000 0.996522 0.750000
O O2 0.242565 0.105248 0.631205
O O3 0.000000 0.001216 0.670242
O O4 0.244176 0.904867 0.623869
O O5 0.243367 0.189777 0.502758
O O6 0.251915 0.304495 0.619080
O O7 0.000000 0.203423 0.585012
O O8 0.500000 0.808221 0.920993
O O9 0.742109 0.704286 0.881513
O O10 0.750000 0.374861 0.750000
O O11 0.500000 0.394184 0.671702
O O12 0.749250 0.503669 0.647528
O O13 0.750000 0.632704 0.750000
O O14 0.000000 0.611438 0.671341
#
# Coordination Sequence:
#
# PCOD9416179 Si02
#       5
#     8   8   8   8   8
#     4  10  20  35  57  82 108 140 179 221 265 316
#     4  10  20  36  57  80 109 143 180 220 264 316
#     4   9  19  35  56  81 108 142 180 218 264 321
#     4  11  22  37  56  79 108 141 181 223 267 316
#     4  10  19  34  56  80 107 140 181 223 266 316
#
# _framework density 19.002637
#
# number of rings (size 3 to 8) (size 9 to 14) (size 15 to 20)
#    0.000    2.000    0.000    5.400    0.000    5.600 
#    0.000    8.000    0.000    2.400    0.000    0.000 
#    0.000    0.000    0.000    0.000    0.000    0.000 
#
# Total GULP energy -223469.465135 kJ/mol
# GULP energy per Si atom -5586.736628 kJ/mol
# Density = 1.895939 g / cm^3
# Si number density = 19.002637 Si / 1000 Ang^3
#
#
#
# Elastic Constant Matrix: (Units=GPa)
#
#
# Indices 1 2 3 4 5 6 
#
# 1 40.3183 30.0460 26.4876 0.0000 0.0000 0.0000
# 2 30.0460 140.6193 89.9333 0.0000 0.0000 0.0000
# 3 26.4876 89.9333 124.4757 0.0000 0.0000 0.0000
# 4 0.0000 0.0000 0.0000 13.4763 0.0000 0.0000
# 5 0.0000 0.0000 0.0000 0.0000 28.5481 0.0000
# 6 0.0000 0.0000 0.0000 0.0000 0.0000 8.7162
#
#
#
# Elastic Compliance Matrix: (Units=1/GPa)
#
#
# Indices 1 2 3 4 5 6 
#
# 1 0.030204 -0.004356 -0.003280 0.000000 0.000000 0.000000
# 2 -0.004356 0.013848 -0.009078 0.000000 0.000000 0.000000
# 3 -0.003280 -0.009078 0.015291 0.000000 0.000000 0.000000
# 4 0.000000 0.000000 0.000000 0.074204 0.000000 0.000000
# 5 0.000000 0.000000 0.000000 0.000000 0.035029 0.000000
# 6 0.000000 0.000000 0.000000 0.000000 0.000000 0.114729
#
#
# Mechanical properties :
#
#
# Convention : Reuss Voigt Hill
#
# Bulk Modulus (GPa) = 38.58915 66.48303 52.53609
# Shear Modulus (GPa) = 15.36707 20.74454 18.05581
#
# Velocity S-wave (km/s) = 2.84682 3.30762 3.08583
# Velocity P-wave (km/s) = 5.58186 7.04623 6.35635
#
# Compressibility (1/GPa) = 0.02591402
#
# Stress axis : x y z
#
# Youngs Moduli (GPa) = 33.10867 72.21153 65.39879
#
# Poissons Ratio (x) = 0.31454 0.21451
# Poissons Ratio (y) = 0.14421 0.59372
# Poissons Ratio (z) = 0.10860 0.65557
#
# Static dielectric constant tensor:
#      x y z
#    x 1.654830 0.000000 0.000000 
#    y 0.000000 1.644180 0.000000 
#    z 0.000000 0.000000 1.625870 
# 
# From -- ./inp_files/25812.got.cif
#   From: 2010.05.17/outbox.cif.g08.bks.cpg/sg53_13_cif.got.tgz:25812.got - 2010.06.03 12:45:16.
