data_PCOD9416687
_publ_section_title
;
Structure prediction by ZEFSAII (Michael W. Deem and Ramdas Pophale) SiO2 
 PCOD9416687
Probable space group: P M N A
;
_chemical_formula_sum "Si O2"
_cell_formula_units_Z 32
_cell_length_a 21.655642
_cell_length_b 7.216739
_cell_length_c 8.130864
_cell_angle_alpha 90.000000
_cell_angle_beta 90.000000
_cell_angle_gamma 90.000000
_cell_volume 1270.716763
_symmetry_space_group_name_H-M "P M N A"
_symmetry_group_IT_number 53
_symmetry_cell_setting 'orthorhombic'
loop_
_space_group_symop_operation_xyz
x,y,z
1/2-x,-y,1/2+z
x,-y,-z
1/2-x,y,1/2-z
-x,-y,-z
1/2+x,y,1/2-z
-x,y,z
1/2+x,-y,1/2+z
loop_
_atom_site_type_symbol
_atom_site_label
_atom_site_fract_x
_atom_site_fract_y
_atom_site_fract_z
Si Si1 0.683056 0.172572 0.308753
Si Si2 0.500000 0.700993 0.913084
Si Si3 0.131539 0.772139 0.134379
Si Si4 0.500000 0.776829 0.520088
Si Si5 0.634147 0.788728 0.008579
O O1 0.750000 0.108255 0.250000
O O2 0.679246 0.266238 0.487036
O O3 0.659425 0.296643 0.159291
O O4 0.637279 0.996086 0.333048
O O5 0.500000 0.715298 0.712663
O O6 0.561149 0.794258 0.982993
O O7 0.500000 0.500000 0.000000
O O8 0.147111 0.701851 0.315524
O O9 0.063382 0.717002 0.071352
O O10 0.500000 0.000000 0.500000
O O11 0.658791 0.000000 0.000000
#
# Coordination Sequence:
#
# PCOD9416687 Si02
#       5
#     8   4   8   4   8
#     4  10  20  31  52  91 129 156 203 265 315 372
#     4  12  24  40  62  94 128 163 209 278 331 388
#     4  10  20  31  56  83 123 161 199 253 319 377
#     4  12  17  38  60  87 125 162 213 256 331 403
#     4  10  20  37  58  87 120 166 206 255 321 391
#
# _framework density 25.182635999999999
#
# number of rings (size 3 to 8) (size 9 to 14) (size 15 to 20)
#    0.000    1.500    5.000    2.625   10.500    0.000 
#    0.000    2.500    0.000    0.000    6.500    0.000 
#    0.000    0.000    0.000    0.000    0.000    0.000 
#
# Total GULP energy -178613.956670 kJ/mol
# GULP energy per Si atom -5581.686146 kJ/mol
# Density = 2.512532 g / cm^3
# Si number density = 25.182636 Si / 1000 Ang^3
#
#
#
# Elastic Constant Matrix: (Units=GPa)
#
#
# Indices 1 2 3 4 5 6 
#
# 1 100.9875 9.1943 46.5517 0.0000 0.0000 0.0000
# 2 9.1943 114.1214 33.2567 0.0000 0.0000 0.0000
# 3 46.5517 33.2567 316.6214 0.0000 0.0000 0.0000
# 4 0.0000 0.0000 0.0000 -4.9364 0.0000 0.0000
# 5 0.0000 0.0000 0.0000 0.0000 42.9479 0.0000
# 6 0.0000 0.0000 0.0000 0.0000 0.0000 -59.9895
#
#
#
# Elastic Compliance Matrix: (Units=1/GPa)
#
#
# Indices 1 2 3 4 5 6 
#
# 1 0.010641 -0.000414 -0.001521 0.000000 0.000000 0.000000
# 2 -0.000414 0.009055 -0.000890 0.000000 0.000000 0.000000
# 3 -0.001521 -0.000890 0.003475 0.000000 0.000000 0.000000
# 4 0.000000 0.000000 0.000000 -0.202575 0.000000 0.000000
# 5 0.000000 0.000000 0.000000 0.000000 0.023284 0.000000
# 6 0.000000 0.000000 0.000000 0.000000 0.000000 -0.016670
#
#
# Mechanical properties :
#
#
# Convention : Reuss Voigt Hill
#
# Bulk Modulus (GPa) = 57.07358 78.85951 67.96655
# Shear Modulus (GPa) = -30.99860 25.11955 -2.93952
#
# Velocity S-wave (km/s) = -3.51230 3.16174 -1.08158
# Velocity P-wave (km/s) = 2.50295 6.68669 5.04859
#
# Compressibility (1/GPa) = 0.01752124
#
# Stress axis : x y z
#
# Youngs Moduli (GPa) = 93.97566 110.43137 287.72943
#
# Poissons Ratio (x) = 0.04572 0.43764
# Poissons Ratio (y) = 0.03891 0.25616
# Poissons Ratio (z) = 0.14294 0.09831
#
# Static dielectric constant tensor:
#      x y z
#    x 2.003730 0.000000 0.000000 
#    y 0.000000 2.041040 0.000000 
#    z 0.000000 0.000000 2.141990 
# 
# From -- ./inp_files/11472.got.cif
#   From: 2010.05.17/outbox.cif.g08.bks.cpg/sg53_6_cif.got.tgz:11472.got - 2010.06.03 12:45:16.
