data_PCOD9416882
_publ_section_title
;
Structure prediction by ZEFSAII (Michael W. Deem and Ramdas Pophale) SiO2 
 PCOD9416882
Probable space group: P M N A
;
_chemical_formula_sum "Si O2"
_cell_formula_units_Z 40
_cell_length_a 23.893960
_cell_length_b 17.201407
_cell_length_c 5.034213
_cell_angle_alpha 90.000000
_cell_angle_beta 90.000000
_cell_angle_gamma 90.000000
_cell_volume 2069.110530
_symmetry_space_group_name_H-M "P M N A"
_symmetry_group_IT_number 53
_symmetry_cell_setting 'orthorhombic'
loop_
_space_group_symop_operation_xyz
x,y,z
1/2-x,-y,1/2+z
x,-y,-z
1/2-x,y,1/2-z
-x,-y,-z
1/2+x,y,1/2-z
-x,y,z
1/2+x,-y,1/2+z
loop_
_atom_site_type_symbol
_atom_site_label
_atom_site_fract_x
_atom_site_fract_y
_atom_site_fract_z
Si Si1 0.309556 0.742724 0.889802
Si Si2 0.934981 0.627247 0.122817
Si Si3 0.368660 0.420582 0.116959
Si Si4 0.935440 0.946727 0.260360
Si Si5 0.126795 0.210260 0.890063
O O1 0.250000 0.752407 0.750000
O O2 0.326002 0.651520 0.893770
O O3 0.352114 0.787314 0.692319
O O4 0.322087 0.771624 0.187297
O O5 0.919233 0.596141 0.412372
O O6 0.916440 0.717663 0.127578
O O7 0.000000 0.618120 0.061149
O O8 0.895898 0.583964 0.907844
O O9 0.343262 0.500000 0.000000
O O10 0.901285 0.869386 0.198558
O O11 0.000000 0.925582 0.326205
O O12 0.913276 0.000000 0.500000
O O13 0.935728 0.000000 0.000000
#
# Coordination Sequence:
#
# PCOD9416882 Si02
#       5
#     8   8   8   8   8
#     4  10  21  38  58  77 100 140 186 227 273 314
#     4  10  20  33  52  77 107 144 176 208 259 321
#     4  10  21  35  51  77 107 135 176 223 266 316
#     4  10  20  34  56  86 116 144 172 209 264 322
#     4  10  20  36  57  79 108 139 179 225 260 317
#
# _framework density 19.331980999999999
#
# number of rings (size 3 to 8) (size 9 to 14) (size 15 to 20)
#    0.000    2.000    0.000    3.600    0.000    2.400 
#    0.000   12.000    0.000   12.000    0.000    0.000 
#    0.000    0.000    0.000    0.000    0.000    0.000 
#
# Total GULP energy -223208.285512 kJ/mol
# GULP energy per Si atom -5580.207138 kJ/mol
# Density = 1.928798 g / cm^3
# Si number density = 19.331981 Si / 1000 Ang^3
#
#
#
# Elastic Constant Matrix: (Units=GPa)
#
#
# Indices 1 2 3 4 5 6 
#
# 1 30.4416 18.6899 -11.8847 0.0000 0.0000 0.0000
# 2 18.6899 125.8896 22.7075 0.0000 0.0000 0.0000
# 3 -11.8847 22.7075 84.1199 0.0000 0.0000 0.0000
# 4 0.0000 0.0000 0.0000 35.1181 0.0000 0.0000
# 5 0.0000 0.0000 0.0000 0.0000 29.1853 0.0000
# 6 0.0000 0.0000 0.0000 0.0000 0.0000 9.2918
#
#
#
# Elastic Compliance Matrix: (Units=1/GPa)
#
#
# Indices 1 2 3 4 5 6 
#
# 1 0.040390 -0.007385 0.007700 0.000000 0.000000 0.000000
# 2 -0.007385 0.009700 -0.003662 0.000000 0.000000 0.000000
# 3 0.007700 -0.003662 0.013964 0.000000 0.000000 0.000000
# 4 0.000000 0.000000 0.000000 0.028475 0.000000 0.000000
# 5 0.000000 0.000000 0.000000 0.000000 0.034264 0.000000
# 6 0.000000 0.000000 0.000000 0.000000 0.000000 0.107622
#
#
# Mechanical properties :
#
#
# Convention : Reuss Voigt Hill
#
# Bulk Modulus (GPa) = 17.43365 33.27518 25.35441
# Shear Modulus (GPa) = 19.21375 28.78161 23.99768
#
# Velocity S-wave (km/s) = 3.15601 3.86269 3.52710
# Velocity P-wave (km/s) = 4.72421 6.09457 5.45261
#
# Compressibility (1/GPa) = 0.05736033
#
# Stress axis : x y z
#
# Youngs Moduli (GPa) = 24.75847 103.08803 71.61172
#
# Poissons Ratio (x) = 0.76134 -0.55141
# Poissons Ratio (y) = 0.18285 0.26224
# Poissons Ratio (z) = -0.19064 0.37751
#
# Static dielectric constant tensor:
#      x y z
#    x 1.653280 0.000000 0.000000 
#    y 0.000000 1.676930 0.000000 
#    z 0.000000 0.000000 1.742430 
# 
# From -- ./inp_files/3627.got.cif
#   From: 2010.05.17/outbox.cif.g08.bks.cpg/sg53_2_cif.got.tgz:3627.got - 2010.06.03 12:45:16.
