data_PCOD9416332
_publ_section_title
;
Structure prediction by ZEFSAII (Michael W. Deem and Ramdas Pophale) SiO2 
 PCOD9416332
Probable space group: P M N A
;
_chemical_formula_sum "Si O2"
_cell_formula_units_Z 64
_cell_length_a 8.037350
_cell_length_b 12.460921
_cell_length_c 32.295475
_cell_angle_alpha 90.000000
_cell_angle_beta 90.000000
_cell_angle_gamma 90.000000
_cell_volume 3234.481712
_symmetry_space_group_name_H-M "P M N A"
_symmetry_group_IT_number 53
_symmetry_cell_setting 'orthorhombic'
loop_
_space_group_symop_operation_xyz
x,y,z
1/2-x,-y,1/2+z
x,-y,-z
1/2-x,y,1/2-z
-x,-y,-z
1/2+x,y,1/2-z
-x,y,z
1/2+x,-y,1/2+z
loop_
_atom_site_type_symbol
_atom_site_label
_atom_site_fract_x
_atom_site_fract_y
_atom_site_fract_z
Si Si1 0.798489 0.748634 0.054233
Si Si2 0.299391 0.254711 0.704350
Si Si3 0.200156 0.113666 0.022143
Si Si4 0.200346 0.635218 0.623713
Si Si5 0.198809 0.107831 0.869590
Si Si6 0.698872 0.491324 0.952675
Si Si7 0.300857 0.500409 0.703716
Si Si8 0.192216 0.127828 0.384815
O O1 0.740334 0.834693 0.088383
O O2 0.734566 0.629606 0.062226
O O3 0.000000 0.746284 0.054958
O O4 0.748953 0.792168 0.009156
O O5 0.250000 0.218573 0.750000
O O6 0.500000 0.257650 0.702033
O O7 0.235636 0.175294 0.669150
O O8 0.239386 0.377268 0.698812
O O9 0.289467 0.121516 0.065639
O O10 0.000000 0.118730 0.029074
O O11 0.232672 0.000000 0.000000
O O12 0.263465 0.574300 0.582165
O O13 0.237952 0.569890 0.665328
O O14 0.266390 0.756754 0.627254
O O15 0.000000 0.641700 0.619319
O O16 0.000000 0.120080 0.870349
O O17 0.232712 0.982015 0.867827
O O18 0.500000 0.506869 0.955033
O O19 0.765350 0.500000 0.000000
O O20 0.250000 0.536806 0.750000
O O21 0.500000 0.499592 0.702062
O O22 0.000000 0.127297 0.372698
#
# Coordination Sequence:
#
# PCOD9416332 Si02
#       8
#     8   8   8   8   8   8   8   8
#     4  10  20  34  55  80 106 137 182 231 272 323
#     4   9  19  35  58  85 113 141 171 217 272 329
#     4  10  19  35  55  75 106 148 185 226 277 327
#     4  10  22  39  56  79 115 155 192 235 285 336
#     4  10  20  37  56  78 110 144 178 219 271 325
#     4  10  21  37  55  77 112 152 187 230 285 335
#     4  10  20  37  63  91 115 143 183 230 282 341
#     4  11  23  37  55  80 110 146 190 235 272 321
#
# _framework density 19.786784999999998
#
# number of rings (size 3 to 8) (size 9 to 14) (size 15 to 20)
#    0.000    2.000    1.250    2.250    0.000    6.000 
#    0.000    0.625    0.000    1.500    0.000    0.000 
#    0.000    0.000    0.000    0.000    0.000    0.000 
#
# Total GULP energy -357330.674175 kJ/mol
# GULP energy per Si atom -5583.291784 kJ/mol
# Density = 1.974175 g / cm^3
# Si number density = 19.786785 Si / 1000 Ang^3
#
#
#
# Elastic Constant Matrix: (Units=GPa)
#
#
# Indices 1 2 3 4 5 6 
#
# 1 8.5182 -1.1895 0.6642 0.0000 0.0000 0.0000
# 2 -1.1895 115.2368 58.9967 0.0000 0.0000 0.0000
# 3 0.6642 58.9967 109.6656 0.0000 0.0000 0.0000
# 4 0.0000 0.0000 0.0000 34.7274 0.0000 0.0000
# 5 0.0000 0.0000 0.0000 0.0000 22.7241 0.0000
# 6 0.0000 0.0000 0.0000 0.0000 0.0000 23.4832
#
#
#
# Elastic Compliance Matrix: (Units=1/GPa)
#
#
# Indices 1 2 3 4 5 6 
#
# 1 0.117848 0.002183 -0.001888 0.000000 0.000000 0.000000
# 2 0.002183 0.012017 -0.006478 0.000000 0.000000 0.000000
# 3 -0.001888 -0.006478 0.012615 0.000000 0.000000 0.000000
# 4 0.000000 0.000000 0.000000 0.028796 0.000000 0.000000
# 5 0.000000 0.000000 0.000000 0.000000 0.044006 0.000000
# 6 0.000000 0.000000 0.000000 0.000000 0.000000 0.042584
#
#
# Mechanical properties :
#
#
# Convention : Reuss Voigt Hill
#
# Bulk Modulus (GPa) = 7.68558 38.92927 23.30742
# Shear Modulus (GPa) = 15.94376 27.85022 21.89699
#
# Velocity S-wave (km/s) = 2.84170 3.75576 3.33024
# Velocity P-wave (km/s) = 3.82879 6.20683 5.15676
#
# Compressibility (1/GPa) = 0.13011379
#
# Stress axis : x y z
#
# Youngs Moduli (GPa) = 8.48551 83.21733 79.27101
#
# Poissons Ratio (x) = -0.18168 0.14969
# Poissons Ratio (y) = -0.01853 0.51351
# Poissons Ratio (z) = 0.01602 0.53907
#
# Static dielectric constant tensor:
#      x y z
#    x 1.704180 0.000000 0.000000 
#    y 0.000000 1.702750 0.000000 
#    z 0.000000 0.000000 1.684120 
# 
# From -- ./inp_files/38134.got.cif
#   From: 2010.05.17/outbox.cif.g08.bks.cpg/sg53_20_cif.got.tgz:38134.got - 2010.06.03 12:45:16.
