data_PCOD9416781
_publ_section_title
;
Structure prediction by ZEFSAII (Michael W. Deem and Ramdas Pophale) SiO2 
 PCOD9416781
Probable space group: P M N A
;
_chemical_formula_sum "Si O2"
_cell_formula_units_Z 56
_cell_length_a 8.272150
_cell_length_b 21.660341
_cell_length_c 15.310473
_cell_angle_alpha 90.000000
_cell_angle_beta 90.000000
_cell_angle_gamma 90.000000
_cell_volume 2743.293651
_symmetry_space_group_name_H-M "P M N A"
_symmetry_group_IT_number 53
_symmetry_cell_setting 'orthorhombic'
loop_
_space_group_symop_operation_xyz
x,y,z
1/2-x,-y,1/2+z
x,-y,-z
1/2-x,y,1/2-z
-x,-y,-z
1/2+x,y,1/2-z
-x,y,z
1/2+x,-y,1/2+z
loop_
_atom_site_type_symbol
_atom_site_label
_atom_site_fract_x
_atom_site_fract_y
_atom_site_fract_z
Si Si1 0.808093 0.728743 0.472458
Si Si2 0.184824 0.850896 0.395138
Si Si3 0.306140 0.591308 0.477582
Si Si4 0.188278 0.779827 0.844533
Si Si5 0.694414 0.020733 0.841819
Si Si6 0.804642 0.519385 0.851235
Si Si7 0.187291 0.095983 0.065969
O O1 0.741039 0.783059 0.408569
O O2 0.742174 0.660848 0.457251
O O3 0.771554 0.748430 0.572195
O O4 0.000000 0.728597 0.460835
O O5 0.260744 0.909049 0.345745
O O6 0.192173 0.879250 0.492487
O O7 0.000000 0.843810 0.364590
O O8 0.500000 0.586672 0.479527
O O9 0.251590 0.570316 0.575556
O O10 0.252253 0.543871 0.401299
O O11 0.250000 0.760646 0.750000
O O12 0.205676 0.853870 0.856873
O O13 0.000000 0.764752 0.851614
O O14 0.750000 0.994440 0.750000
O O15 0.500000 0.021814 0.850788
O O16 0.769522 0.973224 0.909595
O O17 0.750000 0.525318 0.750000
O O18 0.000000 0.520439 0.848453
O O19 0.000000 0.100384 0.036400
#
# Coordination Sequence:
#
# PCOD9416781 Si02
#       7
#     8   8   8   8   8   8   8
#     4  10  20  35  55  77 103 139 179 217 258 308
#     4   9  20  37  53  71  99 133 169 210 257 308
#     4   9  19  37  57  81 115 150 180 217 267 317
#     4  10  20  33  49  72 103 137 173 216 266 320
#     4  11  22  35  51  71  97 129 166 213 265 312
#     4   9  19  36  59  85 115 148 181 219 263 312
#     4  10  20  33  52  76  99 127 166 212 263 319
#
# _framework density 20.413419000000001
#
# number of rings (size 3 to 8) (size 9 to 14) (size 15 to 20)
#    0.000    2.286    0.000    3.429    0.000    8.000 
#    0.000    3.571    0.000    3.429    0.000    0.000 
#    0.000    0.000    0.000    0.000    0.000    0.000 
#
# Total GULP energy -311974.142895 kJ/mol
# GULP energy per Si atom -5570.966837 kJ/mol
# Density = 2.036696 g / cm^3
# Si number density = 20.413419 Si / 1000 Ang^3
#
#
#
# Elastic Constant Matrix: (Units=GPa)
#
#
# Indices 1 2 3 4 5 6 
#
# 1 30.0298 6.3705 -0.0522 0.0000 0.0000 0.0000
# 2 6.3705 116.9457 -4.4098 0.0000 0.0000 0.0000
# 3 -0.0522 -4.4098 30.6349 0.0000 0.0000 0.0000
# 4 0.0000 0.0000 0.0000 14.8336 0.0000 0.0000
# 5 0.0000 0.0000 0.0000 0.0000 6.6361 0.0000
# 6 0.0000 0.0000 0.0000 0.0000 0.0000 28.9471
#
#
#
# Elastic Compliance Matrix: (Units=1/GPa)
#
#
# Indices 1 2 3 4 5 6 
#
# 1 0.033691 -0.001843 -0.000208 0.000000 0.000000 0.000000
# 2 -0.001843 0.008698 0.001249 0.000000 0.000000 0.000000
# 3 -0.000208 0.001249 0.032822 0.000000 0.000000 0.000000
# 4 0.000000 0.000000 0.000000 0.067415 0.000000 0.000000
# 5 0.000000 0.000000 0.000000 0.000000 0.150690 0.000000
# 6 0.000000 0.000000 0.000000 0.000000 0.000000 0.034546
#
#
# Mechanical properties :
#
#
# Convention : Reuss Voigt Hill
#
# Bulk Modulus (GPa) = 13.58564 20.15862 16.87213
# Shear Modulus (GPa) = 14.12423 21.79682 17.96052
#
# Velocity S-wave (km/s) = 2.63327 3.27122 2.96943
# Velocity P-wave (km/s) = 3.98938 4.91573 4.47659
#
# Compressibility (1/GPa) = 0.07360712
#
# Stress axis : x y z
#
# Youngs Moduli (GPa) = 29.68163 114.96271 30.46743
#
# Poissons Ratio (x) = 0.21189 0.00634
# Poissons Ratio (y) = 0.05471 -0.03805
# Poissons Ratio (z) = 0.00617 -0.14358
#
# Static dielectric constant tensor:
#      x y z
#    x 1.720720 0.000000 0.000000 
#    y 0.000000 1.769400 0.000000 
#    z 0.000000 0.000000 1.633510 
# 
# From -- ./inp_files/20507.got.cif
#   From: 2010.05.17/outbox.cif.g08.bks.cpg/sg53_11_cif.got.tgz:20507.got - 2010.06.03 12:45:16.
