data_PCOD9416205
_publ_section_title
;
Structure prediction by ZEFSAII (Michael W. Deem and Ramdas Pophale) SiO2 
 PCOD9416205
Probable space group: P M N A
;
_chemical_formula_sum "Si O2"
_cell_formula_units_Z 64
_cell_length_a 17.536211
_cell_length_b 22.008227
_cell_length_c 8.547457
_cell_angle_alpha 90.000000
_cell_angle_beta 90.000000
_cell_angle_gamma 90.000000
_cell_volume 3298.813353
_symmetry_space_group_name_H-M "P M N A"
_symmetry_group_IT_number 53
_symmetry_cell_setting 'orthorhombic'
loop_
_space_group_symop_operation_xyz
x,y,z
1/2-x,-y,1/2+z
x,-y,-z
1/2-x,y,1/2-z
-x,-y,-z
1/2+x,y,1/2-z
-x,y,z
1/2+x,-y,1/2+z
loop_
_atom_site_type_symbol
_atom_site_label
_atom_site_fract_x
_atom_site_fract_y
_atom_site_fract_z
Si Si1 0.587749 0.499385 0.690853
Si Si2 0.591726 0.367989 0.645393
Si Si3 0.335826 0.253366 0.806178
Si Si4 0.165019 0.250882 0.319306
Si Si5 0.410915 0.872308 0.191957
Si Si6 0.411746 0.126197 0.185008
Si Si7 0.662053 0.375851 0.302835
Si Si8 0.410282 0.000015 0.686297
O O1 0.592120 0.500000 0.500000
O O2 0.500000 0.507059 0.734704
O O3 0.611538 0.431016 0.735212
O O4 0.631264 0.558532 0.749212
O O5 0.500000 0.370446 0.610506
O O6 0.612549 0.308002 0.741158
O O7 0.641775 0.369407 0.486655
O O8 0.250000 0.263101 0.750000
O O9 0.367022 0.187634 0.752789
O O10 0.335037 0.251814 0.993610
O O11 0.250000 0.250087 0.250000
O O12 0.126147 0.188872 0.262647
O O13 0.126767 0.314257 0.268250
O O14 0.500000 0.867004 0.239945
O O15 0.378310 0.936156 0.252968
O O16 0.409159 0.874912 0.003435
O O17 0.500000 0.128131 0.235037
O O18 0.377505 0.063087 0.248413
O O19 0.750000 0.375190 0.250000
O O20 0.500000 0.000629 0.736395
O O21 0.407299 0.000000 0.500000
#
# Coordination Sequence:
#
# PCOD9416205 Si02
#       8
#     8   8   8   8   8   8   8   8
#     4   8  16  33  56  81 110 145 186 232 282 338
#     4  10  21  39  62  86 115 154 197 241 291 345
#     4  11  22  37  57  81 112 147 190 239 285 341
#     4  10  22  38  53  77 112 146 182 227 282 341
#     4   9  18  34  54  75 104 141 178 220 276 338
#     4   9  18  33  54  76 100 137 179 220 270 330
#     4  10  19  34  56  84 116 150 190 234 285 343
#     4   9  17  29  49  79 108 132 170 225 274 324
#
# _framework density 19.400915999999999
#
# number of rings (size 3 to 8) (size 9 to 14) (size 15 to 20)
#    0.000    2.500    0.000    3.375    0.000    5.500 
#    0.000    5.000    0.000    1.500    0.000    0.000 
#    0.000    0.000    0.000    0.000    0.000    0.000 
#
# Total GULP energy -356666.083179 kJ/mol
# GULP energy per Si atom -5572.907550 kJ/mol
# Density = 1.935676 g / cm^3
# Si number density = 19.400916 Si / 1000 Ang^3
#
#
#
# Elastic Constant Matrix: (Units=GPa)
#
#
# Indices 1 2 3 4 5 6 
#
# 1 47.3444 51.8235 16.4503 0.0000 0.0000 0.0000
# 2 51.8235 227.4089 36.8773 0.0000 0.0000 0.0000
# 3 16.4503 36.8773 25.2462 0.0000 0.0000 0.0000
# 4 0.0000 0.0000 0.0000 29.2715 0.0000 0.0000
# 5 0.0000 0.0000 0.0000 0.0000 13.9518 0.0000
# 6 0.0000 0.0000 0.0000 0.0000 0.0000 55.3867
#
#
#
# Elastic Compliance Matrix: (Units=1/GPa)
#
#
# Indices 1 2 3 4 5 6 
#
# 1 0.031081 -0.004978 -0.012981 0.000000 0.000000 0.000000
# 2 -0.004978 0.006560 -0.006338 0.000000 0.000000 0.000000
# 3 -0.012981 -0.006338 0.057326 0.000000 0.000000 0.000000
# 4 0.000000 0.000000 0.000000 0.034163 0.000000 0.000000
# 5 0.000000 0.000000 0.000000 0.000000 0.071676 0.000000
# 6 0.000000 0.000000 0.000000 0.000000 0.000000 0.018055
#
#
# Mechanical properties :
#
#
# Convention : Reuss Voigt Hill
#
# Bulk Modulus (GPa) = 21.56423 56.70019 39.13221
# Shear Modulus (GPa) = 17.67333 32.71186 25.19260
#
# Velocity S-wave (km/s) = 3.02147 4.11067 3.60742
# Velocity P-wave (km/s) = 4.82821 7.19855 6.12906
#
# Compressibility (1/GPa) = 0.04637310
#
# Stress axis : x y z
#
# Youngs Moduli (GPa) = 32.17384 152.44913 17.44397
#
# Poissons Ratio (x) = 0.75888 0.22644
# Poissons Ratio (y) = 0.16016 0.11056
# Poissons Ratio (z) = 0.41765 0.96622
#
# Static dielectric constant tensor:
#      x y z
#    x 1.676030 0.000000 0.000000 
#    y 0.000000 1.727740 0.000000 
#    z 0.000000 0.000000 1.674170 
# 
# From -- ./inp_files/10268.got.cif
#   From: 2010.05.17/outbox.cif.g08.bks.cpg/sg53_6_cif.got.tgz:10268.got - 2010.06.03 12:45:16.
