data_PCOD9416906
_publ_section_title
;
Structure prediction by ZEFSAII (Michael W. Deem and Ramdas Pophale) SiO2 
 PCOD9416906
Probable space group: P M N A
;
_chemical_formula_sum "Si O2"
_cell_formula_units_Z 56
_cell_length_a 9.036144
_cell_length_b 19.770085
_cell_length_c 18.398615
_cell_angle_alpha 90.000000
_cell_angle_beta 90.000000
_cell_angle_gamma 90.000000
_cell_volume 3286.826739
_symmetry_space_group_name_H-M "P M N A"
_symmetry_group_IT_number 53
_symmetry_cell_setting 'orthorhombic'
loop_
_space_group_symop_operation_xyz
x,y,z
1/2-x,-y,1/2+z
x,-y,-z
1/2-x,y,1/2-z
-x,-y,-z
1/2+x,y,1/2-z
-x,y,z
1/2+x,-y,1/2+z
loop_
_atom_site_type_symbol
_atom_site_label
_atom_site_fract_x
_atom_site_fract_y
_atom_site_fract_z
Si Si1 0.830455 0.549748 0.570002
Si Si2 0.178175 0.164224 0.327971
Si Si3 0.676822 0.206648 0.473097
Si Si4 0.820097 0.663360 0.465598
Si Si5 0.173803 0.006998 0.324856
Si Si6 0.332393 0.934582 0.448366
Si Si7 0.179832 0.432413 0.670965
O O1 0.836340 0.500000 0.500000
O O2 0.766275 0.617459 0.534385
O O3 0.767897 0.504095 0.635166
O O4 0.000000 0.565385 0.590715
O O5 0.250000 0.181343 0.250000
O O6 0.245882 0.206435 0.394239
O O7 0.217609 0.084872 0.342601
O O8 0.000000 0.170484 0.325255
O O9 0.500000 0.214728 0.465875
O O10 0.746230 0.264369 0.523756
O O11 0.705253 0.133290 0.508796
O O12 0.784378 0.624703 0.390011
O O13 0.000000 0.667272 0.468987
O O14 0.250000 0.988989 0.250000
O O15 0.000000 0.007656 0.315589
O O16 0.221802 0.954170 0.385118
O O17 0.500000 0.927225 0.419494
O O18 0.331868 0.000000 0.500000
O O19 0.250000 0.421268 0.750000
O O20 0.000000 0.434315 0.676169
#
# Coordination Sequence:
#
# PCOD9416906 Si02
#       7
#     8   8   8   8   8   8   8
#     4   7  12  27  51  74  96 128 170 208 244 294
#     4  10  20  34  53  76 101 130 167 213 265 321
#     4  11  22  35  53  77 106 141 179 221 268 318
#     4   9  18  34  54  75 104 143 181 215 257 314
#     4  10  20  33  53  77 101 128 165 216 271 324
#     4  10  20  35  53  73 101 136 176 223 271 317
#     4   9  17  31  54  82 108 137 174 215 259 308
#
# _framework density 17.037711000000002
#
# number of rings (size 3 to 8) (size 9 to 14) (size 15 to 20)
#    0.000    2.571    1.429    3.000    0.000    3.143 
#    0.000    2.143    0.000    6.000    0.000    0.000 
#    0.000    0.000    0.000    0.000    0.000    0.000 
#
# Total GULP energy -311842.864918 kJ/mol
# GULP energy per Si atom -5568.622588 kJ/mol
# Density = 1.699893 g / cm^3
# Si number density = 17.037711 Si / 1000 Ang^3
#
#
#
# Elastic Constant Matrix: (Units=GPa)
#
#
# Indices 1 2 3 4 5 6 
#
# 1 32.2882 26.0738 46.9355 0.0000 0.0000 0.0000
# 2 26.0738 90.0455 44.2620 0.0000 0.0000 0.0000
# 3 46.9355 44.2620 113.0394 0.0000 0.0000 0.0000
# 4 0.0000 0.0000 0.0000 27.0738 0.0000 0.0000
# 5 0.0000 0.0000 0.0000 0.0000 31.9953 0.0000
# 6 0.0000 0.0000 0.0000 0.0000 0.0000 12.3352
#
#
#
# Elastic Compliance Matrix: (Units=1/GPa)
#
#
# Indices 1 2 3 4 5 6 
#
# 1 0.083434 -0.008830 -0.031185 0.000000 0.000000 0.000000
# 2 -0.008830 0.014687 -0.002084 0.000000 0.000000 0.000000
# 3 -0.031185 -0.002084 0.022611 0.000000 0.000000 0.000000
# 4 0.000000 0.000000 0.000000 0.036936 0.000000 0.000000
# 5 0.000000 0.000000 0.000000 0.000000 0.031255 0.000000
# 6 0.000000 0.000000 0.000000 0.000000 0.000000 0.081069
#
#
# Mechanical properties :
#
#
# Convention : Reuss Voigt Hill
#
# Bulk Modulus (GPa) = 27.37298 52.21286 39.79292
# Shear Modulus (GPa) = 13.64741 22.15430 17.90085
#
# Velocity S-wave (km/s) = 2.83329 3.60989 3.24491
# Velocity P-wave (km/s) = 5.17729 6.93449 6.11929
#
# Compressibility (1/GPa) = 0.03653237
#
# Stress axis : x y z
#
# Youngs Moduli (GPa) = 11.98547 68.08731 44.22566
#
# Poissons Ratio (x) = 0.60122 1.37920
# Poissons Ratio (y) = 0.10583 0.09219
# Poissons Ratio (z) = 0.37377 0.14193
#
# Static dielectric constant tensor:
#      x y z
#    x 1.573680 0.000000 0.000000 
#    y 0.000000 1.593830 0.000000 
#    z 0.000000 0.000000 1.556610 
# 
# From -- ./inp_files/26714.got.cif
#   From: 2010.05.17/outbox.cif.g08.bks.cpg/sg53_14_cif.got.tgz:26714.got - 2010.06.03 12:45:16.
