data_PCOD9416664
_publ_section_title
;
Structure prediction by ZEFSAII (Michael W. Deem and Ramdas Pophale) SiO2 
 PCOD9416664
Probable space group: P M N A
;
_chemical_formula_sum "Si O2"
_cell_formula_units_Z 56
_cell_length_a 17.406603
_cell_length_b 13.597931
_cell_length_c 11.830108
_cell_angle_alpha 90.000000
_cell_angle_beta 90.000000
_cell_angle_gamma 90.000000
_cell_volume 2800.113058
_symmetry_space_group_name_H-M "P M N A"
_symmetry_group_IT_number 53
_symmetry_cell_setting 'orthorhombic'
loop_
_space_group_symop_operation_xyz
x,y,z
1/2-x,-y,1/2+z
x,-y,-z
1/2-x,y,1/2-z
-x,-y,-z
1/2+x,y,1/2-z
-x,y,z
1/2+x,-y,1/2+z
loop_
_atom_site_type_symbol
_atom_site_label
_atom_site_fract_x
_atom_site_fract_y
_atom_site_fract_z
Si Si1 0.336124 0.276029 0.556396
Si Si2 0.590229 0.268025 0.110654
Si Si3 0.169576 0.359578 0.183510
Si Si4 0.336531 0.317265 0.878652
Si Si5 0.840410 0.876097 0.235125
Si Si6 0.407669 0.956467 0.879593
Si Si7 0.910159 0.557655 0.186279
O O1 0.326219 0.286861 0.423097
O O2 0.255908 0.312724 0.613921
O O3 0.352701 0.169294 0.610349
O O4 0.399921 0.351859 0.600015
O O5 0.500000 0.265791 0.085703
O O6 0.607793 0.323720 0.225523
O O7 0.618838 0.156011 0.126169
O O8 0.632428 0.317737 0.005368
O O9 0.250000 0.365436 0.250000
O O10 0.140114 0.466021 0.144461
O O11 0.361829 0.214662 0.818993
O O12 0.372111 0.403800 0.803467
O O13 0.750000 0.893699 0.250000
O O14 0.882093 0.973237 0.277864
O O15 0.500000 0.956015 0.881272
O O16 0.380431 0.000000 0.000000
O O17 0.000000 0.534170 0.199925
#
# Coordination Sequence:
#
# PCOD9416664 Si02
#       7
#     8   8   8   8   8   8   8
#     4  10  22  41  64  88 120 168 212 252 305 375
#     4  11  23  38  61  91 124 157 202 257 313 373
#     4  12  24  41  61  85 123 170 211 254 312 369
#     4  10  19  40  63  90 122 154 206 259 313 364
#     4   9  19  36  61  93 121 153 203 256 298 362
#     4  10  20  36  61  92 122 154 196 250 309 365
#     4  11  24  39  62  92 123 159 206 261 317 377
#
# _framework density 19.999193000000002
#
# number of rings (size 3 to 8) (size 9 to 14) (size 15 to 20)
#    0.000    1.571    2.857    3.429    0.000    5.143 
#    0.000    2.143    0.000    1.714    0.000    0.000 
#    0.000    0.000    0.000    0.000    0.000    0.000 
#
# Total GULP energy -312731.806016 kJ/mol
# GULP energy per Si atom -5584.496536 kJ/mol
# Density = 1.995367 g / cm^3
# Si number density = 19.999193 Si / 1000 Ang^3
#
#
#
# Elastic Constant Matrix: (Units=GPa)
#
#
# Indices 1 2 3 4 5 6 
#
# 1 39.8178 3.2398 21.3236 0.0000 0.0000 0.0000
# 2 3.2398 43.0941 8.9221 0.0000 0.0000 0.0000
# 3 21.3236 8.9221 95.5989 0.0000 0.0000 0.0000
# 4 0.0000 0.0000 0.0000 28.7464 0.0000 0.0000
# 5 0.0000 0.0000 0.0000 0.0000 23.4948 0.0000
# 6 0.0000 0.0000 0.0000 0.0000 0.0000 -54.8529
#
#
#
# Elastic Compliance Matrix: (Units=1/GPa)
#
#
# Indices 1 2 3 4 5 6 
#
# 1 0.028551 -0.000844 -0.006290 0.000000 0.000000 0.000000
# 2 -0.000844 0.023687 -0.002022 0.000000 0.000000 0.000000
# 3 -0.006290 -0.002022 0.012052 0.000000 0.000000 0.000000
# 4 0.000000 0.000000 0.000000 0.034787 0.000000 0.000000
# 5 0.000000 0.000000 0.000000 0.000000 0.042563 0.000000
# 6 0.000000 0.000000 0.000000 0.000000 0.000000 -0.018231
#
#
# Mechanical properties :
#
#
# Convention : Reuss Voigt Hill
#
# Bulk Modulus (GPa) = 21.74954 27.27574 24.51264
# Shear Modulus (GPa) = 31.83735 9.14602 20.49168
#
# Velocity S-wave (km/s) = 3.99423 2.14082 3.20445
# Velocity P-wave (km/s) = 5.67192 4.44734 5.09654
#
# Compressibility (1/GPa) = 0.04597798
#
# Stress axis : x y z
#
# Youngs Moduli (GPa) = 35.02461 42.21688 82.97350
#
# Poissons Ratio (x) = 0.03564 0.52187
# Poissons Ratio (y) = 0.02957 0.16780
# Poissons Ratio (z) = 0.22029 0.08538
#
# Static dielectric constant tensor:
#      x y z
#    x 1.687460 0.000000 0.000000 
#    y 0.000000 1.728490 0.000000 
#    z 0.000000 0.000000 1.714600 
# 
# From -- ./inp_files/16027.got.cif
#   From: 2010.05.17/outbox.cif.g08.bks.cpg/sg53_9_cif.got.tgz:16027.got - 2010.06.03 12:45:16.
