data_PCOD9416491
_publ_section_title
;
Structure prediction by ZEFSAII (Michael W. Deem and Ramdas Pophale) SiO2 
 PCOD9416491
Probable space group: P M N A
;
_chemical_formula_sum "Si O2"
_cell_formula_units_Z 64
_cell_length_a 8.644509
_cell_length_b 15.314973
_cell_length_c 24.240051
_cell_angle_alpha 90.000000
_cell_angle_beta 90.000000
_cell_angle_gamma 90.000000
_cell_volume 3209.150580
_symmetry_space_group_name_H-M "P M N A"
_symmetry_group_IT_number 53
_symmetry_cell_setting 'orthorhombic'
loop_
_space_group_symop_operation_xyz
x,y,z
1/2-x,-y,1/2+z
x,-y,-z
1/2-x,y,1/2-z
-x,-y,-z
1/2+x,y,1/2-z
-x,y,z
1/2+x,-y,1/2+z
loop_
_atom_site_type_symbol
_atom_site_label
_atom_site_fract_x
_atom_site_fract_y
_atom_site_fract_z
Si Si1 0.311741 0.857900 0.105003
Si Si2 0.813097 0.218871 0.490809
Si Si3 0.820685 0.452753 0.851221
Si Si4 0.816331 0.717366 0.306281
Si Si5 0.688503 0.188868 0.133183
Si Si6 0.187456 0.009188 0.311089
Si Si7 0.685282 0.370213 0.188344
Si Si8 0.181240 0.593094 0.021262
O O1 0.500000 0.861114 0.103068
O O2 0.265505 0.774325 0.141513
O O3 0.262843 0.941347 0.141002
O O4 0.258767 0.840575 0.042421
O O5 0.760830 0.186572 0.430666
O O6 0.762619 0.319147 0.500638
O O7 0.000000 0.217125 0.491093
O O8 0.740530 0.381071 0.813213
O O9 0.742703 0.546551 0.845819
O O10 0.809996 0.415530 0.912933
O O11 0.000000 0.461076 0.835918
O O12 0.750000 0.755761 0.250000
O O13 0.000000 0.719432 0.303996
O O14 0.500000 0.188147 0.132816
O O15 0.737103 0.105474 0.168857
O O16 0.738077 0.279783 0.160591
O O17 0.250000 0.989479 0.250000
O O18 0.000000 0.006168 0.308536
O O19 0.750000 0.377187 0.250000
O O20 0.500000 0.370520 0.190066
O O21 0.000000 0.598069 0.004702
O O22 0.244496 0.500000 0.000000
#
# Coordination Sequence:
#
# PCOD9416491 Si02
#       8
#     8   8   8   8   8   8   8   8
#     4   9  19  34  57  85 115 146 185 230 276 329
#     4  10  19  36  58  84 114 148 188 231 281 336
#     4  11  22  36  54  79 109 146 186 229 281 334
#     4  11  21  35  53  79 111 146 184 227 273 328
#     4   9  20  36  59  86 113 145 188 236 284 336
#     4  10  20  38  60  87 117 149 189 234 282 338
#     4  11  22  37  55  80 111 147 189 236 284 336
#     4  10  21  36  54  79 112 149 189 232 279 333
#
# _framework density 19.942972999999999
#
# number of rings (size 3 to 8) (size 9 to 14) (size 15 to 20)
#    0.000    1.875    1.250    3.000    0.000    1.250 
#    0.000    5.625    0.000    0.000    0.000    1.750 
#    0.000    0.000    0.000    0.000    0.000    0.000 
#
# Total GULP energy -357359.245606 kJ/mol
# GULP energy per Si atom -5583.738213 kJ/mol
# Density = 1.989758 g / cm^3
# Si number density = 19.942973 Si / 1000 Ang^3
#
#
#
# Elastic Constant Matrix: (Units=GPa)
#
#
# Indices 1 2 3 4 5 6 
#
# 1 25.5780 8.8812 10.3203 0.0000 0.0000 0.0000
# 2 8.8812 99.4256 11.3491 0.0000 0.0000 0.0000
# 3 10.3203 11.3491 50.2955 0.0000 0.0000 0.0000
# 4 0.0000 0.0000 0.0000 32.8148 0.0000 0.0000
# 5 0.0000 0.0000 0.0000 0.0000 15.8441 0.0000
# 6 0.0000 0.0000 0.0000 0.0000 0.0000 7.9129
#
#
#
# Elastic Compliance Matrix: (Units=1/GPa)
#
#
# Indices 1 2 3 4 5 6 
#
# 1 0.043446 -0.002939 -0.008252 0.000000 0.000000 0.000000
# 2 -0.002939 0.010522 -0.001771 0.000000 0.000000 0.000000
# 3 -0.008252 -0.001771 0.021975 0.000000 0.000000 0.000000
# 4 0.000000 0.000000 0.000000 0.030474 0.000000 0.000000
# 5 0.000000 0.000000 0.000000 0.000000 0.063115 0.000000
# 6 0.000000 0.000000 0.000000 0.000000 0.000000 0.126375
#
#
# Mechanical properties :
#
#
# Convention : Reuss Voigt Hill
#
# Bulk Modulus (GPa) = 19.99200 26.26669 23.12934
# Shear Modulus (GPa) = 14.77083 20.96428 17.86755
#
# Velocity S-wave (km/s) = 2.72445 3.24576 2.99646
# Velocity P-wave (km/s) = 4.46578 5.21978 4.85743
#
# Compressibility (1/GPa) = 0.05002001
#
# Stress axis : x y z
#
# Youngs Moduli (GPa) = 23.01715 95.03456 45.50547
#
# Poissons Ratio (x) = 0.27930 0.37549
# Poissons Ratio (y) = 0.06765 0.08061
# Poissons Ratio (z) = 0.18993 0.16834
#
# Static dielectric constant tensor:
#      x y z
#    x 1.685390 0.000000 0.000000 
#    y 0.000000 1.695510 0.000000 
#    z 0.000000 0.000000 1.730110 
# 
# From -- ./inp_files/34215.got.cif
#   From: 2010.05.17/outbox.cif.g08.bks.cpg/sg53_18_cif.got.tgz:34215.got - 2010.06.03 12:45:16.
