data_PCOD9416801
_publ_section_title
;
Structure prediction by ZEFSAII (Michael W. Deem and Ramdas Pophale) SiO2 
 PCOD9416801
Probable space group: P M N A
;
_chemical_formula_sum "Si O2"
_cell_formula_units_Z 56
_cell_length_a 8.968707
_cell_length_b 19.555499
_cell_length_c 18.521900
_cell_angle_alpha 90.000000
_cell_angle_beta 90.000000
_cell_angle_gamma 90.000000
_cell_volume 3248.510491
_symmetry_space_group_name_H-M "P M N A"
_symmetry_group_IT_number 53
_symmetry_cell_setting 'orthorhombic'
loop_
_space_group_symop_operation_xyz
x,y,z
1/2-x,-y,1/2+z
x,-y,-z
1/2-x,y,1/2-z
-x,-y,-z
1/2+x,y,1/2-z
-x,y,z
1/2+x,-y,1/2+z
loop_
_atom_site_type_symbol
_atom_site_label
_atom_site_fract_x
_atom_site_fract_y
_atom_site_fract_z
Si Si1 0.669998 0.556421 0.563686
Si Si2 0.333477 0.239668 0.320924
Si Si3 0.679507 0.217734 0.483074
Si Si4 0.822527 0.655961 0.454578
Si Si5 0.668268 0.075718 0.319102
Si Si6 0.176700 0.926797 0.531414
Si Si7 0.679367 0.453836 0.829139
O O1 0.661590 0.500000 0.500000
O O2 0.500000 0.577825 0.580399
O O3 0.764707 0.615256 0.525224
O O4 0.749233 0.519947 0.631108
O O5 0.250000 0.267190 0.250000
O O6 0.500000 0.268930 0.322583
O O7 0.268790 0.242607 0.402304
O O8 0.345798 0.157719 0.309350
O O9 0.500000 0.216372 0.481140
O O10 0.740563 0.271471 0.540881
O O11 0.740116 0.141320 0.495894
O O12 0.788385 0.609801 0.383807
O O13 0.000000 0.664473 0.457910
O O14 0.750000 0.045602 0.250000
O O15 0.500000 0.049945 0.331270
O O16 0.777335 0.067417 0.385625
O O17 0.000000 0.917882 0.521702
O O18 0.222386 0.000000 0.500000
O O19 0.750000 0.444538 0.750000
O O20 0.500000 0.460701 0.824522
#
# Coordination Sequence:
#
# PCOD9416801 Si02
#       7
#     8   8   8   8   8   8   8
#     4   9  17  31  52  76 102 132 166 205 248 295
#     4   8  15  26  41  63  89 118 152 191 235 287
#     4  10  20  33  50  73 101 135 175 216 261 313
#     4  10  20  34  53  77 105 137 174 216 260 308
#     4   9  16  27  45  68  93 121 155 196 244 299
#     4  10  20  33  50  73 101 133 171 217 266 315
#     4  10  20  34  54  80 108 139 176 216 257 302
#
# _framework density 17.238669999999999
#
# number of rings (size 3 to 8) (size 9 to 14) (size 15 to 20)
#    0.000    2.571    0.000    3.429    0.000    8.571 
#    0.000    0.714    0.000    2.571    0.000    4.000 
#    0.000    0.000    0.000    0.000    0.000    0.000 
#
# Total GULP energy -311803.731409 kJ/mol
# GULP energy per Si atom -5567.923775 kJ/mol
# Density = 1.719943 g / cm^3
# Si number density = 17.238670 Si / 1000 Ang^3
#
#
#
# Elastic Constant Matrix: (Units=GPa)
#
#
# Indices 1 2 3 4 5 6 
#
# 1 59.0677 35.6894 41.2792 0.0000 0.0000 0.0000
# 2 35.6894 81.6135 45.9163 0.0000 0.0000 0.0000
# 3 41.2792 45.9163 86.3893 0.0000 0.0000 0.0000
# 4 0.0000 0.0000 0.0000 -36.3929 0.0000 0.0000
# 5 0.0000 0.0000 0.0000 0.0000 22.4301 0.0000
# 6 0.0000 0.0000 0.0000 0.0000 0.0000 13.7889
#
#
#
# Elastic Compliance Matrix: (Units=1/GPa)
#
#
# Indices 1 2 3 4 5 6 
#
# 1 0.027748 -0.006669 -0.009714 0.000000 0.000000 0.000000
# 2 -0.006669 0.019083 -0.006956 0.000000 0.000000 0.000000
# 3 -0.009714 -0.006956 0.019914 0.000000 0.000000 0.000000
# 4 0.000000 0.000000 0.000000 -0.027478 0.000000 0.000000
# 5 0.000000 0.000000 0.000000 0.000000 0.044583 0.000000
# 6 0.000000 0.000000 0.000000 0.000000 0.000000 0.072522
#
#
# Mechanical properties :
#
#
# Convention : Reuss Voigt Hill
#
# Bulk Modulus (GPa) = 49.83336 52.53782 51.18559
# Shear Modulus (GPa) = 23.83918 6.91093 15.37506
#
# Velocity S-wave (km/s) = 3.72276 2.00441 2.98970
# Velocity P-wave (km/s) = 6.88834 5.99164 6.45558
#
# Compressibility (1/GPa) = 0.02006688
#
# Stress axis : x y z
#
# Youngs Moduli (GPa) = 36.03895 52.40379 50.21505
#
# Poissons Ratio (x) = 0.34947 0.48780
# Poissons Ratio (y) = 0.24034 0.34929
# Poissons Ratio (z) = 0.35009 0.36452
#
# Static dielectric constant tensor:
#      x y z
#    x 1.595310 0.000000 0.000000 
#    y 0.000000 1.600330 0.000000 
#    z 0.000000 0.000000 1.780580 
# 
# From -- ./inp_files/26713.got.cif
#   From: 2010.05.17/outbox.cif.g08.bks.cpg/sg53_14_cif.got.tgz:26713.got - 2010.06.03 12:45:16.
