data_PCOD9416056
_publ_section_title
;
Structure prediction by ZEFSAII (Michael W. Deem and Ramdas Pophale) SiO2 
 PCOD9416056
Probable space group: P M N A
;
_chemical_formula_sum "Si O2"
_cell_formula_units_Z 40
_cell_length_a 8.704857
_cell_length_b 14.875793
_cell_length_c 15.924593
_cell_angle_alpha 90.000000
_cell_angle_beta 90.000000
_cell_angle_gamma 90.000000
_cell_volume 2062.101836
_symmetry_space_group_name_H-M "P M N A"
_symmetry_group_IT_number 53
_symmetry_cell_setting 'orthorhombic'
loop_
_space_group_symop_operation_xyz
x,y,z
1/2-x,-y,1/2+z
x,-y,-z
1/2-x,y,1/2-z
-x,-y,-z
1/2+x,y,1/2-z
-x,y,z
1/2+x,-y,1/2+z
loop_
_atom_site_type_symbol
_atom_site_label
_atom_site_fract_x
_atom_site_fract_y
_atom_site_fract_z
Si Si1 0.315685 0.405685 0.906580
Si Si2 0.684536 0.592712 0.595618
Si Si3 0.185600 0.104557 0.996724
Si Si4 0.683564 0.787760 0.160909
Si Si5 0.315200 0.214279 0.338369
O O1 0.500000 0.410656 0.912377
O O2 0.251794 0.499196 0.870576
O O3 0.271715 0.316297 0.856357
O O4 0.246669 0.397382 0.000433
O O5 0.500000 0.587521 0.593116
O O6 0.731158 0.682108 0.645256
O O7 0.254034 0.153615 0.915910
O O8 0.000000 0.110366 0.991898
O O9 0.234796 0.155627 0.081664
O O10 0.228648 0.000000 0.000000
O O11 0.750000 0.817430 0.250000
O O12 0.500000 0.792447 0.162448
O O13 0.250000 0.182194 0.250000
O O14 0.500000 0.211433 0.335380
#
# Coordination Sequence:
#
# PCOD9416056 Si02
#       5
#     8   8   8   8   8
#     4  10  20  34  55  85 118 156 198 241 290 345
#     4  10  19  33  56  84 116 157 198 240 290 348
#     4  10  22  43  67  89 118 154 196 249 306 360
#     4  11  24  40  62  90 122 160 200 247 298 354
#     4  10  22  38  59  88 119 155 195 239 293 352
#
# _framework density 19.397683000000001
#
# number of rings (size 3 to 8) (size 9 to 14) (size 15 to 20)
#    0.000    1.800    2.000    3.000    0.000    6.800 
#    0.000    6.000    0.000    0.000    0.000    0.000 
#    0.000    0.000    0.000    0.000    0.000    0.000 
#
# Total GULP energy -223508.013662 kJ/mol
# GULP energy per Si atom -5587.700342 kJ/mol
# Density = 1.935353 g / cm^3
# Si number density = 19.397683 Si / 1000 Ang^3
#
#
#
# Elastic Constant Matrix: (Units=GPa)
#
#
# Indices 1 2 3 4 5 6 
#
# 1 32.7822 40.8314 31.7244 0.0000 0.0000 0.0000
# 2 40.8314 146.8381 87.2442 0.0000 0.0000 0.0000
# 3 31.7244 87.2442 159.6497 0.0000 0.0000 0.0000
# 4 0.0000 0.0000 0.0000 -3.9011 0.0000 0.0000
# 5 0.0000 0.0000 0.0000 0.0000 23.9921 0.0000
# 6 0.0000 0.0000 0.0000 0.0000 0.0000 23.7289
#
#
#
# Elastic Compliance Matrix: (Units=1/GPa)
#
#
# Indices 1 2 3 4 5 6 
#
# 1 0.047821 -0.011330 -0.003311 0.000000 0.000000 0.000000
# 2 -0.011330 0.012769 -0.004726 0.000000 0.000000 0.000000
# 3 -0.003311 -0.004726 0.009505 0.000000 0.000000 0.000000
# 4 0.000000 0.000000 0.000000 -0.256339 0.000000 0.000000
# 5 0.000000 0.000000 0.000000 0.000000 0.041680 0.000000
# 6 0.000000 0.000000 0.000000 0.000000 0.000000 0.042143
#
#
# Mechanical properties :
#
#
# Convention : Reuss Voigt Hill
#
# Bulk Modulus (GPa) = 31.88883 73.20777 52.54830
# Shear Modulus (GPa) = -93.92601 20.72866 -36.59868
#
# Velocity S-wave (km/s) = -6.96609 3.27251 -4.34839
# Velocity P-wave (km/s) = 6.94454 7.21814 1.39192
#
# Compressibility (1/GPa) = 0.03135894
#
# Stress axis : x y z
#
# Youngs Moduli (GPa) = 20.91142 78.31373 105.21320
#
# Poissons Ratio (x) = 0.88733 0.34834
# Poissons Ratio (y) = 0.23694 0.49729
# Poissons Ratio (z) = 0.06923 0.37015
#
# Static dielectric constant tensor:
#      x y z
#    x 1.652520 0.000000 0.000000 
#    y 0.000000 1.685600 0.000000 
#    z 0.000000 0.000000 1.655970 
# 
# From -- ./inp_files/19900.got.cif
#   From: 2010.05.17/outbox.cif.g08.bks.cpg/sg53_10_cif.got.tgz:19900.got - 2010.06.03 12:45:16.
