data_PCOD9416211
_publ_section_title
;
Structure prediction by ZEFSAII (Michael W. Deem and Ramdas Pophale) SiO2 
 PCOD9416211
Probable space group: P M N A
;
_chemical_formula_sum "Si O2"
_cell_formula_units_Z 48
_cell_length_a 17.196012
_cell_length_b 10.113654
_cell_length_c 14.134965
_cell_angle_alpha 90.000000
_cell_angle_beta 90.000000
_cell_angle_gamma 90.000000
_cell_volume 2458.275590
_symmetry_space_group_name_H-M "P M N A"
_symmetry_group_IT_number 53
_symmetry_cell_setting 'orthorhombic'
loop_
_space_group_symop_operation_xyz
x,y,z
1/2-x,-y,1/2+z
x,-y,-z
1/2-x,y,1/2-z
-x,-y,-z
1/2+x,y,1/2-z
-x,y,z
1/2+x,-y,1/2+z
loop_
_atom_site_type_symbol
_atom_site_label
_atom_site_fract_x
_atom_site_fract_y
_atom_site_fract_z
Si Si1 0.406127 0.692240 0.203990
Si Si2 0.858428 0.378268 0.109601
Si Si3 0.159599 0.798777 0.719644
Si Si4 0.906323 0.962180 0.394413
Si Si5 0.180916 0.453860 0.392571
Si Si6 0.087616 0.665315 0.088116
O O1 0.500000 0.670558 0.200493
O O2 0.385688 0.813419 0.135663
O O3 0.360572 0.561875 0.172718
O O4 0.386461 0.727000 0.312808
O O5 0.878286 0.271889 0.189075
O O6 0.772927 0.439551 0.126602
O O7 0.912488 0.507007 0.107388
O O8 0.860735 0.315785 0.004808
O O9 0.250000 0.813748 0.750000
O O10 0.150541 0.691169 0.635416
O O11 0.126085 0.934971 0.682157
O O12 0.000000 0.970909 0.393186
O O13 0.879324 0.000000 0.500000
O O14 0.168793 0.500000 0.500000
O O15 0.000000 0.708824 0.066404
#
# Coordination Sequence:
#
# PCOD9416211 Si02
#       6
#     8   8   8   8   8   8
#     4  10  22  38  57  86 116 151 198 241 287 343
#     4  10  19  34  56  86 118 149 189 230 292 343
#     4  10  22  38  55  88 120 149 194 241 288 348
#     4  10  22  43  63  81 115 159 198 240 291 344
#     4  11  20  34  59  85 118 148 187 247 286 340
#     4  10  19  35  57  86 121 150 187 235 286 345
#
# _framework density 19.525881999999999
#
# number of rings (size 3 to 8) (size 9 to 14) (size 15 to 20)
#    0.000    1.833    3.333    2.000    0.000    2.333 
#    3.000    0.833    0.000    3.000    0.000    0.000 
#    0.000    0.000    0.000    0.000    0.000    0.000 
#
# Total GULP energy -267819.548327 kJ/mol
# GULP energy per Si atom -5579.573923 kJ/mol
# Density = 1.948144 g / cm^3
# Si number density = 19.525882 Si / 1000 Ang^3
#
#
#
# Elastic Constant Matrix: (Units=GPa)
#
#
# Indices 1 2 3 4 5 6 
#
# 1 29.8994 17.4980 18.1030 0.0000 0.0000 0.0000
# 2 17.4980 57.1048 9.4629 0.0000 0.0000 0.0000
# 3 18.1030 9.4629 99.4765 0.0000 0.0000 0.0000
# 4 0.0000 0.0000 0.0000 35.4884 0.0000 0.0000
# 5 0.0000 0.0000 0.0000 0.0000 20.2961 0.0000
# 6 0.0000 0.0000 0.0000 0.0000 0.0000 23.6904
#
#
#
# Elastic Compliance Matrix: (Units=1/GPa)
#
#
# Indices 1 2 3 4 5 6 
#
# 1 0.045092 -0.012657 -0.007002 0.000000 0.000000 0.000000
# 2 -0.012657 0.021345 0.000273 0.000000 0.000000 0.000000
# 3 -0.007002 0.000273 0.011301 0.000000 0.000000 0.000000
# 4 0.000000 0.000000 0.000000 0.028178 0.000000 0.000000
# 5 0.000000 0.000000 0.000000 0.000000 0.049271 0.000000
# 6 0.000000 0.000000 0.000000 0.000000 0.000000 0.042211
#
#
# Mechanical properties :
#
#
# Convention : Reuss Voigt Hill
#
# Bulk Modulus (GPa) = 25.66347 30.73428 28.19888
# Shear Modulus (GPa) = 20.06761 25.32279 22.69520
#
# Velocity S-wave (km/s) = 3.20932 3.60513 3.41297
# Velocity P-wave (km/s) = 5.18699 5.75359 5.47762
#
# Compressibility (1/GPa) = 0.03896589
#
# Stress axis : x y z
#
# Youngs Moduli (GPa) = 22.17691 46.85005 88.48852
#
# Poissons Ratio (x) = 0.59297 0.61959
# Poissons Ratio (y) = 0.28069 -0.02414
# Poissons Ratio (z) = 0.15528 -0.01278
#
# Static dielectric constant tensor:
#      x y z
#    x 1.694250 0.000000 0.000000 
#    y 0.000000 1.649470 0.000000 
#    z 0.000000 0.000000 1.733740 
# 
# From -- ./inp_files/23690.got.cif
#   From: 2010.05.17/outbox.cif.g08.bks.cpg/sg53_12_cif.got.tgz:23690.got - 2010.06.03 12:45:16.
