data_PCOD9416872
_publ_section_title
;
Structure prediction by ZEFSAII (Michael W. Deem and Ramdas Pophale) SiO2 
 PCOD9416872
Probable space group: P M N A
;
_chemical_formula_sum "Si O2"
_cell_formula_units_Z 64
_cell_length_a 8.931463
_cell_length_b 23.572276
_cell_length_c 17.336493
_cell_angle_alpha 90.000000
_cell_angle_beta 90.000000
_cell_angle_gamma 90.000000
_cell_volume 3649.937009
_symmetry_space_group_name_H-M "P M N A"
_symmetry_group_IT_number 53
_symmetry_cell_setting 'orthorhombic'
loop_
_space_group_symop_operation_xyz
x,y,z
1/2-x,-y,1/2+z
x,-y,-z
1/2-x,y,1/2-z
-x,-y,-z
1/2+x,y,1/2-z
-x,y,z
1/2+x,-y,1/2+z
loop_
_atom_site_type_symbol
_atom_site_label
_atom_site_fract_x
_atom_site_fract_y
_atom_site_fract_z
Si Si1 0.821952 0.635156 0.556548
Si Si2 0.320728 0.134360 0.988434
Si Si3 0.822172 0.682945 0.170566
Si Si4 0.328236 0.035873 0.420332
Si Si5 0.179178 0.430592 0.913298
Si Si6 0.819903 0.742335 0.010896
Si Si7 0.177925 0.536463 0.666790
Si Si8 0.820396 0.934905 0.332410
O O1 0.752784 0.595869 0.489267
O O2 0.744461 0.696101 0.548686
O O3 0.795491 0.599526 0.633995
O O4 0.000000 0.640915 0.544912
O O5 0.500000 0.137438 0.993084
O O6 0.247071 0.195554 0.998027
O O7 0.283346 0.107676 0.903671
O O8 0.258368 0.092294 0.054251
O O9 0.750000 0.701448 0.250000
O O10 0.789124 0.616977 0.152103
O O11 0.774692 0.718526 0.095621
O O12 0.000000 0.688388 0.176729
O O13 0.500000 0.046975 0.397186
O O14 0.331858 0.000000 0.500000
O O15 0.245220 0.995897 0.358876
O O16 0.248573 0.490071 0.889382
O O17 0.000000 0.434635 0.923025
O O18 0.000000 0.743009 0.006928
O O19 0.250000 0.529376 0.750000
O O20 0.000000 0.526777 0.669432
O O21 0.750000 0.918499 0.250000
O O22 0.000000 0.937620 0.326181
#
# Coordination Sequence:
#
# PCOD9416872 Si02
#       8
#     8   8   8   8   8   8   8   8
#     4  10  21  37  55  76 103 135 173 216 262 312
#     4  10  20  34  53  77 104 137 177 217 257 304
#     4   9  19  32  46  68  98 132 168 206 250 301
#     4   9  17  31  52  76 103 136 172 210 252 297
#     4  10  20  34  53  77 104 135 171 211 258 314
#     4  10  21  36  53  74 100 134 177 218 258 306
#     4  11  23  36  53  78 105 133 167 211 263 318
#     4  10  20  33  51  78 112 145 175 210 254 303
#
# _framework density 17.534548999999998
#
# number of rings (size 3 to 8) (size 9 to 14) (size 15 to 20)
#    0.000    2.125    0.000    4.125    0.000   11.000 
#    0.000    2.500    0.000    0.750    0.000    3.500 
#    0.000    0.000    0.000    0.000    0.000    0.000 
#
# Total GULP energy -357150.286669 kJ/mol
# GULP energy per Si atom -5580.473229 kJ/mol
# Density = 1.749464 g / cm^3
# Si number density = 17.534549 Si / 1000 Ang^3
#
#
#
# Elastic Constant Matrix: (Units=GPa)
#
#
# Indices 1 2 3 4 5 6 
#
# 1 70.0333 52.4233 16.2178 0.0000 0.0000 0.0000
# 2 52.4233 131.9258 18.9514 0.0000 0.0000 0.0000
# 3 16.2178 18.9514 22.0186 0.0000 0.0000 0.0000
# 4 0.0000 0.0000 0.0000 11.2732 0.0000 0.0000
# 5 0.0000 0.0000 0.0000 0.0000 25.1085 0.0000
# 6 0.0000 0.0000 0.0000 0.0000 0.0000 31.9277
#
#
#
# Elastic Compliance Matrix: (Units=1/GPa)
#
#
# Indices 1 2 3 4 5 6 
#
# 1 0.022079 -0.007346 -0.009940 0.000000 0.000000 0.000000
# 2 -0.007346 0.011093 -0.004138 0.000000 0.000000 0.000000
# 3 -0.009940 -0.004138 0.056299 0.000000 0.000000 0.000000
# 4 0.000000 0.000000 0.000000 0.088706 0.000000 0.000000
# 5 0.000000 0.000000 0.000000 0.000000 0.039827 0.000000
# 6 0.000000 0.000000 0.000000 0.000000 0.000000 0.031321
#
#
# Mechanical properties :
#
#
# Convention : Reuss Voigt Hill
#
# Bulk Modulus (GPa) = 21.44788 44.35141 32.89965
# Shear Modulus (GPa) = 16.24889 22.75423 19.50156
#
# Velocity S-wave (km/s) = 3.04744 3.60624 3.33855
# Velocity P-wave (km/s) = 4.96396 6.53365 5.80213
#
# Compressibility (1/GPa) = 0.04662465
#
# Stress axis : x y z
#
# Youngs Moduli (GPa) = 45.29100 90.14386 17.76242
#
# Poissons Ratio (x) = 0.66218 0.17656
# Poissons Ratio (y) = 0.33270 0.07349
# Poissons Ratio (z) = 0.45020 0.37297
#
# Static dielectric constant tensor:
#      x y z
#    x 1.586230 0.000000 0.000000 
#    y 0.000000 1.593860 0.000000 
#    z 0.000000 0.000000 1.587260 
# 
# From -- ./inp_files/26894.got.cif
#   From: 2010.05.17/outbox.cif.g08.bks.cpg/sg53_14_cif.got.tgz:26894.got - 2010.06.03 12:45:16.
