data_PCOD9416235
_publ_section_title
;
Structure prediction by ZEFSAII (Michael W. Deem and Ramdas Pophale) SiO2 
 PCOD9416235
Probable space group: P M N A
;
_chemical_formula_sum "Si O2"
_cell_formula_units_Z 40
_cell_length_a 27.791656
_cell_length_b 7.400818
_cell_length_c 8.185149
_cell_angle_alpha 90.000000
_cell_angle_beta 90.000000
_cell_angle_gamma 90.000000
_cell_volume 1683.529533
_symmetry_space_group_name_H-M "P M N A"
_symmetry_group_IT_number 53
_symmetry_cell_setting 'orthorhombic'
loop_
_space_group_symop_operation_xyz
x,y,z
1/2-x,-y,1/2+z
x,-y,-z
1/2-x,y,1/2-z
-x,-y,-z
1/2+x,y,1/2-z
-x,y,z
1/2+x,-y,1/2+z
loop_
_atom_site_type_symbol
_atom_site_label
_atom_site_fract_x
_atom_site_fract_y
_atom_site_fract_z
Si Si1 0.400148 0.799167 0.131494
Si Si2 0.943543 0.198906 0.311278
Si Si3 0.303189 0.711816 0.957908
Si Si4 0.804004 0.292470 0.064796
Si Si5 0.906968 0.203444 0.980752
O O1 0.414977 0.712627 0.303986
O O2 0.415556 0.007013 0.166554
O O3 0.429095 0.712489 0.982078
O O4 0.344671 0.794255 0.072250
O O5 0.925670 0.293226 0.146296
O O6 0.000000 0.165850 0.303786
O O7 0.248614 0.777033 0.986722
O O8 0.310272 0.722804 0.761551
O O9 0.303981 0.500000 0.000000
O O10 0.849360 0.194789 0.988318
O O11 0.806588 0.500000 0.000000
O O12 0.927747 0.000000 0.000000
#
# Coordination Sequence:
#
# PCOD9416235 Si02
#       5
#     8   8   8   8   8
#     4  10  19  34  57  84 114 146 192 235 291 338
#     4  10  21  38  60  84 115 153 196 243 295 347
#     4  10  20  35  58  85 115 156 197 234 284 355
#     4  10  20  37  57  84 120 158 195 233 289 352
#     4  10  21  36  56  89 118 151 193 241 290 342
#
# _framework density 23.759606000000002
#
# number of rings (size 3 to 8) (size 9 to 14) (size 15 to 20)
#    0.000    2.000    2.000    2.400    0.000    6.800 
#    3.600    0.000    0.000    3.000    0.000    0.000 
#    0.000    0.000    0.000    0.000    0.000    0.000 
#
# Total GULP energy -223161.309465 kJ/mol
# GULP energy per Si atom -5579.032737 kJ/mol
# Density = 2.370553 g / cm^3
# Si number density = 23.759606 Si / 1000 Ang^3
#
#
#
# Elastic Constant Matrix: (Units=GPa)
#
#
# Indices 1 2 3 4 5 6 
#
# 1 115.5851 13.2213 59.9836 0.0000 0.0000 0.0000
# 2 13.2213 74.0181 15.4875 0.0000 0.0000 0.0000
# 3 59.9836 15.4875 238.8087 0.0000 0.0000 0.0000
# 4 0.0000 0.0000 0.0000 5.8888 0.0000 0.0000
# 5 0.0000 0.0000 0.0000 0.0000 -12.6225 0.0000
# 6 0.0000 0.0000 0.0000 0.0000 0.0000 21.6336
#
#
#
# Elastic Compliance Matrix: (Units=1/GPa)
#
#
# Indices 1 2 3 4 5 6 
#
# 1 0.010068 -0.001287 -0.002445 0.000000 0.000000 0.000000
# 2 -0.001287 0.013860 -0.000576 0.000000 0.000000 0.000000
# 3 -0.002445 -0.000576 0.004839 0.000000 0.000000 0.000000
# 4 0.000000 0.000000 0.000000 0.169815 0.000000 0.000000
# 5 0.000000 0.000000 0.000000 0.000000 -0.079224 0.000000
# 6 0.000000 0.000000 0.000000 0.000000 0.000000 0.046224
#
#
# Mechanical properties :
#
#
# Convention : Reuss Voigt Hill
#
# Bulk Modulus (GPa) = 49.62331 67.31075 58.46703
# Shear Modulus (GPa) = 27.63721 25.62794 26.63257
#
# Velocity S-wave (km/s) = 3.41427 3.28782 3.35164
# Velocity P-wave (km/s) = 6.03937 6.54251 6.29597
#
# Compressibility (1/GPa) = 0.02015182
#
# Stress axis : x y z
#
# Youngs Moduli (GPa) = 99.32603 72.14750 206.65355
#
# Poissons Ratio (x) = 0.09283 0.50535
# Poissons Ratio (y) = 0.12780 0.11897
# Poissons Ratio (z) = 0.24289 0.04154
#
# Static dielectric constant tensor:
#      x y z
#    x 1.870800 0.000000 0.000000 
#    y 0.000000 1.937530 0.000000 
#    z 0.000000 0.000000 2.083340 
# 
# From -- ./inp_files/12268.got.cif
#   From: 2010.05.17/outbox.cif.g08.bks.cpg/sg53_7_cif.got.tgz:12268.got - 2010.06.03 12:45:16.
