data_PCOD9416421
_publ_section_title
;
Structure prediction by ZEFSAII (Michael W. Deem and Ramdas Pophale) SiO2 
 PCOD9416421
Probable space group: P M N A
;
_chemical_formula_sum "Si O2"
_cell_formula_units_Z 64
_cell_length_a 9.086014
_cell_length_b 17.484873
_cell_length_c 20.156532
_cell_angle_alpha 90.000000
_cell_angle_beta 90.000000
_cell_angle_gamma 90.000000
_cell_volume 3202.223912
_symmetry_space_group_name_H-M "P M N A"
_symmetry_group_IT_number 53
_symmetry_cell_setting 'orthorhombic'
loop_
_space_group_symop_operation_xyz
x,y,z
1/2-x,-y,1/2+z
x,-y,-z
1/2-x,y,1/2-z
-x,-y,-z
1/2+x,y,1/2-z
-x,y,z
1/2+x,-y,1/2+z
loop_
_atom_site_type_symbol
_atom_site_label
_atom_site_fract_x
_atom_site_fract_y
_atom_site_fract_z
Si Si1 0.673783 0.729756 0.180287
Si Si2 0.322410 0.708238 0.456834
Si Si3 0.169417 0.975969 0.923320
Si Si4 0.665863 0.569144 0.551197
Si Si5 0.825805 0.914106 0.319829
Si Si6 0.665965 0.553276 0.815161
Si Si7 0.665540 0.262219 0.186307
Si Si8 0.676851 0.817411 0.945856
O O1 0.750000 0.707986 0.250000
O O2 0.500000 0.711739 0.181149
O O3 0.753559 0.695545 0.115653
O O4 0.689011 0.822205 0.173476
O O5 0.500000 0.710378 0.452831
O O6 0.277872 0.641132 0.508423
O O7 0.257851 0.785845 0.488879
O O8 0.268258 0.900107 0.923533
O O9 0.000000 0.961660 0.902031
O O10 0.243491 0.040660 0.878008
O O11 0.165495 0.000000 0.000000
O O12 0.658780 0.500000 0.500000
O O13 0.500000 0.588677 0.574293
O O14 0.756055 0.542050 0.614737
O O15 0.750000 0.935304 0.250000
O O16 0.000000 0.931793 0.319597
O O17 0.750000 0.524326 0.750000
O O18 0.500000 0.524168 0.815835
O O19 0.662221 0.646018 0.809866
O O20 0.750000 0.232443 0.250000
O O21 0.500000 0.232829 0.189654
O O22 0.723745 0.237203 0.115222
O O23 0.500000 0.814590 0.955606
#
# Coordination Sequence:
#
# PCOD9416421 Si02
#       8
#     8   8   8   8   8   8   8   8
#     4  10  21  38  62  89 117 149 191 240 291 349
#     4  11  22  37  60  87 116 150 190 239 294 349
#     4  11  24  39  55  79 112 150 193 240 289 345
#     4  10  22  40  61  88 122 159 198 241 291 349
#     4  10  21  38  60  84 112 151 193 238 291 347
#     4  10  19  35  59  87 118 153 194 235 280 336
#     4   9  19  33  52  79 110 143 181 227 274 328
#     4  11  22  37  56  81 113 149 192 240 290 346
#
# _framework density 19.986108999999999
#
# number of rings (size 3 to 8) (size 9 to 14) (size 15 to 20)
#    0.000    1.750    1.250    3.000    0.000    7.250 
#    0.000    1.875    0.000    0.000    0.000    0.000 
#    0.000    0.000    0.000    0.000    0.000    0.000 
#
# Total GULP energy -357332.009209 kJ/mol
# GULP energy per Si atom -5583.312644 kJ/mol
# Density = 1.994062 g / cm^3
# Si number density = 19.986109 Si / 1000 Ang^3
#
#
#
# Elastic Constant Matrix: (Units=GPa)
#
#
# Indices 1 2 3 4 5 6 
#
# 1 93.1925 5.4589 71.9766 0.0000 0.0000 0.0000
# 2 5.4589 17.2887 1.2990 0.0000 0.0000 0.0000
# 3 71.9766 1.2990 153.6197 0.0000 0.0000 0.0000
# 4 0.0000 0.0000 0.0000 21.2985 0.0000 0.0000
# 5 0.0000 0.0000 0.0000 0.0000 36.7651 0.0000
# 6 0.0000 0.0000 0.0000 0.0000 0.0000 12.2764
#
#
#
# Elastic Compliance Matrix: (Units=1/GPa)
#
#
# Indices 1 2 3 4 5 6 
#
# 1 0.017210 -0.004831 -0.008022 0.000000 0.000000 0.000000
# 2 -0.004831 0.059234 0.001763 0.000000 0.000000 0.000000
# 3 -0.008022 0.001763 0.010254 0.000000 0.000000 0.000000
# 4 0.000000 0.000000 0.000000 0.046952 0.000000 0.000000
# 5 0.000000 0.000000 0.000000 0.000000 0.027200 0.000000
# 6 0.000000 0.000000 0.000000 0.000000 0.000000 0.081457
#
#
# Mechanical properties :
#
#
# Convention : Reuss Voigt Hill
#
# Bulk Modulus (GPa) = 15.50018 46.84110 31.17064
# Shear Modulus (GPa) = 17.48298 26.42579 21.95439
#
# Velocity S-wave (km/s) = 2.96084 3.64016 3.31793
# Velocity P-wave (km/s) = 4.41147 6.41525 5.50529
#
# Compressibility (1/GPa) = 0.06451538
#
# Stress axis : x y z
#
# Youngs Moduli (GPa) = 58.10719 16.88215 97.52763
#
# Poissons Ratio (x) = 0.08156 0.78241
# Poissons Ratio (y) = 0.28072 -0.17191
# Poissons Ratio (z) = 0.46616 -0.02976
#
# Static dielectric constant tensor:
#      x y z
#    x 1.705950 0.000000 0.000000 
#    y 0.000000 1.727270 0.000000 
#    z 0.000000 0.000000 1.737960 
# 
# From -- ./inp_files/26868.got.cif
#   From: 2010.05.17/outbox.cif.g08.bks.cpg/sg53_14_cif.got.tgz:26868.got - 2010.06.03 12:45:16.
