data_PCOD9416298
_publ_section_title
;
Structure prediction by ZEFSAII (Michael W. Deem and Ramdas Pophale) SiO2 
 PCOD9416298
Probable space group: P M N A
;
_chemical_formula_sum "Si O2"
_cell_formula_units_Z 64
_cell_length_a 9.000507
_cell_length_b 20.259136
_cell_length_c 20.425526
_cell_angle_alpha 90.000000
_cell_angle_beta 90.000000
_cell_angle_gamma 90.000000
_cell_volume 3724.441380
_symmetry_space_group_name_H-M "P M N A"
_symmetry_group_IT_number 53
_symmetry_cell_setting 'orthorhombic'
loop_
_space_group_symop_operation_xyz
x,y,z
1/2-x,-y,1/2+z
x,-y,-z
1/2-x,y,1/2-z
-x,-y,-z
1/2+x,y,1/2-z
-x,y,z
1/2+x,-y,1/2+z
loop_
_atom_site_type_symbol
_atom_site_label
_atom_site_fract_x
_atom_site_fract_y
_atom_site_fract_z
Si Si1 0.177503 0.301940 0.601953
Si Si2 0.822959 0.524894 0.926571
Si Si3 0.822510 0.330089 0.036145
Si Si4 0.677711 0.058579 0.820051
Si Si5 0.176623 0.903408 0.680510
Si Si6 0.177145 0.431435 0.680248
Si Si7 0.821923 0.836920 0.084536
Si Si8 0.823057 0.817176 0.931949
O O1 0.233759 0.328756 0.531805
O O2 0.214955 0.357699 0.654947
O O3 0.258451 0.232231 0.611667
O O4 0.000000 0.292449 0.600636
O O5 0.790204 0.603026 0.925064
O O6 0.736590 0.482700 0.873428
O O7 0.000000 0.515548 0.917017
O O8 0.787923 0.500000 0.000000
O O9 0.790282 0.261183 0.072215
O O10 0.000000 0.330065 0.020730
O O11 0.750000 0.076020 0.750000
O O12 0.500000 0.067463 0.817325
O O13 0.748182 0.103550 0.876186
O O14 0.709385 0.980995 0.831775
O O15 0.250000 0.885556 0.750000
O O16 0.238813 0.859449 0.621816
O O17 0.000000 0.896152 0.685560
O O18 0.250000 0.444171 0.750000
O O19 0.000000 0.436102 0.684621
O O20 0.000000 0.838280 0.091020
O O21 0.786352 0.837763 0.006783
O O22 0.000000 0.825941 0.923403
#
# Coordination Sequence:
#
# PCOD9416298 Si02
#       8
#     8   8   8   8   8   8   8   8
#     4  10  20  34  53  78 108 143 182 226 271 322
#     4  10  19  34  60  85 108 143 183 226 275 329
#     4   9  18  34  56  83 110 141 180 220 270 329
#     4  10  21  37  56  79 108 143 184 228 273 329
#     4  10  21  37  58  81 107 142 184 228 277 331
#     4  11  24  38  54  79 112 147 186 231 277 327
#     4  10  21  36  56  82 113 148 183 225 273 325
#     4   9  19  35  55  81 113 144 180 225 271 324
#
# _framework density 17.183785
#
# number of rings (size 3 to 8) (size 9 to 14) (size 15 to 20)
#    0.000    2.125    1.250    2.625    0.000    7.250 
#    0.000    4.375    0.000    0.000    0.000    0.000 
#    0.000    0.000    0.000    0.000    0.000    0.000 
#
# Total GULP energy -357240.367108 kJ/mol
# GULP energy per Si atom -5581.880736 kJ/mol
# Density = 1.714467 g / cm^3
# Si number density = 17.183785 Si / 1000 Ang^3
#
#
#
# Elastic Constant Matrix: (Units=GPa)
#
#
# Indices 1 2 3 4 5 6 
#
# 1 57.6934 60.8570 62.6286 0.0000 0.0000 0.0000
# 2 60.8570 116.0372 89.9876 0.0000 0.0000 0.0000
# 3 62.6286 89.9876 120.2402 0.0000 0.0000 0.0000
# 4 0.0000 0.0000 0.0000 24.2902 0.0000 0.0000
# 5 0.0000 0.0000 0.0000 0.0000 33.1907 0.0000
# 6 0.0000 0.0000 0.0000 0.0000 0.0000 30.4172
#
#
#
# Elastic Compliance Matrix: (Units=1/GPa)
#
#
# Indices 1 2 3 4 5 6 
#
# 1 0.047494 -0.013642 -0.014528 0.000000 0.000000 0.000000
# 2 -0.013642 0.024456 -0.011197 0.000000 0.000000 0.000000
# 3 -0.014528 -0.011197 0.024264 0.000000 0.000000 0.000000
# 4 0.000000 0.000000 0.000000 0.041169 0.000000 0.000000
# 5 0.000000 0.000000 0.000000 0.000000 0.030129 0.000000
# 6 0.000000 0.000000 0.000000 0.000000 0.000000 0.032876
#
#
# Mechanical properties :
#
#
# Convention : Reuss Voigt Hill
#
# Bulk Modulus (GPa) = 57.21139 80.10191 68.65665
# Shear Modulus (GPa) = 17.54694 22.94614 20.24654
#
# Velocity S-wave (km/s) = 3.19898 3.65819 3.43627
# Velocity P-wave (km/s) = 6.85644 8.03487 7.46893
#
# Compressibility (1/GPa) = 0.01747904
#
# Stress axis : x y z
#
# Youngs Moduli (GPa) = 21.05525 40.88917 41.21340
#
# Poissons Ratio (x) = 0.55782 0.59875
# Poissons Ratio (y) = 0.28724 0.46148
# Poissons Ratio (z) = 0.30589 0.45785
#
# Static dielectric constant tensor:
#      x y z
#    x 1.570530 0.000000 0.000000 
#    y 0.000000 1.584370 0.000000 
#    z 0.000000 0.000000 1.547280 
# 
# From -- ./inp_files/26757.got.cif
#   From: 2010.05.17/outbox.cif.g08.bks.cpg/sg53_14_cif.got.tgz:26757.got - 2010.06.03 12:45:16.
