data_PCOD9416799
_publ_section_title
;
Structure prediction by ZEFSAII (Michael W. Deem and Ramdas Pophale) SiO2 
 PCOD9416799
Probable space group: P M N A
;
_chemical_formula_sum "Si O2"
_cell_formula_units_Z 48
_cell_length_a 8.827028
_cell_length_b 17.969046
_cell_length_c 13.453064
_cell_angle_alpha 90.000000
_cell_angle_beta 90.000000
_cell_angle_gamma 90.000000
_cell_volume 2133.834502
_symmetry_space_group_name_H-M "P M N A"
_symmetry_group_IT_number 53
_symmetry_cell_setting 'orthorhombic'
loop_
_space_group_symop_operation_xyz
x,y,z
1/2-x,-y,1/2+z
x,-y,-z
1/2-x,y,1/2-z
-x,-y,-z
1/2+x,y,1/2-z
-x,y,z
1/2+x,-y,1/2+z
loop_
_atom_site_type_symbol
_atom_site_label
_atom_site_fract_x
_atom_site_fract_y
_atom_site_fract_z
Si Si1 0.181899 0.170665 0.574881
Si Si2 0.818302 0.324053 0.934088
Si Si3 0.677142 0.363720 0.147754
Si Si4 0.670943 0.514018 0.381985
Si Si5 0.677510 0.134892 0.150630
Si Si6 0.829559 0.018082 0.882874
O O1 0.242754 0.250173 0.609519
O O2 0.227022 0.164782 0.457220
O O3 0.258781 0.099755 0.626917
O O4 0.000000 0.165572 0.581596
O O5 0.756427 0.335393 0.046825
O O6 0.000000 0.316974 0.937792
O O7 0.783619 0.399899 0.873859
O O8 0.750000 0.335112 0.250000
O O9 0.500000 0.346792 0.143245
O O10 0.708716 0.452667 0.149977
O O11 0.657560 0.500000 0.500000
O O12 0.500000 0.501273 0.341390
O O13 0.750000 0.167476 0.250000
O O14 0.500000 0.145528 0.156468
O O15 0.719485 0.047539 0.150857
O O16 0.000000 0.013352 0.840678
O O17 0.842709 0.000000 0.000000
#
# Coordination Sequence:
#
# PCOD9416799 Si02
#       6
#     8   8   8   8   8   8
#     4  10  20  33  50  74 103 133 167 205 246 293
#     4  10  20  34  52  74 102 133 165 203 248 296
#     4  11  21  33  51  74 101 132 166 204 246 294
#     4   8  16  32  51  71  96 127 164 204 243 287
#     4  10  20  33  50  73 101 132 165 204 247 293
#     4   9  17  31  51  72  95 127 167 206 244 290
#
# _framework density 22.494716
#
# number of rings (size 3 to 8) (size 9 to 14) (size 15 to 20)
#    0.000    2.333    0.000    4.500    0.000    8.333 
#    0.000    1.667    0.000    1.000    0.000    2.333 
#    0.000    0.000    0.000    0.000    0.000    0.000 
#
# Total GULP energy -268123.770896 kJ/mol
# GULP energy per Si atom -5585.911894 kJ/mol
# Density = 2.244352 g / cm^3
# Si number density = 22.494716 Si / 1000 Ang^3
#
#
#
# Elastic Constant Matrix: (Units=GPa)
#
#
# Indices 1 2 3 4 5 6 
#
# 1 58.6238 24.6855 6.2748 0.0000 0.0000 0.0000
# 2 24.6855 162.7500 -13.4141 0.0000 0.0000 0.0000
# 3 6.2748 -13.4141 45.9944 0.0000 0.0000 0.0000
# 4 0.0000 0.0000 0.0000 -4.3880 0.0000 0.0000
# 5 0.0000 0.0000 0.0000 0.0000 20.0759 0.0000
# 6 0.0000 0.0000 0.0000 0.0000 0.0000 18.3944
#
#
#
# Elastic Compliance Matrix: (Units=1/GPa)
#
#
# Indices 1 2 3 4 5 6 
#
# 1 0.018747 -0.003130 -0.003470 0.000000 0.000000 0.000000
# 2 -0.003130 0.006818 0.002415 0.000000 0.000000 0.000000
# 3 -0.003470 0.002415 0.022920 0.000000 0.000000 0.000000
# 4 0.000000 0.000000 0.000000 -0.227896 0.000000 0.000000
# 5 0.000000 0.000000 0.000000 0.000000 0.049811 0.000000
# 6 0.000000 0.000000 0.000000 0.000000 0.000000 0.054364
#
#
# Mechanical properties :
#
#
# Convention : Reuss Voigt Hill
#
# Bulk Modulus (GPa) = 24.92759 33.60671 29.26715
# Shear Modulus (GPa) = -93.46729 23.47126 -34.99801
#
# Velocity S-wave (km/s) = -6.45298 3.23369 -3.94868
# Velocity P-wave (km/s) = 6.66451 5.37723 2.78398
#
# Compressibility (1/GPa) = 0.04011619
#
# Stress axis : x y z
#
# Youngs Moduli (GPa) = 53.34138 146.66710 43.63059
#
# Poissons Ratio (x) = 0.45900 0.15141
# Poissons Ratio (y) = 0.16693 -0.10539
# Poissons Ratio (z) = 0.18511 -0.35427
#
# Static dielectric constant tensor:
#      x y z
#    x 1.767390 0.000000 0.000000 
#    y 0.000000 1.853520 0.000000 
#    z 0.000000 0.000000 1.905650 
# 
# From -- ./inp_files/26389.got.cif
#   From: 2010.05.17/outbox.cif.g08.bks.cpg/sg53_14_cif.got.tgz:26389.got - 2010.06.03 12:45:16.
