data_PCOD9416468
_publ_section_title
;
Structure prediction by ZEFSAII (Michael W. Deem and Ramdas Pophale) SiO2 
 PCOD9416468
Probable space group: P M N A
;
_chemical_formula_sum "Si O2"
_cell_formula_units_Z 48
_cell_length_a 19.148281
_cell_length_b 15.350153
_cell_length_c 9.331509
_cell_angle_alpha 90.000000
_cell_angle_beta 90.000000
_cell_angle_gamma 90.000000
_cell_volume 2742.801510
_symmetry_space_group_name_H-M "P M N A"
_symmetry_group_IT_number 53
_symmetry_cell_setting 'orthorhombic'
loop_
_space_group_symop_operation_xyz
x,y,z
1/2-x,-y,1/2+z
x,-y,-z
1/2-x,y,1/2-z
-x,-y,-z
1/2+x,y,1/2-z
-x,y,z
1/2+x,-y,1/2+z
loop_
_atom_site_type_symbol
_atom_site_label
_atom_site_fract_x
_atom_site_fract_y
_atom_site_fract_z
Si Si1 0.823933 0.913226 0.081553
Si Si2 0.417032 0.767080 0.912256
Si Si3 0.155231 0.916103 0.406351
Si Si4 0.188746 0.562837 0.863196
Si Si5 0.182447 0.233139 0.150498
Si Si6 0.917055 0.568086 0.616082
O O1 0.739493 0.918243 0.092573
O O2 0.859888 0.913888 0.236907
O O3 0.832095 0.828140 0.984003
O O4 0.847409 0.000000 0.000000
O O5 0.500000 0.782772 0.915241
O O6 0.383490 0.776975 0.755370
O O7 0.403385 0.665143 0.942739
O O8 0.376625 0.831496 0.017884
O O9 0.131693 0.000000 0.500000
O O10 0.250000 0.541943 0.750000
O O11 0.194711 0.666535 0.896199
O O12 0.118768 0.554628 0.768867
O O13 0.190458 0.500000 0.000000
O O14 0.250000 0.207476 0.250000
O O15 0.889880 0.500000 0.500000
O O16 0.000000 0.558078 0.630755
#
# Coordination Sequence:
#
# PCOD9416468 Si02
#       6
#     8   8   8   8   8   8
#     4  10  20  33  56  82 105 138 183 226 261 312
#     4  10  20  35  56  79 109 144 178 220 271 321
#     4  10  20  34  54  81 108 139 178 222 269 318
#     4  10  21  35  52  79 110 142 174 222 273 318
#     4  10  19  36  56  77 106 142 181 220 266 318
#     4   9  19  36  57  78 104 144 185 218 261 320
#
# _framework density 17.500354000000002
#
# number of rings (size 3 to 8) (size 9 to 14) (size 15 to 20)
#    0.000    2.167    1.667    1.500    2.333    2.000 
#    3.000    0.833    0.000    2.000    0.000    0.000 
#    0.000    0.000    0.000    0.000    0.000    0.000 
#
# Total GULP energy -267484.438813 kJ/mol
# GULP energy per Si atom -5572.592475 kJ/mol
# Density = 1.746052 g / cm^3
# Si number density = 17.500354 Si / 1000 Ang^3
#
#
#
# Elastic Constant Matrix: (Units=GPa)
#
#
# Indices 1 2 3 4 5 6 
#
# 1 31.5906 39.1052 34.6083 0.0000 0.0000 0.0000
# 2 39.1052 117.2986 108.6027 0.0000 0.0000 0.0000
# 3 34.6083 108.6027 151.2183 0.0000 0.0000 0.0000
# 4 0.0000 0.0000 0.0000 31.1573 0.0000 0.0000
# 5 0.0000 0.0000 0.0000 0.0000 17.2086 0.0000
# 6 0.0000 0.0000 0.0000 0.0000 0.0000 4.5588
#
#
#
# Elastic Compliance Matrix: (Units=1/GPa)
#
#
# Indices 1 2 3 4 5 6 
#
# 1 0.054044 -0.019595 0.001704 0.000000 0.000000 0.000000
# 2 -0.019595 0.032549 -0.018892 0.000000 0.000000 0.000000
# 3 0.001704 -0.018892 0.019791 0.000000 0.000000 0.000000
# 4 0.000000 0.000000 0.000000 0.032095 0.000000 0.000000
# 5 0.000000 0.000000 0.000000 0.000000 0.058110 0.000000
# 6 0.000000 0.000000 0.000000 0.000000 0.000000 0.219356
#
#
# Mechanical properties :
#
#
# Convention : Reuss Voigt Hill
#
# Bulk Modulus (GPa) = 30.47039 73.85998 52.16518
# Shear Modulus (GPa) = 9.99100 18.43769 14.21434
#
# Velocity S-wave (km/s) = 2.39195 3.24938 2.85306
# Velocity P-wave (km/s) = 5.00776 7.50829 6.38170
#
# Compressibility (1/GPa) = 0.03281875
#
# Stress axis : x y z
#
# Youngs Moduli (GPa) = 18.50330 30.72292 50.52924
#
# Poissons Ratio (x) = 0.60203 -0.08612
# Poissons Ratio (y) = 0.36258 0.95457
# Poissons Ratio (z) = -0.03153 0.58040
#
# Static dielectric constant tensor:
#      x y z
#    x 1.605850 0.000000 0.000000 
#    y 0.000000 1.611610 0.000000 
#    z 0.000000 0.000000 1.582860 
# 
# From -- ./inp_files/9959.got.cif
#   From: 2010.05.17/outbox.cif.g08.bks.cpg/sg53_5_cif.got.tgz:9959.got - 2010.06.03 12:45:16.
