data_PCOD9416935
_publ_section_title
;
Structure prediction by ZEFSAII (Michael W. Deem and Ramdas Pophale) SiO2 
 PCOD9416935
Probable space group: P M N A
;
_chemical_formula_sum "Si O2"
_cell_formula_units_Z 48
_cell_length_a 13.308058
_cell_length_b 13.110444
_cell_length_c 14.793972
_cell_angle_alpha 90.000000
_cell_angle_beta 90.000000
_cell_angle_gamma 90.000000
_cell_volume 2581.171595
_symmetry_space_group_name_H-M "P M N A"
_symmetry_group_IT_number 53
_symmetry_cell_setting 'orthorhombic'
loop_
_space_group_symop_operation_xyz
x,y,z
1/2-x,-y,1/2+z
x,-y,-z
1/2-x,y,1/2-z
-x,-y,-z
1/2+x,y,1/2-z
-x,y,z
1/2+x,-y,1/2+z
loop_
_atom_site_type_symbol
_atom_site_label
_atom_site_fract_x
_atom_site_fract_y
_atom_site_fract_z
Si Si1 0.641068 0.720779 0.716986
Si Si2 0.500000 0.876310 0.616751
Si Si3 0.115060 0.347940 0.679752
Si Si4 0.670234 0.730777 0.366481
Si Si5 0.891509 0.420017 0.388162
Si Si6 0.177710 0.607497 0.960962
Si Si7 0.000000 0.884293 0.102860
O O1 0.750000 0.754007 0.750000
O O2 0.589665 0.816715 0.668298
O O3 0.604294 0.660187 0.805569
O O4 0.641159 0.635603 0.638237
O O5 0.500000 0.869057 0.506916
O O6 0.500000 0.997461 0.629831
O O7 0.207891 0.276643 0.645157
O O8 0.129236 0.343302 0.788036
O O9 0.127600 0.465174 0.648250
O O10 0.000000 0.316527 0.657529
O O11 0.647278 0.689606 0.465667
O O12 0.601978 0.831646 0.358868
O O13 0.798761 0.393021 0.451537
O O14 0.000000 0.415910 0.433929
O O15 0.144189 0.500000 0.000000
#
# Coordination Sequence:
#
# PCOD9416935 Si02
#       7
#     8   4   8   8   8   8   4
#     4  10  21  37  57  85 117 152 194 237 292 348
#     4  11  22  44  64  82 112 149 201 267 305 339
#     4  10  21  36  58  84 124 159 189 236 290 352
#     4  11  21  38  55  84 118 151 201 242 285 359
#     4  10  20  33  54  83 119 160 193 225 278 358
#     4  11  20  32  54  81 119 158 191 225 282 357
#     4  11  24  42  64  88 107 150 209 259 316 338
#
# _framework density 18.596205999999999
#
# number of rings (size 3 to 8) (size 9 to 14) (size 15 to 20)
#    0.000    1.500    5.000    1.000    4.667    1.000 
#    3.000    0.833    0.000    0.000    0.000    1.167 
#    0.000    0.333    0.000    0.000    0.000    0.000 
#
# Total GULP energy -267333.491416 kJ/mol
# GULP energy per Si atom -5569.447738 kJ/mol
# Density = 1.855388 g / cm^3
# Si number density = 18.596206 Si / 1000 Ang^3
#
#
#
# Elastic Constant Matrix: (Units=GPa)
#
#
# Indices 1 2 3 4 5 6 
#
# 1 111.0310 59.0349 5.7591 0.0000 0.0000 0.0000
# 2 59.0349 107.2600 25.2167 0.0000 0.0000 0.0000
# 3 5.7591 25.2167 72.1342 0.0000 0.0000 0.0000
# 4 0.0000 0.0000 0.0000 26.9063 0.0000 0.0000
# 5 0.0000 0.0000 0.0000 0.0000 -31.3774 0.0000
# 6 0.0000 0.0000 0.0000 0.0000 0.0000 25.4154
#
#
#
# Elastic Compliance Matrix: (Units=1/GPa)
#
#
# Indices 1 2 3 4 5 6 
#
# 1 0.012896 -0.007470 0.001582 0.000000 0.000000 0.000000
# 2 -0.007470 0.014485 -0.004467 0.000000 0.000000 0.000000
# 3 0.001582 -0.004467 0.015298 0.000000 0.000000 0.000000
# 4 0.000000 0.000000 0.000000 0.037166 0.000000 0.000000
# 5 0.000000 0.000000 0.000000 0.000000 -0.031870 0.000000
# 6 0.000000 0.000000 0.000000 0.000000 0.000000 0.039346
#
#
# Mechanical properties :
#
#
# Convention : Reuss Voigt Hill
#
# Bulk Modulus (GPa) = 45.51940 52.27186 48.89563
# Shear Modulus (GPa) = 43.34459 17.54983 30.44721
#
# Velocity S-wave (km/s) = 4.83310 3.07535 4.05072
# Velocity P-wave (km/s) = 7.46164 6.38595 6.94465
#
# Compressibility (1/GPa) = 0.02196866
#
# Stress axis : x y z
#
# Youngs Moduli (GPa) = 77.54284 69.03859 65.36623
#
# Poissons Ratio (x) = 0.51570 -0.10339
# Poissons Ratio (y) = 0.57923 0.29200
# Poissons Ratio (z) = -0.12265 0.30841
#
# Static dielectric constant tensor:
#      x y z
#    x 1.752460 0.000000 0.000000 
#    y 0.000000 1.604510 0.000000 
#    z 0.000000 0.000000 1.652410 
# 
# From -- ./inp_files/22719.got.cif
#   From: 2010.05.17/outbox.cif.g08.bks.cpg/sg53_12_cif.got.tgz:22719.got - 2010.06.03 12:45:16.
