data_PCOD9416537
_publ_section_title
;
Structure prediction by ZEFSAII (Michael W. Deem and Ramdas Pophale) SiO2 
 PCOD9416537
Probable space group: P M N A
;
_chemical_formula_sum "Si O2"
_cell_formula_units_Z 52
_cell_length_a 8.148792
_cell_length_b 14.127303
_cell_length_c 22.325789
_cell_angle_alpha 90.000000
_cell_angle_beta 90.000000
_cell_angle_gamma 90.000000
_cell_volume 2570.154958
_symmetry_space_group_name_H-M "P M N A"
_symmetry_group_IT_number 53
_symmetry_cell_setting 'orthorhombic'
loop_
_space_group_symop_operation_xyz
x,y,z
1/2-x,-y,1/2+z
x,-y,-z
1/2-x,y,1/2-z
-x,-y,-z
1/2+x,y,1/2-z
-x,y,z
1/2+x,-y,1/2+z
loop_
_atom_site_type_symbol
_atom_site_label
_atom_site_fract_x
_atom_site_fract_y
_atom_site_fract_z
Si Si1 0.700608 0.250556 0.074878
Si Si2 0.815227 0.351938 0.870170
Si Si3 0.189436 0.815025 0.446408
Si Si4 0.303307 0.877666 0.814208
Si Si5 0.250000 0.243768 0.750000
Si Si6 0.698463 0.532589 0.932861
Si Si7 0.688990 0.910472 0.335183
O O1 0.500000 0.251767 0.073098
O O2 0.750865 0.189733 0.131946
O O3 0.753119 0.359697 0.077146
O O4 0.754109 0.202295 0.012904
O O5 0.701995 0.284810 0.911039
O O6 0.811972 0.317002 0.801151
O O7 0.765840 0.459028 0.884062
O O8 0.000000 0.335579 0.891833
O O9 0.284798 0.888379 0.404803
O O10 0.000000 0.844882 0.449673
O O11 0.250000 0.838664 0.750000
O O12 0.500000 0.887302 0.816330
O O13 0.227072 0.981987 0.820757
O O14 0.194538 0.162213 0.701568
O O15 0.500000 0.529560 0.930447
O O16 0.747072 0.500000 0.000000
O O17 0.500000 0.886053 0.319221
#
# Coordination Sequence:
#
# PCOD9416537 Si02
#       7
#     8   8   8   8   4   8   8
#     4   9  20  39  62  88 117 157 204 247 289 356
#     4  11  23  37  57  91 126 153 196 248 303 356
#     4  10  19  36  62  90 120 156 199 241 295 355
#     4  11  23  41  63  85 117 158 205 248 295 351
#     4  10  22  38  58  80 122 154 194 232 302 350
#     4  10  19  38  65  88 115 156 202 242 295 360
#     4  11  23  39  61  91 124 153 197 245 302 361
#
# _framework density 20.232244000000001
#
# number of rings (size 3 to 8) (size 9 to 14) (size 15 to 20)
#    0.000    1.692    2.308    3.231    0.000    7.692 
#    1.385    7.692    0.000    0.000    0.000    0.000 
#    0.000    0.000    0.000    0.000    0.000    0.000 
#
# Total GULP energy -289794.982714 kJ/mol
# GULP energy per Si atom -5572.980437 kJ/mol
# Density = 2.018619 g / cm^3
# Si number density = 20.232244 Si / 1000 Ang^3
#
#
#
# Elastic Constant Matrix: (Units=GPa)
#
#
# Indices 1 2 3 4 5 6 
#
# 1 50.2369 15.0574 23.2199 0.0000 0.0000 0.0000
# 2 15.0574 99.2616 80.7536 0.0000 0.0000 0.0000
# 3 23.2199 80.7536 169.3918 0.0000 0.0000 0.0000
# 4 0.0000 0.0000 0.0000 34.4424 0.0000 0.0000
# 5 0.0000 0.0000 0.0000 0.0000 9.2781 0.0000
# 6 0.0000 0.0000 0.0000 0.0000 0.0000 16.6402
#
#
#
# Elastic Compliance Matrix: (Units=1/GPa)
#
#
# Indices 1 2 3 4 5 6 
#
# 1 0.021371 -0.001403 -0.002261 0.000000 0.000000 0.000000
# 2 -0.001403 0.016549 -0.007697 0.000000 0.000000 0.000000
# 3 -0.002261 -0.007697 0.009883 0.000000 0.000000 0.000000
# 4 0.000000 0.000000 0.000000 0.029034 0.000000 0.000000
# 5 0.000000 0.000000 0.000000 0.000000 0.107780 0.000000
# 6 0.000000 0.000000 0.000000 0.000000 0.000000 0.060095
#
#
# Mechanical properties :
#
#
# Convention : Reuss Voigt Hill
#
# Bulk Modulus (GPa) = 39.86945 61.88358 50.87651
# Shear Modulus (GPa) = 18.12943 25.39609 21.76276
#
# Velocity S-wave (km/s) = 2.99668 3.54676 3.28326
# Velocity P-wave (km/s) = 5.63224 6.88663 6.29078
#
# Compressibility (1/GPa) = 0.02508186
#
# Stress axis : x y z
#
# Youngs Moduli (GPa) = 46.79223 60.42617 101.18555
#
# Poissons Ratio (x) = 0.08475 0.22877
# Poissons Ratio (y) = 0.06563 0.77884
# Poissons Ratio (z) = 0.10579 0.46511
#
# Static dielectric constant tensor:
#      x y z
#    x 1.757140 0.000000 0.000000 
#    y 0.000000 1.696300 0.000000 
#    z 0.000000 0.000000 1.732740 
# 
# From -- ./inp_files/30672.got.cif
#   From: 2010.05.17/outbox.cif.g08.bks.cpg/sg53_16_cif.got.tgz:30672.got - 2010.06.03 12:45:16.
