data_PCOD9416837
_publ_section_title
;
Structure prediction by ZEFSAII (Michael W. Deem and Ramdas Pophale) SiO2 
 PCOD9416837
Probable space group: P M N A
;
_chemical_formula_sum "Si O2"
_cell_formula_units_Z 64
_cell_length_a 8.803670
_cell_length_b 17.935187
_cell_length_c 22.176500
_cell_angle_alpha 90.000000
_cell_angle_beta 90.000000
_cell_angle_gamma 90.000000
_cell_volume 3501.568840
_symmetry_space_group_name_H-M "P M N A"
_symmetry_group_IT_number 53
_symmetry_cell_setting 'orthorhombic'
loop_
_space_group_symop_operation_xyz
x,y,z
1/2-x,-y,1/2+z
x,-y,-z
1/2-x,y,1/2-z
-x,-y,-z
1/2+x,y,1/2-z
-x,y,z
1/2+x,-y,1/2+z
loop_
_atom_site_type_symbol
_atom_site_label
_atom_site_fract_x
_atom_site_fract_y
_atom_site_fract_z
Si Si1 0.170929 0.363516 0.689821
Si Si2 0.322224 0.719387 0.973517
Si Si3 0.326294 0.274058 0.596581
Si Si4 0.684822 0.882255 0.966161
Si Si5 0.671330 0.540573 0.812466
Si Si6 0.324520 0.134845 0.686327
Si Si7 0.317349 0.963296 0.088725
Si Si8 0.817992 0.441454 0.054258
O O1 0.250000 0.333276 0.750000
O O2 0.279436 0.346570 0.633980
O O3 0.158379 0.451772 0.696461
O O4 0.000000 0.332798 0.681682
O O5 0.500000 0.708714 0.959516
O O6 0.265992 0.799165 0.947109
O O7 0.233995 0.642957 0.961044
O O8 0.294941 0.734326 0.044133
O O9 0.500000 0.277889 0.573968
O O10 0.313744 0.206986 0.643651
O O11 0.500000 0.879251 0.967699
O O12 0.729568 0.951580 0.924202
O O13 0.734591 0.910265 0.032897
O O14 0.750000 0.568905 0.750000
O O15 0.500000 0.571727 0.817267
O O16 0.753690 0.547339 0.877567
O O17 0.250000 0.149318 0.750000
O O18 0.500000 0.116954 0.694756
O O19 0.243848 0.068848 0.650353
O O20 0.500000 0.961445 0.087898
O O21 0.000000 0.446606 0.056413
O O22 0.768067 0.500000 0.000000
#
# Coordination Sequence:
#
# PCOD9416837 Si02
#       8
#     8   8   8   8   8   8   8   8
#     4  10  20  33  51  74 101 137 182 228 274 329
#     4  11  21  35  57  83 111 143 184 231 284 338
#     4  11  22  34  48  72 108 146 185 226 272 327
#     4   8  16  31  56  84 106 136 174 220 273 327
#     4  10  21  38  60  84 110 145 191 241 294 355
#     4  11  23  35  49  74 108 148 188 225 269 323
#     4   9  16  33  57  79 106 138 177 218 265 323
#     4  11  24  40  58  84 120 159 197 243 297 349
#
# _framework density 18.277522000000001
#
# number of rings (size 3 to 8) (size 9 to 14) (size 15 to 20)
#    0.000    1.875    1.250    4.125    0.000    7.000 
#    0.000    2.500    0.000    0.750    0.000    3.500 
#    0.000    0.000    0.000    0.000    0.000    0.000 
#
# Total GULP energy -356621.070545 kJ/mol
# GULP energy per Si atom -5572.204227 kJ/mol
# Density = 1.823592 g / cm^3
# Si number density = 18.277522 Si / 1000 Ang^3
#
#
#
# Elastic Constant Matrix: (Units=GPa)
#
#
# Indices 1 2 3 4 5 6 
#
# 1 57.8010 28.9407 36.4125 0.0000 0.0000 0.0000
# 2 28.9407 93.7289 29.3106 0.0000 0.0000 0.0000
# 3 36.4125 29.3106 80.4644 0.0000 0.0000 0.0000
# 4 0.0000 0.0000 0.0000 22.7623 0.0000 0.0000
# 5 0.0000 0.0000 0.0000 0.0000 28.9887 0.0000
# 6 0.0000 0.0000 0.0000 0.0000 0.0000 -22.7099
#
#
#
# Elastic Compliance Matrix: (Units=1/GPa)
#
#
# Indices 1 2 3 4 5 6 
#
# 1 0.026066 -0.004920 -0.010003 0.000000 0.000000 0.000000
# 2 -0.004920 0.012969 -0.002498 0.000000 0.000000 0.000000
# 3 -0.010003 -0.002498 0.017865 0.000000 0.000000 0.000000
# 4 0.000000 0.000000 0.000000 0.043932 0.000000 0.000000
# 5 0.000000 0.000000 0.000000 0.000000 0.034496 0.000000
# 6 0.000000 0.000000 0.000000 0.000000 0.000000 -0.044034
#
#
# Mechanical properties :
#
#
# Convention : Reuss Voigt Hill
#
# Bulk Modulus (GPa) = 45.33664 46.81356 46.07510
# Shear Modulus (GPa) = 37.45599 14.96357 26.20978
#
# Velocity S-wave (km/s) = 4.53182 2.86438 3.79091
# Velocity P-wave (km/s) = 7.22784 6.05044 6.66519
#
# Compressibility (1/GPa) = 0.02205721
#
# Stress axis : x y z
#
# Youngs Moduli (GPa) = 38.36414 77.10467 55.97683
#
# Poissons Ratio (x) = 0.37937 0.55996
# Poissons Ratio (y) = 0.18876 0.13982
# Poissons Ratio (z) = 0.38377 0.19259
#
# Static dielectric constant tensor:
#      x y z
#    x 1.641670 0.000000 0.000000 
#    y 0.000000 1.665970 0.000000 
#    z 0.000000 0.000000 1.636800 
# 
# From -- ./inp_files/31206.got.cif
#   From: 2010.05.17/outbox.cif.g08.bks.cpg/sg53_16_cif.got.tgz:31206.got - 2010.06.03 12:45:16.
