data_PCOD9416394
_publ_section_title
;
Structure prediction by ZEFSAII (Michael W. Deem and Ramdas Pophale) SiO2 
 PCOD9416394
Probable space group: P M N A
;
_chemical_formula_sum "Si O2"
_cell_formula_units_Z 64
_cell_length_a 8.767389
_cell_length_b 18.259083
_cell_length_c 20.368199
_cell_angle_alpha 90.000000
_cell_angle_beta 90.000000
_cell_angle_gamma 90.000000
_cell_volume 3260.632616
_symmetry_space_group_name_H-M "P M N A"
_symmetry_group_IT_number 53
_symmetry_cell_setting 'orthorhombic'
loop_
_space_group_symop_operation_xyz
x,y,z
1/2-x,-y,1/2+z
x,-y,-z
1/2-x,y,1/2-z
-x,-y,-z
1/2+x,y,1/2-z
-x,y,z
1/2+x,-y,1/2+z
loop_
_atom_site_type_symbol
_atom_site_label
_atom_site_fract_x
_atom_site_fract_y
_atom_site_fract_z
Si Si1 0.815929 0.745976 0.180040
Si Si2 0.683920 0.704057 0.462888
Si Si3 0.176239 0.976865 0.924011
Si Si4 0.673580 0.566780 0.549893
Si Si5 0.816366 0.910243 0.320557
Si Si6 0.680712 0.561378 0.816084
Si Si7 0.682323 0.268278 0.184448
Si Si8 0.682621 0.819124 0.943916
O O1 0.750000 0.719125 0.250000
O O2 0.774013 0.700635 0.114269
O O3 0.750160 0.828217 0.170300
O O4 0.000000 0.749688 0.184431
O O5 0.500000 0.703147 0.465311
O O6 0.737793 0.637366 0.510076
O O7 0.743602 0.780386 0.492965
O O8 0.261028 0.899478 0.926003
O O9 0.000000 0.969350 0.902501
O O10 0.258846 0.035985 0.877822
O O11 0.176002 0.000000 0.000000
O O12 0.667194 0.500000 0.500000
O O13 0.500000 0.585159 0.570793
O O14 0.762786 0.537361 0.613051
O O15 0.750000 0.935649 0.250000
O O16 0.000000 0.907689 0.318710
O O17 0.750000 0.527509 0.750000
O O18 0.500000 0.557360 0.811714
O O19 0.729751 0.647046 0.817504
O O20 0.750000 0.233597 0.250000
O O21 0.500000 0.265753 0.188209
O O22 0.730344 0.230206 0.117973
O O23 0.500000 0.818108 0.951087
#
# Coordination Sequence:
#
# PCOD9416394 Si02
#       8
#     8   8   8   8   8   8   8   8
#     4  10  20  36  58  84 111 143 186 234 286 344
#     4  10  21  37  58  83 113 149 188 234 289 346
#     4  11  24  40  56  78 111 150 191 235 285 341
#     4  10  21  38  60  87 120 158 197 239 289 346
#     4  11  22  38  60  84 112 149 191 236 287 343
#     4  10  19  35  58  85 116 152 192 233 278 333
#     4   9  19  33  51  78 109 141 178 224 270 323
#     4  11  22  36  55  82 112 144 188 238 286 339
#
# _framework density 19.628093
#
# number of rings (size 3 to 8) (size 9 to 14) (size 15 to 20)
#    0.000    1.750    1.250    4.125    0.000    7.250 
#    0.000    1.875    0.000    1.500    0.000    0.000 
#    0.000    0.000    0.000    0.000    0.000    0.000 
#
# Total GULP energy -357141.660963 kJ/mol
# GULP energy per Si atom -5580.338453 kJ/mol
# Density = 1.958342 g / cm^3
# Si number density = 19.628093 Si / 1000 Ang^3
#
#
#
# Elastic Constant Matrix: (Units=GPa)
#
#
# Indices 1 2 3 4 5 6 
#
# 1 53.0074 4.4661 40.6981 0.0000 0.0000 0.0000
# 2 4.4661 13.1576 5.3800 0.0000 0.0000 0.0000
# 3 40.6981 5.3800 135.4579 0.0000 0.0000 0.0000
# 4 0.0000 0.0000 0.0000 24.2294 0.0000 0.0000
# 5 0.0000 0.0000 0.0000 0.0000 31.0395 0.0000
# 6 0.0000 0.0000 0.0000 0.0000 0.0000 3.9774
#
#
#
# Elastic Compliance Matrix: (Units=1/GPa)
#
#
# Indices 1 2 3 4 5 6 
#
# 1 0.024905 -0.005483 -0.007265 0.000000 0.000000 0.000000
# 2 -0.005483 0.078464 -0.001469 0.000000 0.000000 0.000000
# 3 -0.007265 -0.001469 0.009623 0.000000 0.000000 0.000000
# 4 0.000000 0.000000 0.000000 0.041272 0.000000 0.000000
# 5 0.000000 0.000000 0.000000 0.000000 0.032217 0.000000
# 6 0.000000 0.000000 0.000000 0.000000 0.000000 0.251419
#
#
# Mechanical properties :
#
#
# Convention : Reuss Voigt Hill
#
# Bulk Modulus (GPa) = 11.82615 33.63459 22.73037
# Shear Modulus (GPa) = 10.11081 21.92117 16.01599
#
# Velocity S-wave (km/s) = 2.27209 3.34552 2.85962
# Velocity P-wave (km/s) = 3.59463 5.66538 4.74436
#
# Compressibility (1/GPa) = 0.08455839
#
# Stress axis : x y z
#
# Youngs Moduli (GPa) = 40.15233 12.74476 103.91275
#
# Poissons Ratio (x) = 0.06988 0.75492
# Poissons Ratio (y) = 0.22015 0.15265
# Poissons Ratio (z) = 0.29170 0.01872
#
# Static dielectric constant tensor:
#      x y z
#    x 1.674580 0.000000 0.000000 
#    y 0.000000 1.682530 0.000000 
#    z 0.000000 0.000000 1.843730 
# 
# From -- ./inp_files/26869.got.cif
#   From: 2010.05.17/outbox.cif.g08.bks.cpg/sg53_14_cif.got.tgz:26869.got - 2010.06.03 12:45:16.
