data_PCOD9416318
_publ_section_title
;
Structure prediction by ZEFSAII (Michael W. Deem and Ramdas Pophale) SiO2 
 PCOD9416318
Probable space group: P M N A
;
_chemical_formula_sum "Si O2"
_cell_formula_units_Z 36
_cell_length_a 25.845332
_cell_length_b 14.083239
_cell_length_c 4.937659
_cell_angle_alpha 90.000000
_cell_angle_beta 90.000000
_cell_angle_gamma 90.000000
_cell_volume 1797.238687
_symmetry_space_group_name_H-M "P M N A"
_symmetry_group_IT_number 53
_symmetry_cell_setting 'orthorhombic'
loop_
_space_group_symop_operation_xyz
x,y,z
1/2-x,-y,1/2+z
x,-y,-z
1/2-x,y,1/2-z
-x,-y,-z
1/2+x,y,1/2-z
-x,y,z
1/2+x,-y,1/2+z
loop_
_atom_site_type_symbol
_atom_site_label
_atom_site_fract_x
_atom_site_fract_y
_atom_site_fract_z
Si Si1 0.284617 0.500000 0.000000
Si Si2 0.057788 0.786001 0.348842
Si Si3 0.803187 0.183438 0.117559
Si Si4 0.587516 0.902859 0.647904
Si Si5 0.665429 0.305567 0.890795
O O1 0.250000 0.463222 0.250000
O O2 0.317004 0.586429 0.128181
O O3 0.070261 0.875333 0.549534
O O4 0.104011 0.711218 0.379527
O O5 0.000000 0.752337 0.404719
O O6 0.063135 0.822429 0.043013
O O7 0.750000 0.145218 0.250000
O O8 0.850199 0.108793 0.135962
O O9 0.817759 0.268839 0.317172
O O10 0.807292 0.233473 0.823722
O O11 0.572481 0.000000 0.500000
#
# Coordination Sequence:
#
# PCOD9416318 Si02
#       5
#     4   8   8   8   8
#     4  12  22  34  57  84 109 136 172 216 264 316
#     4  10  21  37  56  76 106 144 178 220 271 313
#     4  10  19  35  54  73 107 145 172 209 266 319
#     4  10  21  35  53  81 108 136 183 228 261 313
#     4  10  21  35  53  80 107 135 176 217 257 315
#
# _framework density 20.030729999999998
#
# number of rings (size 3 to 8) (size 9 to 14) (size 15 to 20)
#    0.000    1.778    0.000    5.333    0.000    2.667 
#    0.000    7.222    0.000    0.000    0.000   10.889 
#    0.000    0.000    0.000    0.000    0.000    0.000 
#
# Total GULP energy -200768.833095 kJ/mol
# GULP energy per Si atom -5576.912030 kJ/mol
# Density = 1.998514 g / cm^3
# Si number density = 20.030730 Si / 1000 Ang^3
#
#
#
# Elastic Constant Matrix: (Units=GPa)
#
#
# Indices 1 2 3 4 5 6 
#
# 1 149.3600 9.6594 19.3743 0.0000 0.0000 0.0000
# 2 9.6594 21.5745 1.4988 0.0000 0.0000 0.0000
# 3 19.3743 1.4988 72.4875 0.0000 0.0000 0.0000
# 4 0.0000 0.0000 0.0000 17.1118 0.0000 0.0000
# 5 0.0000 0.0000 0.0000 0.0000 5.2670 0.0000
# 6 0.0000 0.0000 0.0000 0.0000 0.0000 0.9696
#
#
#
# Elastic Compliance Matrix: (Units=1/GPa)
#
#
# Indices 1 2 3 4 5 6 
#
# 1 0.007133 -0.003065 -0.001843 0.000000 0.000000 0.000000
# 2 -0.003065 0.047735 -0.000168 0.000000 0.000000 0.000000
# 3 -0.001843 -0.000168 0.014292 0.000000 0.000000 0.000000
# 4 0.000000 0.000000 0.000000 0.058439 0.000000 0.000000
# 5 0.000000 0.000000 0.000000 0.000000 0.189860 0.000000
# 6 0.000000 0.000000 0.000000 0.000000 0.000000 1.031331
#
#
# Mechanical properties :
#
#
# Convention : Reuss Voigt Hill
#
# Bulk Modulus (GPa) = 16.94712 33.83190 25.38951
# Shear Modulus (GPa) = 3.62684 18.86232 11.24458
#
# Velocity S-wave (km/s) = 1.34706 3.07199 2.37189
# Velocity P-wave (km/s) = 3.30127 5.43227 4.49488
#
# Compressibility (1/GPa) = 0.05900708
#
# Stress axis : x y z
#
# Youngs Moduli (GPa) = 140.20245 20.94893 69.97142
#
# Poissons Ratio (x) = 0.06422 0.12896
# Poissons Ratio (y) = 0.42977 0.01173
# Poissons Ratio (z) = 0.25839 0.00351
#
# Static dielectric constant tensor:
#      x y z
#    x 1.780740 0.000000 0.000000 
#    y 0.000000 1.680870 0.000000 
#    z 0.000000 0.000000 1.694550 
# 
# From -- ./inp_files/3583.got.cif
#   From: 2010.05.17/outbox.cif.g08.bks.cpg/sg53_2_cif.got.tgz:3583.got - 2010.06.03 12:45:16.
