data_PCOD9416983
_publ_section_title
;
Structure prediction by ZEFSAII (Michael W. Deem and Ramdas Pophale) SiO2 
 PCOD9416983
Probable space group: P M N A
;
_chemical_formula_sum "Si O2"
_cell_formula_units_Z 48
_cell_length_a 8.321169
_cell_length_b 17.070512
_cell_length_c 18.643791
_cell_angle_alpha 90.000000
_cell_angle_beta 90.000000
_cell_angle_gamma 90.000000
_cell_volume 2648.287407
_symmetry_space_group_name_H-M "P M N A"
_symmetry_group_IT_number 53
_symmetry_cell_setting 'orthorhombic'
loop_
_space_group_symop_operation_xyz
x,y,z
1/2-x,-y,1/2+z
x,-y,-z
1/2-x,y,1/2-z
-x,-y,-z
1/2+x,y,1/2-z
-x,y,z
1/2+x,-y,1/2+z
loop_
_atom_site_type_symbol
_atom_site_label
_atom_site_fract_x
_atom_site_fract_y
_atom_site_fract_z
Si Si1 0.191451 0.352908 0.168995
Si Si2 0.696353 0.915163 0.025748
Si Si3 0.806440 0.833754 0.328592
Si Si4 0.306167 0.325719 0.900444
Si Si5 0.193468 0.495484 0.917546
Si Si6 0.806365 0.243693 0.452345
O O1 0.250000 0.348267 0.250000
O O2 0.254140 0.431305 0.128892
O O3 0.242451 0.279351 0.120743
O O4 0.000000 0.357205 0.169500
O O5 0.500000 0.916311 0.026035
O O6 0.746780 0.889574 0.105912
O O7 0.744622 0.844229 0.973080
O O8 0.752254 0.000000 0.000000
O O9 0.750000 0.856723 0.250000
O O10 0.753502 0.745010 0.348524
O O11 0.000000 0.833563 0.329664
O O12 0.500000 0.328288 0.899099
O O13 0.240950 0.411626 0.885468
O O14 0.256037 0.298817 0.980700
O O15 0.000000 0.499848 0.919822
O O16 0.252952 0.500000 0.000000
O O17 0.000000 0.244511 0.450584
#
# Coordination Sequence:
#
# PCOD9416983 Si02
#       6
#     8   8   8   8   8   8
#     4  11  23  37  52  72 102 136 172 214 258 303
#     4   8  15  31  56  81 104 134 171 208 249 304
#     4   9  18  32  50  76 106 135 168 206 254 305
#     4   9  18  31  50  74  99 131 171 208 246 302
#     4  10  20  34  51  73 100 132 172 215 257 298
#     4   9  17  32  54  77  99 129 170 209 249 300
#
# _framework density 18.124919999999999
#
# number of rings (size 3 to 8) (size 9 to 14) (size 15 to 20)
#    0.000    2.667    1.667    2.500    0.000    3.000 
#    0.000    6.667    0.000    4.000    0.000    0.000 
#    0.000    0.000    0.000    0.000    0.000    0.000 
#
# Total GULP energy -267670.359730 kJ/mol
# GULP energy per Si atom -5576.465828 kJ/mol
# Density = 1.808367 g / cm^3
# Si number density = 18.124920 Si / 1000 Ang^3
#
#
#
# Elastic Constant Matrix: (Units=GPa)
#
#
# Indices 1 2 3 4 5 6 
#
# 1 7.6895 14.4612 20.2839 0.0000 0.0000 0.0000
# 2 14.4612 155.7983 91.6663 0.0000 0.0000 0.0000
# 3 20.2839 91.6663 153.2216 0.0000 0.0000 0.0000
# 4 0.0000 0.0000 0.0000 19.0700 0.0000 0.0000
# 5 0.0000 0.0000 0.0000 0.0000 14.6335 0.0000
# 6 0.0000 0.0000 0.0000 0.0000 0.0000 -2.0741
#
#
#
# Elastic Compliance Matrix: (Units=1/GPa)
#
#
# Indices 1 2 3 4 5 6 
#
# 1 0.201994 -0.004654 -0.023956 0.000000 0.000000 0.000000
# 2 -0.004654 0.010012 -0.005374 0.000000 0.000000 0.000000
# 3 -0.023956 -0.005374 0.012913 0.000000 0.000000 0.000000
# 4 0.000000 0.000000 0.000000 0.052438 0.000000 0.000000
# 5 0.000000 0.000000 0.000000 0.000000 0.068336 0.000000
# 6 0.000000 0.000000 0.000000 0.000000 0.000000 -0.482131
#
#
# Mechanical properties :
#
#
# Convention : Reuss Voigt Hill
#
# Bulk Modulus (GPa) = 6.37141 63.28134 34.82638
# Shear Modulus (GPa) = -309.57159 19.01241 -145.27959
#
# Velocity S-wave (km/s) = -13.08318 3.24229 -8.96262
# Velocity P-wave (km/s) = 14.99011 7.00045 9.37275
#
# Compressibility (1/GPa) = 0.15695109
#
# Stress axis : x y z
#
# Youngs Moduli (GPa) = 4.95064 99.87671 77.44250
#
# Poissons Ratio (x) = 0.46485 1.85522
# Poissons Ratio (y) = 0.02304 0.41616
# Poissons Ratio (z) = 0.11860 0.53672
#
# Static dielectric constant tensor:
#      x y z
#    x 1.629630 0.000000 0.000000 
#    y 0.000000 1.620570 0.000000 
#    z 0.000000 0.000000 1.617360 
# 
# From -- ./inp_files/26264.got.cif
#   From: 2010.05.17/outbox.cif.g08.bks.cpg/sg53_14_cif.got.tgz:26264.got - 2010.06.03 12:45:16.
