data_PCOD9416596
_publ_section_title
;
Structure prediction by ZEFSAII (Michael W. Deem and Ramdas Pophale) SiO2 
 PCOD9416596
Probable space group: P M N A
;
_chemical_formula_sum "Si O2"
_cell_formula_units_Z 48
_cell_length_a 20.217858
_cell_length_b 14.146441
_cell_length_c 8.383330
_cell_angle_alpha 90.000000
_cell_angle_beta 90.000000
_cell_angle_gamma 90.000000
_cell_volume 2397.722378
_symmetry_space_group_name_H-M "P M N A"
_symmetry_group_IT_number 53
_symmetry_cell_setting 'orthorhombic'
loop_
_space_group_symop_operation_xyz
x,y,z
1/2-x,-y,1/2+z
x,-y,-z
1/2-x,y,1/2-z
-x,-y,-z
1/2+x,y,1/2-z
-x,y,z
1/2+x,-y,1/2+z
loop_
_atom_site_type_symbol
_atom_site_label
_atom_site_fract_x
_atom_site_fract_y
_atom_site_fract_z
Si Si1 0.076172 0.940117 0.165188
Si Si2 0.072529 0.405210 0.900418
Si Si3 0.815930 0.422779 0.641192
Si Si4 0.864901 0.224230 0.038120
Si Si5 0.279143 0.214143 0.922031
Si Si6 0.673383 0.914201 0.809298
O O1 0.106600 0.841162 0.105317
O O2 0.000000 0.932011 0.222084
O O3 0.126391 0.995743 0.280582
O O4 0.074677 0.000000 0.000000
O O5 0.122055 0.427729 0.757906
O O6 0.098666 0.322673 0.016838
O O7 0.000000 0.377364 0.840602
O O8 0.068233 0.500000 0.000000
O O9 0.816156 0.500000 0.500000
O O10 0.750000 0.434452 0.750000
O O11 0.817064 0.313101 0.586157
O O12 0.787385 0.240458 0.015989
O O13 0.864466 0.164885 0.201179
O O14 0.250000 0.185097 0.750000
O O15 0.315933 0.132221 0.018122
O O16 0.750000 0.932404 0.750000
#
# Coordination Sequence:
#
# PCOD9416596 Si02
#       6
#     8   8   8   8   8   8
#     4   9  18  35  60  90 124 166 212 259 320 387
#     4  11  24  41  61  92 129 170 216 264 329 396
#     4  11  23  39  65  92 123 166 213 270 330 397
#     4  10  19  37  62  89 126 165 211 263 322 386
#     4  10  20  37  59  91 122 161 206 266 329 378
#     4   9  20  35  61  95 124 162 214 270 323 382
#
# _framework density 20.018998
#
# number of rings (size 3 to 8) (size 9 to 14) (size 15 to 20)
#    0.000    2.000    3.333    1.000    2.333    2.333 
#    0.000    3.333    0.000    1.000    0.000    0.000 
#    0.000    0.000    0.000    0.000    0.000    0.000 
#
# Total GULP energy -267677.723760 kJ/mol
# GULP energy per Si atom -5576.619245 kJ/mol
# Density = 1.997343 g / cm^3
# Si number density = 20.018998 Si / 1000 Ang^3
#
#
#
# Elastic Constant Matrix: (Units=GPa)
#
#
# Indices 1 2 3 4 5 6 
#
# 1 129.9780 50.6052 43.8722 0.0000 0.0000 0.0000
# 2 50.6052 111.9327 52.0252 0.0000 0.0000 0.0000
# 3 43.8722 52.0252 88.5643 0.0000 0.0000 0.0000
# 4 0.0000 0.0000 0.0000 31.5567 0.0000 0.0000
# 5 0.0000 0.0000 0.0000 0.0000 21.1912 0.0000
# 6 0.0000 0.0000 0.0000 0.0000 0.0000 21.0799
#
#
#
# Elastic Compliance Matrix: (Units=1/GPa)
#
#
# Indices 1 2 3 4 5 6 
#
# 1 0.009934 -0.003032 -0.003140 0.000000 0.000000 0.000000
# 2 -0.003032 0.013215 -0.006261 0.000000 0.000000 0.000000
# 3 -0.003140 -0.006261 0.016524 0.000000 0.000000 0.000000
# 4 0.000000 0.000000 0.000000 0.031689 0.000000 0.000000
# 5 0.000000 0.000000 0.000000 0.000000 0.047189 0.000000
# 6 0.000000 0.000000 0.000000 0.000000 0.000000 0.047439
#
#
# Mechanical properties :
#
#
# Convention : Reuss Voigt Hill
#
# Bulk Modulus (GPa) = 67.53180 69.27558 68.40369
# Shear Modulus (GPa) = 25.53746 27.03037 26.28391
#
# Velocity S-wave (km/s) = 3.57551 3.67854 3.62739
# Velocity P-wave (km/s) = 7.13112 7.26101 7.19636
#
# Compressibility (1/GPa) = 0.01480784
#
# Stress axis : x y z
#
# Youngs Moduli (GPa) = 100.66610 75.67433 60.51624
#
# Poissons Ratio (x) = 0.22942 0.19002
# Poissons Ratio (y) = 0.30519 0.37888
# Poissons Ratio (z) = 0.31610 0.47378
#
# Static dielectric constant tensor:
#      x y z
#    x 1.710490 0.000000 0.000000 
#    y 0.000000 1.736720 0.000000 
#    z 0.000000 0.000000 1.763160 
# 
# From -- ./inp_files/10017.got.cif
#   From: 2010.05.17/outbox.cif.g08.bks.cpg/sg53_6_cif.got.tgz:10017.got - 2010.06.03 12:45:16.
