data_PCOD9416698
_publ_section_title
;
Structure prediction by ZEFSAII (Michael W. Deem and Ramdas Pophale) SiO2 
 PCOD9416698
Probable space group: P M N A
;
_chemical_formula_sum "Si O2"
_cell_formula_units_Z 64
_cell_length_a 9.043777
_cell_length_b 23.604365
_cell_length_c 17.523887
_cell_angle_alpha 90.000000
_cell_angle_beta 90.000000
_cell_angle_gamma 90.000000
_cell_volume 3740.869953
_symmetry_space_group_name_H-M "P M N A"
_symmetry_group_IT_number 53
_symmetry_cell_setting 'orthorhombic'
loop_
_space_group_symop_operation_xyz
x,y,z
1/2-x,-y,1/2+z
x,-y,-z
1/2-x,y,1/2-z
-x,-y,-z
1/2+x,y,1/2-z
-x,y,z
1/2+x,-y,1/2+z
loop_
_atom_site_type_symbol
_atom_site_label
_atom_site_fract_x
_atom_site_fract_y
_atom_site_fract_z
Si Si1 0.323945 0.745362 0.515221
Si Si2 0.177661 0.938904 0.668529
Si Si3 0.676911 0.867447 0.984430
Si Si4 0.323715 0.360695 0.944557
Si Si5 0.674497 0.316640 0.325318
Si Si6 0.669820 0.963028 0.422170
Si Si7 0.821753 0.456846 0.667864
Si Si8 0.324597 0.422510 0.104479
O O1 0.500000 0.751427 0.506444
O O2 0.243982 0.805197 0.508603
O O3 0.261399 0.697659 0.458141
O O4 0.293511 0.720372 0.599804
O O5 0.250000 0.923750 0.750000
O O6 0.212022 0.895005 0.599123
O O7 0.000000 0.942200 0.675675
O O8 0.244492 0.998846 0.639499
O O9 0.500000 0.866903 0.991099
O O10 0.746090 0.906922 0.050405
O O11 0.500000 0.349681 0.940280
O O12 0.276180 0.398809 0.873366
O O13 0.299479 0.400491 0.018818
O O14 0.750000 0.292700 0.250000
O O15 0.500000 0.319643 0.314717
O O16 0.738192 0.379111 0.341679
O O17 0.500000 0.952413 0.398840
O O18 0.665899 0.000000 0.500000
O O19 0.750000 0.462503 0.750000
O O20 0.782518 0.512604 0.618679
O O21 0.000000 0.455979 0.673411
O O22 0.500000 0.417013 0.119866
#
# Coordination Sequence:
#
# PCOD9416698 Si02
#       8
#     8   8   8   8   8   8   8   8
#     4  10  21  35  51  72  97 128 169 212 251 292
#     4  10  20  33  51  78 111 142 171 205 247 294
#     4  10  20  34  53  76 102 135 174 211 248 295
#     4   9  18  34  53  71  95 129 167 205 248 299
#     4  10  20  32  46  67  97 131 165 202 246 297
#     4   9  17  31  52  76 103 135 169 205 245 288
#     4  10  20  32  49  74 100 126 158 200 251 305
#     4   9  17  31  51  72  95 125 162 202 245 298
#
# _framework density 17.108321
#
# number of rings (size 3 to 8) (size 9 to 14) (size 15 to 20)
#    0.000    2.375    0.000    2.625    0.000    8.500 
#    0.000    2.500    0.000    4.500    0.000    3.500 
#    0.000    0.000    0.000    0.000    0.000    0.000 
#
# Total GULP energy -356985.553660 kJ/mol
# GULP energy per Si atom -5577.899276 kJ/mol
# Density = 1.706938 g / cm^3
# Si number density = 17.108321 Si / 1000 Ang^3
#
#
#
# Elastic Constant Matrix: (Units=GPa)
#
#
# Indices 1 2 3 4 5 6 
#
# 1 44.9602 53.0395 15.5409 0.0000 0.0000 0.0000
# 2 53.0395 137.1004 28.6337 0.0000 0.0000 0.0000
# 3 15.5409 28.6337 21.5355 0.0000 0.0000 0.0000
# 4 0.0000 0.0000 0.0000 6.2973 0.0000 0.0000
# 5 0.0000 0.0000 0.0000 0.0000 25.6849 0.0000
# 6 0.0000 0.0000 0.0000 0.0000 0.0000 22.9152
#
#
#
# Elastic Compliance Matrix: (Units=1/GPa)
#
#
# Indices 1 2 3 4 5 6 
#
# 1 0.043177 -0.014116 -0.012390 0.000000 0.000000 0.000000
# 2 -0.014116 0.014713 -0.009376 0.000000 0.000000 0.000000
# 3 -0.012390 -0.009376 0.067842 0.000000 0.000000 0.000000
# 4 0.000000 0.000000 0.000000 0.158797 0.000000 0.000000
# 5 0.000000 0.000000 0.000000 0.000000 0.038933 0.000000
# 6 0.000000 0.000000 0.000000 0.000000 0.000000 0.043639
#
#
# Mechanical properties :
#
#
# Convention : Reuss Voigt Hill
#
# Bulk Modulus (GPa) = 18.52911 44.22493 31.37702
# Shear Modulus (GPa) = 10.94439 18.07162 14.50801
#
# Velocity S-wave (km/s) = 2.53200 3.25361 2.91522
# Velocity P-wave (km/s) = 4.40477 6.32619 5.45081
#
# Compressibility (1/GPa) = 0.05396913
#
# Stress axis : x y z
#
# Youngs Moduli (GPa) = 23.16027 67.96620 14.74017
#
# Poissons Ratio (x) = 0.95943 0.18262
# Poissons Ratio (y) = 0.32694 0.13820
# Poissons Ratio (z) = 0.28694 0.63724
#
# Static dielectric constant tensor:
#      x y z
#    x 1.571550 0.000000 0.000000 
#    y 0.000000 1.566300 0.000000 
#    z 0.000000 0.000000 1.572910 
# 
# From -- ./inp_files/26860.got.cif
#   From: 2010.05.17/outbox.cif.g08.bks.cpg/sg53_14_cif.got.tgz:26860.got - 2010.06.03 12:45:16.
