data_PCOD9416716
_publ_section_title
;
Structure prediction by ZEFSAII (Michael W. Deem and Ramdas Pophale) SiO2 
 PCOD9416716
Probable space group: P M N A
;
_chemical_formula_sum "Si O2"
_cell_formula_units_Z 56
_cell_length_a 9.187221
_cell_length_b 18.778454
_cell_length_c 18.628820
_cell_angle_alpha 90.000000
_cell_angle_beta 90.000000
_cell_angle_gamma 90.000000
_cell_volume 3213.877687
_symmetry_space_group_name_H-M "P M N A"
_symmetry_group_IT_number 53
_symmetry_cell_setting 'orthorhombic'
loop_
_space_group_symop_operation_xyz
x,y,z
1/2-x,-y,1/2+z
x,-y,-z
1/2-x,y,1/2-z
-x,-y,-z
1/2+x,y,1/2-z
-x,y,z
1/2+x,-y,1/2+z
loop_
_atom_site_type_symbol
_atom_site_label
_atom_site_fract_x
_atom_site_fract_y
_atom_site_fract_z
Si Si1 0.326103 0.574423 0.672875
Si Si2 0.832913 0.001617 0.087642
Si Si3 0.332246 0.856204 0.914214
Si Si4 0.172299 0.286668 0.076608
Si Si5 0.667376 0.860769 0.089289
Si Si6 0.825874 0.294935 0.575892
Si Si7 0.174492 0.567334 0.327365
O O1 0.250000 0.584609 0.750000
O O2 0.500000 0.563002 0.680613
O O3 0.303044 0.644427 0.625569
O O4 0.249154 0.503875 0.641159
O O5 0.742547 0.070861 0.110574
O O6 0.000000 0.008151 0.109289
O O7 0.764403 0.927095 0.112524
O O8 0.828673 0.000000 0.000000
O O9 0.500000 0.852821 0.892298
O O10 0.247132 0.784823 0.893304
O O11 0.328752 0.858265 0.001816
O O12 0.000000 0.274393 0.069815
O O13 0.241189 0.300799 0.998665
O O14 0.500000 0.873134 0.110372
O O15 0.713887 0.781234 0.111504
O O16 0.798864 0.363008 0.625064
O O17 0.000000 0.290789 0.561218
O O18 0.250000 0.576967 0.250000
O O19 0.000000 0.557647 0.320235
#
# Coordination Sequence:
#
# PCOD9416716 Si02
#       7
#     8   8   8   8   8   8   8
#     4  10  21  36  53  73  96 125 160 198 240 286
#     4   9  15  22  35  58  88 121 156 192 232 275
#     4   9  16  26  41  61  89 125 159 191 233 282
#     4  10  20  32  48  72 100 126 157 200 244 283
#     4   8  14  25  39  58  87 121 156 191 229 276
#     4   9  19  33  49  71  99 130 161 195 239 289
#     4  10  20  35  54  74  96 125 162 200 238 284
#
# _framework density 17.424434999999999
#
# number of rings (size 3 to 8) (size 9 to 14) (size 15 to 20)
#    0.000    2.714    0.000    3.857    0.000    9.143 
#    0.000    2.857    0.000    0.000    0.000    1.000 
#    0.000    4.571    0.000    0.000    0.000    0.000 
#
# Total GULP energy -312102.338122 kJ/mol
# GULP energy per Si atom -5573.256038 kJ/mol
# Density = 1.738478 g / cm^3
# Si number density = 17.424435 Si / 1000 Ang^3
#
#
#
# Elastic Constant Matrix: (Units=GPa)
#
#
# Indices 1 2 3 4 5 6 
#
# 1 122.9327 110.3828 32.0800 0.0000 0.0000 0.0000
# 2 110.3828 200.2905 43.1343 0.0000 0.0000 0.0000
# 3 32.0800 43.1343 17.5810 0.0000 0.0000 0.0000
# 4 0.0000 0.0000 0.0000 -10.8803 0.0000 0.0000
# 5 0.0000 0.0000 0.0000 0.0000 3.7180 0.0000
# 6 0.0000 0.0000 0.0000 0.0000 0.0000 33.7105
#
#
#
# Elastic Compliance Matrix: (Units=1/GPa)
#
#
# Indices 1 2 3 4 5 6 
#
# 1 0.018596 -0.006236 -0.018633 0.000000 0.000000 0.000000
# 2 -0.006236 0.012677 -0.019725 0.000000 0.000000 0.000000
# 3 -0.018633 -0.019725 0.139274 0.000000 0.000000 0.000000
# 4 0.000000 0.000000 0.000000 -0.091910 0.000000 0.000000
# 5 0.000000 0.000000 0.000000 0.000000 0.268959 0.000000
# 6 0.000000 0.000000 0.000000 0.000000 0.000000 0.029664
#
#
# Mechanical properties :
#
#
# Convention : Reuss Voigt Hill
#
# Bulk Modulus (GPa) = 12.29108 79.11093 45.70101
# Shear Modulus (GPa) = 10.13029 15.65680 12.89355
#
# Velocity S-wave (km/s) = 2.41381 3.00084 2.72319
# Velocity P-wave (km/s) = 3.85200 7.58338 6.01438
#
# Compressibility (1/GPa) = 0.08135979
#
# Stress axis : x y z
#
# Youngs Moduli (GPa) = 53.77447 78.88141 7.18009
#
# Poissons Ratio (x) = 0.49189 0.13379
# Poissons Ratio (y) = 0.33533 0.14163
# Poissons Ratio (z) = 1.00200 1.55592
#
# Static dielectric constant tensor:
#      x y z
#    x 1.584840 0.000000 0.000000 
#    y 0.000000 1.613340 0.000000 
#    z 0.000000 0.000000 1.565820 
# 
# From -- ./inp_files/31035.got.cif
#   From: 2010.05.17/outbox.cif.g08.bks.cpg/sg53_16_cif.got.tgz:31035.got - 2010.06.03 12:45:16.
