data_PCOD9416885
_publ_section_title
;
Structure prediction by ZEFSAII (Michael W. Deem and Ramdas Pophale) SiO2 
 PCOD9416885
Probable space group: P M N A
;
_chemical_formula_sum "Si O2"
_cell_formula_units_Z 48
_cell_length_a 19.345847
_cell_length_b 14.319296
_cell_length_c 7.178675
_cell_angle_alpha 90.000000
_cell_angle_beta 90.000000
_cell_angle_gamma 90.000000
_cell_volume 1988.628721
_symmetry_space_group_name_H-M "P M N A"
_symmetry_group_IT_number 53
_symmetry_cell_setting 'orthorhombic'
loop_
_space_group_symop_operation_xyz
x,y,z
1/2-x,-y,1/2+z
x,-y,-z
1/2-x,y,1/2-z
-x,-y,-z
1/2+x,y,1/2-z
-x,y,z
1/2+x,-y,1/2+z
loop_
_atom_site_type_symbol
_atom_site_label
_atom_site_fract_x
_atom_site_fract_y
_atom_site_fract_z
Si Si1 0.882968 0.887077 0.002359
Si Si2 0.924645 0.624119 0.708202
Si Si3 0.670058 0.464816 0.712204
Si Si4 0.078716 0.827588 0.579519
Si Si5 0.924469 0.697867 0.135803
Si Si6 0.228882 0.890580 0.534381
O O1 0.907379 0.862117 0.792377
O O2 0.802556 0.864815 0.055108
O O3 0.920934 0.810615 0.131307
O O4 0.891638 0.000000 0.000000
O O5 0.865619 0.549191 0.676419
O O6 0.922865 0.715799 0.582974
O O7 0.000000 0.578136 0.694946
O O8 0.919451 0.666553 0.917895
O O9 0.660985 0.500000 0.500000
O O10 0.750000 0.456380 0.750000
O O11 0.633029 0.365386 0.731740
O O12 0.152714 0.853293 0.487894
O O13 0.000000 0.859991 0.527142
O O14 0.000000 0.668909 0.202517
O O15 0.250000 0.871789 0.750000
O O16 0.222163 0.000000 0.500000
#
# Coordination Sequence:
#
# PCOD9416885 Si02
#       6
#     8   8   8   8   8   8
#     4   9  17  30  49  71  98 135 175 212 251 300
#     4   8  15  29  50  74  97 125 168 218 256 291
#     4  10  20  33  52  78 105 135 170 210 257 308
#     4   9  17  28  46  74 102 128 166 215 260 305
#     4   9  17  30  50  76 101 126 167 221 260 289
#     4   9  18  32  49  72 103 138 173 211 258 307
#
# _framework density 24.137233999999999
#
# number of rings (size 3 to 8) (size 9 to 14) (size 15 to 20)
#    0.000    3.000    0.000    2.000    0.000    8.333 
#    0.000    6.667    0.000    2.000    0.000    9.333 
#    0.000    0.000    0.000    0.000    0.000    0.000 
#
# Total GULP energy -267693.606672 kJ/mol
# GULP energy per Si atom -5576.950139 kJ/mol
# Density = 2.408230 g / cm^3
# Si number density = 24.137234 Si / 1000 Ang^3
#
#
#
# Elastic Constant Matrix: (Units=GPa)
#
#
# Indices 1 2 3 4 5 6 
#
# 1 227.1803 83.1881 9.2820 0.0000 0.0000 0.0000
# 2 83.1881 124.3160 14.1468 0.0000 0.0000 0.0000
# 3 9.2820 14.1468 52.3704 0.0000 0.0000 0.0000
# 4 0.0000 0.0000 0.0000 29.5172 0.0000 0.0000
# 5 0.0000 0.0000 0.0000 0.0000 31.5362 0.0000
# 6 0.0000 0.0000 0.0000 0.0000 0.0000 43.5916
#
#
#
# Elastic Compliance Matrix: (Units=1/GPa)
#
#
# Indices 1 2 3 4 5 6 
#
# 1 0.005830 -0.003904 0.000021 0.000000 0.000000 0.000000
# 2 -0.003904 0.010913 -0.002256 0.000000 0.000000 0.000000
# 3 0.000021 -0.002256 0.019700 0.000000 0.000000 0.000000
# 4 0.000000 0.000000 0.000000 0.033878 0.000000 0.000000
# 5 0.000000 0.000000 0.000000 0.000000 0.031710 0.000000
# 6 0.000000 0.000000 0.000000 0.000000 0.000000 0.022940
#
#
# Mechanical properties :
#
#
# Convention : Reuss Voigt Hill
#
# Bulk Modulus (GPa) = 41.37968 68.56669 54.97319
# Shear Modulus (GPa) = 34.41028 40.74566 37.57797
#
# Velocity S-wave (km/s) = 3.77982 4.11309 3.94997
# Velocity P-wave (km/s) = 6.01915 7.14320 6.60513
#
# Compressibility (1/GPa) = 0.02416645
#
# Stress axis : x y z
#
# Youngs Moduli (GPa) = 171.51301 91.63265 50.76032
#
# Poissons Ratio (x) = 0.35773 -0.00108
# Poissons Ratio (y) = 0.66958 0.11452
# Poissons Ratio (z) = -0.00364 0.20673
#
# Static dielectric constant tensor:
#      x y z
#    x 2.252020 0.000000 0.000000 
#    y 0.000000 1.858370 0.000000 
#    z 0.000000 0.000000 2.056870 
# 
# From -- ./inp_files/16994.got.cif
#   From: 2010.05.17/outbox.cif.g08.bks.cpg/sg53_9_cif.got.tgz:16994.got - 2010.06.03 12:45:16.
