data_PCOD9416131
_publ_section_title
;
Structure prediction by ZEFSAII (Michael W. Deem and Ramdas Pophale) SiO2 
 PCOD9416131
Probable space group: P M N A
;
_chemical_formula_sum "Si O2"
_cell_formula_units_Z 48
_cell_length_a 18.680140
_cell_length_b 13.755158
_cell_length_c 9.487441
_cell_angle_alpha 90.000000
_cell_angle_beta 90.000000
_cell_angle_gamma 90.000000
_cell_volume 2437.781620
_symmetry_space_group_name_H-M "P M N A"
_symmetry_group_IT_number 53
_symmetry_cell_setting 'orthorhombic'
loop_
_space_group_symop_operation_xyz
x,y,z
1/2-x,-y,1/2+z
x,-y,-z
1/2-x,y,1/2-z
-x,-y,-z
1/2+x,y,1/2-z
-x,y,z
1/2+x,-y,1/2+z
loop_
_atom_site_type_symbol
_atom_site_label
_atom_site_fract_x
_atom_site_fract_y
_atom_site_fract_z
Si Si1 0.165548 0.441000 0.276621
Si Si2 0.579225 0.153723 0.308100
Si Si3 0.774382 0.910097 0.906475
Si Si4 0.835982 0.341473 0.729410
Si Si5 0.155997 0.242632 0.451227
Si Si6 0.081570 0.355917 0.022404
O O1 0.250000 0.439934 0.250000
O O2 0.148771 0.549448 0.329117
O O3 0.153273 0.348074 0.375976
O O4 0.123396 0.426725 0.129507
O O5 0.500000 0.110547 0.308147
O O6 0.640450 0.098553 0.394144
O O7 0.606474 0.175123 0.148192
O O8 0.576890 0.257144 0.387031
O O9 0.750000 0.932171 0.750000
O O10 0.734304 0.809094 0.945290
O O11 0.751501 0.000000 0.000000
O O12 0.750000 0.332090 0.750000
O O13 0.861265 0.263050 0.614039
O O14 0.875025 0.336356 0.879492
O O15 0.000000 0.386811 0.991712
#
# Coordination Sequence:
#
# PCOD9416131 Si02
#       6
#     8   8   8   8   8   8
#     4  10  19  34  54  77 109 153 196 230 272 326
#     4   9  19  37  58  78 107 149 185 218 271 334
#     4  10  21  37  60  85 109 138 177 229 287 342
#     4  11  21  31  52  83 113 149 193 234 271 319
#     4  10  20  36  55  78 111 145 183 228 273 329
#     4  10  21  36  54  80 117 156 191 233 280 321
#
# _framework density 19.690031999999999
#
# number of rings (size 3 to 8) (size 9 to 14) (size 15 to 20)
#    0.000    2.000    0.000    5.500    0.000    7.000 
#    0.000    0.000    0.000   13.000    0.000    0.000 
#    0.000    0.000    0.000    0.000    0.000    0.000 
#
# Total GULP energy -267621.252357 kJ/mol
# GULP energy per Si atom -5575.442757 kJ/mol
# Density = 1.964522 g / cm^3
# Si number density = 19.690032 Si / 1000 Ang^3
#
#
#
# Elastic Constant Matrix: (Units=GPa)
#
#
# Indices 1 2 3 4 5 6 
#
# 1 124.3017 8.1702 43.2261 0.0000 0.0000 0.0000
# 2 8.1702 40.4809 36.5782 0.0000 0.0000 0.0000
# 3 43.2261 36.5782 116.9094 0.0000 0.0000 0.0000
# 4 0.0000 0.0000 0.0000 24.3815 0.0000 0.0000
# 5 0.0000 0.0000 0.0000 0.0000 10.4591 0.0000
# 6 0.0000 0.0000 0.0000 0.0000 0.0000 6.5638
#
#
#
# Elastic Compliance Matrix: (Units=1/GPa)
#
#
# Indices 1 2 3 4 5 6 
#
# 1 0.009317 0.001718 -0.003982 0.000000 0.000000 0.000000
# 2 0.001718 0.034756 -0.011510 0.000000 0.000000 0.000000
# 3 -0.003982 -0.011510 0.013627 0.000000 0.000000 0.000000
# 4 0.000000 0.000000 0.000000 0.041015 0.000000 0.000000
# 5 0.000000 0.000000 0.000000 0.000000 0.095611 0.000000
# 6 0.000000 0.000000 0.000000 0.000000 0.000000 0.152351
#
#
# Mechanical properties :
#
#
# Convention : Reuss Voigt Hill
#
# Bulk Modulus (GPa) = 33.16488 50.84899 42.00694
# Shear Modulus (GPa) = 13.01149 21.19538 17.10343
#
# Velocity S-wave (km/s) = 2.57342 3.28449 2.95046
# Velocity P-wave (km/s) = 5.07051 6.34544 5.74346
#
# Compressibility (1/GPa) = 0.03015237
#
# Stress axis : x y z
#
# Youngs Moduli (GPa) = 107.33191 28.77179 73.38283
#
# Poissons Ratio (x) = -0.04943 0.29224
# Poissons Ratio (y) = -0.18440 0.84461
# Poissons Ratio (z) = 0.42743 0.33115
#
# Static dielectric constant tensor:
#      x y z
#    x 1.721810 0.000000 0.000000 
#    y 0.000000 1.869640 0.000000 
#    z 0.000000 0.000000 1.746800 
# 
# From -- ./inp_files/9949.got.cif
#   From: 2010.05.17/outbox.cif.g08.bks.cpg/sg53_5_cif.got.tgz:9949.got - 2010.06.03 12:45:16.
