data_PCOD9416328
_publ_section_title
;
Structure prediction by ZEFSAII (Michael W. Deem and Ramdas Pophale) SiO2 
 PCOD9416328
Probable space group: P M N A
;
_chemical_formula_sum "Si O2"
_cell_formula_units_Z 64
_cell_length_a 15.098183
_cell_length_b 20.047789
_cell_length_c 10.094660
_cell_angle_alpha 90.000000
_cell_angle_beta 90.000000
_cell_angle_gamma 90.000000
_cell_volume 3055.504050
_symmetry_space_group_name_H-M "P M N A"
_symmetry_group_IT_number 53
_symmetry_cell_setting 'orthorhombic'
loop_
_space_group_symop_operation_xyz
x,y,z
1/2-x,-y,1/2+z
x,-y,-z
1/2-x,y,1/2-z
-x,-y,-z
1/2+x,y,1/2-z
-x,y,z
1/2+x,-y,1/2+z
loop_
_atom_site_type_symbol
_atom_site_label
_atom_site_fract_x
_atom_site_fract_y
_atom_site_fract_z
Si Si1 0.355630 0.794566 0.730590
Si Si2 0.108376 0.443230 0.102625
Si Si3 0.833879 0.919599 0.152235
Si Si4 0.608532 0.561389 0.907231
Si Si5 0.894050 0.697556 0.008049
Si Si6 0.838646 0.934620 0.838767
Si Si7 0.103284 0.708604 0.515766
Si Si8 0.606082 0.223563 0.753856
O O1 0.250000 0.797435 0.750000
O O2 0.376004 0.754896 0.597663
O O3 0.389428 0.870230 0.716563
O O4 0.392081 0.751791 0.851423
O O5 0.136107 0.450466 0.255134
O O6 0.000000 0.443535 0.104125
O O7 0.136391 0.500000 0.000000
O O8 0.139518 0.372165 0.047436
O O9 0.750000 0.923227 0.250000
O O10 0.876529 0.850604 0.199573
O O11 0.881478 0.991802 0.169424
O O12 0.815605 0.918756 0.993492
O O13 0.500000 0.562916 0.907084
O O14 0.639756 0.634247 0.957950
O O15 0.635579 0.500000 0.000000
O O16 0.859578 0.722599 0.148305
O O17 0.000000 0.690100 0.020352
O O18 0.750000 0.938485 0.750000
O O19 0.141550 0.754030 0.397288
O O20 0.000000 0.697267 0.484241
O O21 0.500000 0.227923 0.758476
#
# Coordination Sequence:
#
# PCOD9416328 Si02
#       8
#     8   8   8   8   8   8   8   8
#     4  11  21  35  57  82 104 137 186 225 261 319
#     4   9  17  28  48  77 105 135 175 221 263 308
#     4  10  20  37  59  79 108 141 180 227 267 316
#     4   9  17  29  48  75 105 137 177 219 262 311
#     4  10  19  35  54  78 112 143 176 221 273 320
#     4   9  20  36  55  84 104 138 184 225 271 308
#     4  10  21  37  54  78 112 146 176 219 274 322
#     4  10  22  35  52  80 114 144 174 218 277 328
#
# _framework density 20.945806999999999
#
# number of rings (size 3 to 8) (size 9 to 14) (size 15 to 20)
#    0.000    2.250    2.500    0.375    5.250    0.000 
#    0.000    2.500    0.000    2.250    0.000    0.000 
#    0.000    0.000    0.000    0.000    0.000    0.000 
#
# Total GULP energy -356839.209881 kJ/mol
# GULP energy per Si atom -5575.612654 kJ/mol
# Density = 2.089813 g / cm^3
# Si number density = 20.945807 Si / 1000 Ang^3
#
#
#
# Elastic Constant Matrix: (Units=GPa)
#
#
# Indices 1 2 3 4 5 6 
#
# 1 38.3138 6.8149 4.7999 0.0000 0.0000 0.0000
# 2 6.8149 182.8588 61.8935 0.0000 0.0000 0.0000
# 3 4.7999 61.8935 104.1544 0.0000 0.0000 0.0000
# 4 0.0000 0.0000 0.0000 42.5521 0.0000 0.0000
# 5 0.0000 0.0000 0.0000 0.0000 2.7837 0.0000
# 6 0.0000 0.0000 0.0000 0.0000 0.0000 16.0504
#
#
#
# Elastic Compliance Matrix: (Units=1/GPa)
#
#
# Indices 1 2 3 4 5 6 
#
# 1 0.026326 -0.000714 -0.000789 0.000000 0.000000 0.000000
# 2 -0.000714 0.006865 -0.004047 0.000000 0.000000 0.000000
# 3 -0.000789 -0.004047 0.012042 0.000000 0.000000 0.000000
# 4 0.000000 0.000000 0.000000 0.023501 0.000000 0.000000
# 5 0.000000 0.000000 0.000000 0.000000 0.359236 0.000000
# 6 0.000000 0.000000 0.000000 0.000000 0.000000 0.062304
#
#
# Mechanical properties :
#
#
# Convention : Reuss Voigt Hill
#
# Bulk Modulus (GPa) = 29.29619 52.48262 40.88940
# Shear Modulus (GPa) = 9.75132 29.06514 19.40823
#
# Velocity S-wave (km/s) = 2.16000 3.72914 3.04730
# Velocity P-wave (km/s) = 4.49865 6.60702 5.65202
#
# Compressibility (1/GPa) = 0.03413413
#
# Stress axis : x y z
#
# Youngs Moduli (GPa) = 37.98506 145.66652 83.04154
#
# Poissons Ratio (x) = 0.10403 0.06551
# Poissons Ratio (y) = 0.02713 0.33604
# Poissons Ratio (z) = 0.02996 0.58945
#
# Static dielectric constant tensor:
#      x y z
#    x 1.714110 0.000000 0.000000 
#    y 0.000000 1.775640 0.000000 
#    z 0.000000 0.000000 1.731930 
# 
# From -- ./inp_files/11188.got.cif
#   From: 2010.05.17/outbox.cif.g08.bks.cpg/sg53_6_cif.got.tgz:11188.got - 2010.06.03 12:45:16.
