data_PCOD9416001
_publ_section_title
;
Structure prediction by ZEFSAII (Michael W. Deem and Ramdas Pophale) SiO2 
 PCOD9416001
Probable space group: P M N A
;
_chemical_formula_sum "Si O2"
_cell_formula_units_Z 40
_cell_length_a 15.315776
_cell_length_b 13.056510
_cell_length_c 8.218228
_cell_angle_alpha 90.000000
_cell_angle_beta 90.000000
_cell_angle_gamma 90.000000
_cell_volume 1643.403840
_symmetry_space_group_name_H-M "P M N A"
_symmetry_group_IT_number 53
_symmetry_cell_setting 'orthorhombic'
loop_
_space_group_symop_operation_xyz
x,y,z
1/2-x,-y,1/2+z
x,-y,-z
1/2-x,y,1/2-z
-x,-y,-z
1/2+x,y,1/2-z
-x,y,z
1/2+x,-y,1/2+z
loop_
_atom_site_type_symbol
_atom_site_label
_atom_site_fract_x
_atom_site_fract_y
_atom_site_fract_z
Si Si1 0.096724 0.944571 0.153108
Si Si2 0.393574 0.721479 0.302060
Si Si3 0.393611 0.597640 0.608512
Si Si4 0.393711 0.318332 0.045622
Si Si5 0.171438 0.908441 0.623183
O O1 0.137502 0.839026 0.213466
O O2 0.000000 0.912254 0.102414
O O3 0.094057 0.033287 0.283561
O O4 0.136510 0.000000 0.000000
O O5 0.500000 0.713585 0.296603
O O6 0.367952 0.688083 0.483787
O O7 0.365557 0.657048 0.141562
O O8 0.366019 0.500000 0.500000
O O9 0.500000 0.592813 0.617626
O O10 0.364057 0.617133 0.794862
O O11 0.500000 0.321163 0.048485
O O12 0.361486 0.201828 0.068029
O O13 0.250000 0.893418 0.750000
O O14 0.193592 0.000000 0.500000
#
# Coordination Sequence:
#
# PCOD9416001 Si02
#       5
#     8   8   8   8   8
#     4  10  19  33  55  80 111 151 191 231 275 335
#     4   9  17  30  51  80 111 146 185 223 276 339
#     4   9  18  32  53  86 120 143 175 233 293 340
#     4  10  20  36  59  84 112 150 192 234 285 346
#     4  12  24  37  53  80 116 152 193 235 286 342
#
# _framework density 24.339727
#
# number of rings (size 3 to 8) (size 9 to 14) (size 15 to 20)
#    0.000    2.000    2.000    2.400    0.000    4.800 
#    0.000    4.000    0.000    0.000    5.200    0.000 
#    0.000    0.000    0.000    0.000    0.000    0.000 
#
# Total GULP energy -222767.849936 kJ/mol
# GULP energy per Si atom -5569.196248 kJ/mol
# Density = 2.428433 g / cm^3
# Si number density = 24.339727 Si / 1000 Ang^3
#
#
#
# Elastic Constant Matrix: (Units=GPa)
#
#
# Indices 1 2 3 4 5 6 
#
# 1 38.5879 -9.1042 12.2180 0.0000 0.0000 0.0000
# 2 -9.1042 51.5360 8.0548 0.0000 0.0000 0.0000
# 3 12.2180 8.0548 148.9970 0.0000 0.0000 0.0000
# 4 0.0000 0.0000 0.0000 39.2721 0.0000 0.0000
# 5 0.0000 0.0000 0.0000 0.0000 13.0597 0.0000
# 6 0.0000 0.0000 0.0000 0.0000 0.0000 3.0407
#
#
#
# Elastic Compliance Matrix: (Units=1/GPa)
#
#
# Indices 1 2 3 4 5 6 
#
# 1 0.027995 0.005350 -0.002585 0.000000 0.000000 0.000000
# 2 0.005350 0.020591 -0.001552 0.000000 0.000000 0.000000
# 3 -0.002585 -0.001552 0.007007 0.000000 0.000000 0.000000
# 4 0.000000 0.000000 0.000000 0.025463 0.000000 0.000000
# 5 0.000000 0.000000 0.000000 0.000000 0.076571 0.000000
# 6 0.000000 0.000000 0.000000 0.000000 0.000000 0.328868
#
#
# Mechanical properties :
#
#
# Convention : Reuss Voigt Hill
#
# Bulk Modulus (GPa) = 17.23542 29.05089 23.14315
# Shear Modulus (GPa) = 9.93223 26.27132 18.10178
#
# Velocity S-wave (km/s) = 2.02226 3.28893 2.73007
# Velocity P-wave (km/s) = 3.54249 5.13656 4.41211
#
# Compressibility (1/GPa) = 0.05802006
#
# Stress axis : x y z
#
# Youngs Moduli (GPa) = 35.72013 48.56373 142.70631
#
# Poissons Ratio (x) = -0.25980 0.36888
# Poissons Ratio (y) = -0.19109 0.22146
# Poissons Ratio (z) = 0.09233 0.07536
#
# Static dielectric constant tensor:
#      x y z
#    x 1.907860 0.000000 0.000000 
#    y 0.000000 1.967530 0.000000 
#    z 0.000000 0.000000 2.072730 
# 
# From -- ./inp_files/9672.got.cif
#   From: 2010.05.17/outbox.cif.g08.bks.cpg/sg53_5_cif.got.tgz:9672.got - 2010.06.03 12:45:16.
