data_PCOD9416927
_publ_section_title
;
Structure prediction by ZEFSAII (Michael W. Deem and Ramdas Pophale) SiO2 
 PCOD9416927
Probable space group: P M N A
;
_chemical_formula_sum "Si O2"
_cell_formula_units_Z 64
_cell_length_a 7.777646
_cell_length_b 17.913616
_cell_length_c 20.824803
_cell_angle_alpha 90.000000
_cell_angle_beta 90.000000
_cell_angle_gamma 90.000000
_cell_volume 2901.431585
_symmetry_space_group_name_H-M "P M N A"
_symmetry_group_IT_number 53
_symmetry_cell_setting 'orthorhombic'
loop_
_space_group_symop_operation_xyz
x,y,z
1/2-x,-y,1/2+z
x,-y,-z
1/2-x,y,1/2-z
-x,-y,-z
1/2+x,y,1/2-z
-x,y,z
1/2+x,-y,1/2+z
loop_
_atom_site_type_symbol
_atom_site_label
_atom_site_fract_x
_atom_site_fract_y
_atom_site_fract_z
Si Si1 0.704969 0.437003 0.316580
Si Si2 0.209778 0.921927 0.965261
Si Si3 0.802251 0.720017 0.647760
Si Si4 0.704297 0.669115 0.992082
Si Si5 0.694372 0.117328 0.322811
Si Si6 0.707241 0.293059 0.675632
Si Si7 0.305827 0.193245 0.570444
Si Si8 0.792673 0.436313 0.906924
O O1 0.750000 0.477692 0.250000
O O2 0.500000 0.427177 0.321275
O O3 0.792329 0.356488 0.313680
O O4 0.768281 0.486387 0.376219
O O5 0.273735 0.911003 0.891458
O O6 0.000000 0.913808 0.962032
O O7 0.274444 0.860074 0.016405
O O8 0.247889 0.000000 0.000000
O O9 0.738953 0.690619 0.578915
O O10 0.703575 0.792267 0.672376
O O11 0.000000 0.744468 0.643442
O O12 0.500000 0.683035 0.996441
O O13 0.807318 0.726561 0.036114
O O14 0.738752 0.588246 0.021962
O O15 0.750000 0.097347 0.250000
O O16 0.500000 0.090933 0.325933
O O17 0.750000 0.293470 0.750000
O O18 0.500000 0.291719 0.669266
O O19 0.773495 0.218559 0.638362
O O20 0.767818 0.368958 0.640323
O O21 0.500000 0.164771 0.582036
O O22 0.000000 0.438600 0.905364
#
# Coordination Sequence:
#
# PCOD9416927 Si02
#       8
#     8   8   8   8   8   8   8   8
#     4  11  23  38  55  76 105 145 191 240 295 349
#     4   9  18  35  62  91 114 147 192 230 272 334
#     4  11  23  38  56  81 114 148 189 239 290 345
#     4  10  20  33  54  81 108 141 182 233 286 337
#     4  11  22  38  63  90 119 155 193 238 285 337
#     4   9  17  29  48  74 104 139 180 229 277 328
#     4   9  17  33  55  79 109 143 186 232 274 331
#     4   9  20  36  53  74 104 144 188 235 288 345
#
# _framework density 22.058076
#
# number of rings (size 3 to 8) (size 9 to 14) (size 15 to 20)
#    0.000    2.125    1.250    3.000    0.000    5.000 
#    0.000    3.125    0.000    3.375    0.000    0.000 
#    0.000    0.000    0.000    0.000    0.000    0.000 
#
# Total GULP energy -356722.342717 kJ/mol
# GULP energy per Si atom -5573.786605 kJ/mol
# Density = 2.200787 g / cm^3
# Si number density = 22.058076 Si / 1000 Ang^3
#
#
#
# Elastic Constant Matrix: (Units=GPa)
#
#
# Indices 1 2 3 4 5 6 
#
# 1 37.2582 -2.4680 -0.2688 0.0000 0.0000 0.0000
# 2 -2.4680 70.9398 31.3505 0.0000 0.0000 0.0000
# 3 -0.2688 31.3505 138.8941 0.0000 0.0000 0.0000
# 4 0.0000 0.0000 0.0000 15.2248 0.0000 0.0000
# 5 0.0000 0.0000 0.0000 0.0000 20.9504 0.0000
# 6 0.0000 0.0000 0.0000 0.0000 0.0000 2.8486
#
#
#
# Elastic Compliance Matrix: (Units=1/GPa)
#
#
# Indices 1 2 3 4 5 6 
#
# 1 0.026906 0.001014 -0.000177 0.000000 0.000000 0.000000
# 2 0.001014 0.015697 -0.003541 0.000000 0.000000 0.000000
# 3 -0.000177 -0.003541 0.007999 0.000000 0.000000 0.000000
# 4 0.000000 0.000000 0.000000 0.065682 0.000000 0.000000
# 5 0.000000 0.000000 0.000000 0.000000 0.047732 0.000000
# 6 0.000000 0.000000 0.000000 0.000000 0.000000 0.351051
#
#
# Mechanical properties :
#
#
# Convention : Reuss Voigt Hill
#
# Bulk Modulus (GPa) = 22.12702 33.81328 27.97015
# Shear Modulus (GPa) = 9.33641 22.36997 15.85319
#
# Velocity S-wave (km/s) = 2.05957 3.18801 2.68377
# Velocity P-wave (km/s) = 3.96344 5.37715 4.72348
#
# Compressibility (1/GPa) = 0.04519361
#
# Stress axis : x y z
#
# Youngs Moduli (GPa) = 37.16695 63.70795 125.02110
#
# Poissons Ratio (x) = -0.06461 0.02211
# Poissons Ratio (y) = -0.03770 0.44270
# Poissons Ratio (z) = 0.00657 0.22559
#
# Static dielectric constant tensor:
#      x y z
#    x 1.840840 0.000000 0.000000 
#    y 0.000000 1.815580 0.000000 
#    z 0.000000 0.000000 1.924470 
# 
# From -- ./inp_files/31160.got.cif
#   From: 2010.05.17/outbox.cif.g08.bks.cpg/sg53_16_cif.got.tgz:31160.got - 2010.06.03 12:45:16.
