data_PCOD9416910
_publ_section_title
;
Structure prediction by ZEFSAII (Michael W. Deem and Ramdas Pophale) SiO2 
 PCOD9416910
Probable space group: P M N A
;
_chemical_formula_sum "Si O2"
_cell_formula_units_Z 64
_cell_length_a 7.678613
_cell_length_b 21.173763
_cell_length_c 18.455578
_cell_angle_alpha 90.000000
_cell_angle_beta 90.000000
_cell_angle_gamma 90.000000
_cell_volume 3000.602582
_symmetry_space_group_name_H-M "P M N A"
_symmetry_group_IT_number 53
_symmetry_cell_setting 'orthorhombic'
loop_
_space_group_symop_operation_xyz
x,y,z
1/2-x,-y,1/2+z
x,-y,-z
1/2-x,y,1/2-z
-x,-y,-z
1/2+x,y,1/2-z
-x,y,z
1/2+x,-y,1/2+z
loop_
_atom_site_type_symbol
_atom_site_label
_atom_site_fract_x
_atom_site_fract_y
_atom_site_fract_z
Si Si1 0.198812 0.831847 0.066967
Si Si2 0.291649 0.915014 0.665865
Si Si3 0.286667 0.467047 0.076005
Si Si4 0.295459 0.655253 0.836278
Si Si5 0.208455 0.719949 0.334947
Si Si6 0.289018 0.788406 0.587879
Si Si7 0.710540 0.055553 0.664695
Si Si8 0.792062 0.584382 0.334008
O O1 0.200603 0.777226 0.126215
O O2 0.278253 0.892432 0.107916
O O3 0.000000 0.850009 0.047860
O O4 0.273580 0.799603 0.994607
O O5 0.250000 0.908894 0.750000
O O6 0.500000 0.916089 0.655407
O O7 0.226368 0.852090 0.627548
O O8 0.226873 0.984919 0.644839
O O9 0.500000 0.463340 0.072105
O O10 0.224250 0.399912 0.109375
O O11 0.227420 0.520241 0.132425
O O12 0.233318 0.500000 0.000000
O O13 0.250000 0.651795 0.750000
O O14 0.500000 0.645260 0.836823
O O15 0.261635 0.724184 0.871069
O O16 0.250000 0.721600 0.250000
O O17 0.269028 0.651690 0.364713
O O18 0.000000 0.725500 0.344428
O O19 0.500000 0.787030 0.588275
O O20 0.750000 0.068301 0.750000
O O21 0.500000 0.056326 0.660652
O O22 0.750000 0.584849 0.250000
O O23 0.000000 0.584551 0.343506
#
# Coordination Sequence:
#
# PCOD9416910 Si02
#       8
#     8   8   8   8   8   8   8   8
#     4  10  21  35  52  77 112 147 181 229 279 327
#     4   9  18  34  56  79 104 139 183 229 275 329
#     4   9  19  35  57  83 110 141 179 224 271 323
#     4  11  23  39  63  87 113 149 189 233 277 330
#     4  10  20  33  53  78 106 142 183 223 268 328
#     4  10  22  38  56  81 114 148 185 232 282 329
#     4   9  18  33  54  79 106 141 185 227 274 329
#     4   9  18  33  54  77 102 136 176 220 263 315
#
# _framework density 21.329049999999999
#
# number of rings (size 3 to 8) (size 9 to 14) (size 15 to 20)
#    0.000    2.375    0.000    1.875    1.750    4.500 
#    0.000    3.125    0.000    1.875    0.000    5.250 
#    0.000    0.000    0.000    0.000    0.000    0.000 
#
# Total GULP energy -356628.977555 kJ/mol
# GULP energy per Si atom -5572.327774 kJ/mol
# Density = 2.128050 g / cm^3
# Si number density = 21.329050 Si / 1000 Ang^3
#
#
#
# Elastic Constant Matrix: (Units=GPa)
#
#
# Indices 1 2 3 4 5 6 
#
# 1 41.8762 4.0518 1.5809 0.0000 0.0000 0.0000
# 2 4.0518 192.7291 101.8836 0.0000 0.0000 0.0000
# 3 1.5809 101.8836 113.5285 0.0000 0.0000 0.0000
# 4 0.0000 0.0000 0.0000 106.2585 0.0000 0.0000
# 5 0.0000 0.0000 0.0000 0.0000 10.1656 0.0000
# 6 0.0000 0.0000 0.0000 0.0000 0.0000 38.1580
#
#
#
# Elastic Compliance Matrix: (Units=1/GPa)
#
#
# Indices 1 2 3 4 5 6 
#
# 1 0.023932 -0.000622 0.000225 0.000000 0.000000 0.000000
# 2 -0.000622 0.009888 -0.008865 0.000000 0.000000 0.000000
# 3 0.000225 -0.008865 0.016761 0.000000 0.000000 0.000000
# 4 0.000000 0.000000 0.000000 0.009411 0.000000 0.000000
# 5 0.000000 0.000000 0.000000 0.000000 0.098371 0.000000
# 6 0.000000 0.000000 0.000000 0.000000 0.000000 0.026207
#
#
# Mechanical properties :
#
#
# Convention : Reuss Voigt Hill
#
# Bulk Modulus (GPa) = 31.19509 62.57404 46.88456
# Shear Modulus (GPa) = 23.38856 46.95759 35.17307
#
# Velocity S-wave (km/s) = 3.31503 4.69719 4.06528
# Velocity P-wave (km/s) = 5.41386 7.66937 6.63812
#
# Compressibility (1/GPa) = 0.03205633
#
# Stress axis : x y z
#
# Youngs Moduli (GPa) = 41.78572 101.13033 59.66164
#
# Poissons Ratio (x) = 0.06291 -0.01343
# Poissons Ratio (y) = 0.02599 0.52892
# Poissons Ratio (z) = -0.00940 0.89655
#
# Static dielectric constant tensor:
#      x y z
#    x 1.795230 0.000000 0.000000 
#    y 0.000000 1.803980 0.000000 
#    z 0.000000 0.000000 1.777100 
# 
# From -- ./inp_files/27020.got.cif
#   From: 2010.05.17/outbox.cif.g08.bks.cpg/sg53_14_cif.got.tgz:27020.got - 2010.06.03 12:45:16.
