data_PCOD9416651
_publ_section_title
;
Structure prediction by ZEFSAII (Michael W. Deem and Ramdas Pophale) SiO2 
 PCOD9416651
Probable space group: P M N A
;
_chemical_formula_sum "Si O2"
_cell_formula_units_Z 48
_cell_length_a 17.163134
_cell_length_b 12.076503
_cell_length_c 10.931610
_cell_angle_alpha 90.000000
_cell_angle_beta 90.000000
_cell_angle_gamma 90.000000
_cell_volume 2265.801793
_symmetry_space_group_name_H-M "P M N A"
_symmetry_group_IT_number 53
_symmetry_cell_setting 'orthorhombic'
loop_
_space_group_symop_operation_xyz
x,y,z
1/2-x,-y,1/2+z
x,-y,-z
1/2-x,y,1/2-z
-x,-y,-z
1/2+x,y,1/2-z
-x,y,z
1/2+x,-y,1/2+z
loop_
_atom_site_type_symbol
_atom_site_label
_atom_site_fract_x
_atom_site_fract_y
_atom_site_fract_z
Si Si1 0.169684 0.197536 0.084442
Si Si2 0.591564 0.934276 0.801093
Si Si3 0.409391 0.855515 0.344009
Si Si4 0.148578 0.759016 0.539718
Si Si5 0.844753 0.394001 0.237786
Si Si6 0.842899 0.647013 0.277322
O O1 0.147090 0.131000 0.206270
O O2 0.260567 0.212426 0.058902
O O3 0.137966 0.321890 0.116167
O O4 0.134637 0.130882 0.971395
O O5 0.500000 0.918175 0.771587
O O6 0.605469 0.875224 0.931635
O O7 0.610897 0.061445 0.767638
O O8 0.500000 0.869130 0.367809
O O9 0.388163 0.731783 0.307314
O O10 0.123320 0.674045 0.646559
O O11 0.141141 0.693103 0.413446
O O12 0.750000 0.392705 0.250000
O O13 0.867452 0.521446 0.249373
O O14 0.750000 0.655498 0.250000
#
# Coordination Sequence:
#
# PCOD9416651 Si02
#       6
#     8   8   8   8   8   8
#     4  10  19  39  62  91 117 151 206 258 301 365
#     4  10  22  40  61  84 118 163 202 248 311 372
#     4  11  24  40  58  86 125 164 198 244 313 370
#     4  10  20  38  62  90 117 153 209 256 301 362
#     4   8  18  34  61  88 118 152 195 249 308 363
#     4  11  21  37  58  88 122 160 200 249 304 363
#
# _framework density 21.184555
#
# number of rings (size 3 to 8) (size 9 to 14) (size 15 to 20)
#    0.000    2.000    1.667    3.000    0.000    4.667 
#    3.000    6.667    0.000    5.000    0.000    0.000 
#    0.000    0.000    0.000    0.000    0.000    0.000 
#
# Total GULP energy -267602.359870 kJ/mol
# GULP energy per Si atom -5575.049164 kJ/mol
# Density = 2.113634 g / cm^3
# Si number density = 21.184555 Si / 1000 Ang^3
#
#
#
# Elastic Constant Matrix: (Units=GPa)
#
#
# Indices 1 2 3 4 5 6 
#
# 1 23.1252 17.0214 0.5731 0.0000 0.0000 0.0000
# 2 17.0214 144.9725 26.3427 0.0000 0.0000 0.0000
# 3 0.5731 26.3427 70.9792 0.0000 0.0000 0.0000
# 4 0.0000 0.0000 0.0000 29.5043 0.0000 0.0000
# 5 0.0000 0.0000 0.0000 0.0000 19.0666 0.0000
# 6 0.0000 0.0000 0.0000 0.0000 0.0000 57.4402
#
#
#
# Elastic Compliance Matrix: (Units=1/GPa)
#
#
# Indices 1 2 3 4 5 6 
#
# 1 0.047549 -0.005912 0.001810 0.000000 0.000000 0.000000
# 2 -0.005912 0.008132 -0.002970 0.000000 0.000000 0.000000
# 3 0.001810 -0.002970 0.015176 0.000000 0.000000 0.000000
# 4 0.000000 0.000000 0.000000 0.033893 0.000000 0.000000
# 5 0.000000 0.000000 0.000000 0.000000 0.052448 0.000000
# 6 0.000000 0.000000 0.000000 0.000000 0.000000 0.017409
#
#
# Mechanical properties :
#
#
# Convention : Reuss Voigt Hill
#
# Bulk Modulus (GPa) = 17.63240 36.32790 26.98015
# Shear Modulus (GPa) = 24.07827 34.21154 29.14491
#
# Velocity S-wave (km/s) = 3.37500 4.02298 3.71315
# Velocity P-wave (km/s) = 4.85065 6.22613 5.58093
#
# Compressibility (1/GPa) = 0.05671377
#
# Stress axis : x y z
#
# Youngs Moduli (GPa) = 21.03078 122.97596 65.89193
#
# Poissons Ratio (x) = 0.72700 -0.11927
# Poissons Ratio (y) = 0.12433 0.19571
# Poissons Ratio (z) = -0.03807 0.36526
#
# Static dielectric constant tensor:
#      x y z
#    x 1.739540 0.000000 0.000000 
#    y 0.000000 1.791040 0.000000 
#    z 0.000000 0.000000 1.776930 
# 
# From -- ./inp_files/16912.got.cif
#   From: 2010.05.17/outbox.cif.g08.bks.cpg/sg53_9_cif.got.tgz:16912.got - 2010.06.03 12:45:16.
