data_PCOD9416315
_publ_section_title
;
Structure prediction by ZEFSAII (Michael W. Deem and Ramdas Pophale) SiO2 
 PCOD9416315
Probable space group: P M N A
;
_chemical_formula_sum "Si O2"
_cell_formula_units_Z 24
_cell_length_a 7.620866
_cell_length_b 10.373505
_cell_length_c 17.576761
_cell_angle_alpha 90.000000
_cell_angle_beta 90.000000
_cell_angle_gamma 90.000000
_cell_volume 1389.532450
_symmetry_space_group_name_H-M "P M N A"
_symmetry_group_IT_number 53
_symmetry_cell_setting 'orthorhombic'
loop_
_space_group_symop_operation_xyz
x,y,z
1/2-x,-y,1/2+z
x,-y,-z
1/2-x,y,1/2-z
-x,-y,-z
1/2+x,y,1/2-z
-x,y,z
1/2+x,-y,1/2+z
loop_
_atom_site_type_symbol
_atom_site_label
_atom_site_fract_x
_atom_site_fract_y
_atom_site_fract_z
Si Si1 0.500000 0.622974 0.444918
Si Si2 0.794417 0.474505 0.661893
Si Si3 0.000000 0.872742 0.949357
Si Si4 0.793643 0.780364 0.661478
O O1 0.500000 0.500000 0.500000
O O2 0.670575 0.608422 0.391871
O O3 0.500000 0.751150 0.494058
O O4 0.750000 0.449077 0.750000
O O5 0.757410 0.627207 0.649134
O O6 0.000000 0.452860 0.648180
O O7 0.831074 0.859182 0.894471
O O8 0.000000 0.000000 0.000000
O O9 0.750000 0.806590 0.750000
O O10 0.000000 0.802202 0.648562
#
# Coordination Sequence:
#
# PCOD9416315 Si02
#       4
#     4   8   4   8
#     4  12  22  38  60  92 124 149 196 257 311 339
#     4  10  19  34  63  94 120 155 201 248 301 362
#     4  12  26  42  58  92 128 160 200 257 302 349
#     4  10  19  36  66  92 114 156 209 245 293 366
#
# _framework density 17.271998
#
# number of rings (size 3 to 8) (size 9 to 14) (size 15 to 20)
#    0.000    1.333    6.667    0.000    0.000    2.667 
#    0.000    1.667    0.000    0.000    0.000    0.000 
#    0.000    0.000    0.000    0.000    0.000    0.000 
#
# Total GULP energy -134064.169828 kJ/mol
# GULP energy per Si atom -5586.007076 kJ/mol
# Density = 1.723269 g / cm^3
# Si number density = 17.271998 Si / 1000 Ang^3
#
#
#
# Elastic Constant Matrix: (Units=GPa)
#
#
# Indices 1 2 3 4 5 6 
#
# 1 128.1082 48.5466 77.5575 0.0000 0.0000 0.0000
# 2 48.5466 88.8759 68.7926 0.0000 0.0000 0.0000
# 3 77.5575 68.7926 123.5360 0.0000 0.0000 0.0000
# 4 0.0000 0.0000 0.0000 31.3139 0.0000 0.0000
# 5 0.0000 0.0000 0.0000 0.0000 40.2515 0.0000
# 6 0.0000 0.0000 0.0000 0.0000 0.0000 15.1185
#
#
#
# Elastic Compliance Matrix: (Units=1/GPa)
#
#
# Indices 1 2 3 4 5 6 
#
# 1 0.012682 -0.001344 -0.007214 0.000000 0.000000 0.000000
# 2 -0.001344 0.019918 -0.010248 0.000000 0.000000 0.000000
# 3 -0.007214 -0.010248 0.018330 0.000000 0.000000 0.000000
# 4 0.000000 0.000000 0.000000 0.031935 0.000000 0.000000
# 5 0.000000 0.000000 0.000000 0.000000 0.024844 0.000000
# 6 0.000000 0.000000 0.000000 0.000000 0.000000 0.066144
#
#
# Mechanical properties :
#
#
# Convention : Reuss Voigt Hill
#
# Bulk Modulus (GPa) = 75.07703 81.14593 78.11148
# Shear Modulus (GPa) = 23.15841 27.04500 25.10171
#
# Velocity S-wave (km/s) = 3.66568 3.96135 3.81638
# Velocity P-wave (km/s) = 7.84080 8.24659 8.04625
#
# Compressibility (1/GPa) = 0.01331965
#
# Stress axis : x y z
#
# Youngs Moduli (GPa) = 78.84897 50.20640 54.55401
#
# Poissons Ratio (x) = 0.06746 0.39355
# Poissons Ratio (y) = 0.10595 0.55906
# Poissons Ratio (z) = 0.56881 0.51451
#
# Static dielectric constant tensor:
#      x y z
#    x 1.575190 0.000000 0.000000 
#    y 0.000000 1.551040 0.000000 
#    z 0.000000 0.000000 1.578410 
# 
# From -- ./inp_files/19340.got.cif
#   From: 2010.05.17/outbox.cif.g08.bks.cpg/sg53_10_cif.got.tgz:19340.got - 2010.06.03 12:45:16.
