data_PCOD9416449
_publ_section_title
;
Structure prediction by ZEFSAII (Michael W. Deem and Ramdas Pophale) SiO2 
 PCOD9416449
Probable space group: P M N A
;
_chemical_formula_sum "Si O2"
_cell_formula_units_Z 48
_cell_length_a 10.296917
_cell_length_b 15.366368
_cell_length_c 17.547868
_cell_angle_alpha 90.000000
_cell_angle_beta 90.000000
_cell_angle_gamma 90.000000
_cell_volume 2776.532751
_symmetry_space_group_name_H-M "P M N A"
_symmetry_group_IT_number 53
_symmetry_cell_setting 'orthorhombic'
loop_
_space_group_symop_operation_xyz
x,y,z
1/2-x,-y,1/2+z
x,-y,-z
1/2-x,y,1/2-z
-x,-y,-z
1/2+x,y,1/2-z
-x,y,z
1/2+x,-y,1/2+z
loop_
_atom_site_type_symbol
_atom_site_label
_atom_site_fract_x
_atom_site_fract_y
_atom_site_fract_z
Si Si1 0.500000 0.295585 0.339665
Si Si2 0.000000 0.400010 0.481464
Si Si3 0.253055 0.194565 0.116522
Si Si4 0.153361 0.989242 0.588817
Si Si5 0.756227 0.707287 0.459474
Si Si6 0.000000 0.304006 0.329756
Si Si7 0.500000 0.605082 0.501387
Si Si8 0.344274 0.828274 0.177057
O O1 0.375042 0.234392 0.347189
O O2 0.500000 0.336956 0.256316
O O3 0.500000 0.362335 0.410352
O O4 0.000000 0.500000 0.500000
O O5 0.874410 0.354270 0.516529
O O6 0.000000 0.380498 0.391525
O O7 0.269397 0.091681 0.123645
O O8 0.375342 0.244294 0.152721
O O9 0.248215 0.220660 0.026925
O O10 0.000000 0.965635 0.589773
O O11 0.189666 0.000000 0.500000
O O12 0.168928 0.078734 0.634289
O O13 0.626062 0.649455 0.462618
O O14 0.792587 0.755155 0.381531
O O15 0.500000 0.500000 0.500000
O O16 0.250000 0.827676 0.250000
O O17 0.500000 0.816179 0.192839
#
# Coordination Sequence:
#
# PCOD9416449 Si02
#       8
#     4   4   8   8   8   4   4   8
#     4  10  22  36  54  88 123 145 190 247 300 349
#     4  10  20  36  63  91 112 144 204 252 292 358
#     4  10  19  36  58  84 111 158 195 234 292 356
#     4  10  19  35  62  84 113 154 203 244 284 347
#     4  10  20  38  62  85 115 154 200 242 294 368
#     4  10  20  34  58  82 117 149 190 243 300 351
#     4  10  22  40  63  87 120 160 194 236 306 378
#     4  11  24  40  59  87 123 163 208 253 296 345
#
# _framework density 17.287749000000002
#
# number of rings (size 3 to 8) (size 9 to 14) (size 15 to 20)
#    0.000    1.833    3.333    1.000    1.167    1.333 
#    1.500    2.083    0.000    0.000    0.000    0.000 
#    0.000    0.000    0.000    0.000    0.000    0.000 
#
# Total GULP energy -267844.314554 kJ/mol
# GULP energy per Si atom -5580.089887 kJ/mol
# Density = 1.724840 g / cm^3
# Si number density = 17.287749 Si / 1000 Ang^3
#
#
#
# Elastic Constant Matrix: (Units=GPa)
#
#
# Indices 1 2 3 4 5 6 
#
# 1 147.7566 57.8141 56.7916 0.0000 0.0000 0.0000
# 2 57.8141 126.1433 54.6371 0.0000 0.0000 0.0000
# 3 56.7916 54.6371 128.8822 0.0000 0.0000 0.0000
# 4 0.0000 0.0000 0.0000 12.7513 0.0000 0.0000
# 5 0.0000 0.0000 0.0000 0.0000 -86.7803 0.0000
# 6 0.0000 0.0000 0.0000 0.0000 0.0000 27.9790
#
#
#
# Elastic Compliance Matrix: (Units=1/GPa)
#
#
# Indices 1 2 3 4 5 6 
#
# 1 0.008954 -0.002934 -0.002702 0.000000 0.000000 0.000000
# 2 -0.002934 0.010672 -0.003231 0.000000 0.000000 0.000000
# 3 -0.002702 -0.003231 0.010320 0.000000 0.000000 0.000000
# 4 0.000000 0.000000 0.000000 0.078423 0.000000 0.000000
# 5 0.000000 0.000000 0.000000 0.000000 -0.011523 0.000000
# 6 0.000000 0.000000 0.000000 0.000000 0.000000 0.035741
#
#
# Mechanical properties :
#
#
# Convention : Reuss Voigt Hill
#
# Bulk Modulus (GPa) = 81.89009 82.36308 82.12659
# Shear Modulus (GPa) = 32.38530 6.35930 19.37230
#
# Velocity S-wave (km/s) = 4.33287 1.92002 3.35114
# Velocity P-wave (km/s) = 8.51489 7.25680 7.91090
#
# Compressibility (1/GPa) = 0.01221149
#
# Stress axis : x y z
#
# Youngs Moduli (GPa) = 111.67822 93.70646 96.90357
#
# Poissons Ratio (x) = 0.27490 0.26184
# Poissons Ratio (y) = 0.32762 0.31313
# Poissons Ratio (z) = 0.30176 0.30280
#
# Static dielectric constant tensor:
#      x y z
#    x 1.584170 0.000000 0.000000 
#    y 0.000000 1.550680 0.000000 
#    z 0.000000 0.000000 1.592540 
# 
# From -- ./inp_files/26363.got.cif
#   From: 2010.05.17/outbox.cif.g08.bks.cpg/sg53_14_cif.got.tgz:26363.got - 2010.06.03 12:45:16.
