data_PCOD9416834
_publ_section_title
;
Structure prediction by ZEFSAII (Michael W. Deem and Ramdas Pophale) SiO2 
 PCOD9416834
Probable space group: P M N A
;
_chemical_formula_sum "Si O2"
_cell_formula_units_Z 64
_cell_length_a 14.300889
_cell_length_b 18.768973
_cell_length_c 12.446453
_cell_angle_alpha 90.000000
_cell_angle_beta 90.000000
_cell_angle_gamma 90.000000
_cell_volume 3340.789783
_symmetry_space_group_name_H-M "P M N A"
_symmetry_group_IT_number 53
_symmetry_cell_setting 'orthorhombic'
loop_
_space_group_symop_operation_xyz
x,y,z
1/2-x,-y,1/2+z
x,-y,-z
1/2-x,y,1/2-z
-x,-y,-z
1/2+x,y,1/2-z
-x,y,z
1/2+x,-y,1/2+z
loop_
_atom_site_type_symbol
_atom_site_label
_atom_site_fract_x
_atom_site_fract_y
_atom_site_fract_z
Si Si1 0.105679 0.817402 0.007285
Si Si2 0.397843 0.549568 0.606018
Si Si3 0.801149 0.948315 0.907337
Si Si4 0.398259 0.299588 0.900023
Si Si5 0.638672 0.841024 0.240910
Si Si6 0.302315 0.332673 0.501163
Si Si7 0.856281 0.588412 0.218329
Si Si8 0.393391 0.995460 0.813993
O O1 0.178375 0.870371 0.951087
O O2 0.140770 0.738770 0.981025
O O3 0.000000 0.830694 0.969240
O O4 0.105755 0.828751 0.136640
O O5 0.390872 0.500000 0.500000
O O6 0.500000 0.584795 0.605626
O O7 0.318636 0.609025 0.591981
O O8 0.394790 0.490529 0.699043
O O9 0.861207 0.965375 0.801771
O O10 0.691938 0.966612 0.886944
O O11 0.836723 0.000000 0.000000
O O12 0.500000 0.300065 0.955332
O O13 0.388050 0.224713 0.835987
O O14 0.398513 0.361804 0.809897
O O15 0.305372 0.314061 0.970580
O O16 0.750000 0.841703 0.250000
O O17 0.609992 0.918347 0.195937
O O18 0.350650 0.366913 0.607758
O O19 0.750000 0.576969 0.250000
O O20 0.500000 0.974786 0.842247
#
# Coordination Sequence:
#
# PCOD9416834 Si02
#       8
#     8   8   8   8   8   8   8   8
#     4  12  22  34  57  84 113 148 187 238 295 344
#     4   9  17  30  51  77 106 140 178 220 266 320
#     4  11  23  39  57  85 118 149 196 251 289 352
#     4  11  20  31  51  82 118 152 178 218 284 353
#     4  12  19  35  54  85 120 146 183 231 292 350
#     4  10  20  33  50  80 112 141 182 234 278 333
#     4   9  17  31  52  80 114 145 176 221 278 336
#     4  11  23  40  61  83 115 159 199 244 299 358
#
# _framework density 19.157146999999998
#
# number of rings (size 3 to 8) (size 9 to 14) (size 15 to 20)
#    0.000    1.375    5.000    2.625    0.000    1.750 
#    0.000    0.625    2.750   10.125    0.000    0.000 
#    0.000    0.000    0.000    0.000    0.000    0.000 
#
# Total GULP energy -356907.676450 kJ/mol
# GULP energy per Si atom -5576.682445 kJ/mol
# Density = 1.911354 g / cm^3
# Si number density = 19.157147 Si / 1000 Ang^3
#
#
#
# Elastic Constant Matrix: (Units=GPa)
#
#
# Indices 1 2 3 4 5 6 
#
# 1 124.7251 45.8401 5.0629 0.0000 0.0000 0.0000
# 2 45.8401 122.3458 27.3485 0.0000 0.0000 0.0000
# 3 5.0629 27.3485 25.7545 0.0000 0.0000 0.0000
# 4 0.0000 0.0000 0.0000 23.4878 0.0000 0.0000
# 5 0.0000 0.0000 0.0000 0.0000 33.6070 0.0000
# 6 0.0000 0.0000 0.0000 0.0000 0.0000 20.0711
#
#
#
# Elastic Compliance Matrix: (Units=1/GPa)
#
#
# Indices 1 2 3 4 5 6 
#
# 1 0.009418 -0.004084 0.002486 0.000000 0.000000 0.000000
# 2 -0.004084 0.012489 -0.012459 0.000000 0.000000 0.000000
# 3 0.002486 -0.012459 0.051570 0.000000 0.000000 0.000000
# 4 0.000000 0.000000 0.000000 0.042575 0.000000 0.000000
# 5 0.000000 0.000000 0.000000 0.000000 0.029756 0.000000
# 6 0.000000 0.000000 0.000000 0.000000 0.000000 0.049823
#
#
# Mechanical properties :
#
#
# Convention : Reuss Voigt Hill
#
# Bulk Modulus (GPa) = 22.04528 47.70316 34.87422
# Shear Modulus (GPa) = 20.93230 28.40480 24.66855
#
# Velocity S-wave (km/s) = 3.30913 3.85480 3.59234
# Velocity P-wave (km/s) = 5.11205 6.69086 5.95402
#
# Compressibility (1/GPa) = 0.04536119
#
# Stress axis : x y z
#
# Youngs Moduli (GPa) = 106.18173 80.07156 19.39129
#
# Poissons Ratio (x) = 0.32703 -0.04820
# Poissons Ratio (y) = 0.43367 0.24159
# Poissons Ratio (z) = -0.26393 0.99760
#
# Static dielectric constant tensor:
#      x y z
#    x 1.576330 0.000000 0.000000 
#    y 0.000000 1.732740 0.000000 
#    z 0.000000 0.000000 1.690740 
# 
# From -- ./inp_files/16269.got.cif
#   From: 2010.05.17/outbox.cif.g08.bks.cpg/sg53_9_cif.got.tgz:16269.got - 2010.06.03 12:45:16.
