data_PCOD9416294
_publ_section_title
;
Structure prediction by ZEFSAII (Michael W. Deem and Ramdas Pophale) SiO2 
 PCOD9416294
Probable space group: P M N A
;
_chemical_formula_sum "Si O2"
_cell_formula_units_Z 40
_cell_length_a 24.964474
_cell_length_b 8.115029
_cell_length_c 9.944587
_cell_angle_alpha 90.000000
_cell_angle_beta 90.000000
_cell_angle_gamma 90.000000
_cell_volume 2014.648328
_symmetry_space_group_name_H-M "P M N A"
_symmetry_group_IT_number 53
_symmetry_cell_setting 'orthorhombic'
loop_
_space_group_symop_operation_xyz
x,y,z
1/2-x,-y,1/2+z
x,-y,-z
1/2-x,y,1/2-z
-x,-y,-z
1/2+x,y,1/2-z
-x,y,z
1/2+x,-y,1/2+z
loop_
_atom_site_type_symbol
_atom_site_label
_atom_site_fract_x
_atom_site_fract_y
_atom_site_fract_z
Si Si1 0.114878 0.816037 0.517901
Si Si2 0.207262 0.584853 0.637421
Si Si3 0.061751 0.825003 0.791636
Si Si4 0.128482 0.498590 0.855523
Si Si5 0.063950 0.198006 0.771339
O O1 0.163759 0.711431 0.576526
O O2 0.068204 0.817920 0.629725
O O3 0.088623 0.770939 0.376408
O O4 0.135794 0.000000 0.500000
O O5 0.228081 0.500000 0.500000
O O6 0.250000 0.648863 0.750000
O O7 0.170345 0.471350 0.734645
O O8 0.098715 0.674293 0.838243
O O9 0.000000 0.802623 0.833135
O O10 0.078954 0.013971 0.823807
O O11 0.155659 0.500000 0.000000
O O12 0.086137 0.650096 0.144057
O O13 0.000000 0.199769 0.764310
#
# Coordination Sequence:
#
# PCOD9416294 Si02
#       5
#     8   8   8   8   8
#     4   9  18  36  60  86 122 152 195 246 297 358
#     4  11  22  41  65  87 111 149 199 254 306 354
#     4   9  19  33  55  88 123 159 200 242 287 348
#     4  11  23  38  57  85 125 163 202 246 294 352
#     4  10  19  34  59  89 124 164 200 239 295 353
#
# _framework density 19.854583000000002
#
# number of rings (size 3 to 8) (size 9 to 14) (size 15 to 20)
#    0.000    2.000    2.000    1.800    0.000    4.800 
#    0.000    6.000    8.800    0.000    0.000    0.000 
#    0.000    0.000    0.000    0.000    0.000    0.000 
#
# Total GULP energy -222689.223647 kJ/mol
# GULP energy per Si atom -5567.230591 kJ/mol
# Density = 1.980939 g / cm^3
# Si number density = 19.854583 Si / 1000 Ang^3
#
#
#
# Elastic Constant Matrix: (Units=GPa)
#
#
# Indices 1 2 3 4 5 6 
#
# 1 79.8790 32.2918 25.8497 0.0000 0.0000 0.0000
# 2 32.2918 76.6336 35.5101 0.0000 0.0000 0.0000
# 3 25.8497 35.5101 128.8196 0.0000 0.0000 0.0000
# 4 0.0000 0.0000 0.0000 -43.6294 0.0000 0.0000
# 5 0.0000 0.0000 0.0000 0.0000 12.6314 0.0000
# 6 0.0000 0.0000 0.0000 0.0000 0.0000 2.2993
#
#
#
# Elastic Compliance Matrix: (Units=1/GPa)
#
#
# Indices 1 2 3 4 5 6 
#
# 1 0.015333 -0.005773 -0.001486 0.000000 0.000000 0.000000
# 2 -0.005773 0.017133 -0.003565 0.000000 0.000000 0.000000
# 3 -0.001486 -0.003565 0.009043 0.000000 0.000000 0.000000
# 4 0.000000 0.000000 0.000000 -0.022920 0.000000 0.000000
# 5 0.000000 0.000000 0.000000 0.000000 0.079168 0.000000
# 6 0.000000 0.000000 0.000000 0.000000 0.000000 0.434912
#
#
# Mechanical properties :
#
#
# Convention : Reuss Voigt Hill
#
# Bulk Modulus (GPa) = 50.34126 52.51505 51.42815
# Shear Modulus (GPa) = 8.91365 7.03897 7.97631
#
# Velocity S-wave (km/s) = 2.12113 1.88493 2.00651
# Velocity P-wave (km/s) = 5.60437 5.58968 5.59703
#
# Compressibility (1/GPa) = 0.01986442
#
# Stress axis : x y z
#
# Youngs Moduli (GPa) = 65.21717 58.36566 110.57676
#
# Poissons Ratio (x) = 0.33693 0.16427
# Poissons Ratio (y) = 0.37649 0.39416
# Poissons Ratio (z) = 0.09688 0.20805
#
# Static dielectric constant tensor:
#      x y z
#    x 1.694870 0.000000 0.000000 
#    y 0.000000 1.714840 0.000000 
#    z 0.000000 0.000000 1.742420 
# 
# From -- ./inp_files/11592.got.cif
#   From: 2010.05.17/outbox.cif.g08.bks.cpg/sg53_6_cif.got.tgz:11592.got - 2010.06.03 12:45:16.
