data_PCOD9416527
_publ_section_title
;
Structure prediction by ZEFSAII (Michael W. Deem and Ramdas Pophale) SiO2 
 PCOD9416527
Probable space group: P M N A
;
_chemical_formula_sum "Si O2"
_cell_formula_units_Z 48
_cell_length_a 15.170085
_cell_length_b 15.656924
_cell_length_c 10.196220
_cell_angle_alpha 90.000000
_cell_angle_beta 90.000000
_cell_angle_gamma 90.000000
_cell_volume 2421.774239
_symmetry_space_group_name_H-M "P M N A"
_symmetry_group_IT_number 53
_symmetry_cell_setting 'orthorhombic'
loop_
_space_group_symop_operation_xyz
x,y,z
1/2-x,-y,1/2+z
x,-y,-z
1/2-x,y,1/2-z
-x,-y,-z
1/2+x,y,1/2-z
-x,y,z
1/2+x,-y,1/2+z
loop_
_atom_site_type_symbol
_atom_site_label
_atom_site_fract_x
_atom_site_fract_y
_atom_site_fract_z
Si Si1 0.853938 0.335282 0.757232
Si Si2 0.253514 0.920829 0.098022
Si Si3 0.107067 0.298263 0.248747
Si Si4 0.106357 0.481895 0.148534
Si Si5 0.101644 0.792870 0.017653
Si Si6 0.601428 0.217284 0.978712
O O1 0.750000 0.318133 0.750000
O O2 0.870373 0.435705 0.765882
O O3 0.896176 0.290056 0.632241
O O4 0.890532 0.289477 0.887541
O O5 0.250000 0.947399 0.250000
O O6 0.336611 0.859065 0.069929
O O7 0.166894 0.864317 0.070218
O O8 0.256610 0.000000 0.000000
O O9 0.138676 0.393188 0.210871
O O10 0.127865 0.236446 0.127751
O O11 0.136535 0.259004 0.386452
O O12 0.000000 0.303160 0.256403
O O13 0.000000 0.476092 0.140816
O O14 0.138980 0.500000 0.000000
O O15 0.000000 0.820900 0.017454
O O16 0.500000 0.189185 0.997384
#
# Coordination Sequence:
#
# PCOD9416527 Si02
#       6
#     8   8   8   8   8   8
#     4  12  22  40  61  94 129 175 222 260 316 377
#     4  12  28  47  68 101 129 160 209 262 329 399
#     4   9  21  38  63  97 127 171 223 261 314 372
#     4  10  19  36  61  90 127 171 223 273 309 359
#     4  11  21  43  71  92 126 172 215 259 312 385
#     4  11  23  44  68  93 132 172 208 262 324 383
#
# _framework density 19.820179
#
# number of rings (size 3 to 8) (size 9 to 14) (size 15 to 20)
#    0.000    1.167    5.000    1.500    2.333    1.333 
#    6.000    2.500    0.000    0.000    0.000    0.000 
#    0.000    0.000    0.000    0.000    0.000    0.000 
#
# Total GULP energy -268352.628488 kJ/mol
# GULP energy per Si atom -5590.679760 kJ/mol
# Density = 1.977507 g / cm^3
# Si number density = 19.820179 Si / 1000 Ang^3
#
#
#
# Elastic Constant Matrix: (Units=GPa)
#
#
# Indices 1 2 3 4 5 6 
#
# 1 84.7368 28.9005 16.8214 0.0000 0.0000 0.0000
# 2 28.9005 101.1312 51.4147 0.0000 0.0000 0.0000
# 3 16.8214 51.4147 150.6692 0.0000 0.0000 0.0000
# 4 0.0000 0.0000 0.0000 29.4629 0.0000 0.0000
# 5 0.0000 0.0000 0.0000 0.0000 25.8760 0.0000
# 6 0.0000 0.0000 0.0000 0.0000 0.0000 2.4480
#
#
#
# Elastic Compliance Matrix: (Units=1/GPa)
#
#
# Indices 1 2 3 4 5 6 
#
# 1 0.013082 -0.003625 -0.000224 0.000000 0.000000 0.000000
# 2 -0.003625 0.012968 -0.004021 0.000000 0.000000 0.000000
# 3 -0.000224 -0.004021 0.008034 0.000000 0.000000 0.000000
# 4 0.000000 0.000000 0.000000 0.033941 0.000000 0.000000
# 5 0.000000 0.000000 0.000000 0.000000 0.038646 0.000000
# 6 0.000000 0.000000 0.000000 0.000000 0.000000 0.408498
#
#
# Mechanical properties :
#
#
# Convention : Reuss Voigt Hill
#
# Bulk Modulus (GPa) = 54.50749 58.97892 56.74320
# Shear Modulus (GPa) = 9.31061 27.51743 18.41402
#
# Velocity S-wave (km/s) = 2.16973 3.73010 3.05135
# Velocity P-wave (km/s) = 5.81702 6.95508 6.41135
#
# Compressibility (1/GPa) = 0.01834610
#
# Stress axis : x y z
#
# Youngs Moduli (GPa) = 76.44151 77.11262 124.47090
#
# Poissons Ratio (x) = 0.27952 0.02783
# Poissons Ratio (y) = 0.27708 0.50044
# Poissons Ratio (z) = 0.01709 0.31004
#
# Static dielectric constant tensor:
#      x y z
#    x 1.714750 0.000000 0.000000 
#    y 0.000000 1.665790 0.000000 
#    z 0.000000 0.000000 1.693630 
# 
# From -- ./inp_files/8621.got.cif
#   From: 2010.05.17/outbox.cif.g08.bks.cpg/sg53_5_cif.got.tgz:8621.got - 2010.06.03 12:45:16.
