data_PCOD9416445
_publ_section_title
;
Structure prediction by ZEFSAII (Michael W. Deem and Ramdas Pophale) SiO2 
 PCOD9416445
Probable space group: P M N A
;
_chemical_formula_sum "Si O2"
_cell_formula_units_Z 44
_cell_length_a 12.892807
_cell_length_b 11.543582
_cell_length_c 15.373716
_cell_angle_alpha 90.000000
_cell_angle_beta 90.000000
_cell_angle_gamma 90.000000
_cell_volume 2288.057466
_symmetry_space_group_name_H-M "P M N A"
_symmetry_group_IT_number 53
_symmetry_cell_setting 'orthorhombic'
loop_
_space_group_symop_operation_xyz
x,y,z
1/2-x,-y,1/2+z
x,-y,-z
1/2-x,y,1/2-z
-x,-y,-z
1/2+x,y,1/2-z
-x,y,z
1/2+x,-y,1/2+z
loop_
_atom_site_type_symbol
_atom_site_label
_atom_site_fract_x
_atom_site_fract_y
_atom_site_fract_z
Si Si1 0.376158 0.613885 0.857981
Si Si2 0.250000 0.575675 0.250000
Si Si3 0.877333 0.248478 0.868091
Si Si4 0.811138 0.626049 0.964263
Si Si5 0.373554 0.006050 0.398983
Si Si6 0.376976 0.236577 0.303194
O O1 0.500000 0.604311 0.867006
O O2 0.325466 0.503585 0.809047
O O3 0.312469 0.628970 0.947094
O O4 0.349077 0.721512 0.793624
O O5 0.182624 0.658427 0.188859
O O6 0.845216 0.115463 0.854107
O O7 0.000000 0.258496 0.853937
O O8 0.852427 0.280667 0.967948
O O9 0.857372 0.658012 0.870391
O O10 0.840789 0.500000 0.000000
O O11 0.500000 0.010134 0.401664
O O12 0.339318 0.000000 0.500000
O O13 0.335482 0.118408 0.346346
O O14 0.500000 0.220278 0.298997
#
# Coordination Sequence:
#
# PCOD9416445 Si02
#       6
#     8   4   8   8   8   8
#     4  11  23  39  57  84 124 156 189 243 295 350
#     4  12  22  42  54  88 116 152 196 234 298 362
#     4  11  23  39  60  86 117 151 194 247 289 343
#     4  12  21  36  57  87 118 149 202 235 288 353
#     4   9  17  33  57  87 117 148 189 238 294 340
#     4  10  19  35  61  89 120 151 188 244 295 346
#
# _framework density 19.230286
#
# number of rings (size 3 to 8) (size 9 to 14) (size 15 to 20)
#    0.000    1.273    5.455    1.091    0.000    3.273 
#    3.273    0.000    0.000    0.000    0.000    2.545 
#    0.000    0.000    0.000    0.000    0.000    0.000 
#
# Total GULP energy -245583.496760 kJ/mol
# GULP energy per Si atom -5581.443108 kJ/mol
# Density = 1.918652 g / cm^3
# Si number density = 19.230286 Si / 1000 Ang^3
#
#
#
# Elastic Constant Matrix: (Units=GPa)
#
#
# Indices 1 2 3 4 5 6 
#
# 1 43.0547 15.9128 -2.6775 0.0000 0.0000 0.0000
# 2 15.9128 127.8158 20.6307 0.0000 0.0000 0.0000
# 3 -2.6775 20.6307 33.8940 0.0000 0.0000 0.0000
# 4 0.0000 0.0000 0.0000 25.2457 0.0000 0.0000
# 5 0.0000 0.0000 0.0000 0.0000 32.0176 0.0000
# 6 0.0000 0.0000 0.0000 0.0000 0.0000 18.8398
#
#
#
# Elastic Compliance Matrix: (Units=1/GPa)
#
#
# Indices 1 2 3 4 5 6 
#
# 1 0.024892 -0.003789 0.004272 0.000000 0.000000 0.000000
# 2 -0.003789 0.009253 -0.005931 0.000000 0.000000 0.000000
# 3 0.004272 -0.005931 0.033452 0.000000 0.000000 0.000000
# 4 0.000000 0.000000 0.000000 0.039611 0.000000 0.000000
# 5 0.000000 0.000000 0.000000 0.000000 0.031233 0.000000
# 6 0.000000 0.000000 0.000000 0.000000 0.000000 0.053079
#
#
# Mechanical properties :
#
#
# Convention : Reuss Voigt Hill
#
# Bulk Modulus (GPa) = 17.63620 30.27740 23.95680
# Shear Modulus (GPa) = 22.59226 26.61385 24.60306
#
# Velocity S-wave (km/s) = 3.43129 3.72419 3.58074
# Velocity P-wave (km/s) = 4.98892 5.85420 5.43879
#
# Compressibility (1/GPa) = 0.05670155
#
# Stress axis : x y z
#
# Youngs Moduli (GPa) = 40.17320 108.07537 29.89402
#
# Poissons Ratio (x) = 0.40946 -0.12772
# Poissons Ratio (y) = 0.15220 0.17731
# Poissons Ratio (z) = -0.17164 0.64103
#
# Static dielectric constant tensor:
#      x y z
#    x 1.683840 0.000000 0.000000 
#    y 0.000000 1.691340 0.000000 
#    z 0.000000 0.000000 1.695920 
# 
# From -- ./inp_files/22608.got.cif
#   From: 2010.05.17/outbox.cif.g08.bks.cpg/sg53_12_cif.got.tgz:22608.got - 2010.06.03 12:45:16.
