data_PCOD9416330
_publ_section_title
;
Structure prediction by ZEFSAII (Michael W. Deem and Ramdas Pophale) SiO2 
 PCOD9416330
Probable space group: P M N A
;
_chemical_formula_sum "Si O2"
_cell_formula_units_Z 48
_cell_length_a 9.213155
_cell_length_b 15.207633
_cell_length_c 21.111384
_cell_angle_alpha 90.000000
_cell_angle_beta 90.000000
_cell_angle_gamma 90.000000
_cell_volume 2957.921924
_symmetry_space_group_name_H-M "P M N A"
_symmetry_group_IT_number 53
_symmetry_cell_setting 'orthorhombic'
loop_
_space_group_symop_operation_xyz
x,y,z
1/2-x,-y,1/2+z
x,-y,-z
1/2-x,y,1/2-z
-x,-y,-z
1/2+x,y,1/2-z
-x,y,z
1/2+x,-y,1/2+z
loop_
_atom_site_type_symbol
_atom_site_label
_atom_site_fract_x
_atom_site_fract_y
_atom_site_fract_z
Si Si1 0.831089 0.307941 0.856915
Si Si2 0.172812 0.733638 0.484314
Si Si3 0.669471 0.889614 0.313541
Si Si4 0.171452 0.501202 0.812140
Si Si5 0.174258 0.914447 0.042556
Si Si6 0.325312 0.576701 0.551135
O O1 0.723698 0.302925 0.915966
O O2 0.817031 0.216597 0.819611
O O3 0.803011 0.396503 0.818917
O O4 0.000000 0.312720 0.879851
O O5 0.243410 0.830480 0.485956
O O6 0.243342 0.665786 0.533421
O O7 0.000000 0.737271 0.489625
O O8 0.750000 0.919212 0.250000
O O9 0.500000 0.910950 0.307106
O O10 0.718109 0.924067 0.383089
O O11 0.250000 0.535549 0.750000
O O12 0.215045 0.543870 0.878857
O O13 0.000000 0.514198 0.805206
O O14 0.000000 0.896869 0.043095
O O15 0.200557 0.000000 0.000000
O O16 0.291166 0.500000 0.500000
O O17 0.500000 0.589689 0.548441
#
# Coordination Sequence:
#
# PCOD9416330 Si02
#       6
#     8   8   8   8   8   8
#     4   9  17  32  48  67  99 140 176 199 240 311
#     4  11  21  31  50  80 107 130 165 220 268 297
#     4   9  17  28  47  73 102 131 161 200 248 305
#     4  10  20  32  49  71  99 137 175 219 261 300
#     4   9  19  37  58  76  99 135 176 210 249 314
#     4  10  19  35  55  71  98 141 183 210 244 307
#
# _framework density 16.227609000000001
#
# number of rings (size 3 to 8) (size 9 to 14) (size 15 to 20)
#    0.000    2.333    1.667    3.000    0.000    4.667 
#    0.000    0.000    0.000    1.000    0.000    2.333 
#    0.000    0.000    0.000    0.000    0.000    0.000 
#
# Total GULP energy -267560.723162 kJ/mol
# GULP energy per Si atom -5574.181733 kJ/mol
# Density = 1.619067 g / cm^3
# Si number density = 16.227609 Si / 1000 Ang^3
#
#
#
# Elastic Constant Matrix: (Units=GPa)
#
#
# Indices 1 2 3 4 5 6 
#
# 1 52.3335 48.8829 58.8219 0.0000 0.0000 0.0000
# 2 48.8829 78.2079 66.8374 0.0000 0.0000 0.0000
# 3 58.8219 66.8374 139.5814 0.0000 0.0000 0.0000
# 4 0.0000 0.0000 0.0000 12.6835 0.0000 0.0000
# 5 0.0000 0.0000 0.0000 0.0000 29.5807 0.0000
# 6 0.0000 0.0000 0.0000 0.0000 0.0000 12.7083
#
#
#
# Elastic Compliance Matrix: (Units=1/GPa)
#
#
# Indices 1 2 3 4 5 6 
#
# 1 0.054776 -0.024560 -0.011323 0.000000 0.000000 0.000000
# 2 -0.024560 0.032656 -0.005287 0.000000 0.000000 0.000000
# 3 -0.011323 -0.005287 0.014468 0.000000 0.000000 0.000000
# 4 0.000000 0.000000 0.000000 0.078843 0.000000 0.000000
# 5 0.000000 0.000000 0.000000 0.000000 0.033806 0.000000
# 6 0.000000 0.000000 0.000000 0.000000 0.000000 0.078689
#
#
# Mechanical properties :
#
#
# Convention : Reuss Voigt Hill
#
# Bulk Modulus (GPa) = 51.12734 68.80081 59.96407
# Shear Modulus (GPa) = 13.08570 17.36653 15.22611
#
# Velocity S-wave (km/s) = 2.84277 3.27492 3.06647
# Velocity P-wave (km/s) = 6.50768 7.53588 7.04058
#
# Compressibility (1/GPa) = 0.01955901
#
# Stress axis : x y z
#
# Youngs Moduli (GPa) = 18.25618 30.62253 69.12032
#
# Poissons Ratio (x) = 0.75210 0.78265
# Poissons Ratio (y) = 0.44838 0.36543
# Poissons Ratio (z) = 0.20671 0.16190
#
# Static dielectric constant tensor:
#      x y z
#    x 1.544470 0.000000 0.000000 
#    y 0.000000 1.533790 0.000000 
#    z 0.000000 0.000000 1.560020 
# 
# From -- ./inp_files/26434.got.cif
#   From: 2010.05.17/outbox.cif.g08.bks.cpg/sg53_14_cif.got.tgz:26434.got - 2010.06.03 12:45:16.
