data_PCOD9416210
_publ_section_title
;
Structure prediction by ZEFSAII (Michael W. Deem and Ramdas Pophale) SiO2 
 PCOD9416210
Probable space group: P M N A
;
_chemical_formula_sum "Si O2"
_cell_formula_units_Z 48
_cell_length_a 14.600338
_cell_length_b 19.142856
_cell_length_c 8.167748
_cell_angle_alpha 90.000000
_cell_angle_beta 90.000000
_cell_angle_gamma 90.000000
_cell_volume 2282.821595
_symmetry_space_group_name_H-M "P M N A"
_symmetry_group_IT_number 53
_symmetry_cell_setting 'orthorhombic'
loop_
_space_group_symop_operation_xyz
x,y,z
1/2-x,-y,1/2+z
x,-y,-z
1/2-x,y,1/2-z
-x,-y,-z
1/2+x,y,1/2-z
-x,y,z
1/2+x,-y,1/2+z
loop_
_atom_site_type_symbol
_atom_site_label
_atom_site_fract_x
_atom_site_fract_y
_atom_site_fract_z
Si Si1 0.396009 0.425065 0.554905
Si Si2 0.895287 0.048696 0.835191
Si Si3 0.252208 0.687763 0.448640
Si Si4 0.110150 0.908046 0.674595
Si Si5 0.395592 0.576647 0.050346
Si Si6 0.722198 0.151170 0.486242
O O1 0.358736 0.500000 0.500000
O O2 0.500000 0.420182 0.494691
O O3 0.336635 0.360370 0.497413
O O4 0.396155 0.423293 0.752067
O O5 0.000000 0.072254 0.814289
O O6 0.874023 0.990869 0.699114
O O7 0.830276 0.113898 0.864814
O O8 0.891970 0.000000 0.000000
O O9 0.250000 0.690193 0.250000
O O10 0.163987 0.642941 0.503176
O O11 0.264596 0.766316 0.506418
O O12 0.176439 0.881124 0.532999
O O13 0.156146 0.869504 0.832383
O O14 0.000000 0.896742 0.663040
O O15 0.500000 0.582139 0.990362
O O16 0.360207 0.500000 0.000000
#
# Coordination Sequence:
#
# PCOD9416210 Si02
#       6
#     8   8   8   8   8   8
#     4   9  18  34  55  80 108 143 189 234 273 332
#     4   8  15  32  57  79 100 138 185 223 269 330
#     4  10  21  36  52  81 114 147 181 225 279 333
#     4   9  19  37  58  81 112 147 183 232 284 333
#     4   9  18  35  57  79 108 149 189 227 280 336
#     4  10  19  34  56  86 107 145 188 229 283 337
#
# _framework density 21.026610000000002
#
# number of rings (size 3 to 8) (size 9 to 14) (size 15 to 20)
#    0.000    2.833    0.000    2.000    0.000    2.000 
#   15.000    0.000    0.000   13.500    0.000    0.000 
#    0.000    0.000    0.000    0.000    0.000    0.000 
#
# Total GULP energy -267897.334445 kJ/mol
# GULP energy per Si atom -5581.194468 kJ/mol
# Density = 2.097875 g / cm^3
# Si number density = 21.026610 Si / 1000 Ang^3
#
#
#
# Elastic Constant Matrix: (Units=GPa)
#
#
# Indices 1 2 3 4 5 6 
#
# 1 160.9703 120.5782 25.5701 0.0000 0.0000 0.0000
# 2 120.5782 221.6063 28.6003 0.0000 0.0000 0.0000
# 3 25.5701 28.6003 29.9506 0.0000 0.0000 0.0000
# 4 0.0000 0.0000 0.0000 25.0347 0.0000 0.0000
# 5 0.0000 0.0000 0.0000 0.0000 -509.6011 0.0000
# 6 0.0000 0.0000 0.0000 0.0000 0.0000 9.5968
#
#
#
# Elastic Compliance Matrix: (Units=1/GPa)
#
#
# Indices 1 2 3 4 5 6 
#
# 1 0.010923 -0.005406 -0.004163 0.000000 0.000000 0.000000
# 2 -0.005406 0.007822 -0.002854 0.000000 0.000000 0.000000
# 3 -0.004163 -0.002854 0.039668 0.000000 0.000000 0.000000
# 4 0.000000 0.000000 0.000000 0.039945 0.000000 0.000000
# 5 0.000000 0.000000 0.000000 0.000000 -0.001962 0.000000
# 6 0.000000 0.000000 0.000000 0.000000 0.000000 0.104201
#
#
# Mechanical properties :
#
#
# Convention : Reuss Voigt Hill
#
# Bulk Modulus (GPa) = 29.79159 84.66940 57.23049
# Shear Modulus (GPa) = 21.12975 -79.14202 -29.00613
#
# Velocity S-wave (km/s) = 3.17346 -6.14172 -3.71819
# Velocity P-wave (km/s) = 5.25615 3.15263 2.97389
#
# Compressibility (1/GPa) = 0.03356652
#
# Stress axis : x y z
#
# Youngs Moduli (GPa) = 91.54795 127.83779 25.20912
#
# Poissons Ratio (x) = 0.69111 0.10495
# Poissons Ratio (y) = 0.49492 0.07195
# Poissons Ratio (z) = 0.38114 0.36489
#
# Static dielectric constant tensor:
#      x y z
#    x 1.764430 0.000000 0.000000 
#    y 0.000000 1.736910 0.000000 
#    z 0.000000 0.000000 1.870960 
# 
# From -- ./inp_files/8679.got.cif
#   From: 2010.05.17/outbox.cif.g08.bks.cpg/sg53_5_cif.got.tgz:8679.got - 2010.06.03 12:45:16.
