data_PCOD9416107
_publ_section_title
;
Structure prediction by ZEFSAII (Michael W. Deem and Ramdas Pophale) SiO2 
 PCOD9416107
Probable space group: P M N A
;
_chemical_formula_sum "Si O2"
_cell_formula_units_Z 52
_cell_length_a 23.075339
_cell_length_b 4.952363
_cell_length_c 20.948974
_cell_angle_alpha 90.000000
_cell_angle_beta 90.000000
_cell_angle_gamma 90.000000
_cell_volume 2393.995435
_symmetry_space_group_name_H-M "P M N A"
_symmetry_group_IT_number 53
_symmetry_cell_setting 'orthorhombic'
loop_
_space_group_symop_operation_xyz
x,y,z
1/2-x,-y,1/2+z
x,-y,-z
1/2-x,y,1/2-z
-x,-y,-z
1/2+x,y,1/2-z
-x,y,z
1/2+x,-y,1/2+z
loop_
_atom_site_type_symbol
_atom_site_label
_atom_site_fract_x
_atom_site_fract_y
_atom_site_fract_z
Si Si1 0.619164 0.526472 0.342786
Si Si2 0.153554 0.000000 0.000000
Si Si3 0.433044 0.406001 0.788839
Si Si4 0.155478 0.760879 0.457810
Si Si5 0.566900 0.944104 0.593892
Si Si6 0.724454 0.621237 0.427195
Si Si7 0.065267 0.097892 0.375284
O O1 0.612298 0.593649 0.268613
O O2 0.582724 0.253264 0.349027
O O3 0.683754 0.498233 0.372431
O O4 0.587342 0.758607 0.384755
O O5 0.193825 0.904984 0.057280
O O6 0.105996 0.181011 0.036617
O O7 0.500000 0.477711 0.769666
O O8 0.416889 0.612285 0.846541
O O9 0.436033 0.105255 0.815874
O O10 0.136241 0.500000 0.500000
O O11 0.207713 0.649953 0.413675
O O12 0.184561 0.000000 0.500000
O O13 0.105902 0.936372 0.424131
O O14 0.500000 0.943126 0.578102
O O15 0.719993 0.500000 0.500000
O O16 0.000000 0.126769 0.401665
#
# Coordination Sequence:
#
# PCOD9416107 Si02
#       7
#     8   4   8   8   8   8   8
#     4  11  22  35  59  82 114 162 206 247 290 350
#     4  10  19  34  50  74 111 156 188 244 300 348
#     4  10  20  38  60  85 120 158 197 239 297 357
#     4  11  23  39  66  92 120 155 196 242 304 379
#     4  11  21  32  50  80 114 149 201 250 293 340
#     4  10  20  38  56  81 118 156 203 244 300 346
#     4  10  22  40  63  92 124 154 189 245 307 364
#
# _framework density 21.72101
#
# number of rings (size 3 to 8) (size 9 to 14) (size 15 to 20)
#    0.000    1.538    2.308    3.462    0.000    1.846 
#    0.000    3.077    0.000    1.846    0.000    0.000 
#    0.000    0.000    0.000    0.000    0.000    0.000 
#
# Total GULP energy -289576.431726 kJ/mol
# GULP energy per Si atom -5568.777533 kJ/mol
# Density = 2.167157 g / cm^3
# Si number density = 21.721010 Si / 1000 Ang^3
#
#
#
# Elastic Constant Matrix: (Units=GPa)
#
#
# Indices 1 2 3 4 5 6 
#
# 1 110.9289 -2.1141 28.4093 0.0000 0.0000 0.0000
# 2 -2.1141 74.0175 -7.3021 0.0000 0.0000 0.0000
# 3 28.4093 -7.3021 40.7386 0.0000 0.0000 0.0000
# 4 0.0000 0.0000 0.0000 30.3737 0.0000 0.0000
# 5 0.0000 0.0000 0.0000 0.0000 19.0370 0.0000
# 6 0.0000 0.0000 0.0000 0.0000 0.0000 22.3305
#
#
#
# Elastic Compliance Matrix: (Units=1/GPa)
#
#
# Indices 1 2 3 4 5 6 
#
# 1 0.010990 -0.000450 -0.007744 0.000000 0.000000 0.000000
# 2 -0.000450 0.013772 0.002782 0.000000 0.000000 0.000000
# 3 -0.007744 0.002782 0.030446 0.000000 0.000000 0.000000
# 4 0.000000 0.000000 0.000000 0.032923 0.000000 0.000000
# 5 0.000000 0.000000 0.000000 0.000000 0.052529 0.000000
# 6 0.000000 0.000000 0.000000 0.000000 0.000000 0.044782
#
#
# Mechanical properties :
#
#
# Convention : Reuss Voigt Hill
#
# Bulk Modulus (GPa) = 22.53088 29.29678 25.91383
# Shear Modulus (GPa) = 23.68990 28.12770 25.90880
#
# Velocity S-wave (km/s) = 3.30607 3.60245 3.45744
# Velocity P-wave (km/s) = 4.99689 5.55163 5.28155
#
# Compressibility (1/GPa) = 0.04438353
#
# Stress axis : x y z
#
# Youngs Moduli (GPa) = 90.99558 72.61127 32.84507
#
# Poissons Ratio (x) = 0.03268 0.25436
# Poissons Ratio (y) = 0.04096 -0.09139
# Poissons Ratio (z) = 0.70470 -0.20204
#
# Static dielectric constant tensor:
#      x y z
#    x 1.815250 0.000000 0.000000 
#    y 0.000000 1.892880 0.000000 
#    z 0.000000 0.000000 1.897230 
# 
# From -- ./inp_files/33019.got.cif
#   From: 2010.05.17/outbox.cif.g08.bks.cpg/sg53_17_cif.got.tgz:33019.got - 2010.06.03 12:45:16.
