data_PCOD9416506
_publ_section_title
;
Structure prediction by ZEFSAII (Michael W. Deem and Ramdas Pophale) SiO2 
 PCOD9416506
Probable space group: P M N A
;
_chemical_formula_sum "Si O2"
_cell_formula_units_Z 48
_cell_length_a 28.844883
_cell_length_b 7.464547
_cell_length_c 10.435066
_cell_angle_alpha 90.000000
_cell_angle_beta 90.000000
_cell_angle_gamma 90.000000
_cell_volume 2246.815643
_symmetry_space_group_name_H-M "P M N A"
_symmetry_group_IT_number 53
_symmetry_cell_setting 'orthorhombic'
loop_
_space_group_symop_operation_xyz
x,y,z
1/2-x,-y,1/2+z
x,-y,-z
1/2-x,y,1/2-z
-x,-y,-z
1/2+x,y,1/2-z
-x,y,z
1/2+x,-y,1/2+z
loop_
_atom_site_type_symbol
_atom_site_label
_atom_site_fract_x
_atom_site_fract_y
_atom_site_fract_z
Si Si1 0.344660 0.204824 0.484449
Si Si2 0.603325 0.226259 0.736725
Si Si3 0.000000 0.774209 0.152703
Si Si4 0.249962 0.662642 0.905077
Si Si5 0.350970 0.216352 0.001500
Si Si6 0.000000 0.210924 0.143871
Si Si7 0.596809 0.211719 0.248910
O O1 0.364265 0.283342 0.616802
O O2 0.290922 0.202123 0.444940
O O3 0.370408 0.282818 0.361391
O O4 0.360159 0.000000 0.500000
O O5 0.549364 0.280779 0.715563
O O6 0.630089 0.282757 0.865419
O O7 0.600528 0.006931 0.747346
O O8 0.000000 0.992830 0.147780
O O9 0.000000 0.724978 0.002526
O O10 0.250000 0.632384 0.750000
O O11 0.237153 0.500000 0.000000
O O12 0.300489 0.721306 0.952911
O O13 0.386646 0.271489 0.111231
O O14 0.349101 0.000000 0.000000
O O15 0.954375 0.268570 0.216406
#
# Coordination Sequence:
#
# PCOD9416506 Si02
#       7
#     8   8   4   8   8   4   8
#     4  10  19  36  60  83 110 149 189 228 277 333
#     4   9  18  28  53  83 117 145 183 222 279 335
#     4   9  14  25  43  81 120 149 174 225 273 329
#     4  12  27  43  58  81 112 147 191 239 289 340
#     4  10  21  38  57  83 116 149 187 234 282 334
#     4   9  14  23  47  77 118 151 183 218 273 327
#     4   9  16  30  50  82 113 151 182 226 275 326
#
# _framework density 21.363569999999999
#
# number of rings (size 3 to 8) (size 9 to 14) (size 15 to 20)
#    0.000    2.167    3.333    0.500    2.333    0.667 
#    0.000    3.333    0.000    0.000    0.000    7.000 
#    0.000    0.000    0.000    0.000    0.000    0.000 
#
# Total GULP energy -267690.629513 kJ/mol
# GULP energy per Si atom -5576.888115 kJ/mol
# Density = 2.131495 g / cm^3
# Si number density = 21.363570 Si / 1000 Ang^3
#
#
#
# Elastic Constant Matrix: (Units=GPa)
#
#
# Indices 1 2 3 4 5 6 
#
# 1 153.9530 -19.8622 88.0897 0.0000 0.0000 0.0000
# 2 -19.8622 44.6563 9.2587 0.0000 0.0000 0.0000
# 3 88.0897 9.2587 210.9690 0.0000 0.0000 0.0000
# 4 0.0000 0.0000 0.0000 0.4309 0.0000 0.0000
# 5 0.0000 0.0000 0.0000 0.0000 44.4427 0.0000
# 6 0.0000 0.0000 0.0000 0.0000 0.0000 -56.8128
#
#
#
# Elastic Compliance Matrix: (Units=1/GPa)
#
#
# Indices 1 2 3 4 5 6 
#
# 1 0.009574 0.005134 -0.004223 0.000000 0.000000 0.000000
# 2 0.005134 0.025352 -0.003256 0.000000 0.000000 0.000000
# 3 -0.004223 -0.003256 0.006646 0.000000 0.000000 0.000000
# 4 0.000000 0.000000 0.000000 2.320725 0.000000 0.000000
# 5 0.000000 0.000000 0.000000 0.000000 0.022501 0.000000
# 6 0.000000 0.000000 0.000000 0.000000 0.000000 -0.017602
#
#
# Mechanical properties :
#
#
# Convention : Reuss Voigt Hill
#
# Bulk Modulus (GPa) = 27.11372 62.72784 44.92078
# Shear Modulus (GPa) = 2.09716 19.75163 10.92439
#
# Velocity S-wave (km/s) = 0.99186 3.04394 2.26377
# Velocity P-wave (km/s) = 3.74577 6.46373 5.28255
#
# Compressibility (1/GPa) = 0.03688170
#
# Stress axis : x y z
#
# Youngs Moduli (GPa) = 104.44757 39.44479 150.46100
#
# Poissons Ratio (x) = -0.20251 0.63540
# Poissons Ratio (y) = -0.53623 0.48994
# Poissons Ratio (z) = 0.44108 0.12844
#
# Static dielectric constant tensor:
#      x y z
#    x 1.755520 0.000000 0.000000 
#    y 0.000000 1.880040 0.000000 
#    z 0.000000 0.000000 1.746980 
# 
# From -- ./inp_files/13107.got.cif
#   From: 2010.05.17/outbox.cif.g08.bks.cpg/sg53_7_cif.got.tgz:13107.got - 2010.06.03 12:45:16.
