data_PCOD9416105
_publ_section_title
;
Structure prediction by ZEFSAII (Michael W. Deem and Ramdas Pophale) SiO2 
 PCOD9416105
Probable space group: P M N A
;
_chemical_formula_sum "Si O2"
_cell_formula_units_Z 48
_cell_length_a 29.052686
_cell_length_b 5.388183
_cell_length_c 16.177543
_cell_angle_alpha 90.000000
_cell_angle_beta 90.000000
_cell_angle_gamma 90.000000
_cell_volume 2532.451813
_symmetry_space_group_name_H-M "P M N A"
_symmetry_group_IT_number 53
_symmetry_cell_setting 'orthorhombic'
loop_
_space_group_symop_operation_xyz
x,y,z
1/2-x,-y,1/2+z
x,-y,-z
1/2-x,y,1/2-z
-x,-y,-z
1/2+x,y,1/2-z
-x,y,z
1/2+x,-y,1/2+z
loop_
_atom_site_type_symbol
_atom_site_label
_atom_site_fract_x
_atom_site_fract_y
_atom_site_fract_z
Si Si1 0.139636 0.376329 0.839644
Si Si2 0.366366 0.500000 0.000000
Si Si3 0.283938 0.972964 0.861647
Si Si4 0.636929 0.000000 0.000000
Si Si5 0.183256 0.479717 0.676187
Si Si6 0.447568 0.751166 0.445549
Si Si7 0.682458 0.892181 0.589796
O O1 0.143424 0.431415 0.742461
O O2 0.090056 0.302666 0.875567
O O3 0.160238 0.623542 0.886874
O O4 0.168462 0.122928 0.852356
O O5 0.335039 0.500321 0.917729
O O6 0.392725 0.245172 0.999233
O O7 0.295498 0.746089 0.801079
O O8 0.237872 0.884180 0.907223
O O9 0.281762 0.248336 0.824489
O O10 0.327726 0.995230 0.923120
O O11 0.446556 0.500000 0.500000
O O12 0.500000 0.782999 0.414601
O O13 0.437423 0.000000 0.500000
O O14 0.668607 0.000000 0.500000
#
# Coordination Sequence:
#
# PCOD9416105 Si02
#       7
#     8   4   8   4   8   8   8
#     4  12  24  36  53  83 111 130 179 235 274 314
#     4   8  16  30  50  66  91 134 178 216 259 306
#     4  10  19  34  50  67 100 144 189 216 257 314
#     4   8  14  28  46  64  82 128 184 220 234 294
#     4  10  21  34  53  74 101 142 184 231 263 304
#     4  10  21  40  64  83 106 142 175 210 270 344
#     4  12  24  36  53  74 109 152 182 223 272 313
#
# _framework density 18.953965
#
# number of rings (size 3 to 8) (size 9 to 14) (size 15 to 20)
#    0.000    1.667    0.833    5.000    0.000    4.000 
#    0.000    0.000    0.000    0.000    0.000    0.583 
#    0.000    0.000    0.000   23.333    0.000    0.000 
#
# Total GULP energy -267212.146719 kJ/mol
# GULP energy per Si atom -5566.919723 kJ/mol
# Density = 1.891082 g / cm^3
# Si number density = 18.953965 Si / 1000 Ang^3
#
#
#
# Elastic Constant Matrix: (Units=GPa)
#
#
# Indices 1 2 3 4 5 6 
#
# 1 66.1162 18.6269 26.8068 0.0000 0.0000 0.0000
# 2 18.6269 196.0709 14.3738 0.0000 0.0000 0.0000
# 3 26.8068 14.3738 91.7613 0.0000 0.0000 0.0000
# 4 0.0000 0.0000 0.0000 22.5935 0.0000 0.0000
# 5 0.0000 0.0000 0.0000 0.0000 25.9247 0.0000
# 6 0.0000 0.0000 0.0000 0.0000 0.0000 9.4377
#
#
#
# Elastic Compliance Matrix: (Units=1/GPa)
#
#
# Indices 1 2 3 4 5 6 
#
# 1 0.017479 -0.001301 -0.004902 0.000000 0.000000 0.000000
# 2 -0.001301 0.005256 -0.000443 0.000000 0.000000 0.000000
# 3 -0.004902 -0.000443 0.012399 0.000000 0.000000 0.000000
# 4 0.000000 0.000000 0.000000 0.044261 0.000000 0.000000
# 5 0.000000 0.000000 0.000000 0.000000 0.038573 0.000000
# 6 0.000000 0.000000 0.000000 0.000000 0.000000 0.105958
#
#
# Mechanical properties :
#
#
# Convention : Reuss Voigt Hill
#
# Bulk Modulus (GPa) = 45.78508 52.61816 49.20162
# Shear Modulus (GPa) = 20.44982 31.20056 25.82519
#
# Velocity S-wave (km/s) = 3.28826 4.06165 3.69524
# Velocity P-wave (km/s) = 6.21492 7.05813 6.64990
#
# Compressibility (1/GPa) = 0.02184118
#
# Stress axis : x y z
#
# Youngs Moduli (GPa) = 57.21096 190.24788 80.64862
#
# Poissons Ratio (x) = 0.24754 0.39538
# Poissons Ratio (y) = 0.07444 0.03575
# Poissons Ratio (z) = 0.28048 0.08433
#
# Static dielectric constant tensor:
#      x y z
#    x 1.623540 0.000000 0.000000 
#    y 0.000000 1.777690 0.000000 
#    z 0.000000 0.000000 1.684100 
# 
# From -- ./inp_files/25111.got.cif
#   From: 2010.05.17/outbox.cif.g08.bks.cpg/sg53_13_cif.got.tgz:25111.got - 2010.06.03 12:45:16.
