data_PCOD9416964
_publ_section_title
;
Structure prediction by ZEFSAII (Michael W. Deem and Ramdas Pophale) SiO2 
 PCOD9416964
Probable space group: P M N A
;
_chemical_formula_sum "Si O2"
_cell_formula_units_Z 64
_cell_length_a 8.530332
_cell_length_b 15.317858
_cell_length_c 30.744488
_cell_angle_alpha 90.000000
_cell_angle_beta 90.000000
_cell_angle_gamma 90.000000
_cell_volume 4017.272005
_symmetry_space_group_name_H-M "P M N A"
_symmetry_group_IT_number 53
_symmetry_cell_setting 'orthorhombic'
loop_
_space_group_symop_operation_xyz
x,y,z
1/2-x,-y,1/2+z
x,-y,-z
1/2-x,y,1/2-z
-x,-y,-z
1/2+x,y,1/2-z
-x,y,z
1/2+x,-y,1/2+z
loop_
_atom_site_type_symbol
_atom_site_label
_atom_site_fract_x
_atom_site_fract_y
_atom_site_fract_z
Si Si1 0.311655 0.291953 0.704104
Si Si2 0.689315 0.946963 0.064926
Si Si3 0.812490 0.630508 0.441685
Si Si4 0.187384 0.789815 0.113827
Si Si5 0.687614 0.539000 0.608207
Si Si6 0.810938 0.494947 0.796502
Si Si7 0.190366 0.127619 0.469910
Si Si8 0.310391 0.325826 0.038785
O O1 0.250000 0.258078 0.750000
O O2 0.500000 0.292091 0.705050
O O3 0.260911 0.238444 0.662000
O O4 0.260418 0.393162 0.699743
O O5 0.500000 0.943948 0.068287
O O6 0.763899 0.887425 0.101705
O O7 0.738941 0.048073 0.061410
O O8 0.732764 0.901916 0.018770
O O9 0.765450 0.721937 0.419688
O O10 0.739014 0.551647 0.414394
O O11 0.761978 0.633061 0.492239
O O12 0.000000 0.621108 0.440731
O O13 0.000000 0.779705 0.110806
O O14 0.500000 0.541679 0.608344
O O15 0.741153 0.540278 0.658659
O O16 0.751847 0.616809 0.578679
O O17 0.750000 0.528471 0.750000
O O18 0.000000 0.496675 0.795299
O O19 0.244709 0.225129 0.459707
O O20 0.000000 0.129171 0.469097
O O21 0.500000 0.325642 0.039065
#
# Coordination Sequence:
#
# PCOD9416964 Si02
#       8
#     8   8   8   8   8   8   8   8
#     4   9  18  32  47  66  93 124 155 193 237 285
#     4   9  16  30  51  71  91 125 163 194 234 279
#     4  11  21  33  49  68  94 132 174 202 223 274
#     4  11  20  31  47  71 103 129 154 196 245 287
#     4  11  22  35  48  69 100 130 158 197 247 290
#     4   9  18  33  49  67  92 121 156 195 238 285
#     4   8  15  30  50  69  94 123 160 205 234 264
#     4  10  20  34  49  69  95 129 171 206 232 271
#
# _framework density 15.931208
#
# number of rings (size 3 to 8) (size 9 to 14) (size 15 to 20)
#    0.000    2.250    2.500    2.250    0.000    4.500 
#    0.000    1.875    0.000    0.000    0.000    0.875 
#    0.000    0.000    0.000    0.000    0.000    0.000 
#
# Total GULP energy -356864.297707 kJ/mol
# GULP energy per Si atom -5576.004652 kJ/mol
# Density = 1.589495 g / cm^3
# Si number density = 15.931208 Si / 1000 Ang^3
#
#
#
# Elastic Constant Matrix: (Units=GPa)
#
#
# Indices 1 2 3 4 5 6 
#
# 1 6.7794 5.4803 17.5921 0.0000 0.0000 0.0000
# 2 5.4803 68.0638 47.3809 0.0000 0.0000 0.0000
# 3 17.5921 47.3809 139.9228 0.0000 0.0000 0.0000
# 4 0.0000 0.0000 0.0000 22.6961 0.0000 0.0000
# 5 0.0000 0.0000 0.0000 0.0000 23.1673 0.0000
# 6 0.0000 0.0000 0.0000 0.0000 0.0000 18.3301
#
#
#
# Elastic Compliance Matrix: (Units=1/GPa)
#
#
# Indices 1 2 3 4 5 6 
#
# 1 0.219141 0.002008 -0.028232 0.000000 0.000000 0.000000
# 2 0.002008 0.019242 -0.006768 0.000000 0.000000 0.000000
# 3 -0.028232 -0.006768 0.012988 0.000000 0.000000 0.000000
# 4 0.000000 0.000000 0.000000 0.044060 0.000000 0.000000
# 5 0.000000 0.000000 0.000000 0.000000 0.043164 0.000000
# 6 0.000000 0.000000 0.000000 0.000000 0.000000 0.054555
#
#
# Mechanical properties :
#
#
# Convention : Reuss Voigt Hill
#
# Bulk Modulus (GPa) = 5.39411 39.51918 22.45664
# Shear Modulus (GPa) = 9.59821 22.45958 16.02889
#
# Velocity S-wave (km/s) = 2.45721 3.75878 3.17540
# Velocity P-wave (km/s) = 3.38286 6.61044 5.25079
#
# Compressibility (1/GPa) = 0.18538742
#
# Stress axis : x y z
#
# Youngs Moduli (GPa) = 4.56327 51.96984 76.99305
#
# Poissons Ratio (x) = -0.10437 2.17367
# Poissons Ratio (y) = -0.00916 0.52111
# Poissons Ratio (z) = 0.12883 0.35174
#
# Static dielectric constant tensor:
#      x y z
#    x 1.546280 0.000000 0.000000 
#    y 0.000000 1.526920 0.000000 
#    z 0.000000 0.000000 1.534580 
# 
# From -- ./inp_files/38411.got.cif
#   From: 2010.05.17/outbox.cif.g08.bks.cpg/sg53_20_cif.got.tgz:38411.got - 2010.06.03 12:45:16.
