data_PCOD9416198
_publ_section_title
;
Structure prediction by ZEFSAII (Michael W. Deem and Ramdas Pophale) SiO2 
 PCOD9416198
Probable space group: P M N A
;
_chemical_formula_sum "Si O2"
_cell_formula_units_Z 64
_cell_length_a 8.815888
_cell_length_b 17.829875
_cell_length_c 22.844781
_cell_angle_alpha 90.000000
_cell_angle_beta 90.000000
_cell_angle_gamma 90.000000
_cell_volume 3590.883882
_symmetry_space_group_name_H-M "P M N A"
_symmetry_group_IT_number 53
_symmetry_cell_setting 'orthorhombic'
loop_
_space_group_symop_operation_xyz
x,y,z
1/2-x,-y,1/2+z
x,-y,-z
1/2-x,y,1/2-z
-x,-y,-z
1/2+x,y,1/2-z
-x,y,z
1/2+x,-y,1/2+z
loop_
_atom_site_type_symbol
_atom_site_label
_atom_site_fract_x
_atom_site_fract_y
_atom_site_fract_z
Si Si1 0.819426 0.405142 0.152936
Si Si2 0.817780 0.327520 0.921861
Si Si3 0.680855 0.851173 0.585456
Si Si4 0.826025 0.992891 0.429216
Si Si5 0.319027 0.839378 0.448840
Si Si6 0.182314 0.572209 0.189036
Si Si7 0.322659 0.583009 0.972982
Si Si8 0.819485 0.751286 0.688649
O O1 0.770534 0.485907 0.178052
O O2 0.778357 0.407680 0.084428
O O3 0.734791 0.334486 0.180394
O O4 0.000000 0.396465 0.161093
O O5 0.787321 0.239209 0.917619
O O6 0.772262 0.375734 0.865368
O O7 0.000000 0.336867 0.930426
O O8 0.731642 0.359618 0.977827
O O9 0.500000 0.842500 0.590018
O O10 0.729372 0.937672 0.594817
O O11 0.725330 0.832784 0.517860
O O12 0.759154 0.798196 0.633071
O O13 0.000000 0.999737 0.410122
O O14 0.821774 0.000000 0.500000
O O15 0.760570 0.910248 0.419095
O O16 0.500000 0.852852 0.448808
O O17 0.250000 0.598804 0.250000
O O18 0.000000 0.573086 0.191732
O O19 0.500000 0.593659 0.958185
O O20 0.303968 0.500000 0.000000
O O21 0.750000 0.779387 0.750000
O O22 0.000000 0.754781 0.690894
#
# Coordination Sequence:
#
# PCOD9416198 Si02
#       8
#     8   8   8   8   8   8   8   8
#     4  11  22  38  58  79 106 144 186 229 278 329
#     4  10  20  36  55  78 107 144 183 224 276 332
#     4  10  19  34  56  83 112 145 181 220 273 330
#     4   9  17  30  51  80 113 144 173 211 263 321
#     4   9  18  32  54  82 111 140 178 225 275 333
#     4  10  22  37  55  75  99 137 183 228 272 319
#     4  11  22  34  52  81 112 142 177 225 280 333
#     4  12  25  40  57  80 111 147 190 235 280 331
#
# _framework density 17.822911000000001
#
# number of rings (size 3 to 8) (size 9 to 14) (size 15 to 20)
#    0.000    1.750    1.250    3.750    0.000    6.500 
#    0.000    0.000    0.000    0.750    0.000    3.500 
#    0.000    0.000    0.000    0.000    0.000    0.000 
#
# Total GULP energy -357439.426622 kJ/mol
# GULP energy per Si atom -5584.991041 kJ/mol
# Density = 1.778234 g / cm^3
# Si number density = 17.822911 Si / 1000 Ang^3
#
#
#
# Elastic Constant Matrix: (Units=GPa)
#
#
# Indices 1 2 3 4 5 6 
#
# 1 58.3673 35.1500 17.7951 0.0000 0.0000 0.0000
# 2 35.1500 100.7510 22.0220 0.0000 0.0000 0.0000
# 3 17.7951 22.0220 65.6220 0.0000 0.0000 0.0000
# 4 0.0000 0.0000 0.0000 5.6663 0.0000 0.0000
# 5 0.0000 0.0000 0.0000 0.0000 26.7424 0.0000
# 6 0.0000 0.0000 0.0000 0.0000 0.0000 24.7637
#
#
#
# Elastic Compliance Matrix: (Units=1/GPa)
#
#
# Indices 1 2 3 4 5 6 
#
# 1 0.022511 -0.007035 -0.003743 0.000000 0.000000 0.000000
# 2 -0.007035 0.012910 -0.002425 0.000000 0.000000 0.000000
# 3 -0.003743 -0.002425 0.017068 0.000000 0.000000 0.000000
# 4 0.000000 0.000000 0.000000 0.176483 0.000000 0.000000
# 5 0.000000 0.000000 0.000000 0.000000 0.037394 0.000000
# 6 0.000000 0.000000 0.000000 0.000000 0.000000 0.040382
#
#
# Mechanical properties :
#
#
# Convention : Reuss Voigt Hill
#
# Bulk Modulus (GPa) = 38.34110 41.63049 39.98580
# Shear Modulus (GPa) = 14.62639 21.41937 18.02288
#
# Velocity S-wave (km/s) = 2.86781 3.47044 3.18342
# Velocity P-wave (km/s) = 5.70305 6.28229 5.99966
#
# Compressibility (1/GPa) = 0.02608167
#
# Stress axis : x y z
#
# Youngs Moduli (GPa) = 44.42262 77.45975 58.59058
#
# Poissons Ratio (x) = 0.54496 0.21933
# Poissons Ratio (y) = 0.31253 0.14206
# Poissons Ratio (z) = 0.16629 0.18781
#
# Static dielectric constant tensor:
#      x y z
#    x 1.599840 0.000000 0.000000 
#    y 0.000000 1.609250 0.000000 
#    z 0.000000 0.000000 1.587970 
# 
# From -- ./inp_files/31124.got.cif
#   From: 2010.05.17/outbox.cif.g08.bks.cpg/sg53_16_cif.got.tgz:31124.got - 2010.06.03 12:45:16.
