data_PCOD9416988
_publ_section_title
;
Structure prediction by ZEFSAII (Michael W. Deem and Ramdas Pophale) SiO2 
 PCOD9416988
Probable space group: P M N A
;
_chemical_formula_sum "Si O2"
_cell_formula_units_Z 56
_cell_length_a 8.650723
_cell_length_b 13.189196
_cell_length_c 21.136017
_cell_angle_alpha 90.000000
_cell_angle_beta 90.000000
_cell_angle_gamma 90.000000
_cell_volume 2411.536712
_symmetry_space_group_name_H-M "P M N A"
_symmetry_group_IT_number 53
_symmetry_cell_setting 'orthorhombic'
loop_
_space_group_symop_operation_xyz
x,y,z
1/2-x,-y,1/2+z
x,-y,-z
1/2-x,y,1/2-z
-x,-y,-z
1/2+x,y,1/2-z
-x,y,z
1/2+x,-y,1/2+z
loop_
_atom_site_type_symbol
_atom_site_label
_atom_site_fract_x
_atom_site_fract_y
_atom_site_fract_z
Si Si1 0.326062 0.775250 0.936136
Si Si2 0.183963 0.182812 0.183593
Si Si3 0.822977 0.376333 0.635340
Si Si4 0.815742 0.577129 0.817321
Si Si5 0.678481 0.076111 0.948354
Si Si6 0.828736 0.619469 0.010230
Si Si7 0.683925 0.168102 0.680992
O O1 0.500000 0.742973 0.919394
O O2 0.263847 0.850808 0.881568
O O3 0.328972 0.828832 0.003959
O O4 0.211114 0.680983 0.947181
O O5 0.250000 0.142948 0.250000
O O6 0.224403 0.303544 0.180930
O O7 0.000000 0.169606 0.181832
O O8 0.757054 0.489853 0.640260
O O9 0.800784 0.356538 0.561274
O O10 0.731895 0.286350 0.670446
O O11 0.000000 0.372590 0.655579
O O12 0.750000 0.542698 0.750000
O O13 0.000000 0.570561 0.821467
O O14 0.500000 0.042333 0.936096
O O15 0.752500 0.107278 0.881087
O O16 0.755459 0.000000 0.000000
O O17 0.000000 0.651169 0.033124
O O18 0.832307 0.500000 0.000000
O O19 0.750000 0.136072 0.750000
O O20 0.500000 0.158301 0.682104
#
# Coordination Sequence:
#
# PCOD9416988 Si02
#       7
#     8   8   8   8   8   8   8
#     4  11  22  38  63  92 124 163 208 260 319 382
#     4  10  21  37  58  84 120 164 214 268 320 377
#     4  12  23  36  55  84 123 167 217 268 323 383
#     4  10  20  34  51  76 113 161 211 261 315 371
#     4  10  23  46  73 101 133 169 211 264 328 397
#     4  11  23  37  55  84 125 171 217 266 318 375
#     4  12  25  43  69  99 134 171 214 268 329 397
#
# _framework density 23.221708
#
# number of rings (size 3 to 8) (size 9 to 14) (size 15 to 20)
#    0.000    1.143    1.429    5.571    0.000    7.143 
#    0.000    0.714    0.000    0.000    0.000    0.000 
#    0.000    0.000    0.000    0.000    0.000    0.000 
#
# Total GULP energy -312601.075758 kJ/mol
# GULP energy per Si atom -5582.162067 kJ/mol
# Density = 2.316885 g / cm^3
# Si number density = 23.221708 Si / 1000 Ang^3
#
#
#
# Elastic Constant Matrix: (Units=GPa)
#
#
# Indices 1 2 3 4 5 6 
#
# 1 104.9051 19.0061 39.2879 0.0000 0.0000 0.0000
# 2 19.0061 36.9832 1.4198 0.0000 0.0000 0.0000
# 3 39.2879 1.4198 153.9340 0.0000 0.0000 0.0000
# 4 0.0000 0.0000 0.0000 17.9748 0.0000 0.0000
# 5 0.0000 0.0000 0.0000 0.0000 33.9451 0.0000
# 6 0.0000 0.0000 0.0000 0.0000 0.0000 13.2244
#
#
#
# Elastic Compliance Matrix: (Units=1/GPa)
#
#
# Indices 1 2 3 4 5 6 
#
# 1 0.011699 -0.005900 -0.002932 0.000000 0.000000 0.000000
# 2 -0.005900 0.030024 0.001229 0.000000 0.000000 0.000000
# 3 -0.002932 0.001229 0.007233 0.000000 0.000000 0.000000
# 4 0.000000 0.000000 0.000000 0.055634 0.000000 0.000000
# 5 0.000000 0.000000 0.000000 0.000000 0.029459 0.000000
# 6 0.000000 0.000000 0.000000 0.000000 0.000000 0.075618
#
#
# Mechanical properties :
#
#
# Convention : Reuss Voigt Hill
#
# Bulk Modulus (GPa) = 29.62828 46.13889 37.88358
# Shear Modulus (GPa) = 21.17542 28.76942 24.97242
#
# Velocity S-wave (km/s) = 3.02301 3.52362 3.28287
# Velocity P-wave (km/s) = 4.99714 6.03875 5.54247
#
# Compressibility (1/GPa) = 0.03375153
#
# Stress axis : x y z
#
# Youngs Moduli (GPa) = 85.47593 33.30652 138.25227
#
# Poissons Ratio (x) = 0.19650 0.40529
# Poissons Ratio (y) = 0.50429 -0.16989
# Poissons Ratio (z) = 0.25057 -0.04093
#
# Static dielectric constant tensor:
#      x y z
#    x 1.816040 0.000000 0.000000 
#    y 0.000000 1.938400 0.000000 
#    z 0.000000 0.000000 1.930050 
# 
# From -- ./inp_files/30880.got.cif
#   From: 2010.05.17/outbox.cif.g08.bks.cpg/sg53_16_cif.got.tgz:30880.got - 2010.06.03 12:45:16.
