data_PCOD9416966
_publ_section_title
;
Structure prediction by ZEFSAII (Michael W. Deem and Ramdas Pophale) SiO2 
 PCOD9416966
Probable space group: P M N A
;
_chemical_formula_sum "Si O2"
_cell_formula_units_Z 64
_cell_length_a 7.617033
_cell_length_b 21.434966
_cell_length_c 18.025855
_cell_angle_alpha 90.000000
_cell_angle_beta 90.000000
_cell_angle_gamma 90.000000
_cell_volume 2943.096548
_symmetry_space_group_name_H-M "P M N A"
_symmetry_group_IT_number 53
_symmetry_cell_setting 'orthorhombic'
loop_
_space_group_symop_operation_xyz
x,y,z
1/2-x,-y,1/2+z
x,-y,-z
1/2-x,y,1/2-z
-x,-y,-z
1/2+x,y,1/2-z
-x,y,z
1/2+x,-y,1/2+z
loop_
_atom_site_type_symbol
_atom_site_label
_atom_site_fract_x
_atom_site_fract_y
_atom_site_fract_z
Si Si1 0.286207 0.616394 0.453114
Si Si2 0.291150 0.612786 0.623770
Si Si3 0.789589 0.018899 0.669161
Si Si4 0.715895 0.115849 0.126570
Si Si5 0.789327 0.479967 0.830955
Si Si6 0.709982 0.886958 0.045018
Si Si7 0.196750 0.249303 0.359020
Si Si8 0.708660 0.248109 0.530134
O O1 0.500000 0.612093 0.454095
O O2 0.226648 0.609992 0.538373
O O3 0.221973 0.563594 0.397327
O O4 0.241228 0.687356 0.430620
O O5 0.500000 0.606771 0.619869
O O6 0.220795 0.551093 0.663669
O O7 0.262364 0.681264 0.657895
O O8 0.750000 0.045642 0.750000
O O9 0.721503 0.061364 0.601790
O O10 0.000000 0.015957 0.660884
O O11 0.724710 0.947600 0.665060
O O12 0.500000 0.118801 0.127537
O O13 0.781020 0.182063 0.159251
O O14 0.771559 0.108928 0.040194
O O15 0.750000 0.453867 0.750000
O O16 0.000000 0.481981 0.838424
O O17 0.500000 0.894283 0.041710
O O18 0.750095 0.816419 0.070157
O O19 0.200584 0.246828 0.449359
O O20 0.000000 0.247846 0.329923
O O21 0.500000 0.250892 0.515029
#
# Coordination Sequence:
#
# PCOD9416966 Si02
#       8
#     8   8   8   8   8   8   8   8
#     4   8  15  30  52  73  92 122 161 196 233 280
#     4   9  17  31  52  74  95 123 160 200 240 283
#     4  10  20  34  50  69  96 128 162 199 239 285
#     4   8  15  30  52  73  92 122 161 196 233 280
#     4  10  20  34  50  69  96 128 162 199 239 285
#     4   9  17  31  52  74  95 123 160 200 240 283
#     4   9  16  28  49  75 100 123 154 198 243 286
#     4   9  16  28  49  75 100 123 154 198 243 286
#
# _framework density 21.745804
#
# number of rings (size 3 to 8) (size 9 to 14) (size 15 to 20)
#    0.000    3.000    0.000    3.000    0.000    4.000 
#    0.000    7.500    0.000   13.500    0.000    0.000 
#    0.000    0.000    0.000    0.000    0.000    0.000 
#
# Total GULP energy -356802.563006 kJ/mol
# GULP energy per Si atom -5575.040047 kJ/mol
# Density = 2.169631 g / cm^3
# Si number density = 21.745804 Si / 1000 Ang^3
#
#
#
# Elastic Constant Matrix: (Units=GPa)
#
#
# Indices 1 2 3 4 5 6 
#
# 1 42.0093 -1.6753 -1.0087 0.0000 0.0000 0.0000
# 2 -1.6753 124.0094 45.8057 0.0000 0.0000 0.0000
# 3 -1.0087 45.8057 79.0196 0.0000 0.0000 0.0000
# 4 0.0000 0.0000 0.0000 -24.0904 0.0000 0.0000
# 5 0.0000 0.0000 0.0000 0.0000 15.9757 0.0000
# 6 0.0000 0.0000 0.0000 0.0000 0.0000 12.1618
#
#
#
# Elastic Compliance Matrix: (Units=1/GPa)
#
#
# Indices 1 2 3 4 5 6 
#
# 1 0.023818 0.000267 0.000150 0.000000 0.000000 0.000000
# 2 0.000267 0.010264 -0.005946 0.000000 0.000000 0.000000
# 3 0.000150 -0.005946 0.016104 0.000000 0.000000 0.000000
# 4 0.000000 0.000000 0.000000 -0.041510 0.000000 0.000000
# 5 0.000000 0.000000 0.000000 0.000000 0.062595 0.000000
# 6 0.000000 0.000000 0.000000 0.000000 0.000000 0.082225
#
#
# Mechanical properties :
#
#
# Convention : Reuss Voigt Hill
#
# Bulk Modulus (GPa) = 25.55858 36.80910 31.18384
# Shear Modulus (GPa) = 28.15342 14.27053 21.21197
#
# Velocity S-wave (km/s) = 3.60204 2.56450 3.12661
# Velocity P-wave (km/s) = 5.39244 5.07273 5.23503
#
# Compressibility (1/GPa) = 0.03912581
#
# Stress axis : x y z
#
# Youngs Moduli (GPa) = 41.98418 97.42867 62.09658
#
# Poissons Ratio (x) = -0.02597 -0.00929
# Poissons Ratio (y) = -0.01119 0.36925
# Poissons Ratio (z) = -0.00628 0.57934
#
# Static dielectric constant tensor:
#      x y z
#    x 1.833410 0.000000 0.000000 
#    y 0.000000 1.839780 0.000000 
#    z 0.000000 0.000000 1.747720 
# 
# From -- ./inp_files/26931.got.cif
#   From: 2010.05.17/outbox.cif.g08.bks.cpg/sg53_14_cif.got.tgz:26931.got - 2010.06.03 12:45:16.
