data_PCOD9416926
_publ_section_title
;
Structure prediction by ZEFSAII (Michael W. Deem and Ramdas Pophale) SiO2 
 PCOD9416926
Probable space group: P M N A
;
_chemical_formula_sum "Si O2"
_cell_formula_units_Z 52
_cell_length_a 27.696770
_cell_length_b 5.123539
_cell_length_c 17.398188
_cell_angle_alpha 90.000000
_cell_angle_beta 90.000000
_cell_angle_gamma 90.000000
_cell_volume 2468.898241
_symmetry_space_group_name_H-M "P M N A"
_symmetry_group_IT_number 53
_symmetry_cell_setting 'orthorhombic'
loop_
_space_group_symop_operation_xyz
x,y,z
1/2-x,-y,1/2+z
x,-y,-z
1/2-x,y,1/2-z
-x,-y,-z
1/2+x,y,1/2-z
-x,y,z
1/2+x,-y,1/2+z
loop_
_atom_site_type_symbol
_atom_site_label
_atom_site_fract_x
_atom_site_fract_y
_atom_site_fract_z
Si Si1 0.500000 0.691668 0.665764
Si Si2 0.500000 0.247734 0.056564
Si Si3 0.602947 0.297086 0.783055
Si Si4 0.000000 0.803234 0.260407
Si Si5 0.106807 0.207209 0.175840
Si Si6 0.692483 0.249845 0.444610
Si Si7 0.895059 0.083348 0.411240
Si Si8 0.202383 0.254054 0.445387
O O1 0.500000 0.894482 0.738025
O O2 0.446037 0.753038 0.635412
O O3 0.500000 0.384933 0.685529
O O4 0.551744 0.212902 0.101621
O O5 0.500000 0.500000 0.000000
O O6 0.500000 0.000000 0.000000
O O7 0.546581 0.283666 0.804545
O O8 0.608737 0.075765 0.716267
O O9 0.622419 0.161999 0.859579
O O10 0.611924 0.572995 0.742753
O O11 0.149641 0.242417 0.116206
O O12 0.688582 0.500000 0.500000
O O13 0.745493 0.248111 0.404194
O O14 0.689447 0.000000 0.500000
O O15 0.848513 0.269301 0.401927
O O16 0.897303 0.000000 0.500000
O O17 0.204426 0.500000 0.500000
O O18 0.201825 0.000000 0.500000
#
# Coordination Sequence:
#
# PCOD9416926 Si02
#       8
#     4   4   8   4   8   8   8   8
#     4   8  16  30  51  73 106 146 173 208 265 331
#     4  10  21  34  53  82 113 144 187 246 284 308
#     4  10  20  33  54  79 111 148 181 224 273 322
#     4   8  15  30  47  71 104 146 182 202 253 333
#     4  10  20  36  55  82 112 142 183 225 274 337
#     4  10  20  37  61  83 105 141 185 231 281 339
#     4  10  21  37  56  81 113 149 191 231 275 329
#     4   9  19  35  56  78 104 141 182 222 272 335
#
# _framework density 21.062027
#
# number of rings (size 3 to 8) (size 9 to 14) (size 15 to 20)
#    0.000    2.462    0.000    1.846    0.000    4.923 
#    0.000    6.154    0.000    1.846    0.000    0.000 
#    0.000    0.000    0.000    0.000    0.000    0.000 
#
# Total GULP energy -289492.616756 kJ/mol
# GULP energy per Si atom -5567.165707 kJ/mol
# Density = 2.101409 g / cm^3
# Si number density = 21.062027 Si / 1000 Ang^3
#
#
#
# Elastic Constant Matrix: (Units=GPa)
#
#
# Indices 1 2 3 4 5 6 
#
# 1 181.5868 18.0930 43.6851 0.0000 0.0000 0.0000
# 2 18.0930 134.9822 15.4719 0.0000 0.0000 0.0000
# 3 43.6851 15.4719 41.8563 0.0000 0.0000 0.0000
# 4 0.0000 0.0000 0.0000 24.1396 0.0000 0.0000
# 5 0.0000 0.0000 0.0000 0.0000 12.6916 0.0000
# 6 0.0000 0.0000 0.0000 0.0000 0.0000 59.6269
#
#
#
# Elastic Compliance Matrix: (Units=1/GPa)
#
#
# Indices 1 2 3 4 5 6 
#
# 1 0.007355 -0.000111 -0.007635 0.000000 0.000000 0.000000
# 2 -0.000111 0.007738 -0.002745 0.000000 0.000000 0.000000
# 3 -0.007635 -0.002745 0.032875 0.000000 0.000000 0.000000
# 4 0.000000 0.000000 0.000000 0.041426 0.000000 0.000000
# 5 0.000000 0.000000 0.000000 0.000000 0.078792 0.000000
# 6 0.000000 0.000000 0.000000 0.000000 0.000000 0.016771
#
#
# Mechanical properties :
#
#
# Convention : Reuss Voigt Hill
#
# Bulk Modulus (GPa) = 37.05625 56.99170 47.02397
# Shear Modulus (GPa) = 23.26304 38.03664 30.64984
#
# Velocity S-wave (km/s) = 3.32701 4.25424 3.81887
# Velocity P-wave (km/s) = 5.69128 7.15885 6.46683
#
# Compressibility (1/GPa) = 0.02698600
#
# Stress axis : x y z
#
# Youngs Moduli (GPa) = 135.96390 129.23527 30.41852
#
# Poissons Ratio (x) = 0.01430 0.23226
# Poissons Ratio (y) = 0.01505 0.08349
# Poissons Ratio (z) = 1.03813 0.35471
#
# Static dielectric constant tensor:
#      x y z
#    x 1.862120 0.000000 0.000000 
#    y 0.000000 1.811570 0.000000 
#    z 0.000000 0.000000 1.534660 
# 
# From -- ./inp_files/29697.got.cif
#   From: 2010.05.17/outbox.cif.g08.bks.cpg/sg53_15_cif.got.tgz:29697.got - 2010.06.03 12:45:16.
