data_PCOD9416661
_publ_section_title
;
Structure prediction by ZEFSAII (Michael W. Deem and Ramdas Pophale) SiO2 
 PCOD9416661
Probable space group: P M N A
;
_chemical_formula_sum "Si O2"
_cell_formula_units_Z 64
_cell_length_a 18.425160
_cell_length_b 15.637436
_cell_length_c 11.884067
_cell_angle_alpha 90.000000
_cell_angle_beta 90.000000
_cell_angle_gamma 90.000000
_cell_volume 3424.064245
_symmetry_space_group_name_H-M "P M N A"
_symmetry_group_IT_number 53
_symmetry_cell_setting 'orthorhombic'
loop_
_space_group_symop_operation_xyz
x,y,z
1/2-x,-y,1/2+z
x,-y,-z
1/2-x,y,1/2-z
-x,-y,-z
1/2+x,y,1/2-z
-x,y,z
1/2+x,-y,1/2+z
loop_
_atom_site_type_symbol
_atom_site_label
_atom_site_fract_x
_atom_site_fract_y
_atom_site_fract_z
Si Si1 0.086018 0.167524 0.263218
Si Si2 0.585591 0.994203 0.366423
Si Si3 0.584350 0.397775 0.015366
Si Si4 0.415650 0.102225 0.984634
Si Si5 0.835995 0.342474 0.261830
Si Si6 0.664005 0.157526 0.761830
Si Si7 0.085591 0.505797 0.866423
Si Si8 0.086018 0.667524 0.263218
O O1 0.096824 0.146060 0.395028
O O2 0.130698 0.250735 0.230527
O O3 0.000000 0.182952 0.246254
O O4 0.106304 0.083429 0.192522
O O5 0.500000 0.980367 0.341080
O O6 0.630508 0.916739 0.315185
O O7 0.594401 0.000000 0.500000
O O8 0.500000 0.381496 0.048536
O O9 0.636786 0.363768 0.111858
O O10 0.592204 0.500000 0.000000
O O11 0.596824 0.353940 0.895028
O O12 0.500000 0.118504 0.951464
O O13 0.363214 0.136232 0.888142
O O14 0.407796 0.000000 0.000000
O O15 0.750000 0.341566 0.250000
O O16 0.869492 0.416739 0.184815
O O17 0.750000 0.158434 0.750000
O O18 0.630698 0.249265 0.730527
O O19 0.106304 0.416571 0.807478
O O20 0.000000 0.519633 0.841080
O O21 0.094401 0.500000 0.000000
O O22 0.000000 0.682952 0.246254
#
# Coordination Sequence:
#
# PCOD9416661 Si02
#       8
#     8   8   8   8   8   8   8   8
#     4  10  21  41  69  93 117 158 213 265 300 347
#     4  10  22  43  67  89 117 162 215 254 295 358
#     4  10  19  39  71  95 115 154 213 267 305 348
#     4  10  19  39  71  95 115 154 213 267 305 348
#     4  12  25  39  58  93 133 165 193 247 316 380
#     4  12  25  39  58  93 133 165 193 247 316 380
#     4  10  22  43  67  89 117 162 215 254 295 358
#     4  10  21  41  69  93 117 158 213 265 300 347
#
# _framework density 18.691237000000001
#
# number of rings (size 3 to 8) (size 9 to 14) (size 15 to 20)
#    0.000    1.500    2.500    3.000    0.000    5.000 
#    9.000    3.750    0.000    0.000    0.000    0.000 
#    0.000    0.000    0.000    0.000    0.000    0.000 
#
# Total GULP energy -357886.947870 kJ/mol
# GULP energy per Si atom -5591.983560 kJ/mol
# Density = 1.864870 g / cm^3
# Si number density = 18.691237 Si / 1000 Ang^3
#
#
#
# Elastic Constant Matrix: (Units=GPa)
#
#
# Indices 1 2 3 4 5 6 
#
# 1 115.9137 109.7352 67.9045 0.0000 0.0000 0.0000
# 2 109.7352 183.7892 61.3516 0.0000 0.0000 0.0000
# 3 67.9045 61.3516 81.0800 0.0000 0.0000 0.0000
# 4 0.0000 0.0000 0.0000 5.0403 0.0000 0.0000
# 5 0.0000 0.0000 0.0000 0.0000 -32.8687 0.0000
# 6 0.0000 0.0000 0.0000 0.0000 0.0000 -45.8021
#
#
#
# Elastic Compliance Matrix: (Units=1/GPa)
#
#
# Indices 1 2 3 4 5 6 
#
# 1 0.029193 -0.012401 -0.015065 0.000000 0.000000 0.000000
# 2 -0.012401 0.012548 0.000891 0.000000 0.000000 0.000000
# 3 -0.015065 0.000891 0.024276 0.000000 0.000000 0.000000
# 4 0.000000 0.000000 0.000000 0.198402 0.000000 0.000000
# 5 0.000000 0.000000 0.000000 0.000000 -0.030424 0.000000
# 6 0.000000 0.000000 0.000000 0.000000 0.000000 -0.021833
#
#
# Mechanical properties :
#
#
# Convention : Reuss Voigt Hill
#
# Bulk Modulus (GPa) = 77.72068 95.41839 86.56953
# Shear Modulus (GPa) = 18.54597 -5.27332 6.63632
#
# Velocity S-wave (km/s) = 3.15338 -1.68149 1.88632
# Velocity P-wave (km/s) = 7.41148 6.88409 7.15265
#
# Compressibility (1/GPa) = 0.01286659
#
# Stress axis : x y z
#
# Youngs Moduli (GPa) = 34.25516 79.69485 41.19258
#
# Poissons Ratio (x) = 0.98831 0.62057
# Poissons Ratio (y) = 0.42480 -0.03671
# Poissons Ratio (z) = 0.51606 -0.07103
#
# Static dielectric constant tensor:
#      x y z
#    x 1.614000 0.000000 0.000000 
#    y 0.000000 1.636150 0.000000 
#    z 0.000000 0.000000 1.633100 
# 
# From -- ./inp_files/17144.got.cif
#   From: 2010.05.17/outbox.cif.g08.bks.cpg/sg53_9_cif.got.tgz:17144.got - 2010.06.03 12:45:16.
