data_PCOD9416404
_publ_section_title
;
Structure prediction by ZEFSAII (Michael W. Deem and Ramdas Pophale) SiO2 
 PCOD9416404
Probable space group: P M N A
;
_chemical_formula_sum "Si O2"
_cell_formula_units_Z 64
_cell_length_a 18.561807
_cell_length_b 20.388459
_cell_length_c 9.566449
_cell_angle_alpha 90.000000
_cell_angle_beta 90.000000
_cell_angle_gamma 90.000000
_cell_volume 3620.390490
_symmetry_space_group_name_H-M "P M N A"
_symmetry_group_IT_number 53
_symmetry_cell_setting 'orthorhombic'
loop_
_space_group_symop_operation_xyz
x,y,z
1/2-x,-y,1/2+z
x,-y,-z
1/2-x,y,1/2-z
-x,-y,-z
1/2+x,y,1/2-z
-x,y,z
1/2+x,-y,1/2+z
loop_
_atom_site_type_symbol
_atom_site_label
_atom_site_fract_x
_atom_site_fract_y
_atom_site_fract_z
Si Si1 0.583070 0.381561 0.188446
Si Si2 0.416857 0.754441 0.657710
Si Si3 0.200065 0.190116 0.948731
Si Si4 0.418996 0.854764 0.917526
Si Si5 0.915849 0.363510 0.644326
Si Si6 0.850368 0.225828 0.656899
Si Si7 0.773653 0.934507 0.590092
Si Si8 0.176348 0.507865 0.332935
O O1 0.500000 0.402120 0.210208
O O2 0.597390 0.317734 0.281013
O O3 0.635322 0.442153 0.214956
O O4 0.588938 0.361555 0.025195
O O5 0.500000 0.756458 0.606451
O O6 0.358009 0.774124 0.544590
O O7 0.411689 0.806164 0.785210
O O8 0.274224 0.230550 0.925285
O O9 0.166240 0.183417 0.794628
O O10 0.224998 0.122526 0.019929
O O11 0.500000 0.881756 0.917909
O O12 0.355557 0.907708 0.912457
O O13 0.405435 0.810482 0.054644
O O14 0.879184 0.297101 0.697978
O O15 0.874155 0.428832 0.689025
O O16 0.000000 0.366196 0.682126
O O17 0.750000 0.944422 0.750000
O O18 0.767262 0.000000 0.500000
O O19 0.188497 0.500000 0.500000
O O20 0.250000 0.515815 0.250000
#
# Coordination Sequence:
#
# PCOD9416404 Si02
#       8
#     8   8   8   8   8   8   8   8
#     4   9  18  35  57  83 108 146 199 244 288 350
#     4  10  19  35  60  86 118 152 193 246 298 345
#     4  10  23  39  57  91 120 155 192 240 296 349
#     4  10  20  38  63  91 120 153 197 245 288 340
#     4  10  19  35  59  83 111 153 198 242 295 349
#     4  10  21  35  59  87 121 153 196 248 290 352
#     4  11  24  41  66  89 121 160 195 238 287 352
#     4  10  22  37  55  79 112 153 192 247 295 348
#
# _framework density 17.677651999999998
#
# number of rings (size 3 to 8) (size 9 to 14) (size 15 to 20)
#    0.000    2.000    2.500    0.750    5.250    4.750 
#    0.000    0.000    0.000    1.500    0.000    0.000 
#    0.000    0.000    0.000    0.000    0.000    0.000 
#
# Total GULP energy -357208.646986 kJ/mol
# GULP energy per Si atom -5581.385109 kJ/mol
# Density = 1.763742 g / cm^3
# Si number density = 17.677652 Si / 1000 Ang^3
#
#
#
# Elastic Constant Matrix: (Units=GPa)
#
#
# Indices 1 2 3 4 5 6 
#
# 1 126.2548 76.4933 64.9579 0.0000 0.0000 0.0000
# 2 76.4933 108.7727 43.6061 0.0000 0.0000 0.0000
# 3 64.9579 43.6061 73.8289 0.0000 0.0000 0.0000
# 4 0.0000 0.0000 0.0000 19.1863 0.0000 0.0000
# 5 0.0000 0.0000 0.0000 0.0000 29.8705 0.0000
# 6 0.0000 0.0000 0.0000 0.0000 0.0000 18.6488
#
#
#
# Elastic Compliance Matrix: (Units=1/GPa)
#
#
# Indices 1 2 3 4 5 6 
#
# 1 0.019383 -0.008902 -0.011796 0.000000 0.000000 0.000000
# 2 -0.008902 0.016134 -0.001697 0.000000 0.000000 0.000000
# 3 -0.011796 -0.001697 0.024926 0.000000 0.000000 0.000000
# 4 0.000000 0.000000 0.000000 0.052121 0.000000 0.000000
# 5 0.000000 0.000000 0.000000 0.000000 0.033478 0.000000
# 6 0.000000 0.000000 0.000000 0.000000 0.000000 0.053623
#
#
# Mechanical properties :
#
#
# Convention : Reuss Voigt Hill
#
# Bulk Modulus (GPa) = 63.88694 75.44121 69.66408
# Shear Modulus (GPa) = 20.02631 21.79441 20.91036
#
# Velocity S-wave (km/s) = 3.36945 3.51505 3.44302
# Velocity P-wave (km/s) = 7.16631 7.69693 7.43636
#
# Compressibility (1/GPa) = 0.01565265
#
# Stress axis : x y z
#
# Youngs Moduli (GPa) = 51.59192 61.98111 40.11878
#
# Poissons Ratio (x) = 0.55174 0.47325
# Poissons Ratio (y) = 0.45926 0.06809
# Poissons Ratio (z) = 0.60859 0.10519
#
# Static dielectric constant tensor:
#      x y z
#    x 1.600640 0.000000 0.000000 
#    y 0.000000 1.577390 0.000000 
#    z 0.000000 0.000000 1.599610 
# 
# From -- ./inp_files/10216.got.cif
#   From: 2010.05.17/outbox.cif.g08.bks.cpg/sg53_6_cif.got.tgz:10216.got - 2010.06.03 12:45:16.
