data_PCOD9416256
_publ_section_title
;
Structure prediction by ZEFSAII (Michael W. Deem and Ramdas Pophale) SiO2 
 PCOD9416256
Probable space group: P M N A
;
_chemical_formula_sum "Si O2"
_cell_formula_units_Z 40
_cell_length_a 15.749501
_cell_length_b 13.919711
_cell_length_c 8.619946
_cell_angle_alpha 90.000000
_cell_angle_beta 90.000000
_cell_angle_gamma 90.000000
_cell_volume 1889.737852
_symmetry_space_group_name_H-M "P M N A"
_symmetry_group_IT_number 53
_symmetry_cell_setting 'orthorhombic'
loop_
_space_group_symop_operation_xyz
x,y,z
1/2-x,-y,1/2+z
x,-y,-z
1/2-x,y,1/2-z
-x,-y,-z
1/2+x,y,1/2-z
-x,y,z
1/2+x,-y,1/2+z
loop_
_atom_site_type_symbol
_atom_site_label
_atom_site_fract_x
_atom_site_fract_y
_atom_site_fract_z
Si Si1 0.345399 0.888541 0.181794
Si Si2 0.845588 0.293024 0.183148
Si Si3 0.654232 0.500915 0.312247
Si Si4 0.152973 0.098124 0.311200
Si Si5 0.905081 0.702543 0.151197
O O1 0.250000 0.883060 0.250000
O O2 0.392839 0.794955 0.242728
O O3 0.383209 0.992856 0.229071
O O4 0.343758 0.889810 0.995949
O O5 0.750000 0.293723 0.250000
O O6 0.883366 0.396570 0.231873
O O7 0.887219 0.194219 0.240311
O O8 0.843136 0.289494 0.996513
O O9 0.653782 0.500000 0.500000
O O10 0.750000 0.504868 0.250000
O O11 0.610724 0.600645 0.265411
O O12 0.250000 0.094366 0.250000
O O13 0.000000 0.700494 0.085972
#
# Coordination Sequence:
#
# PCOD9416256 Si02
#       5
#     8   8   8   8   8
#     4  10  19  34  58  83 111 146 187 234 279 332
#     4   9  18  35  57  81 109 143 187 230 272 331
#     4   9  19  34  56  82 108 143 185 228 272 327
#     4   9  18  33  56  85 110 139 186 239 282 323
#     4  11  23  37  55  83 118 151 185 229 282 333
#
# _framework density 21.166957
#
# number of rings (size 3 to 8) (size 9 to 14) (size 15 to 20)
#    0.000    2.400    0.000    3.000    0.000   10.800 
#    0.000    5.000    0.000    4.200    0.000    0.000 
#    0.000    0.000    0.000    0.000    0.000    0.000 
#
# Total GULP energy -222946.736622 kJ/mol
# GULP energy per Si atom -5573.668416 kJ/mol
# Density = 2.111878 g / cm^3
# Si number density = 21.166957 Si / 1000 Ang^3
#
#
#
# Elastic Constant Matrix: (Units=GPa)
#
#
# Indices 1 2 3 4 5 6 
#
# 1 32.6459 18.0147 -3.5283 0.0000 0.0000 0.0000
# 2 18.0147 262.4509 48.3508 0.0000 0.0000 0.0000
# 3 -3.5283 48.3508 29.3095 0.0000 0.0000 0.0000
# 4 0.0000 0.0000 0.0000 -96.3570 0.0000 0.0000
# 5 0.0000 0.0000 0.0000 0.0000 2.7994 0.0000
# 6 0.0000 0.0000 0.0000 0.0000 0.0000 -25.4668
#
#
#
# Elastic Compliance Matrix: (Units=1/GPa)
#
#
# Indices 1 2 3 4 5 6 
#
# 1 0.034351 -0.004482 0.011529 0.000000 0.000000 0.000000
# 2 -0.004482 0.006059 -0.010534 0.000000 0.000000 0.000000
# 3 0.011529 -0.010534 0.052884 0.000000 0.000000 0.000000
# 4 0.000000 0.000000 0.000000 -0.010378 0.000000 0.000000
# 5 0.000000 0.000000 0.000000 0.000000 0.357218 0.000000
# 6 0.000000 0.000000 0.000000 0.000000 0.000000 -0.039267
#
#
# Mechanical properties :
#
#
# Convention : Reuss Voigt Hill
#
# Bulk Modulus (GPa) = 11.58493 50.00898 30.79695
# Shear Modulus (GPa) = 11.45175 -6.36694 2.54240
#
# Velocity S-wave (km/s) = 2.32851 -1.73623 1.09715
# Velocity P-wave (km/s) = 3.56571 4.43373 4.02320
#
# Compressibility (1/GPa) = 0.08631903
#
# Stress axis : x y z
#
# Youngs Moduli (GPa) = 29.11136 165.05631 18.90925
#
# Poissons Ratio (x) = 0.73974 -0.21800
# Poissons Ratio (y) = 0.13047 0.19919
# Poissons Ratio (z) = -0.33561 1.73872
#
# Static dielectric constant tensor:
#      x y z
#    x 1.779550 0.000000 0.000000 
#    y 0.000000 1.869080 0.000000 
#    z 0.000000 0.000000 1.833710 
# 
# From -- ./inp_files/8395.got.cif
#   From: 2010.05.17/outbox.cif.g08.bks.cpg/sg53_5_cif.got.tgz:8395.got - 2010.06.03 12:45:16.
