data_PCOD9416019
_publ_section_title
;
Structure prediction by ZEFSAII (Michael W. Deem and Ramdas Pophale) SiO2 
 PCOD9416019
Probable space group: P M N A
;
_chemical_formula_sum "Si O2"
_cell_formula_units_Z 64
_cell_length_a 8.819633
_cell_length_b 21.272229
_cell_length_c 19.013158
_cell_angle_alpha 90.000000
_cell_angle_beta 90.000000
_cell_angle_gamma 90.000000
_cell_volume 3567.120420
_symmetry_space_group_name_H-M "P M N A"
_symmetry_group_IT_number 53
_symmetry_cell_setting 'orthorhombic'
loop_
_space_group_symop_operation_xyz
x,y,z
1/2-x,-y,1/2+z
x,-y,-z
1/2-x,y,1/2-z
-x,-y,-z
1/2+x,y,1/2-z
-x,y,z
1/2+x,-y,1/2+z
loop_
_atom_site_type_symbol
_atom_site_label
_atom_site_fract_x
_atom_site_fract_y
_atom_site_fract_z
Si Si1 0.181634 0.616922 0.828042
Si Si2 0.819174 0.807142 0.464957
Si Si3 0.679726 0.750950 0.324790
Si Si4 0.180491 0.503177 0.582668
Si Si5 0.181475 0.872924 0.824020
Si Si6 0.319655 0.398000 0.675236
Si Si7 0.682399 0.746018 0.887814
Si Si8 0.682171 0.067736 0.471145
O O1 0.250000 0.608602 0.750000
O O2 0.236852 0.560252 0.877756
O O3 0.243429 0.682352 0.859859
O O4 0.000000 0.618074 0.824088
O O5 0.749074 0.785218 0.391854
O O6 0.780128 0.760804 0.530374
O O7 0.758372 0.875389 0.486918
O O8 0.000000 0.808395 0.459592
O O9 0.750000 0.770495 0.250000
O O10 0.500000 0.760472 0.322615
O O11 0.708934 0.676227 0.333202
O O12 0.213005 0.500000 0.500000
O O13 0.238261 0.438780 0.616667
O O14 0.000000 0.510288 0.592460
O O15 0.250000 0.893860 0.750000
O O16 0.254362 0.805758 0.844726
O O17 0.215789 0.919746 0.888836
O O18 0.000000 0.866070 0.818851
O O19 0.250000 0.417521 0.750000
O O20 0.500000 0.408692 0.674677
O O21 0.500000 0.742898 0.880620
O O22 0.500000 0.072646 0.479374
O O23 0.730203 0.000000 0.500000
#
# Coordination Sequence:
#
# PCOD9416019 Si02
#       8
#     8   8   8   8   8   8   8   8
#     4  12  25  41  61  83 113 148 187 232 282 338
#     4  10  21  36  58  86 117 151 186 232 284 336
#     4  10  21  37  59  86 115 148 189 236 285 338
#     4  11  25  42  59  81 111 147 186 232 283 336
#     4  10  19  33  55  83 114 148 188 232 280 332
#     4  10  21  38  60  84 109 144 186 232 283 338
#     4  10  21  37  57  84 116 149 187 229 280 336
#     4   9  19  37  59  82 112 153 196 235 278 331
#
# _framework density 17.941642999999999
#
# number of rings (size 3 to 8) (size 9 to 14) (size 15 to 20)
#    0.000    1.750    0.000    4.125    1.750    4.750 
#    0.000    0.625    0.000    1.500    0.000    0.000 
#    0.000    0.000    0.000    0.000    0.000    0.000 
#
# Total GULP energy -357617.265475 kJ/mol
# GULP energy per Si atom -5587.769773 kJ/mol
# Density = 1.790081 g / cm^3
# Si number density = 17.941643 Si / 1000 Ang^3
#
#
#
# Elastic Constant Matrix: (Units=GPa)
#
#
# Indices 1 2 3 4 5 6 
#
# 1 86.6499 62.4658 87.9882 0.0000 0.0000 0.0000
# 2 62.4658 80.4995 84.6349 0.0000 0.0000 0.0000
# 3 87.9882 84.6349 180.5685 0.0000 0.0000 0.0000
# 4 0.0000 0.0000 0.0000 26.4820 0.0000 0.0000
# 5 0.0000 0.0000 0.0000 0.0000 33.2776 0.0000
# 6 0.0000 0.0000 0.0000 0.0000 0.0000 26.7856
#
#
#
# Elastic Compliance Matrix: (Units=1/GPa)
#
#
# Indices 1 2 3 4 5 6 
#
# 1 0.030542 -0.015877 -0.007441 0.000000 0.000000 0.000000
# 2 -0.015877 0.032745 -0.007612 0.000000 0.000000 0.000000
# 3 -0.007441 -0.007612 0.012732 0.000000 0.000000 0.000000
# 4 0.000000 0.000000 0.000000 0.037761 0.000000 0.000000
# 5 0.000000 0.000000 0.000000 0.000000 0.030050 0.000000
# 6 0.000000 0.000000 0.000000 0.000000 0.000000 0.037333
#
#
# Mechanical properties :
#
#
# Convention : Reuss Voigt Hill
#
# Bulk Modulus (GPa) = 70.62095 90.87730 80.74912
# Shear Modulus (GPa) = 20.18221 24.81764 22.49992
#
# Velocity S-wave (km/s) = 3.35756 3.72323 3.54511
# Velocity P-wave (km/s) = 7.38091 8.32135 7.86520
#
# Compressibility (1/GPa) = 0.01416010
#
# Stress axis : x y z
#
# Youngs Moduli (GPa) = 32.74145 30.53904 78.54445
#
# Poissons Ratio (x) = 0.48486 0.58446
# Poissons Ratio (y) = 0.51983 0.59784
# Poissons Ratio (z) = 0.24363 0.23245
#
# Static dielectric constant tensor:
#      x y z
#    x 1.597390 0.000000 0.000000 
#    y 0.000000 1.583670 0.000000 
#    z 0.000000 0.000000 1.625250 
# 
# From -- ./inp_files/26906.got.cif
#   From: 2010.05.17/outbox.cif.g08.bks.cpg/sg53_14_cif.got.tgz:26906.got - 2010.06.03 12:45:16.
