data_PCOD9416130
_publ_section_title
;
Structure prediction by ZEFSAII (Michael W. Deem and Ramdas Pophale) SiO2 
 PCOD9416130
Probable space group: P M N A
;
_chemical_formula_sum "Si O2"
_cell_formula_units_Z 48
_cell_length_a 10.396631
_cell_length_b 28.914492
_cell_length_c 8.497808
_cell_angle_alpha 90.000000
_cell_angle_beta 90.000000
_cell_angle_gamma 90.000000
_cell_volume 2554.554139
_symmetry_space_group_name_H-M "P M N A"
_symmetry_group_IT_number 53
_symmetry_cell_setting 'orthorhombic'
loop_
_space_group_symop_operation_xyz
x,y,z
1/2-x,-y,1/2+z
x,-y,-z
1/2-x,y,1/2-z
-x,-y,-z
1/2+x,y,1/2-z
-x,y,z
1/2+x,-y,1/2+z
loop_
_atom_site_type_symbol
_atom_site_label
_atom_site_fract_x
_atom_site_fract_y
_atom_site_fract_z
Si Si1 0.500000 0.387231 0.561215
Si Si2 0.000000 0.720126 0.069780
Si Si3 0.500000 0.291449 0.946304
Si Si4 0.757939 0.448194 0.940096
Si Si5 0.348012 0.865353 0.895686
Si Si6 0.758177 0.234151 0.438644
Si Si7 0.500000 0.397350 0.944327
Si Si8 0.646909 0.044226 0.887820
O O1 0.500000 0.333513 0.512862
O O2 0.626225 0.414846 0.509406
O O3 0.500000 0.391650 0.752945
O O4 0.000000 0.714788 0.258014
O O5 0.874193 0.747564 0.012258
O O6 0.500000 0.344650 0.998690
O O7 0.627183 0.267100 0.008711
O O8 0.750000 0.449417 0.750000
O O9 0.624927 0.425567 0.994676
O O10 0.776060 0.500000 0.000000
O O11 0.250000 0.872652 0.750000
O O12 0.500000 0.859215 0.849027
O O13 0.298513 0.818434 0.979085
O O14 0.341272 0.909386 0.008940
O O15 0.750000 0.235147 0.250000
O O16 0.750000 0.043981 0.750000
O O17 0.500000 0.041951 0.826379
O O18 0.665988 0.000000 0.000000
#
# Coordination Sequence:
#
# PCOD9416130 Si02
#       8
#     4   4   4   8   8   8   4   8
#     4   9  19  36  54  78 106 143 185 230 283 350
#     4  11  23  38  64  88 111 157 208 242 297 356
#     4  11  21  40  62  86 115 153 204 250 287 358
#     4  10  19  34  54  77 106 140 179 227 283 344
#     4  10  22  40  62  87 120 164 205 244 300 369
#     4  11  23  40  59  87 123 159 194 250 311 364
#     4   9  19  34  56  76 106 145 183 228 285 346
#     4  10  22  40  62  93 128 163 209 262 311 363
#
# _framework density 18.789971000000001
#
# number of rings (size 3 to 8) (size 9 to 14) (size 15 to 20)
#    0.000    1.833    0.833    3.000    3.500    5.000 
#    0.000    5.000    0.000    0.000    0.000    0.000 
#    0.000    0.000    0.000    0.000    0.000    0.000 
#
# Total GULP energy -268037.937258 kJ/mol
# GULP energy per Si atom -5584.123693 kJ/mol
# Density = 1.874720 g / cm^3
# Si number density = 18.789971 Si / 1000 Ang^3
#
#
#
# Elastic Constant Matrix: (Units=GPa)
#
#
# Indices 1 2 3 4 5 6 
#
# 1 197.2086 93.1954 42.0366 0.0000 0.0000 0.0000
# 2 93.1954 172.1668 34.8589 0.0000 0.0000 0.0000
# 3 42.0366 34.8589 34.9050 0.0000 0.0000 0.0000
# 4 0.0000 0.0000 0.0000 25.0043 0.0000 0.0000
# 5 0.0000 0.0000 0.0000 0.0000 26.4269 0.0000
# 6 0.0000 0.0000 0.0000 0.0000 0.0000 41.9855
#
#
#
# Elastic Compliance Matrix: (Units=1/GPa)
#
#
# Indices 1 2 3 4 5 6 
#
# 1 0.007844 -0.002925 -0.006526 0.000000 0.000000 0.000000
# 2 -0.002925 0.008371 -0.004838 0.000000 0.000000 0.000000
# 3 -0.006526 -0.004838 0.041339 0.000000 0.000000 0.000000
# 4 0.000000 0.000000 0.000000 0.039993 0.000000 0.000000
# 5 0.000000 0.000000 0.000000 0.000000 0.037840 0.000000
# 6 0.000000 0.000000 0.000000 0.000000 0.000000 0.023818
#
#
# Mechanical properties :
#
#
# Convention : Reuss Voigt Hill
#
# Bulk Modulus (GPa) = 34.50871 82.71802 58.61336
# Shear Modulus (GPa) = 25.32404 34.29597 29.81000
#
# Velocity S-wave (km/s) = 3.67514 4.27690 3.98739
# Velocity P-wave (km/s) = 6.03442 8.27691 7.24298
#
# Compressibility (1/GPa) = 0.02897819
#
# Stress axis : x y z
#
# Youngs Moduli (GPa) = 127.48734 119.46036 24.19001
#
# Poissons Ratio (x) = 0.34939 0.15786
# Poissons Ratio (y) = 0.37286 0.11702
# Poissons Ratio (z) = 0.83194 0.57791
#
# Static dielectric constant tensor:
#      x y z
#    x 1.634680 0.000000 0.000000 
#    y 0.000000 1.634760 0.000000 
#    z 0.000000 0.000000 1.636580 
# 
# From -- ./inp_files/6876.got.cif
#   From: 2010.05.17/outbox.cif.g08.bks.cpg/sg53_4_cif.got.tgz:6876.got - 2010.06.03 12:45:16.
