data_PCOD9416425
_publ_section_title
;
Structure prediction by ZEFSAII (Michael W. Deem and Ramdas Pophale) SiO2 
 PCOD9416425
Probable space group: P M N A
;
_chemical_formula_sum "Si O2"
_cell_formula_units_Z 64
_cell_length_a 17.072282
_cell_length_b 9.278485
_cell_length_c 20.933042
_cell_angle_alpha 90.000000
_cell_angle_beta 90.000000
_cell_angle_gamma 90.000000
_cell_volume 3315.896685
_symmetry_space_group_name_H-M "P M N A"
_symmetry_group_IT_number 53
_symmetry_cell_setting 'orthorhombic'
loop_
_space_group_symop_operation_xyz
x,y,z
1/2-x,-y,1/2+z
x,-y,-z
1/2-x,y,1/2-z
-x,-y,-z
1/2+x,y,1/2-z
-x,y,z
1/2+x,-y,1/2+z
loop_
_atom_site_type_symbol
_atom_site_label
_atom_site_fract_x
_atom_site_fract_y
_atom_site_fract_z
Si Si1 0.845458 0.333322 0.992689
Si Si2 0.087220 0.415389 0.860924
Si Si3 0.157612 0.882313 0.747971
Si Si4 0.668971 0.833704 0.894604
Si Si5 0.157917 0.290013 0.130604
Si Si6 0.816179 0.799102 0.207351
Si Si7 0.282114 0.156686 0.921911
Si Si8 0.907750 0.668518 0.488761
O O1 0.901925 0.349329 0.931863
O O2 0.778779 0.218265 0.974388
O O3 0.814519 0.500000 0.000000
O O4 0.881692 0.285213 0.060200
O O5 0.149077 0.543227 0.851613
O O6 0.109696 0.294676 0.810428
O O7 0.000000 0.471547 0.853447
O O8 0.250000 0.841600 0.750000
O O9 0.130652 0.846339 0.676261
O O10 0.124311 0.804042 0.811025
O O11 0.157571 0.053301 0.759427
O O12 0.752595 0.755245 0.883327
O O13 0.617752 0.751015 0.946569
O O14 0.688150 0.992929 0.922064
O O15 0.750000 0.723614 0.250000
O O16 0.768414 0.832708 0.142649
O O17 0.355963 0.262105 0.932033
O O18 0.891028 0.500000 0.500000
O O19 0.000000 0.686262 0.476889
#
# Coordination Sequence:
#
# PCOD9416425 Si02
#       8
#     8   8   8   8   8   8   8   8
#     4   9  19  33  59  92 118 158 199 250 304 365
#     4  10  23  39  58  89 127 163 201 255 319 375
#     4   9  18  37  58  90 120 152 204 253 307 351
#     4  11  21  36  65  90 123 162 210 263 306 376
#     4  10  19  35  59  88 117 161 206 251 300 369
#     4  10  19  38  64  91 120 156 205 259 306 364
#     4  11  19  35  64  92 118 153 211 255 302 370
#     4  11  26  43  60  90 133 166 203 264 324 374
#
# _framework density 19.300964
#
# number of rings (size 3 to 8) (size 9 to 14) (size 15 to 20)
#    0.000    1.875    5.000    0.750    3.500    4.750 
#    0.000    2.500    0.000    0.750    0.000    0.000 
#    0.000    0.000    0.000    0.000    0.000    0.000 
#
# Total GULP energy -356487.584074 kJ/mol
# GULP energy per Si atom -5570.118501 kJ/mol
# Density = 1.925703 g / cm^3
# Si number density = 19.300964 Si / 1000 Ang^3
#
#
#
# Elastic Constant Matrix: (Units=GPa)
#
#
# Indices 1 2 3 4 5 6 
#
# 1 36.8875 28.0429 -8.5739 0.0000 0.0000 0.0000
# 2 28.0429 80.6117 21.0049 0.0000 0.0000 0.0000
# 3 -8.5739 21.0049 66.0569 0.0000 0.0000 0.0000
# 4 0.0000 0.0000 0.0000 25.9469 0.0000 0.0000
# 5 0.0000 0.0000 0.0000 0.0000 11.3526 0.0000
# 6 0.0000 0.0000 0.0000 0.0000 0.0000 -2.7623
#
#
#
# Elastic Compliance Matrix: (Units=1/GPa)
#
#
# Indices 1 2 3 4 5 6 
#
# 1 0.043537 -0.018119 0.011412 0.000000 0.000000 0.000000
# 2 -0.018119 0.021067 -0.009051 0.000000 0.000000 0.000000
# 3 0.011412 -0.009051 0.019498 0.000000 0.000000 0.000000
# 4 0.000000 0.000000 0.000000 0.038540 0.000000 0.000000
# 5 0.000000 0.000000 0.000000 0.000000 0.088085 0.000000
# 6 0.000000 0.000000 0.000000 0.000000 0.000000 -0.362012
#
#
# Mechanical properties :
#
#
# Convention : Reuss Voigt Hill
#
# Bulk Modulus (GPa) = 19.01628 29.38931 24.20280
# Shear Modulus (GPa) = -48.90361 16.44626 -16.22868
#
# Velocity S-wave (km/s) = -5.03909 2.92223 -2.90284
# Velocity P-wave (km/s) = 4.89721 5.16196 1.15395
#
# Compressibility (1/GPa) = 0.05258651
#
# Stress axis : x y z
#
# Youngs Moduli (GPa) = 22.96911 47.46842 51.28819
#
# Poissons Ratio (x) = 0.86008 -0.58532
# Poissons Ratio (y) = 0.41618 0.46419
# Poissons Ratio (z) = -0.26213 0.42962
#
# Static dielectric constant tensor:
#      x y z
#    x 1.674160 0.000000 0.000000 
#    y 0.000000 1.683950 0.000000 
#    z 0.000000 0.000000 1.745250 
# 
# From -- ./inp_files/35538.got.cif
#   From: 2010.05.17/outbox.cif.g08.bks.cpg/sg53_18_cif.got.tgz:35538.got - 2010.06.03 12:45:16.
