data_PCOD9416599
_publ_section_title
;
Structure prediction by ZEFSAII (Michael W. Deem and Ramdas Pophale) SiO2 
 PCOD9416599
Probable space group: P M N A
;
_chemical_formula_sum "Si O2"
_cell_formula_units_Z 52
_cell_length_a 15.234630
_cell_length_b 14.479353
_cell_length_c 11.308453
_cell_angle_alpha 90.000000
_cell_angle_beta 90.000000
_cell_angle_gamma 90.000000
_cell_volume 2494.504344
_symmetry_space_group_name_H-M "P M N A"
_symmetry_group_IT_number 53
_symmetry_cell_setting 'orthorhombic'
loop_
_space_group_symop_operation_xyz
x,y,z
1/2-x,-y,1/2+z
x,-y,-z
1/2-x,y,1/2-z
-x,-y,-z
1/2+x,y,1/2-z
-x,y,z
1/2+x,-y,1/2+z
loop_
_atom_site_type_symbol
_atom_site_label
_atom_site_fract_x
_atom_site_fract_y
_atom_site_fract_z
Si Si1 0.899974 0.409200 0.362790
Si Si2 0.100042 0.867473 0.238759
Si Si3 0.750000 0.252796 0.750000
Si Si4 0.102256 0.054208 0.112946
Si Si5 0.846953 0.224509 0.266229
Si Si6 0.396681 0.103847 0.011064
Si Si7 0.892265 0.387043 0.633201
O O1 0.898857 0.319841 0.279910
O O2 0.867497 0.383606 0.493861
O O3 0.867585 0.509367 0.321868
O O4 0.000000 0.431959 0.388207
O O5 0.183196 0.816583 0.179697
O O6 0.107369 0.854068 0.379924
O O7 0.000000 0.840879 0.201612
O O8 0.107281 0.976851 0.214984
O O9 0.824818 0.317542 0.694131
O O10 0.135547 0.151125 0.162132
O O11 0.000000 0.070770 0.084964
O O12 0.141196 0.000000 0.000000
O O13 0.750000 0.259696 0.250000
O O14 0.855989 0.166363 0.387407
O O15 0.500000 0.096765 0.043623
O O16 0.360983 0.000000 0.000000
O O17 0.000000 0.368301 0.648172
#
# Coordination Sequence:
#
# PCOD9416599 Si02
#       7
#     8   8   4   8   8   8   8
#     4   9  19  40  65  86 116 154 206 262 317 365
#     4  10  22  38  59  89 119 159 211 257 305 363
#     4  12  22  32  60  86 120 152 184 248 318 382
#     4  10  22  40  56  77 120 170 208 243 295 368
#     4  12  24  33  56  92 125 158 197 252 310 379
#     4  10  19  37  63  84 113 155 209 262 306 352
#     4   9  20  39  64  93 119 153 200 266 324 372
#
# _framework density 20.845824
#
# number of rings (size 3 to 8) (size 9 to 14) (size 15 to 20)
#    0.000    1.846    1.538    3.692    2.154    5.538 
#    0.000    0.000    0.000    0.000    0.000    4.308 
#    0.000    0.000    0.000    0.000    0.000    0.000 
#
# Total GULP energy -289493.969252 kJ/mol
# GULP energy per Si atom -5567.191716 kJ/mol
# Density = 2.079838 g / cm^3
# Si number density = 20.845824 Si / 1000 Ang^3
#
#
#
# Elastic Constant Matrix: (Units=GPa)
#
#
# Indices 1 2 3 4 5 6 
#
# 1 95.9625 36.5561 3.9985 0.0000 0.0000 0.0000
# 2 36.5561 137.9339 14.9610 0.0000 0.0000 0.0000
# 3 3.9985 14.9610 45.2895 0.0000 0.0000 0.0000
# 4 0.0000 0.0000 0.0000 21.5581 0.0000 0.0000
# 5 0.0000 0.0000 0.0000 0.0000 -49.0066 0.0000
# 6 0.0000 0.0000 0.0000 0.0000 0.0000 54.0352
#
#
#
# Elastic Compliance Matrix: (Units=1/GPa)
#
#
# Indices 1 2 3 4 5 6 
#
# 1 0.011591 -0.003071 -0.000009 0.000000 0.000000 0.000000
# 2 -0.003071 0.008333 -0.002482 0.000000 0.000000 0.000000
# 3 -0.000009 -0.002482 0.022901 0.000000 0.000000 0.000000
# 4 0.000000 0.000000 0.000000 0.046386 0.000000 0.000000
# 5 0.000000 0.000000 0.000000 0.000000 -0.020405 0.000000
# 6 0.000000 0.000000 0.000000 0.000000 0.000000 0.018506
#
#
# Mechanical properties :
#
#
# Convention : Reuss Voigt Hill
#
# Bulk Modulus (GPa) = 31.54398 43.35747 37.45072
# Shear Modulus (GPa) = 45.87076 20.22869 33.04972
#
# Velocity S-wave (km/s) = 4.69601 3.11850 3.98607
# Velocity P-wave (km/s) = 6.67595 5.81472 6.26016
#
# Compressibility (1/GPa) = 0.03170178
#
# Stress axis : x y z
#
# Youngs Moduli (GPa) = 86.27410 120.00631 43.66673
#
# Poissons Ratio (x) = 0.36853 0.00039
# Poissons Ratio (y) = 0.26494 0.10836
# Poissons Ratio (z) = 0.00077 0.29780
#
# Static dielectric constant tensor:
#      x y z
#    x 1.790680 0.000000 0.000000 
#    y 0.000000 1.836080 0.000000 
#    z 0.000000 0.000000 1.800810 
# 
# From -- ./inp_files/16065.got.cif
#   From: 2010.05.17/outbox.cif.g08.bks.cpg/sg53_9_cif.got.tgz:16065.got - 2010.06.03 12:45:16.
