data_PCOD9416870
_publ_section_title
;
Structure prediction by ZEFSAII (Michael W. Deem and Ramdas Pophale) SiO2 
 PCOD9416870
Probable space group: P M N A
;
_chemical_formula_sum "Si O2"
_cell_formula_units_Z 48
_cell_length_a 9.056414
_cell_length_b 15.063112
_cell_length_c 20.960949
_cell_angle_alpha 90.000000
_cell_angle_beta 90.000000
_cell_angle_gamma 90.000000
_cell_volume 2859.446096
_symmetry_space_group_name_H-M "P M N A"
_symmetry_group_IT_number 53
_symmetry_cell_setting 'orthorhombic'
loop_
_space_group_symop_operation_xyz
x,y,z
1/2-x,-y,1/2+z
x,-y,-z
1/2-x,y,1/2-z
-x,-y,-z
1/2+x,y,1/2-z
-x,y,z
1/2+x,-y,1/2+z
loop_
_atom_site_type_symbol
_atom_site_label
_atom_site_fract_x
_atom_site_fract_y
_atom_site_fract_z
Si Si1 0.323598 0.895532 0.184042
Si Si2 0.832231 0.311084 0.657459
Si Si3 0.178047 0.574608 0.947402
Si Si4 0.829117 0.738113 0.489644
Si Si5 0.176134 0.080201 0.950862
Si Si6 0.174698 0.489262 0.813420
O O1 0.250000 0.927580 0.250000
O O2 0.500000 0.910422 0.183884
O O3 0.299849 0.788606 0.180381
O O4 0.251877 0.932129 0.118624
O O5 0.826929 0.305411 0.580879
O O6 0.721866 0.386482 0.679767
O O7 0.000000 0.334365 0.677025
O O8 0.253163 0.667526 0.964209
O O9 0.221636 0.538704 0.878008
O O10 0.000000 0.584217 0.949713
O O11 0.218282 0.500000 0.000000
O O12 0.742635 0.830230 0.481538
O O13 0.000000 0.754619 0.506342
O O14 0.000000 0.089723 0.941790
O O15 0.203368 0.000000 0.000000
O O16 0.250000 0.525738 0.750000
O O17 0.000000 0.495649 0.808278
#
# Coordination Sequence:
#
# PCOD9416870 Si02
#       6
#     8   8   8   8   8   8
#     4  10  20  33  51  78 110 144 177 216 267 323
#     4   9  18  31  47  72 104 137 172 208 255 311
#     4  10  20  35  53  75 103 139 181 220 262 311
#     4  10  20  33  54  81 106 137 175 221 268 315
#     4  10  21  37  58  82 109 142 179 222 273 326
#     4  11  22  33  48  70 101 140 178 220 265 310
#
# _framework density 16.786466999999998
#
# number of rings (size 3 to 8) (size 9 to 14) (size 15 to 20)
#    0.000    2.000    1.667    3.500    0.000    7.667 
#    0.000    0.000    0.000    1.000    0.000    4.667 
#    0.000    0.000    0.000    0.000    0.000    0.000 
#
# Total GULP energy -267855.729948 kJ/mol
# GULP energy per Si atom -5580.327707 kJ/mol
# Density = 1.674826 g / cm^3
# Si number density = 16.786467 Si / 1000 Ang^3
#
#
#
# Elastic Constant Matrix: (Units=GPa)
#
#
# Indices 1 2 3 4 5 6 
#
# 1 79.4858 50.5036 74.4328 0.0000 0.0000 0.0000
# 2 50.5036 69.7435 59.6748 0.0000 0.0000 0.0000
# 3 74.4328 59.6748 144.4497 0.0000 0.0000 0.0000
# 4 0.0000 0.0000 0.0000 18.1192 0.0000 0.0000
# 5 0.0000 0.0000 0.0000 0.0000 29.0114 0.0000
# 6 0.0000 0.0000 0.0000 0.0000 0.0000 20.4487
#
#
#
# Elastic Compliance Matrix: (Units=1/GPa)
#
#
# Indices 1 2 3 4 5 6 
#
# 1 0.030791 -0.013489 -0.010293 0.000000 0.000000 0.000000
# 2 -0.013489 0.028087 -0.004652 0.000000 0.000000 0.000000
# 3 -0.010293 -0.004652 0.014149 0.000000 0.000000 0.000000
# 4 0.000000 0.000000 0.000000 0.055190 0.000000 0.000000
# 5 0.000000 0.000000 0.000000 0.000000 0.034469 0.000000
# 6 0.000000 0.000000 0.000000 0.000000 0.000000 0.048903
#
#
# Mechanical properties :
#
#
# Convention : Reuss Voigt Hill
#
# Bulk Modulus (GPa) = 61.89462 73.65573 67.77518
# Shear Modulus (GPa) = 18.25856 20.78704 19.52280
#
# Velocity S-wave (km/s) = 3.30160 3.52280 3.41399
# Velocity P-wave (km/s) = 7.17537 7.77947 7.48351
#
# Compressibility (1/GPa) = 0.01615649
#
# Stress axis : x y z
#
# Youngs Moduli (GPa) = 32.47744 35.60349 70.67718
#
# Poissons Ratio (x) = 0.48026 0.72750
# Poissons Ratio (y) = 0.43810 0.32883
# Poissons Ratio (z) = 0.33430 0.16565
#
# Static dielectric constant tensor:
#      x y z
#    x 1.566850 0.000000 0.000000 
#    y 0.000000 1.533850 0.000000 
#    z 0.000000 0.000000 1.585430 
# 
# From -- ./inp_files/26166.got.cif
#   From: 2010.05.17/outbox.cif.g08.bks.cpg/sg53_14_cif.got.tgz:26166.got - 2010.06.03 12:45:16.
