data_PCOD9416521
_publ_section_title
;
Structure prediction by ZEFSAII (Michael W. Deem and Ramdas Pophale) SiO2 
 PCOD9416521
Probable space group: P M N A
;
_chemical_formula_sum "Si O2"
_cell_formula_units_Z 64
_cell_length_a 16.295786
_cell_length_b 20.019152
_cell_length_c 8.325346
_cell_angle_alpha 90.000000
_cell_angle_beta 90.000000
_cell_angle_gamma 90.000000
_cell_volume 2715.959450
_symmetry_space_group_name_H-M "P M N A"
_symmetry_group_IT_number 53
_symmetry_cell_setting 'orthorhombic'
loop_
_space_group_symop_operation_xyz
x,y,z
1/2-x,-y,1/2+z
x,-y,-z
1/2-x,y,1/2-z
-x,-y,-z
1/2+x,y,1/2-z
-x,y,z
1/2+x,-y,1/2+z
loop_
_atom_site_type_symbol
_atom_site_label
_atom_site_fract_x
_atom_site_fract_y
_atom_site_fract_z
Si Si1 0.902232 0.896217 0.571601
Si Si2 0.096855 0.857677 0.042060
Si Si3 0.091062 0.663722 0.903183
Si Si4 0.157746 0.221831 0.264323
Si Si5 0.597980 0.022957 0.742005
Si Si6 0.656836 0.732035 0.292363
Si Si7 0.345331 0.456558 0.211607
Si Si8 0.661936 0.401149 0.848635
O O1 0.857249 0.825863 0.585426
O O2 0.892683 0.932149 0.401723
O O3 0.000000 0.885537 0.596930
O O4 0.872014 0.950114 0.705289
O O5 0.129713 0.929661 0.099795
O O6 0.108137 0.800522 0.178551
O O7 0.000000 0.864103 0.009410
O O8 0.138972 0.826542 0.886737
O O9 0.098876 0.715531 0.756069
O O10 0.112875 0.591756 0.838418
O O11 0.000000 0.667166 0.971740
O O12 0.151825 0.692532 0.037060
O O13 0.250000 0.246343 0.250000
O O14 0.500000 0.015218 0.714156
O O15 0.750000 0.749932 0.250000
O O16 0.626842 0.673346 0.173531
O O17 0.250000 0.463788 0.250000
O O18 0.380786 0.531776 0.220526
O O19 0.340839 0.421598 0.036120
O O20 0.750000 0.397155 0.750000
#
# Coordination Sequence:
#
# PCOD9416521 Si02
#       8
#     8   8   8   8   8   8   8   8
#     4   9  17  35  58  82 111 147 189 234 278 335
#     4  10  21  39  59  85 118 154 193 238 286 343
#     4  11  24  42  60  85 118 154 194 244 296 349
#     4  11  23  37  55  82 112 147 190 237 287 341
#     4   8  17  33  57  83 111 148 189 227 278 341
#     4  10  20  36  58  84 114 152 195 239 288 345
#     4  10  19  36  61  87 116 154 198 240 284 345
#     4   9  19  34  57  88 119 152 194 239 287 345
#
# _framework density 23.564418
#
# number of rings (size 3 to 8) (size 9 to 14) (size 15 to 20)
#    0.000    2.250    0.000    4.875    0.000    7.000 
#    0.000   10.625    0.000    0.000    0.000    0.000 
#    0.000    0.000    0.000    0.000    0.000    0.000 
#
# Total GULP energy -357191.156164 kJ/mol
# GULP energy per Si atom -5581.111815 kJ/mol
# Density = 2.351078 g / cm^3
# Si number density = 23.564418 Si / 1000 Ang^3
#
#
#
# Elastic Constant Matrix: (Units=GPa)
#
#
# Indices 1 2 3 4 5 6 
#
# 1 45.2317 -11.5283 9.0743 0.0000 0.0000 0.0000
# 2 -11.5283 70.7001 0.4084 0.0000 0.0000 0.0000
# 3 9.0743 0.4084 39.4387 0.0000 0.0000 0.0000
# 4 0.0000 0.0000 0.0000 46.7400 0.0000 0.0000
# 5 0.0000 0.0000 0.0000 0.0000 12.0163 0.0000
# 6 0.0000 0.0000 0.0000 0.0000 0.0000 -8.9326
#
#
#
# Elastic Compliance Matrix: (Units=1/GPa)
#
#
# Indices 1 2 3 4 5 6 
#
# 1 0.024252 0.003987 -0.005621 0.000000 0.000000 0.000000
# 2 0.003987 0.014801 -0.001071 0.000000 0.000000 0.000000
# 3 -0.005621 -0.001071 0.026660 0.000000 0.000000 0.000000
# 4 0.000000 0.000000 0.000000 0.021395 0.000000 0.000000
# 5 0.000000 0.000000 0.000000 0.000000 0.083220 0.000000
# 6 0.000000 0.000000 0.000000 0.000000 0.000000 -0.111950
#
#
# Mechanical properties :
#
#
# Convention : Reuss Voigt Hill
#
# Bulk Modulus (GPa) = 16.58289 16.80883 16.69586
# Shear Modulus (GPa) = 59.60226 20.45916 40.03071
#
# Velocity S-wave (km/s) = 5.03470 2.94976 4.12609
# Velocity P-wave (km/s) = 6.39142 4.33013 5.45895
#
# Compressibility (1/GPa) = 0.06030312
#
# Stress axis : x y z
#
# Youngs Moduli (GPa) = 41.23319 67.56501 37.50894
#
# Poissons Ratio (x) = -0.26938 0.21085
# Poissons Ratio (y) = -0.16440 0.04016
# Poissons Ratio (z) = 0.23179 0.07234
#
# Static dielectric constant tensor:
#      x y z
#    x 1.828250 0.000000 0.000000 
#    y 0.000000 1.922730 0.000000 
#    z 0.000000 0.000000 1.880750 
# 
# From -- ./inp_files/8950.got.cif
#   From: 2010.05.17/outbox.cif.g08.bks.cpg/sg53_5_cif.got.tgz:8950.got - 2010.06.03 12:45:16.
