data_PCOD9416426
_publ_section_title
;
Structure prediction by ZEFSAII (Michael W. Deem and Ramdas Pophale) SiO2 
 PCOD9416426
Probable space group: P M N A
;
_chemical_formula_sum "Si O2"
_cell_formula_units_Z 44
_cell_length_a 14.482160
_cell_length_b 7.115037
_cell_length_c 23.635997
_cell_angle_alpha 90.000000
_cell_angle_beta 90.000000
_cell_angle_gamma 90.000000
_cell_volume 2435.479231
_symmetry_space_group_name_H-M "P M N A"
_symmetry_group_IT_number 53
_symmetry_cell_setting 'orthorhombic'
loop_
_space_group_symop_operation_xyz
x,y,z
1/2-x,-y,1/2+z
x,-y,-z
1/2-x,y,1/2-z
-x,-y,-z
1/2+x,y,1/2-z
-x,y,z
1/2+x,-y,1/2+z
loop_
_atom_site_type_symbol
_atom_site_label
_atom_site_fract_x
_atom_site_fract_y
_atom_site_fract_z
Si Si1 0.000000 0.497040 0.067312
Si Si2 0.640122 0.776609 0.627129
Si Si3 0.500000 0.726118 0.250000
Si Si4 0.859877 0.776609 0.627129
Si Si5 0.500000 0.898731 0.126967
Si Si6 0.500000 0.898731 0.373033
Si Si7 0.000000 0.497040 0.432688
Si Si8 0.141533 0.610052 0.750000
O O1 0.911283 0.383474 0.090932
O O2 0.000000 0.706135 0.092434
O O3 0.000000 0.500000 0.000000
O O4 0.750000 0.782291 0.618445
O O5 0.621005 0.724639 0.692928
O O6 0.589029 0.972154 0.614366
O O7 0.500000 0.845794 0.306866
O O8 0.413741 0.583632 0.250000
O O9 0.500000 0.845794 0.193134
O O10 0.878995 0.724639 0.692928
O O11 0.910971 0.972154 0.614366
O O12 0.911283 0.616526 0.590932
O O13 0.500000 0.706135 0.092434
O O14 0.000000 0.500000 0.500000
O O15 0.250000 0.569278 0.750000
#
# Coordination Sequence:
#
# PCOD9416426 Si02
#       8
#     4   8   4   8   4   4   4   8
#     4  11  24  42  61  84 116 159 207 249 289 343
#     4  10  22  40  60  88 122 152 191 246 298 353
#     4  12  18  34  62  90 118 158 186 232 296 358
#     4  10  22  40  60  88 122 152 191 246 298 353
#     4  11  22  36  62  89 114 154 197 234 293 358
#     4  11  22  36  62  89 114 154 197 234 293 358
#     4  11  24  42  61  84 116 159 207 249 289 343
#     4  10  19  35  59  88 120 150 185 235 297 360
#
# _framework density 18.06626
#
# number of rings (size 3 to 8) (size 9 to 14) (size 15 to 20)
#    0.000    1.455    3.636    2.182    0.000    6.545 
#    0.000    1.818    0.000    0.000    0.000    0.000 
#    0.000    0.000    0.000    0.000    0.000    0.000 
#
# Total GULP energy -245802.443474 kJ/mol
# GULP energy per Si atom -5586.419170 kJ/mol
# Density = 1.802514 g / cm^3
# Si number density = 18.066260 Si / 1000 Ang^3
#
#
#
# Elastic Constant Matrix: (Units=GPa)
#
#
# Indices 1 2 3 4 5 6 
#
# 1 142.6443 85.2066 57.7267 0.0000 0.0000 0.0000
# 2 85.2066 170.2533 69.5468 0.0000 0.0000 0.0000
# 3 57.7267 69.5468 140.9170 0.0000 0.0000 0.0000
# 4 0.0000 0.0000 0.0000 -5.6879 0.0000 0.0000
# 5 0.0000 0.0000 0.0000 0.0000 2.3468 0.0000
# 6 0.0000 0.0000 0.0000 0.0000 0.0000 36.8587
#
#
#
# Elastic Compliance Matrix: (Units=1/GPa)
#
#
# Indices 1 2 3 4 5 6 
#
# 1 0.010490 -0.004377 -0.002137 0.000000 0.000000 0.000000
# 2 -0.004377 0.009183 -0.002739 0.000000 0.000000 0.000000
# 3 -0.002137 -0.002739 0.009324 0.000000 0.000000 0.000000
# 4 0.000000 0.000000 0.000000 -0.175812 0.000000 0.000000
# 5 0.000000 0.000000 0.000000 0.000000 0.426112 0.000000
# 6 0.000000 0.000000 0.000000 0.000000 0.000000 0.027131
#
#
# Mechanical properties :
#
#
# Convention : Reuss Voigt Hill
#
# Bulk Modulus (GPa) = 95.32510 97.64164 96.48337
# Shear Modulus (GPa) = 15.22393 22.79249 19.00821
#
# Velocity S-wave (km/s) = 2.90603 3.55576 3.24719
# Velocity P-wave (km/s) = 8.00867 8.42743 8.22072
#
# Compressibility (1/GPa) = 0.01049042
#
# Stress axis : x y z
#
# Youngs Moduli (GPa) = 95.33147 108.89720 107.25430
#
# Poissons Ratio (x) = 0.47663 0.22920
# Poissons Ratio (y) = 0.41725 0.29378
# Poissons Ratio (z) = 0.20373 0.29828
#
# Static dielectric constant tensor:
#      x y z
#    x 1.403840 0.000000 0.000000 
#    y 0.000000 1.597330 0.000000 
#    z 0.000000 0.000000 1.606280 
# 
# From -- ./inp_files/36969.got.cif
#   From: 2010.05.17/outbox.cif.g08.bks.cpg/sg53_19_cif.got.tgz:36969.got - 2010.06.03 12:45:16.
