data_PCOD9416900
_publ_section_title
;
Structure prediction by ZEFSAII (Michael W. Deem and Ramdas Pophale) SiO2 
 PCOD9416900
Probable space group: P M N A
;
_chemical_formula_sum "Si O2"
_cell_formula_units_Z 64
_cell_length_a 18.425588
_cell_length_b 8.896657
_cell_length_c 20.642492
_cell_angle_alpha 90.000000
_cell_angle_beta 90.000000
_cell_angle_gamma 90.000000
_cell_volume 3383.843960
_symmetry_space_group_name_H-M "P M N A"
_symmetry_group_IT_number 53
_symmetry_cell_setting 'orthorhombic'
loop_
_space_group_symop_operation_xyz
x,y,z
1/2-x,-y,1/2+z
x,-y,-z
1/2-x,y,1/2-z
-x,-y,-z
1/2+x,y,1/2-z
-x,y,z
1/2+x,-y,1/2+z
loop_
_atom_site_type_symbol
_atom_site_label
_atom_site_fract_x
_atom_site_fract_y
_atom_site_fract_z
Si Si1 0.632162 0.338076 0.254747
Si Si2 0.084388 0.329946 0.717929
Si Si3 0.197738 0.673940 0.390342
Si Si4 0.078010 0.099788 0.155302
Si Si5 0.737863 0.179376 0.492035
Si Si6 0.921735 0.819844 0.988574
Si Si7 0.738241 0.337211 0.141370
Si Si8 0.693796 0.870364 0.302670
O O1 0.594998 0.497420 0.240733
O O2 0.582131 0.208386 0.283222
O O3 0.672998 0.290750 0.189083
O O4 0.693142 0.356041 0.310853
O O5 0.121443 0.313303 0.647227
O O6 0.134670 0.229236 0.764590
O O7 0.000000 0.289308 0.719175
O O8 0.204099 0.741524 0.461612
O O9 0.220005 0.500144 0.387823
O O10 0.256514 0.766780 0.347813
O O11 0.080202 0.195038 0.089201
O O12 0.000000 0.017983 0.154313
O O13 0.146868 0.991266 0.158608
O O14 0.656335 0.234083 0.513069
O O15 0.749484 0.225315 0.417779
O O16 0.740787 0.000000 0.500000
O O17 0.000000 0.760127 0.012737
O O18 0.922820 0.000000 0.000000
O O19 0.750000 0.939545 0.250000
#
# Coordination Sequence:
#
# PCOD9416900 Si02
#       8
#     8   8   8   8   8   8   8   8
#     4  10  20  35  58  81 111 148 195 241 285 343
#     4  10  20  38  60  83 115 150 187 240 297 342
#     4  10  21  37  58  83 113 149 195 234 282 351
#     4  11  21  32  51  81 114 150 190 235 291 341
#     4  11  21  35  59  84 114 151 195 240 284 338
#     4   9  18  31  46  69 107 148 181 219 272 330
#     4  10  20  36  57  82 111 149 192 241 289 332
#     4  10  20  33  52  82 114 149 192 235 283 341
#
# _framework density 18.913401
#
# number of rings (size 3 to 8) (size 9 to 14) (size 15 to 20)
#    0.000    1.875    2.500    2.625    1.750    1.000 
#    0.000    0.625    0.000    7.875    0.000    0.000 
#    0.000    0.000    0.000    0.000    0.000    0.000 
#
# Total GULP energy -357070.352626 kJ/mol
# GULP energy per Si atom -5579.224260 kJ/mol
# Density = 1.887035 g / cm^3
# Si number density = 18.913401 Si / 1000 Ang^3
#
#
#
# Elastic Constant Matrix: (Units=GPa)
#
#
# Indices 1 2 3 4 5 6 
#
# 1 90.1615 14.4510 22.2906 0.0000 0.0000 0.0000
# 2 14.4510 42.3264 22.2562 0.0000 0.0000 0.0000
# 3 22.2906 22.2562 85.9473 0.0000 0.0000 0.0000
# 4 0.0000 0.0000 0.0000 33.0877 0.0000 0.0000
# 5 0.0000 0.0000 0.0000 0.0000 11.5728 0.0000
# 6 0.0000 0.0000 0.0000 0.0000 0.0000 23.9876
#
#
#
# Elastic Compliance Matrix: (Units=1/GPa)
#
#
# Indices 1 2 3 4 5 6 
#
# 1 0.012148 -0.002883 -0.002404 0.000000 0.000000 0.000000
# 2 -0.002883 0.028034 -0.006512 0.000000 0.000000 0.000000
# 3 -0.002404 -0.006512 0.013945 0.000000 0.000000 0.000000
# 4 0.000000 0.000000 0.000000 0.030223 0.000000 0.000000
# 5 0.000000 0.000000 0.000000 0.000000 0.086409 0.000000
# 6 0.000000 0.000000 0.000000 0.000000 0.000000 0.041688
#
#
# Mechanical properties :
#
#
# Convention : Reuss Voigt Hill
#
# Bulk Modulus (GPa) = 32.75600 37.38119 35.06860
# Shear Modulus (GPa) = 20.30693 24.35878 22.33285
#
# Velocity S-wave (km/s) = 3.28026 3.59264 3.44000
# Velocity P-wave (km/s) = 5.63057 6.08414 5.86174
#
# Compressibility (1/GPa) = 0.03052876
#
# Stress axis : x y z
#
# Youngs Moduli (GPa) = 82.32039 35.67043 71.71179
#
# Poissons Ratio (x) = 0.10285 0.17238
# Poissons Ratio (y) = 0.23737 0.46697
# Poissons Ratio (z) = 0.19789 0.23228
#
# Static dielectric constant tensor:
#      x y z
#    x 1.688390 0.000000 0.000000 
#    y 0.000000 1.657610 0.000000 
#    z 0.000000 0.000000 1.674550 
# 
# From -- ./inp_files/32855.got.cif
#   From: 2010.05.17/outbox.cif.g08.bks.cpg/sg53_17_cif.got.tgz:32855.got - 2010.06.03 12:45:16.
