data_PCOD9416054
_publ_section_title
;
Structure prediction by ZEFSAII (Michael W. Deem and Ramdas Pophale) SiO2 
 PCOD9416054
Probable space group: P M N A
;
_chemical_formula_sum "Si O2"
_cell_formula_units_Z 64
_cell_length_a 17.149870
_cell_length_b 14.843194
_cell_length_c 12.430709
_cell_angle_alpha 90.000000
_cell_angle_beta 90.000000
_cell_angle_gamma 90.000000
_cell_volume 3164.346956
_symmetry_space_group_name_H-M "P M N A"
_symmetry_group_IT_number 53
_symmetry_cell_setting 'orthorhombic'
loop_
_space_group_symop_operation_xyz
x,y,z
1/2-x,-y,1/2+z
x,-y,-z
1/2-x,y,1/2-z
-x,-y,-z
1/2+x,y,1/2-z
-x,y,z
1/2+x,-y,1/2+z
loop_
_atom_site_type_symbol
_atom_site_label
_atom_site_fract_x
_atom_site_fract_y
_atom_site_fract_z
Si Si1 0.856114 0.603061 0.476911
Si Si2 0.649834 0.215125 0.482826
Si Si3 0.831337 0.212115 0.425039
Si Si4 0.912813 0.650398 0.257154
Si Si5 0.174897 0.410879 0.929575
Si Si6 0.406803 0.062275 0.647631
Si Si7 0.592968 0.831588 0.149873
Si Si8 0.589893 0.868834 0.713914
O O1 0.871718 0.500000 0.500000
O O2 0.857129 0.681735 0.566763
O O3 0.914204 0.626031 0.381800
O O4 0.767574 0.604399 0.431492
O O5 0.738379 0.207895 0.438651
O O6 0.640004 0.315669 0.529902
O O7 0.632813 0.135721 0.569686
O O8 0.595455 0.205391 0.378977
O O9 0.866703 0.170038 0.534917
O O10 0.862002 0.162630 0.318377
O O11 0.859822 0.583215 0.189633
O O12 0.878718 0.750640 0.271602
O O13 0.000000 0.653750 0.211558
O O14 0.158289 0.500000 0.000000
O O15 0.500000 0.068308 0.624392
O O16 0.394594 0.083958 0.773956
O O17 0.382250 0.957965 0.647669
O O18 0.500000 0.819799 0.135008
O O19 0.500000 0.884628 0.746316
#
# Coordination Sequence:
#
# PCOD9416054 Si02
#       8
#     8   8   8   8   8   8   8   8
#     4   9  20  38  60  82 113 159 199 234 292 371
#     4  11  22  40  61  87 122 155 200 253 301 354
#     4  10  22  39  59  89 122 152 197 253 303 343
#     4  10  19  33  56  84 115 146 189 249 296 341
#     4  10  21  37  59  85 115 155 198 242 299 362
#     4  10  21  40  64  86 113 159 204 236 293 369
#     4   9  18  36  61  85 113 153 194 237 292 355
#     4  11  24  42  62  84 120 166 204 240 297 373
#
# _framework density 20.225342999999999
#
# number of rings (size 3 to 8) (size 9 to 14) (size 15 to 20)
#    0.000    2.000    1.250    1.875    0.000    4.500 
#    6.750    6.875    0.000    0.000    0.000    0.000 
#    0.000    0.000    0.000    0.000    0.000    0.000 
#
# Total GULP energy -356503.886588 kJ/mol
# GULP energy per Si atom -5570.373228 kJ/mol
# Density = 2.017931 g / cm^3
# Si number density = 20.225343 Si / 1000 Ang^3
#
#
#
# Elastic Constant Matrix: (Units=GPa)
#
#
# Indices 1 2 3 4 5 6 
#
# 1 27.6403 31.0904 29.5452 0.0000 0.0000 0.0000
# 2 31.0904 102.5289 41.2649 0.0000 0.0000 0.0000
# 3 29.5452 41.2649 84.2066 0.0000 0.0000 0.0000
# 4 0.0000 0.0000 0.0000 28.9972 0.0000 0.0000
# 5 0.0000 0.0000 0.0000 0.0000 34.0568 0.0000
# 6 0.0000 0.0000 0.0000 0.0000 0.0000 17.5350
#
#
#
# Elastic Compliance Matrix: (Units=1/GPa)
#
#
# Indices 1 2 3 4 5 6 
#
# 1 0.071833 -0.014498 -0.018099 0.000000 0.000000 0.000000
# 2 -0.014498 0.015076 -0.002301 0.000000 0.000000 0.000000
# 3 -0.018099 -0.002301 0.019353 0.000000 0.000000 0.000000
# 4 0.000000 0.000000 0.000000 0.034486 0.000000 0.000000
# 5 0.000000 0.000000 0.000000 0.000000 0.029363 0.000000
# 6 0.000000 0.000000 0.000000 0.000000 0.000000 0.057029
#
#
# Mechanical properties :
#
#
# Convention : Reuss Voigt Hill
#
# Bulk Modulus (GPa) = 27.42255 46.46409 36.94332
# Shear Modulus (GPa) = 16.17642 23.61614 19.89628
#
# Velocity S-wave (km/s) = 2.83116 3.42080 3.13985
# Velocity P-wave (km/s) = 4.92699 6.21495 5.60806
#
# Compressibility (1/GPa) = 0.03646634
#
# Stress axis : x y z
#
# Youngs Moduli (GPa) = 13.92110 66.33175 51.67036
#
# Poissons Ratio (x) = 0.96168 0.93519
# Poissons Ratio (y) = 0.20183 0.11889
# Poissons Ratio (z) = 0.25196 0.15262
#
# Static dielectric constant tensor:
#      x y z
#    x 1.723840 0.000000 0.000000 
#    y 0.000000 1.908400 0.000000 
#    z 0.000000 0.000000 1.737690 
# 
# From -- ./inp_files/17086.got.cif
#   From: 2010.05.17/outbox.cif.g08.bks.cpg/sg53_9_cif.got.tgz:17086.got - 2010.06.03 12:45:16.
