data_PCOD9416140
_publ_section_title
;
Structure prediction by ZEFSAII (Michael W. Deem and Ramdas Pophale) SiO2 
 PCOD9416140
Probable space group: P M N A
;
_chemical_formula_sum "Si O2"
_cell_formula_units_Z 64
_cell_length_a 8.110398
_cell_length_b 22.441953
_cell_length_c 18.126936
_cell_angle_alpha 90.000000
_cell_angle_beta 90.000000
_cell_angle_gamma 90.000000
_cell_volume 3299.341097
_symmetry_space_group_name_H-M "P M N A"
_symmetry_group_IT_number 53
_symmetry_cell_setting 'orthorhombic'
loop_
_space_group_symop_operation_xyz
x,y,z
1/2-x,-y,1/2+z
x,-y,-z
1/2-x,y,1/2-z
-x,-y,-z
1/2+x,y,1/2-z
-x,y,z
1/2+x,-y,1/2+z
loop_
_atom_site_type_symbol
_atom_site_label
_atom_site_fract_x
_atom_site_fract_y
_atom_site_fract_z
Si Si1 0.696069 0.878111 0.101408
Si Si2 0.303737 0.109162 0.433860
Si Si3 0.301851 0.000946 0.167170
Si Si4 0.301062 0.434397 0.979907
Si Si5 0.698792 0.746438 0.105008
Si Si6 0.801686 0.625077 0.329481
Si Si7 0.301360 0.779292 0.665331
Si Si8 0.697478 0.686478 0.547751
O O1 0.500000 0.876242 0.114601
O O2 0.760964 0.934741 0.146430
O O3 0.764470 0.812549 0.120254
O O4 0.724459 0.888649 0.014486
O O5 0.500000 0.115452 0.443812
O O6 0.244059 0.163614 0.382153
O O7 0.266064 0.048285 0.391228
O O8 0.250000 0.016920 0.250000
O O9 0.500000 0.001857 0.162325
O O10 0.500000 0.436741 0.977744
O O11 0.255201 0.381077 0.035381
O O12 0.239309 0.500000 0.000000
O O13 0.242421 0.413341 0.899071
O O14 0.500000 0.748339 0.109913
O O15 0.758711 0.692924 0.157200
O O16 0.741649 0.725196 0.022226
O O17 0.750000 0.602591 0.250000
O O18 0.000000 0.626020 0.332688
O O19 0.250000 0.781865 0.750000
O O20 0.500000 0.780395 0.663690
O O21 0.245772 0.720036 0.621693
O O22 0.500000 0.686942 0.546224
#
# Coordination Sequence:
#
# PCOD9416140 Si02
#       8
#     8   8   8   8   8   8   8   8
#     4  10  21  37  58  81 107 141 183 229 276 334
#     4  11  22  38  58  81 108 141 184 231 280 335
#     4  11  24  40  55  77 108 144 186 232 283 335
#     4   9  19  37  59  81 108 148 191 223 261 324
#     4   9  18  34  55  78 105 143 182 216 264 327
#     4   9  18  32  52  80 110 141 180 221 265 316
#     4  10  22  36  53  80 110 140 178 225 274 327
#     4  10  19  34  54  81 112 137 174 226 270 316
#
# _framework density 19.397812999999999
#
# number of rings (size 3 to 8) (size 9 to 14) (size 15 to 20)
#    0.000    2.125    1.250    2.625    0.000    8.250 
#    0.000    0.625    0.000    3.000    0.000    0.000 
#    0.000    0.000    0.000    0.000    0.000    0.000 
#
# Total GULP energy -357250.918265 kJ/mol
# GULP energy per Si atom -5582.045598 kJ/mol
# Density = 1.935366 g / cm^3
# Si number density = 19.397813 Si / 1000 Ang^3
#
#
#
# Elastic Constant Matrix: (Units=GPa)
#
#
# Indices 1 2 3 4 5 6 
#
# 1 6.5688 6.1630 -6.6713 0.0000 0.0000 0.0000
# 2 6.1630 120.7931 4.0284 0.0000 0.0000 0.0000
# 3 -6.6713 4.0284 36.9303 0.0000 0.0000 0.0000
# 4 0.0000 0.0000 0.0000 -50.5812 0.0000 0.0000
# 5 0.0000 0.0000 0.0000 0.0000 24.7637 0.0000
# 6 0.0000 0.0000 0.0000 0.0000 0.0000 18.4233
#
#
#
# Elastic Compliance Matrix: (Units=1/GPa)
#
#
# Indices 1 2 3 4 5 6 
#
# 1 0.201243 -0.011522 0.037611 0.000000 0.000000 0.000000
# 2 -0.011522 0.008969 -0.003060 0.000000 0.000000 0.000000
# 3 0.037611 -0.003060 0.034206 0.000000 0.000000 0.000000
# 4 0.000000 0.000000 0.000000 -0.019770 0.000000 0.000000
# 5 0.000000 0.000000 0.000000 0.000000 0.040382 0.000000
# 6 0.000000 0.000000 0.000000 0.000000 0.000000 0.054279
#
#
# Mechanical properties :
#
#
# Convention : Reuss Voigt Hill
#
# Bulk Modulus (GPa) = 3.44263 19.03694 11.23978
# Shear Modulus (GPa) = 13.51074 9.23929 11.37501
#
# Velocity S-wave (km/s) = 2.64201 2.18481 2.42421
# Velocity P-wave (km/s) = 3.32950 4.02490 3.69360
#
# Compressibility (1/GPa) = 0.29047579
#
# Stress axis : x y z
#
# Youngs Moduli (GPa) = 4.96911 111.50112 29.23465
#
# Poissons Ratio (x) = 1.28471 -1.09953
# Poissons Ratio (y) = 0.05725 0.08945
# Poissons Ratio (z) = -0.18689 0.34116
#
# Static dielectric constant tensor:
#      x y z
#    x 1.691920 0.000000 0.000000 
#    y 0.000000 1.701600 0.000000 
#    z 0.000000 0.000000 1.643770 
# 
# From -- ./inp_files/26919.got.cif
#   From: 2010.05.17/outbox.cif.g08.bks.cpg/sg53_14_cif.got.tgz:26919.got - 2010.06.03 12:45:16.
