data_PCOD9416360
_publ_section_title
;
Structure prediction by ZEFSAII (Michael W. Deem and Ramdas Pophale) SiO2 
 PCOD9416360
Probable space group: P M N A
;
_chemical_formula_sum "Si O2"
_cell_formula_units_Z 48
_cell_length_a 8.399711
_cell_length_b 9.919158
_cell_length_c 31.165370
_cell_angle_alpha 90.000000
_cell_angle_beta 90.000000
_cell_angle_gamma 90.000000
_cell_volume 2596.638185
_symmetry_space_group_name_H-M "P M N A"
_symmetry_group_IT_number 53
_symmetry_cell_setting 'orthorhombic'
loop_
_space_group_symop_operation_xyz
x,y,z
1/2-x,-y,1/2+z
x,-y,-z
1/2-x,y,1/2-z
-x,-y,-z
1/2+x,y,1/2-z
-x,y,z
1/2+x,-y,1/2+z
loop_
_atom_site_type_symbol
_atom_site_label
_atom_site_fract_x
_atom_site_fract_y
_atom_site_fract_z
Si Si1 0.691219 0.196474 0.201765
Si Si2 0.312016 0.647366 0.481615
Si Si3 0.811746 0.312885 0.612741
Si Si4 0.813350 0.402666 0.135323
Si Si5 0.806218 0.986843 0.370885
Si Si6 0.811481 0.207796 0.437490
O O1 0.750000 0.180953 0.250000
O O2 0.500000 0.204538 0.200798
O O3 0.761471 0.328935 0.178858
O O4 0.741116 0.072165 0.170952
O O5 0.266382 0.500000 0.500000
O O6 0.500000 0.643304 0.471961
O O7 0.219277 0.677642 0.438154
O O8 0.275688 0.754661 0.518785
O O9 0.727090 0.440295 0.634107
O O10 0.752286 0.166872 0.628178
O O11 0.000000 0.322793 0.621060
O O12 0.720304 0.327381 0.096813
O O13 0.000000 0.382214 0.127659
O O14 0.000000 0.985811 0.371839
O O15 0.756663 0.072816 0.412774
O O16 0.000000 0.198675 0.445684
#
# Coordination Sequence:
#
# PCOD9416360 Si02
#       6
#     8   8   8   8   8   8
#     4  10  20  39  64  89 112 141 180 222 272 331
#     4  11  22  34  50  77 114 149 189 239 283 326
#     4  11  21  36  57  80 110 150 190 231 279 329
#     4  11  21  35  55  83 114 144 181 227 274 324
#     4   8  19  37  57  82 112 144 182 229 279 332
#     4  10  19  35  57  79 105 146 193 232 274 326
#
# _framework density 18.485440000000001
#
# number of rings (size 3 to 8) (size 9 to 14) (size 15 to 20)
#    0.000    1.833    1.667    4.500    0.000    1.333 
#    0.000   14.167    0.000    2.000    0.000    0.000 
#    0.000    0.000    0.000    0.000    0.000    0.000 
#
# Total GULP energy -268086.481058 kJ/mol
# GULP energy per Si atom -5585.135022 kJ/mol
# Density = 1.844337 g / cm^3
# Si number density = 18.485440 Si / 1000 Ang^3
#
#
#
# Elastic Constant Matrix: (Units=GPa)
#
#
# Indices 1 2 3 4 5 6 
#
# 1 24.0055 0.0546 -3.9078 0.0000 0.0000 0.0000
# 2 0.0546 122.7209 30.2810 0.0000 0.0000 0.0000
# 3 -3.9078 30.2810 74.2889 0.0000 0.0000 0.0000
# 4 0.0000 0.0000 0.0000 14.9078 0.0000 0.0000
# 5 0.0000 0.0000 0.0000 0.0000 24.2575 0.0000
# 6 0.0000 0.0000 0.0000 0.0000 0.0000 64.5834
#
#
#
# Elastic Compliance Matrix: (Units=1/GPa)
#
#
# Indices 1 2 3 4 5 6 
#
# 1 0.042060 -0.000628 0.002468 0.000000 0.000000 0.000000
# 2 -0.000628 0.009069 -0.003730 0.000000 0.000000 0.000000
# 3 0.002468 -0.003730 0.015111 0.000000 0.000000 0.000000
# 4 0.000000 0.000000 0.000000 0.067079 0.000000 0.000000
# 5 0.000000 0.000000 0.000000 0.000000 0.041224 0.000000
# 6 0.000000 0.000000 0.000000 0.000000 0.000000 0.015484
#
#
# Mechanical properties :
#
#
# Convention : Reuss Voigt Hill
#
# Bulk Modulus (GPa) = 16.00967 30.43012 23.21990
# Shear Modulus (GPa) = 23.29629 33.72226 28.50927
#
# Velocity S-wave (km/s) = 3.55385 4.27577 3.93142
# Velocity P-wave (km/s) = 5.05166 6.39325 5.76164
#
# Compressibility (1/GPa) = 0.06246224
#
# Stress axis : x y z
#
# Youngs Moduli (GPa) = 23.77539 110.26405 66.17667
#
# Poissons Ratio (x) = 0.06922 -0.16335
# Poissons Ratio (y) = 0.01493 0.24682
# Poissons Ratio (z) = -0.05869 0.41125
#
# Static dielectric constant tensor:
#      x y z
#    x 1.623710 0.000000 0.000000 
#    y 0.000000 1.649040 0.000000 
#    z 0.000000 0.000000 1.606110 
# 
# From -- ./inp_files/37691.got.cif
#   From: 2010.05.17/outbox.cif.g08.bks.cpg/sg53_19_cif.got.tgz:37691.got - 2010.06.03 12:45:16.
