data_PCOD9416842
_publ_section_title
;
Structure prediction by ZEFSAII (Michael W. Deem and Ramdas Pophale) SiO2 
 PCOD9416842
Probable space group: P M N A
;
_chemical_formula_sum "Si O2"
_cell_formula_units_Z 40
_cell_length_a 8.660333
_cell_length_b 13.475432
_cell_length_c 19.487447
_cell_angle_alpha 90.000000
_cell_angle_beta 90.000000
_cell_angle_gamma 90.000000
_cell_volume 2274.218748
_symmetry_space_group_name_H-M "P M N A"
_symmetry_group_IT_number 53
_symmetry_cell_setting 'orthorhombic'
loop_
_space_group_symop_operation_xyz
x,y,z
1/2-x,-y,1/2+z
x,-y,-z
1/2-x,y,1/2-z
-x,-y,-z
1/2+x,y,1/2-z
-x,y,z
1/2+x,-y,1/2+z
loop_
_atom_site_type_symbol
_atom_site_label
_atom_site_fract_x
_atom_site_fract_y
_atom_site_fract_z
Si Si1 0.185499 0.604010 0.077531
Si Si2 0.185083 0.993164 0.327606
Si Si3 0.684801 0.211543 0.672885
Si Si4 0.813863 0.211732 0.327029
Si Si5 0.185864 0.391566 0.424375
O O1 0.229712 0.694167 0.127212
O O2 0.253038 0.498167 0.100861
O O3 0.000000 0.597352 0.075004
O O4 0.249068 0.621929 0.001014
O O5 0.250000 0.994679 0.250000
O O6 0.253605 0.892310 0.358211
O O7 0.000000 0.985194 0.326337
O O8 0.228382 0.102031 0.355636
O O9 0.750000 0.221723 0.750000
O O10 0.500000 0.206532 0.676798
O O11 0.750000 0.221976 0.250000
O O12 0.763870 0.301638 0.375451
O O13 0.000000 0.214007 0.322866
O O14 0.000000 0.393957 0.427242
#
# Coordination Sequence:
#
# PCOD9416842 Si02
#       5
#     8   8   8   8   8
#     4  10  21  36  52  72  99 131 166 203 247 294
#     4   9  16  29  49  72 100 130 160 197 242 290
#     4  10  20  33  51  75 101 129 164 204 244 290
#     4   9  19  33  51  77 103 129 163 202 244 290
#     4  10  20  35  54  74  98 130 167 203 244 294
#
# _framework density 17.588456999999998
#
# number of rings (size 3 to 8) (size 9 to 14) (size 15 to 20)
#    0.000    2.400    0.000    4.800    0.000    6.400 
#    0.000    5.000    0.000    6.000    0.000    0.000 
#    0.000    0.000    0.000    0.000    0.000    0.000 
#
# Total GULP energy -222992.830328 kJ/mol
# GULP energy per Si atom -5574.820758 kJ/mol
# Density = 1.754842 g / cm^3
# Si number density = 17.588457 Si / 1000 Ang^3
#
#
#
# Elastic Constant Matrix: (Units=GPa)
#
#
# Indices 1 2 3 4 5 6 
#
# 1 45.9977 51.6656 21.7885 0.0000 0.0000 0.0000
# 2 51.6656 222.5642 84.2076 0.0000 0.0000 0.0000
# 3 21.7885 84.2076 50.2335 0.0000 0.0000 0.0000
# 4 0.0000 0.0000 0.0000 -6.4309 0.0000 0.0000
# 5 0.0000 0.0000 0.0000 0.0000 5.4809 0.0000
# 6 0.0000 0.0000 0.0000 0.0000 0.0000 36.1676
#
#
#
# Elastic Compliance Matrix: (Units=1/GPa)
#
#
# Indices 1 2 3 4 5 6 
#
# 1 0.029646 -0.005514 -0.003615 0.000000 0.000000 0.000000
# 2 -0.005514 0.013310 -0.019920 0.000000 0.000000 0.000000
# 3 -0.003615 -0.019920 0.054868 0.000000 0.000000 0.000000
# 4 0.000000 0.000000 0.000000 -0.155500 0.000000 0.000000
# 5 0.000000 0.000000 0.000000 0.000000 0.182451 0.000000
# 6 0.000000 0.000000 0.000000 0.000000 0.000000 0.027649
#
#
# Mechanical properties :
#
#
# Convention : Reuss Voigt Hill
#
# Bulk Modulus (GPa) = 25.17322 70.45764 47.81543
# Shear Modulus (GPa) = 22.34486 17.78577 20.06531
#
# Velocity S-wave (km/s) = 3.56817 3.18342 3.38127
# Velocity P-wave (km/s) = 5.59636 7.32517 6.51834
#
# Compressibility (1/GPa) = 0.03972476
#
# Stress axis : x y z
#
# Youngs Moduli (GPa) = 33.73084 75.13208 18.22571
#
# Poissons Ratio (x) = 0.41429 0.06589
# Poissons Ratio (y) = 0.18600 0.36306
# Poissons Ratio (z) = 0.12195 1.49663
#
# Static dielectric constant tensor:
#      x y z
#    x 1.593660 0.000000 0.000000 
#    y 0.000000 1.644160 0.000000 
#    z 0.000000 0.000000 1.519000 
# 
# From -- ./inp_files/30360.got.cif
#   From: 2010.05.17/outbox.cif.g08.bks.cpg/sg53_16_cif.got.tgz:30360.got - 2010.06.03 12:45:16.
