data_PCOD9416185
_publ_section_title
;
Structure prediction by ZEFSAII (Michael W. Deem and Ramdas Pophale) SiO2 
 PCOD9416185
Probable space group: P M N A
;
_chemical_formula_sum "Si O2"
_cell_formula_units_Z 48
_cell_length_a 14.638955
_cell_length_b 15.244851
_cell_length_c 8.817820
_cell_angle_alpha 90.000000
_cell_angle_beta 90.000000
_cell_angle_gamma 90.000000
_cell_volume 1967.861318
_symmetry_space_group_name_H-M "P M N A"
_symmetry_group_IT_number 53
_symmetry_cell_setting 'orthorhombic'
loop_
_space_group_symop_operation_xyz
x,y,z
1/2-x,-y,1/2+z
x,-y,-z
1/2-x,y,1/2-z
-x,-y,-z
1/2+x,y,1/2-z
-x,y,z
1/2+x,-y,1/2+z
loop_
_atom_site_type_symbol
_atom_site_label
_atom_site_fract_x
_atom_site_fract_y
_atom_site_fract_z
Si Si1 0.888493 0.858501 0.822362
Si Si2 0.111693 0.693445 0.638699
Si Si3 0.397280 0.457734 0.350583
Si Si4 0.608462 0.196229 0.651680
Si Si5 0.888317 0.967294 0.336478
Si Si6 0.849313 0.376690 0.691440
O O1 0.862048 0.791229 0.688863
O O2 0.863029 0.957710 0.784199
O O3 0.000000 0.856168 0.824849
O O4 0.854486 0.825326 0.985020
O O5 0.142288 0.628051 0.772820
O O6 0.146688 0.657824 0.479211
O O7 0.000000 0.690122 0.628870
O O8 0.352610 0.500000 0.500000
O O9 0.500000 0.431234 0.398941
O O10 0.402736 0.534132 0.225140
O O11 0.500000 0.181362 0.641973
O O12 0.620886 0.295306 0.704176
O O13 0.642612 0.127382 0.777754
O O14 0.000000 0.964705 0.345279
O O15 0.855925 0.000000 0.500000
O O16 0.750000 0.399826 0.750000
#
# Coordination Sequence:
#
# PCOD9416185 Si02
#       6
#     8   8   8   8   8   8
#     4   9  17  31  55  87 113 138 180 234 289 339
#     4  10  20  37  62  87 113 146 186 232 283 341
#     4  10  21  39  63  89 114 143 183 230 282 340
#     4  10  19  34  56  80 111 148 188 235 282 333
#     4   9  16  27  50  85 116 140 175 229 287 339
#     4  12  25  38  54  80 114 152 191 232 277 330
#
# _framework density 24.391961999999999
#
# number of rings (size 3 to 8) (size 9 to 14) (size 15 to 20)
#    0.000    2.000    0.000    4.500    0.000   10.000 
#    0.000    2.500    0.000    6.000    0.000    0.000 
#    0.000    0.000    0.000    0.000    0.000    0.000 
#
# Total GULP energy -268529.882606 kJ/mol
# GULP energy per Si atom -5594.372554 kJ/mol
# Density = 2.433644 g / cm^3
# Si number density = 24.391962 Si / 1000 Ang^3
#
#
#
# Elastic Constant Matrix: (Units=GPa)
#
#
# Indices 1 2 3 4 5 6 
#
# 1 61.6231 -9.1256 8.0108 0.0000 0.0000 0.0000
# 2 -9.1256 79.1981 -26.5515 0.0000 0.0000 0.0000
# 3 8.0108 -26.5515 64.2512 0.0000 0.0000 0.0000
# 4 0.0000 0.0000 0.0000 40.0515 0.0000 0.0000
# 5 0.0000 0.0000 0.0000 0.0000 13.7794 0.0000
# 6 0.0000 0.0000 0.0000 0.0000 0.0000 130.4550
#
#
#
# Elastic Compliance Matrix: (Units=1/GPa)
#
#
# Indices 1 2 3 4 5 6 
#
# 1 0.016631 0.001418 -0.001488 0.000000 0.000000 0.000000
# 2 0.001418 0.014778 0.005930 0.000000 0.000000 0.000000
# 3 -0.001488 0.005930 0.018200 0.000000 0.000000 0.000000
# 4 0.000000 0.000000 0.000000 0.024968 0.000000 0.000000
# 5 0.000000 0.000000 0.000000 0.000000 0.072572 0.000000
# 6 0.000000 0.000000 0.000000 0.000000 0.000000 0.007665
#
#
# Mechanical properties :
#
#
# Convention : Reuss Voigt Hill
#
# Bulk Modulus (GPa) = 16.30546 16.63773 16.47160
# Shear Modulus (GPa) = 30.57401 52.37310 41.47355
#
# Velocity S-wave (km/s) = 3.54424 4.63876 4.12794
# Velocity P-wave (km/s) = 4.84233 5.96042 5.43023
#
# Compressibility (1/GPa) = 0.06132914
#
# Stress axis : x y z
#
# Youngs Moduli (GPa) = 60.12864 67.66794 54.94492
#
# Poissons Ratio (x) = -0.09592 0.08174
# Poissons Ratio (y) = -0.08523 -0.32584
# Poissons Ratio (z) = 0.08946 -0.40129
#
# Static dielectric constant tensor:
#      x y z
#    x 2.021010 0.000000 0.000000 
#    y 0.000000 1.980040 0.000000 
#    z 0.000000 0.000000 1.916010 
# 
# From -- ./inp_files/9952.got.cif
#   From: 2010.05.17/outbox.cif.g08.bks.cpg/sg53_5_cif.got.tgz:9952.got - 2010.06.03 12:45:16.
