data_PCOD9416078
_publ_section_title
;
Structure prediction by ZEFSAII (Michael W. Deem and Ramdas Pophale) SiO2 
 PCOD9416078
Probable space group: P M N A
;
_chemical_formula_sum "Si O2"
_cell_formula_units_Z 64
_cell_length_a 29.882471
_cell_length_b 13.244856
_cell_length_c 7.504086
_cell_angle_alpha 90.000000
_cell_angle_beta 90.000000
_cell_angle_gamma 90.000000
_cell_volume 2970.034884
_symmetry_space_group_name_H-M "P M N A"
_symmetry_group_IT_number 53
_symmetry_cell_setting 'orthorhombic'
loop_
_space_group_symop_operation_xyz
x,y,z
1/2-x,-y,1/2+z
x,-y,-z
1/2-x,y,1/2-z
-x,-y,-z
1/2+x,y,1/2-z
-x,y,z
1/2+x,-y,1/2+z
loop_
_atom_site_type_symbol
_atom_site_label
_atom_site_fract_x
_atom_site_fract_y
_atom_site_fract_z
Si Si1 0.802631 0.703912 0.716529
Si Si2 0.854341 0.494408 0.280711
Si Si3 0.643538 0.117766 0.803292
Si Si4 0.302364 0.693509 0.210742
Si Si5 0.450180 0.780880 0.260067
Si Si6 0.855927 0.896157 0.722573
Si Si7 0.950791 0.541893 0.297619
Si Si8 0.549206 0.105153 0.386562
O O1 0.750000 0.702313 0.750000
O O2 0.827796 0.603812 0.780915
O O3 0.808126 0.698863 0.502715
O O4 0.826125 0.804234 0.792211
O O5 0.855132 0.500000 0.500000
O O6 0.828071 0.594547 0.223498
O O7 0.905764 0.494389 0.219139
O O8 0.673522 0.205786 0.721315
O O9 0.591841 0.152974 0.800948
O O10 0.652491 0.010186 0.713598
O O11 0.653404 0.105354 0.011974
O O12 0.250000 0.689399 0.250000
O O13 0.500000 0.812194 0.195531
O O14 0.444278 0.663575 0.209264
O O15 0.450449 0.803509 0.471385
O O16 0.908496 0.880665 0.760742
O O17 0.952537 0.500000 0.500000
O O18 0.000000 0.520297 0.218487
O O19 0.500000 0.101754 0.299933
O O20 0.553496 0.000000 0.500000
#
# Coordination Sequence:
#
# PCOD9416078 Si02
#       8
#     8   8   8   8   8   8   8   8
#     4  10  22  39  55  79 115 150 188 237 294 352
#     4   9  17  33  57  81 112 144 184 234 284 335
#     4  10  20  36  55  86 115 146 194 242 292 351
#     4  10  20  35  58  83 107 142 190 245 293 340
#     4  10  19  33  57  86 116 149 193 241 280 346
#     4  10  22  37  56  79 120 157 185 238 299 351
#     4   9  17  30  54  88 117 145 187 237 289 341
#     4  10  20  36  57  84 119 160 199 235 288 355
#
# _framework density 21.548568
#
# number of rings (size 3 to 8) (size 9 to 14) (size 15 to 20)
#    0.000    2.250    2.500    0.375    1.750    2.000 
#    0.000    1.875    0.000    0.000    0.000    2.625 
#    0.000    0.000    0.000    0.000    0.000    0.000 
#
# Total GULP energy -357041.831092 kJ/mol
# GULP energy per Si atom -5578.778611 kJ/mol
# Density = 2.149952 g / cm^3
# Si number density = 21.548568 Si / 1000 Ang^3
#
#
#
# Elastic Constant Matrix: (Units=GPa)
#
#
# Indices 1 2 3 4 5 6 
#
# 1 194.2948 110.1384 -4.0248 0.0000 0.0000 0.0000
# 2 110.1384 178.7946 22.3126 0.0000 0.0000 0.0000
# 3 -4.0248 22.3126 51.9940 0.0000 0.0000 0.0000
# 4 0.0000 0.0000 0.0000 2.8530 0.0000 0.0000
# 5 0.0000 0.0000 0.0000 0.0000 27.8438 0.0000
# 6 0.0000 0.0000 0.0000 0.0000 0.0000 5.5853
#
#
#
# Elastic Compliance Matrix: (Units=1/GPa)
#
#
# Indices 1 2 3 4 5 6 
#
# 1 0.008331 -0.005507 0.003008 0.000000 0.000000 0.000000
# 2 -0.005507 0.009550 -0.004525 0.000000 0.000000 0.000000
# 3 0.003008 -0.004525 0.021408 0.000000 0.000000 0.000000
# 4 0.000000 0.000000 0.000000 0.350503 0.000000 0.000000
# 5 0.000000 0.000000 0.000000 0.000000 0.035915 0.000000
# 6 0.000000 0.000000 0.000000 0.000000 0.000000 0.179043
#
#
# Mechanical properties :
#
#
# Convention : Reuss Voigt Hill
#
# Bulk Modulus (GPa) = 39.61753 75.77064 57.69408
# Shear Modulus (GPa) = 7.97180 27.03357 17.50268
#
# Velocity S-wave (km/s) = 1.92548 3.54579 2.85308
# Velocity P-wave (km/s) = 4.83409 7.21128 6.13885
#
# Compressibility (1/GPa) = 0.02524135
#
# Stress axis : x y z
#
# Youngs Moduli (GPa) = 120.03248 104.70921 46.71248
#
# Poissons Ratio (x) = 0.57668 -0.14053
# Poissons Ratio (y) = 0.66107 0.21136
# Poissons Ratio (z) = -0.36110 0.47378
#
# Static dielectric constant tensor:
#      x y z
#    x 1.771210 0.000000 0.000000 
#    y 0.000000 1.817480 0.000000 
#    z 0.000000 0.000000 1.847920 
# 
# From -- ./inp_files/13235.got.cif
#   From: 2010.05.17/outbox.cif.g08.bks.cpg/sg53_7_cif.got.tgz:13235.got - 2010.06.03 12:45:16.
