data_PCOD9416173
_publ_section_title
;
Structure prediction by ZEFSAII (Michael W. Deem and Ramdas Pophale) SiO2 
 PCOD9416173
Probable space group: P M N A
;
_chemical_formula_sum "Si O2"
_cell_formula_units_Z 48
_cell_length_a 8.439109
_cell_length_b 19.413237
_cell_length_c 15.766233
_cell_angle_alpha 90.000000
_cell_angle_beta 90.000000
_cell_angle_gamma 90.000000
_cell_volume 2582.988623
_symmetry_space_group_name_H-M "P M N A"
_symmetry_group_IT_number 53
_symmetry_cell_setting 'orthorhombic'
loop_
_space_group_symop_operation_xyz
x,y,z
1/2-x,-y,1/2+z
x,-y,-z
1/2-x,y,1/2-z
-x,-y,-z
1/2+x,y,1/2-z
-x,y,z
1/2+x,-y,1/2+z
loop_
_atom_site_type_symbol
_atom_site_label
_atom_site_fract_x
_atom_site_fract_y
_atom_site_fract_z
Si Si1 0.691192 0.170121 0.156927
Si Si2 0.193745 0.579079 0.499076
Si Si3 0.690092 0.674466 0.155955
Si Si4 0.191918 0.079417 0.502695
Si Si5 0.308738 0.671290 0.842967
Si Si6 0.311468 0.828206 0.344215
O O1 0.750000 0.149062 0.250000
O O2 0.500000 0.169629 0.157704
O O3 0.742874 0.249435 0.142048
O O4 0.745035 0.120814 0.081158
O O5 0.246263 0.500000 0.500000
O O6 0.243404 0.620462 0.415150
O O7 0.245409 0.621150 0.582223
O O8 0.000000 0.578923 0.499373
O O9 0.750000 0.657022 0.250000
O O10 0.500000 0.675843 0.157011
O O11 0.748592 0.751486 0.135158
O O12 0.252162 0.118601 0.585675
O O13 0.000000 0.080844 0.504121
O O14 0.242880 0.000000 0.500000
O O15 0.250000 0.650354 0.750000
O O16 0.500000 0.671040 0.842691
O O17 0.250000 0.845592 0.250000
O O18 0.500000 0.826336 0.342424
#
# Coordination Sequence:
#
# PCOD9416173 Si02
#       6
#     8   8   8   8   8   8
#     4   9  18  33  53  76 102 134 172 213 256 304
#     4   9  18  32  51  75 104 139 173 207 257 321
#     4  10  19  34  56  79 105 137 178 224 268 318
#     4  10  21  37  56  80 111 144 176 215 267 322
#     4   9  17  31  51  73  97 128 167 207 247 294
#     4  11  22  37  58  81 107 140 182 228 272 321
#
# _framework density 18.583126
#
# number of rings (size 3 to 8) (size 9 to 14) (size 15 to 20)
#    0.000    2.333    0.000    4.000    0.000    5.000 
#    0.000    6.667    0.000    3.500    0.000    0.000 
#    0.000    0.000    0.000    0.000    0.000    0.000 
#
# Total GULP energy -267974.907667 kJ/mol
# GULP energy per Si atom -5582.810576 kJ/mol
# Density = 1.854083 g / cm^3
# Si number density = 18.583126 Si / 1000 Ang^3
#
#
#
# Elastic Constant Matrix: (Units=GPa)
#
#
# Indices 1 2 3 4 5 6 
#
# 1 26.2032 30.3279 29.4363 0.0000 0.0000 0.0000
# 2 30.3279 159.4908 149.5568 0.0000 0.0000 0.0000
# 3 29.4363 149.5568 181.0552 0.0000 0.0000 0.0000
# 4 0.0000 0.0000 0.0000 5.2924 0.0000 0.0000
# 5 0.0000 0.0000 0.0000 0.0000 26.5261 0.0000
# 6 0.0000 0.0000 0.0000 0.0000 0.0000 17.0014
#
#
#
# Elastic Compliance Matrix: (Units=1/GPa)
#
#
# Indices 1 2 3 4 5 6 
#
# 1 0.048991 -0.008193 -0.001197 0.000000 0.000000 0.000000
# 2 -0.008193 0.029185 -0.022775 0.000000 0.000000 0.000000
# 3 -0.001197 -0.022775 0.024531 0.000000 0.000000 0.000000
# 4 0.000000 0.000000 0.000000 0.188952 0.000000 0.000000
# 5 0.000000 0.000000 0.000000 0.000000 0.037699 0.000000
# 6 0.000000 0.000000 0.000000 0.000000 0.000000 0.058819
#
#
# Mechanical properties :
#
#
# Convention : Reuss Voigt Hill
#
# Bulk Modulus (GPa) = 26.05854 87.26571 56.66212
# Shear Modulus (GPa) = 10.74578 20.25919 15.50248
#
# Velocity S-wave (km/s) = 2.40730 3.30539 2.89143
# Velocity P-wave (km/s) = 4.66690 7.85042 6.45790
#
# Compressibility (1/GPa) = 0.03837514
#
# Stress axis : x y z
#
# Youngs Moduli (GPa) = 20.41186 34.26456 40.76494
#
# Poissons Ratio (x) = 0.28074 0.04880
# Poissons Ratio (y) = 0.16724 0.92843
# Poissons Ratio (z) = 0.02444 0.78039
#
# Static dielectric constant tensor:
#      x y z
#    x 1.638490 0.000000 0.000000 
#    y 0.000000 1.626790 0.000000 
#    z 0.000000 0.000000 1.618720 
# 
# From -- ./inp_files/20211.got.cif
#   From: 2010.05.17/outbox.cif.g08.bks.cpg/sg53_11_cif.got.tgz:20211.got - 2010.06.03 12:45:16.
