data_PCOD9416494
_publ_section_title
;
Structure prediction by ZEFSAII (Michael W. Deem and Ramdas Pophale) SiO2 
 PCOD9416494
Probable space group: P M N A
;
_chemical_formula_sum "Si O2"
_cell_formula_units_Z 56
_cell_length_a 8.636039
_cell_length_b 14.842750
_cell_length_c 22.099636
_cell_angle_alpha 90.000000
_cell_angle_beta 90.000000
_cell_angle_gamma 90.000000
_cell_volume 2832.788091
_symmetry_space_group_name_H-M "P M N A"
_symmetry_group_IT_number 53
_symmetry_cell_setting 'orthorhombic'
loop_
_space_group_symop_operation_xyz
x,y,z
1/2-x,-y,1/2+z
x,-y,-z
1/2-x,y,1/2-z
-x,-y,-z
1/2+x,y,1/2-z
-x,y,z
1/2+x,-y,1/2+z
loop_
_atom_site_type_symbol
_atom_site_label
_atom_site_fract_x
_atom_site_fract_y
_atom_site_fract_z
Si Si1 0.313230 0.953375 0.680768
Si Si2 0.315081 0.628003 0.314177
Si Si3 0.183448 0.757898 0.814876
Si Si4 0.812021 0.736105 0.066936
Si Si5 0.189244 0.057218 0.940239
Si Si6 0.324096 0.564666 0.844548
Si Si7 0.674569 0.592893 0.534705
O O1 0.250000 0.969157 0.750000
O O2 0.500000 0.958178 0.686837
O O3 0.278463 0.852736 0.653181
O O4 0.263589 0.019103 0.626074
O O5 0.250000 0.660098 0.250000
O O6 0.500000 0.631952 0.313189
O O7 0.258210 0.687259 0.371269
O O8 0.266336 0.523612 0.322820
O O9 0.250000 0.780840 0.750000
O O10 0.257056 0.661750 0.827636
O O11 0.000000 0.747196 0.815536
O O12 0.760409 0.838356 0.057119
O O13 0.000000 0.737512 0.070546
O O14 0.777236 0.672273 0.010040
O O15 0.000000 0.055162 0.940691
O O16 0.238006 0.000000 0.000000
O O17 0.500000 0.556602 0.823969
O O18 0.302193 0.570636 0.916083
O O19 0.655622 0.500000 0.500000
O O20 0.500000 0.614743 0.560230
#
# Coordination Sequence:
#
# PCOD9416494 Si02
#       7
#     8   8   8   8   8   8   8
#     4   9  19  35  58  86 114 150 192 240 293 350
#     4  11  22  39  58  83 115 153 194 236 283 338
#     4  10  20  35  55  81 113 149 188 229 279 338
#     4   9  19  35  57  83 115 150 188 234 284 340
#     4   9  18  33  57  90 119 145 191 246 291 340
#     4  12  24  36  54  83 116 151 187 234 285 335
#     4  10  19  36  59  82 109 147 190 230 276 335
#
# _framework density 19.768509999999999
#
# number of rings (size 3 to 8) (size 9 to 14) (size 15 to 20)
#    0.000    2.000    1.429    2.571    2.000    1.429 
#    0.000    0.000    0.000    2.143    0.000    0.000 
#    0.000    0.000    0.000    0.000    0.000    0.000 
#
# Total GULP energy -311857.607434 kJ/mol
# GULP energy per Si atom -5568.885847 kJ/mol
# Density = 1.972352 g / cm^3
# Si number density = 19.768510 Si / 1000 Ang^3
#
#
#
# Elastic Constant Matrix: (Units=GPa)
#
#
# Indices 1 2 3 4 5 6 
#
# 1 27.5943 9.6125 5.3555 0.0000 0.0000 0.0000
# 2 9.6125 116.6945 36.3130 0.0000 0.0000 0.0000
# 3 5.3555 36.3130 78.2689 0.0000 0.0000 0.0000
# 4 0.0000 0.0000 0.0000 21.8845 0.0000 0.0000
# 5 0.0000 0.0000 0.0000 0.0000 27.1980 0.0000
# 6 0.0000 0.0000 0.0000 0.0000 0.0000 12.6623
#
#
#
# Elastic Compliance Matrix: (Units=1/GPa)
#
#
# Indices 1 2 3 4 5 6 
#
# 1 0.037426 -0.002672 -0.001321 0.000000 0.000000 0.000000
# 2 -0.002672 0.010206 -0.004552 0.000000 0.000000 0.000000
# 3 -0.001321 -0.004552 0.014979 0.000000 0.000000 0.000000
# 4 0.000000 0.000000 0.000000 0.045694 0.000000 0.000000
# 5 0.000000 0.000000 0.000000 0.000000 0.036767 0.000000
# 6 0.000000 0.000000 0.000000 0.000000 0.000000 0.078974
#
#
# Mechanical properties :
#
#
# Convention : Reuss Voigt Hill
#
# Bulk Modulus (GPa) = 21.96802 36.12440 29.04621
# Shear Modulus (GPa) = 19.50748 23.76743 21.63746
#
# Velocity S-wave (km/s) = 3.14474 3.47116 3.31197
# Velocity P-wave (km/s) = 4.93179 5.86333 5.41762
#
# Compressibility (1/GPa) = 0.04552071
#
# Stress axis : x y z
#
# Youngs Moduli (GPa) = 26.71906 97.98113 66.76050
#
# Poissons Ratio (x) = 0.26178 0.08821
# Poissons Ratio (y) = 0.07139 0.30391
# Poissons Ratio (z) = 0.03530 0.44604
#
# Static dielectric constant tensor:
#      x y z
#    x 1.680340 0.000000 0.000000 
#    y 0.000000 1.047920 0.000000 
#    z 0.000000 0.000000 1.763180 
# 
# From -- ./inp_files/30805.got.cif
#   From: 2010.05.17/outbox.cif.g08.bks.cpg/sg53_16_cif.got.tgz:30805.got - 2010.06.03 12:45:16.
