data_PCOD9416482
_publ_section_title
;
Structure prediction by ZEFSAII (Michael W. Deem and Ramdas Pophale) SiO2 
 PCOD9416482
Probable space group: P M N A
;
_chemical_formula_sum "Si O2"
_cell_formula_units_Z 48
_cell_length_a 8.531394
_cell_length_b 9.902170
_cell_length_c 31.202173
_cell_angle_alpha 90.000000
_cell_angle_beta 90.000000
_cell_angle_gamma 90.000000
_cell_volume 2635.938162
_symmetry_space_group_name_H-M "P M N A"
_symmetry_group_IT_number 53
_symmetry_cell_setting 'orthorhombic'
loop_
_space_group_symop_operation_xyz
x,y,z
1/2-x,-y,1/2+z
x,-y,-z
1/2-x,y,1/2-z
-x,-y,-z
1/2+x,y,1/2-z
-x,y,z
1/2+x,-y,1/2+z
loop_
_atom_site_type_symbol
_atom_site_label
_atom_site_fract_x
_atom_site_fract_y
_atom_site_fract_z
Si Si1 0.313246 0.203425 0.888347
Si Si2 0.188267 0.683791 0.702198
Si Si3 0.813602 0.850721 0.017774
Si Si4 0.187758 0.711774 0.563907
Si Si5 0.314329 0.496091 0.627369
Si Si6 0.190119 0.085119 0.360115
O O1 0.500000 0.217104 0.882761
O O2 0.275181 0.178173 0.938229
O O3 0.231537 0.340004 0.873549
O O4 0.256753 0.068652 0.863688
O O5 0.250000 0.668612 0.750000
O O6 0.250090 0.569604 0.669839
O O7 0.239231 0.826315 0.680664
O O8 0.000000 0.679332 0.702022
O O9 0.000000 0.846662 0.025439
O O10 0.766533 0.744255 0.981184
O O11 0.772561 0.000000 0.000000
O O12 0.238199 0.573545 0.586802
O O13 0.236238 0.829672 0.597625
O O14 0.000000 0.715168 0.559442
O O15 0.500000 0.512972 0.625175
O O16 0.000000 0.082786 0.360347
#
# Coordination Sequence:
#
# PCOD9416482 Si02
#       6
#     8   8   8   8   8   8
#     4  11  21  37  58  82 113 155 196 237 283 339
#     4  10  20  39  64  91 114 145 185 229 279 344
#     4  11  22  34  52  83 118 152 193 243 289 336
#     4  10  19  36  58  81 108 151 199 238 279 337
#     4  11  23  39  57  84 118 153 188 237 293 344
#     4   8  17  33  57  83 110 141 184 231 277 329
#
# _framework density 18.209835000000002
#
# number of rings (size 3 to 8) (size 9 to 14) (size 15 to 20)
#    0.000    1.833    1.667    4.500    0.000    1.333 
#    0.000    6.667    0.000    2.000    0.000    0.000 
#    0.000    0.000    0.000    0.000    0.000    0.000 
#
# Total GULP energy -268078.774994 kJ/mol
# GULP energy per Si atom -5584.974479 kJ/mol
# Density = 1.816839 g / cm^3
# Si number density = 18.209835 Si / 1000 Ang^3
#
#
#
# Elastic Constant Matrix: (Units=GPa)
#
#
# Indices 1 2 3 4 5 6 
#
# 1 39.0591 8.3163 4.6713 0.0000 0.0000 0.0000
# 2 8.3163 119.8427 27.8718 0.0000 0.0000 0.0000
# 3 4.6713 27.8718 75.1164 0.0000 0.0000 0.0000
# 4 0.0000 0.0000 0.0000 13.5419 0.0000 0.0000
# 5 0.0000 0.0000 0.0000 0.0000 23.1223 0.0000
# 6 0.0000 0.0000 0.0000 0.0000 0.0000 22.6928
#
#
#
# Elastic Compliance Matrix: (Units=1/GPa)
#
#
# Indices 1 2 3 4 5 6 
#
# 1 0.026060 -0.001567 -0.001039 0.000000 0.000000 0.000000
# 2 -0.001567 0.009227 -0.003326 0.000000 0.000000 0.000000
# 3 -0.001039 -0.003326 0.014611 0.000000 0.000000 0.000000
# 4 0.000000 0.000000 0.000000 0.073845 0.000000 0.000000
# 5 0.000000 0.000000 0.000000 0.000000 0.043248 0.000000
# 6 0.000000 0.000000 0.000000 0.000000 0.000000 0.044067
#
#
# Mechanical properties :
#
#
# Convention : Reuss Voigt Hill
#
# Bulk Modulus (GPa) = 26.29228 35.08189 30.68708
# Shear Modulus (GPa) = 21.22241 24.74866 22.98553
#
# Velocity S-wave (km/s) = 3.41755 3.69057 3.55668
# Velocity P-wave (km/s) = 5.48113 6.12108 5.80992
#
# Compressibility (1/GPa) = 0.03803398
#
# Stress axis : x y z
#
# Youngs Moduli (GPa) = 38.37284 108.38304 68.43958
#
# Poissons Ratio (x) = 0.16980 0.07113
# Poissons Ratio (y) = 0.06012 0.22763
# Poissons Ratio (z) = 0.03988 0.36049
#
# Static dielectric constant tensor:
#      x y z
#    x 1.606690 0.000000 0.000000 
#    y 0.000000 1.634080 0.000000 
#    z 0.000000 0.000000 1.594620 
# 
# From -- ./inp_files/37766.got.cif
#   From: 2010.05.17/outbox.cif.g08.bks.cpg/sg53_19_cif.got.tgz:37766.got - 2010.06.03 12:45:16.
