data_PCOD9416090
_publ_section_title
;
Structure prediction by ZEFSAII (Michael W. Deem and Ramdas Pophale) SiO2 
 PCOD9416090
Probable space group: P M N A
;
_chemical_formula_sum "Si O2"
_cell_formula_units_Z 20
_cell_length_a 5.615798
_cell_length_b 16.150142
_cell_length_c 9.371570
_cell_angle_alpha 90.000000
_cell_angle_beta 90.000000
_cell_angle_gamma 90.000000
_cell_volume 849.963305
_symmetry_space_group_name_H-M "P M N A"
_symmetry_group_IT_number 53
_symmetry_cell_setting 'orthorhombic'
loop_
_space_group_symop_operation_xyz
x,y,z
1/2-x,-y,1/2+z
x,-y,-z
1/2-x,y,1/2-z
-x,-y,-z
1/2+x,y,1/2-z
-x,y,z
1/2+x,-y,1/2+z
loop_
_atom_site_type_symbol
_atom_site_label
_atom_site_fract_x
_atom_site_fract_y
_atom_site_fract_z
Si Si1 0.000000 0.221587 0.254893
Si Si2 0.500000 0.836342 0.080339
Si Si3 0.000000 0.589565 0.070194
Si Si4 0.000000 0.902051 0.018739
Si Si5 0.500000 0.349600 0.887153
O O1 0.250000 0.268600 0.250000
O O2 0.000000 0.179867 0.409454
O O3 0.000000 0.152218 0.128799
O O4 0.245403 0.879767 0.098944
O O5 0.500000 0.746737 0.154320
O O6 0.251720 0.632798 0.033269
O O7 0.000000 0.595041 0.243631
O O8 0.000000 0.500000 0.000000
O O9 0.000000 0.000000 0.000000
#
# Coordination Sequence:
#
# PCOD9416090 Si02
#       5
#     4   4   4   4   4
#     4   8  16  30  52  72 112 146 201 240 305 343
#     4  10  19  35  60  83 121 160 207 258 306 361
#     4  10  21  40  68  89 129 161 195 254 318 388
#     4  10  19  33  58  83 123 162 211 262 306 361
#     4  10  21  38  68  91 126 164 205 256 309 376
#
# _framework density 23.530425000000001
#
# number of rings (size 3 to 8) (size 9 to 14) (size 15 to 20)
#    0.000    2.400    0.000    2.400    0.000    0.000 
#    0.000    0.000  158.400    0.000    0.000    0.000 
#    0.000    0.000    0.000    0.000    0.000    0.000 
#
# Total GULP energy -111513.802424 kJ/mol
# GULP energy per Si atom -5575.690121 kJ/mol
# Density = 2.347687 g / cm^3
# Si number density = 23.530425 Si / 1000 Ang^3
#
#
#
# Elastic Constant Matrix: (Units=GPa)
#
#
# Indices 1 2 3 4 5 6 
#
# 1 320.7820 67.0654 5.9776 0.0000 0.0000 0.0000
# 2 67.0654 132.4128 20.5984 0.0000 0.0000 0.0000
# 3 5.9776 20.5984 131.0056 0.0000 0.0000 0.0000
# 4 0.0000 0.0000 0.0000 12.4108 0.0000 0.0000
# 5 0.0000 0.0000 0.0000 0.0000 -117.1242 0.0000
# 6 0.0000 0.0000 0.0000 0.0000 0.0000 39.5420
#
#
#
# Elastic Compliance Matrix: (Units=1/GPa)
#
#
# Indices 1 2 3 4 5 6 
#
# 1 0.003488 -0.001786 0.000122 0.000000 0.000000 0.000000
# 2 -0.001786 0.008656 -0.001279 0.000000 0.000000 0.000000
# 3 0.000122 -0.001279 0.007829 0.000000 0.000000 0.000000
# 4 0.000000 0.000000 0.000000 0.080575 0.000000 0.000000
# 5 0.000000 0.000000 0.000000 0.000000 -0.008538 0.000000
# 6 0.000000 0.000000 0.000000 0.000000 0.000000 0.025290
#
#
# Mechanical properties :
#
#
# Convention : Reuss Voigt Hill
#
# Bulk Modulus (GPa) = 70.99388 85.72037 78.35712
# Shear Modulus (GPa) = 39.09844 19.66964 29.38404
#
# Velocity S-wave (km/s) = 4.08071 2.89437 3.53762
# Velocity P-wave (km/s) = 7.24151 6.90496 7.07524
#
# Compressibility (1/GPa) = 0.01408572
#
# Stress axis : x y z
#
# Youngs Moduli (GPa) = 286.65891 115.53143 127.73207
#
# Poissons Ratio (x) = 0.20631 -0.01553
# Poissons Ratio (y) = 0.51191 0.16343
# Poissons Ratio (z) = -0.03486 0.14782
#
# Static dielectric constant tensor:
#      x y z
#    x 1.981120 0.000000 0.000000 
#    y 0.000000 1.804470 0.000000 
#    z 0.000000 0.000000 1.926480 
# 
# From -- ./inp_files/13361.got.cif
#   From: 2010.05.17/outbox.cif.g08.bks.cpg/sg53_7_cif.got.tgz:13361.got - 2010.06.03 12:45:16.
