data_PCOD9416064
_publ_section_title
;
Structure prediction by ZEFSAII (Michael W. Deem and Ramdas Pophale) SiO2 
 PCOD9416064
Probable space group: P M N A
;
_chemical_formula_sum "Si O2"
_cell_formula_units_Z 40
_cell_length_a 21.157940
_cell_length_b 6.148773
_cell_length_c 16.158869
_cell_angle_alpha 90.000000
_cell_angle_beta 90.000000
_cell_angle_gamma 90.000000
_cell_volume 2102.194045
_symmetry_space_group_name_H-M "P M N A"
_symmetry_group_IT_number 53
_symmetry_cell_setting 'orthorhombic'
loop_
_space_group_symop_operation_xyz
x,y,z
1/2-x,-y,1/2+z
x,-y,-z
1/2-x,y,1/2-z
-x,-y,-z
1/2+x,y,1/2-z
-x,y,z
1/2+x,-y,1/2+z
loop_
_atom_site_type_symbol
_atom_site_label
_atom_site_fract_x
_atom_site_fract_y
_atom_site_fract_z
Si Si1 0.929452 0.318334 0.260020
Si Si2 0.191611 0.077160 0.189763
Si Si3 0.337414 0.692326 0.201596
Si Si4 0.267974 0.634298 0.920039
Si Si5 0.388782 0.925992 0.915260
O O1 0.875097 0.188829 0.210331
O O2 0.899049 0.553831 0.274833
O O3 0.930440 0.199858 0.348943
O O4 0.000000 0.321676 0.224894
O O5 0.250000 0.143578 0.250000
O O6 0.217256 0.182019 0.105747
O O7 0.183769 0.824727 0.215948
O O8 0.288737 0.530033 0.154775
O O9 0.356680 0.875894 0.135050
O O10 0.332298 0.763158 0.940112
O O11 0.247536 0.500000 0.000000
O O12 0.420250 0.000000 0.000000
#
# Coordination Sequence:
#
# PCOD9416064 Si02
#       5
#     8   8   8   8   8
#     4  10  23  38  55  82 119 164 211 245 292 361
#     4  11  21  35  61  88 115 153 203 254 302 357
#     4  10  20  34  57  80 120 154 196 240 304 354
#     4  11  21  34  59  93 123 151 195 255 313 361
#     4  10  19  33  56  85 121 156 192 243 298 366
#
# _framework density 19.027740000000001
#
# number of rings (size 3 to 8) (size 9 to 14) (size 15 to 20)
#    0.000    1.600    8.000    0.000    2.800    3.600 
#    0.000    1.000    0.000    0.600    0.000    1.400 
#    0.000    0.000    0.000    0.000    0.000    0.000 
#
# Total GULP energy -222806.553453 kJ/mol
# GULP energy per Si atom -5570.163836 kJ/mol
# Density = 1.898443 g / cm^3
# Si number density = 19.027740 Si / 1000 Ang^3
#
#
#
# Elastic Constant Matrix: (Units=GPa)
#
#
# Indices 1 2 3 4 5 6 
#
# 1 114.5926 26.6587 30.0818 0.0000 0.0000 0.0000
# 2 26.6587 97.3989 19.0267 0.0000 0.0000 0.0000
# 3 30.0818 19.0267 32.1700 0.0000 0.0000 0.0000
# 4 0.0000 0.0000 0.0000 38.1672 0.0000 0.0000
# 5 0.0000 0.0000 0.0000 0.0000 15.5852 0.0000
# 6 0.0000 0.0000 0.0000 0.0000 0.0000 -4.8028
#
#
#
# Elastic Compliance Matrix: (Units=1/GPa)
#
#
# Indices 1 2 3 4 5 6 
#
# 1 0.011689 -0.001203 -0.010219 0.000000 0.000000 0.000000
# 2 -0.001203 0.011732 -0.005814 0.000000 0.000000 0.000000
# 3 -0.010219 -0.005814 0.044079 0.000000 0.000000 0.000000
# 4 0.000000 0.000000 0.000000 0.026200 0.000000 0.000000
# 5 0.000000 0.000000 0.000000 0.000000 0.064163 0.000000
# 6 0.000000 0.000000 0.000000 0.000000 0.000000 -0.208213
#
#
# Mechanical properties :
#
#
# Convention : Reuss Voigt Hill
#
# Bulk Modulus (GPa) = 30.27678 43.96622 37.12150
# Shear Modulus (GPa) = -1026.92053 21.01623 -502.95215
#
# Velocity S-wave (km/s) = -23.25657 3.32701 -16.27574
# Velocity P-wave (km/s) = 26.55581 6.15754 18.26603
#
# Compressibility (1/GPa) = 0.03302861
#
# Stress axis : x y z
#
# Youngs Moduli (GPa) = 85.55078 85.23637 22.68667
#
# Poissons Ratio (x) = 0.10255 0.23183
# Poissons Ratio (y) = 0.10293 0.13190
# Poissons Ratio (z) = 0.87421 0.49555
#
# Static dielectric constant tensor:
#      x y z
#    x 1.649090 0.000000 0.000000 
#    y 0.000000 1.716120 0.000000 
#    z 0.000000 0.000000 1.711520 
# 
# From -- ./inp_files/29213.got.cif
#   From: 2010.05.17/outbox.cif.g08.bks.cpg/sg53_15_cif.got.tgz:29213.got - 2010.06.03 12:45:16.
