data_PCOD9416273
_publ_section_title
;
Structure prediction by ZEFSAII (Michael W. Deem and Ramdas Pophale) SiO2 
 PCOD9416273
Probable space group: P M N A
;
_chemical_formula_sum "Si O2"
_cell_formula_units_Z 56
_cell_length_a 8.131103
_cell_length_b 18.298736
_cell_length_c 19.857879
_cell_angle_alpha 90.000000
_cell_angle_beta 90.000000
_cell_angle_gamma 90.000000
_cell_volume 2954.632115
_symmetry_space_group_name_H-M "P M N A"
_symmetry_group_IT_number 53
_symmetry_cell_setting 'orthorhombic'
loop_
_space_group_symop_operation_xyz
x,y,z
1/2-x,-y,1/2+z
x,-y,-z
1/2-x,y,1/2-z
-x,-y,-z
1/2+x,y,1/2-z
-x,y,z
1/2+x,-y,1/2+z
loop_
_atom_site_type_symbol
_atom_site_label
_atom_site_fract_x
_atom_site_fract_y
_atom_site_fract_z
Si Si1 0.303129 0.805940 0.674285
Si Si2 0.303996 0.606625 0.327112
Si Si3 0.200123 0.942588 0.906993
Si Si4 0.803905 0.687227 0.565586
Si Si5 0.200741 0.100602 0.940822
Si Si6 0.303434 0.261815 0.581519
Si Si7 0.301571 0.522577 0.924940
O O1 0.250000 0.790933 0.750000
O O2 0.500000 0.805504 0.670556
O O3 0.243428 0.885679 0.649092
O O4 0.239227 0.745885 0.622158
O O5 0.250000 0.602735 0.250000
O O6 0.500000 0.611133 0.328275
O O7 0.236740 0.678657 0.365820
O O8 0.255214 0.535444 0.369916
O O9 0.000000 0.944095 0.905858
O O10 0.255404 0.026718 0.903168
O O11 0.246005 0.910928 0.980640
O O12 0.728163 0.709779 0.494035
O O13 0.747915 0.606004 0.586585
O O14 0.000000 0.685038 0.556285
O O15 0.260909 0.178625 0.914242
O O16 0.000000 0.101789 0.939207
O O17 0.500000 0.257792 0.591081
O O18 0.500000 0.520974 0.924883
O O19 0.245722 0.500000 0.000000
#
# Coordination Sequence:
#
# PCOD9416273 Si02
#       7
#     8   8   8   8   8   8   8
#     4  11  22  37  55  79 113 151 189 232 281 335
#     4  11  24  39  59  85 116 152 187 229 280 333
#     4   8  14  26  50  79 106 139 179 226 272 322
#     4  11  22  36  58  85 112 145 184 230 283 336
#     4   8  13  26  51  82 107 134 180 228 271 319
#     4  10  19  34  58  86 113 145 188 234 274 328
#     4  10  21  39  61  85 113 146 183 228 281 337
#
# _framework density 18.953291
#
# number of rings (size 3 to 8) (size 9 to 14) (size 15 to 20)
#    0.000    2.143    2.857    2.143    0.000    2.571 
#    0.000    0.714    0.000    2.571    0.000    0.000 
#    0.000    0.000    0.000    0.000    0.000    0.000 
#
# Total GULP energy -312477.846760 kJ/mol
# GULP energy per Si atom -5579.961549 kJ/mol
# Density = 1.891015 g / cm^3
# Si number density = 18.953291 Si / 1000 Ang^3
#
#
#
# Elastic Constant Matrix: (Units=GPa)
#
#
# Indices 1 2 3 4 5 6 
#
# 1 8.5805 9.4733 -4.6330 0.0000 0.0000 0.0000
# 2 9.4733 189.0225 78.7567 0.0000 0.0000 0.0000
# 3 -4.6330 78.7567 121.0981 0.0000 0.0000 0.0000
# 4 0.0000 0.0000 0.0000 27.8493 0.0000 0.0000
# 5 0.0000 0.0000 0.0000 0.0000 19.8080 0.0000
# 6 0.0000 0.0000 0.0000 0.0000 0.0000 20.6384
#
#
#
# Elastic Compliance Matrix: (Units=1/GPa)
#
#
# Indices 1 2 3 4 5 6 
#
# 1 0.137517 -0.012461 0.013365 0.000000 0.000000 0.000000
# 2 -0.012461 0.008386 -0.005930 0.000000 0.000000 0.000000
# 3 0.013365 -0.005930 0.012626 0.000000 0.000000 0.000000
# 4 0.000000 0.000000 0.000000 0.035907 0.000000 0.000000
# 5 0.000000 0.000000 0.000000 0.000000 0.050485 0.000000
# 6 0.000000 0.000000 0.000000 0.000000 0.000000 0.048453
#
#
# Mechanical properties :
#
#
# Convention : Reuss Voigt Hill
#
# Bulk Modulus (GPa) = 6.73505 53.98835 30.36170
# Shear Modulus (GPa) = 14.16755 29.33275 21.75015
#
# Velocity S-wave (km/s) = 2.73701 3.93827 3.39125
# Velocity P-wave (km/s) = 3.68096 7.01617 5.60251
#
# Compressibility (1/GPa) = 0.14847699
#
# Stress axis : x y z
#
# Youngs Moduli (GPa) = 7.27181 119.24906 79.20166
#
# Poissons Ratio (x) = 1.48591 -1.05853
# Poissons Ratio (y) = 0.09061 0.46970
# Poissons Ratio (z) = -0.09719 0.70720
#
# Static dielectric constant tensor:
#      x y z
#    x 1.673090 0.000000 0.000000 
#    y 0.000000 1.690380 0.000000 
#    z 0.000000 0.000000 1.621440 
# 
# From -- ./inp_files/31048.got.cif
#   From: 2010.05.17/outbox.cif.g08.bks.cpg/sg53_16_cif.got.tgz:31048.got - 2010.06.03 12:45:16.
