data_PCOD9416635
_publ_section_title
;
Structure prediction by ZEFSAII (Michael W. Deem and Ramdas Pophale) SiO2 
 PCOD9416635
Probable space group: P M N A
;
_chemical_formula_sum "Si O2"
_cell_formula_units_Z 56
_cell_length_a 8.915892
_cell_length_b 21.109337
_cell_length_c 15.581395
_cell_angle_alpha 90.000000
_cell_angle_beta 90.000000
_cell_angle_gamma 90.000000
_cell_volume 2932.552054
_symmetry_space_group_name_H-M "P M N A"
_symmetry_group_IT_number 53
_symmetry_cell_setting 'orthorhombic'
loop_
_space_group_symop_operation_xyz
x,y,z
1/2-x,-y,1/2+z
x,-y,-z
1/2-x,y,1/2-z
-x,-y,-z
1/2+x,y,1/2-z
-x,y,z
1/2+x,-y,1/2+z
loop_
_atom_site_type_symbol
_atom_site_label
_atom_site_fract_x
_atom_site_fract_y
_atom_site_fract_z
Si Si1 0.178877 0.847874 0.020745
Si Si2 0.321831 0.515084 0.899039
Si Si3 0.679014 0.646879 0.657516
Si Si4 0.322295 0.909095 0.664719
Si Si5 0.828632 0.031550 0.594924
Si Si6 0.179931 0.622345 0.337676
Si Si7 0.319933 0.713170 0.004999
O O1 0.241764 0.902733 0.082694
O O2 0.000000 0.841698 0.030673
O O3 0.209203 0.870750 0.922650
O O4 0.262130 0.781799 0.032923
O O5 0.500000 0.527219 0.884522
O O6 0.230535 0.575945 0.869078
O O7 0.275681 0.450841 0.851223
O O8 0.304113 0.500000 0.000000
O O9 0.750000 0.661341 0.750000
O O10 0.500000 0.650989 0.661239
O O11 0.743621 0.692538 0.583824
O O12 0.250000 0.880234 0.750000
O O13 0.500000 0.913146 0.674760
O O14 0.254343 0.979173 0.651454
O O15 0.000000 0.041231 0.623112
O O16 0.832321 0.000000 0.500000
O O17 0.250000 0.647240 0.250000
O O18 0.222105 0.662614 0.421326
O O19 0.000000 0.623994 0.331888
O O20 0.500000 0.712419 0.995385
#
# Coordination Sequence:
#
# PCOD9416635 Si02
#       7
#     8   8   8   8   8   8   8
#     4  10  21  37  57  83 114 151 193 238 288 344
#     4  10  19  38  63  88 120 153 190 242 302 358
#     4  12  25  40  60  88 120 157 200 246 301 361
#     4  10  20  34  55  84 118 149 184 232 286 341
#     4   9  17  32  55  81 108 142 183 224 271 327
#     4  10  22  39  62  87 115 152 193 243 300 354
#     4  11  23  42  62  84 117 160 203 248 301 356
#
# _framework density 19.095993
#
# number of rings (size 3 to 8) (size 9 to 14) (size 15 to 20)
#    0.000    1.714    1.429    3.429    0.000    7.143 
#    0.000    2.143    0.000    1.714    0.000    0.000 
#    0.000    0.000    0.000    0.000    0.000    0.000 
#
# Total GULP energy -312897.874723 kJ/mol
# GULP energy per Si atom -5587.462049 kJ/mol
# Density = 1.905253 g / cm^3
# Si number density = 19.095993 Si / 1000 Ang^3
#
#
#
# Elastic Constant Matrix: (Units=GPa)
#
#
# Indices 1 2 3 4 5 6 
#
# 1 60.5509 17.6452 10.5912 0.0000 0.0000 0.0000
# 2 17.6452 68.1015 -6.8722 0.0000 0.0000 0.0000
# 3 10.5912 -6.8722 49.2118 0.0000 0.0000 0.0000
# 4 0.0000 0.0000 0.0000 7.6628 0.0000 0.0000
# 5 0.0000 0.0000 0.0000 0.0000 20.5217 0.0000
# 6 0.0000 0.0000 0.0000 0.0000 0.0000 38.5358
#
#
#
# Elastic Compliance Matrix: (Units=1/GPa)
#
#
# Indices 1 2 3 4 5 6 
#
# 1 0.018931 -0.005392 -0.004827 0.000000 0.000000 0.000000
# 2 -0.005392 0.016430 0.003455 0.000000 0.000000 0.000000
# 3 -0.004827 0.003455 0.021842 0.000000 0.000000 0.000000
# 4 0.000000 0.000000 0.000000 0.130500 0.000000 0.000000
# 5 0.000000 0.000000 0.000000 0.000000 0.048729 0.000000
# 6 0.000000 0.000000 0.000000 0.000000 0.000000 0.025950
#
#
# Mechanical properties :
#
#
# Convention : Reuss Voigt Hill
#
# Bulk Modulus (GPa) = 22.89740 24.51029 23.70385
# Shear Modulus (GPa) = 17.21362 23.77739 20.49550
#
# Velocity S-wave (km/s) = 3.00563 3.53250 3.27966
# Velocity P-wave (km/s) = 4.90528 5.43150 5.17509
#
# Compressibility (1/GPa) = 0.04367309
#
# Stress axis : x y z
#
# Youngs Moduli (GPa) = 52.82426 60.86548 45.78405
#
# Poissons Ratio (x) = 0.32819 0.22101
# Poissons Ratio (y) = 0.28483 -0.15817
# Poissons Ratio (z) = 0.25499 -0.21028
#
# Static dielectric constant tensor:
#      x y z
#    x 1.637510 0.000000 0.000000 
#    y 0.000000 1.646940 0.000000 
#    z 0.000000 0.000000 1.669670 
# 
# From -- ./inp_files/20634.got.cif
#   From: 2010.05.17/outbox.cif.g08.bks.cpg/sg53_11_cif.got.tgz:20634.got - 2010.06.03 12:45:16.
