data_PCOD9416839
_publ_section_title
;
Structure prediction by ZEFSAII (Michael W. Deem and Ramdas Pophale) SiO2 
 PCOD9416839
Probable space group: P M N A
;
_chemical_formula_sum "Si O2"
_cell_formula_units_Z 64
_cell_length_a 9.718137
_cell_length_b 21.567437
_cell_length_c 15.537782
_cell_angle_alpha 90.000000
_cell_angle_beta 90.000000
_cell_angle_gamma 90.000000
_cell_volume 3256.646196
_symmetry_space_group_name_H-M "P M N A"
_symmetry_group_IT_number 53
_symmetry_cell_setting 'orthorhombic'
loop_
_space_group_symop_operation_xyz
x,y,z
1/2-x,-y,1/2+z
x,-y,-z
1/2-x,y,1/2-z
-x,-y,-z
1/2+x,y,1/2-z
-x,y,z
1/2+x,-y,1/2+z
loop_
_atom_site_type_symbol
_atom_site_label
_atom_site_fract_x
_atom_site_fract_y
_atom_site_fract_z
Si Si1 0.836431 0.858377 0.015819
Si Si2 0.663368 0.281950 0.504931
Si Si3 0.648455 0.418454 0.179383
Si Si4 0.851804 0.487734 0.098862
Si Si5 0.161828 0.949006 0.164643
Si Si6 0.842432 0.273598 0.329137
Si Si7 0.164606 0.373737 0.836436
Si Si8 0.161166 0.095786 0.165094
O O1 0.821179 0.787408 0.043476
O O2 0.783566 0.868433 0.918737
O O3 0.000000 0.871098 0.007838
O O4 0.785166 0.907160 0.085941
O O5 0.500000 0.290676 0.481935
O O6 0.756443 0.278373 0.418444
O O7 0.699163 0.331800 0.579153
O O8 0.750000 0.446737 0.250000
O O9 0.500000 0.447357 0.174705
O O10 0.737378 0.434586 0.097675
O O11 0.637640 0.346115 0.194494
O O12 0.813768 0.553614 0.140993
O O13 0.000000 0.465197 0.134549
O O14 0.870923 0.500000 0.000000
O O15 0.250000 0.937746 0.250000
O O16 0.000000 0.934627 0.179674
O O17 0.168949 0.022234 0.144095
O O18 0.750000 0.247126 0.250000
O O19 0.000000 0.248034 0.336745
O O20 0.250000 0.358146 0.750000
O O21 0.000000 0.365632 0.821782
O O22 0.250000 0.106122 0.250000
O O23 0.000000 0.111279 0.180365
#
# Coordination Sequence:
#
# PCOD9416839 Si02
#       8
#     8   8   8   8   8   8   8   8
#     4   9  18  33  54  77 102 138 181 221 263 314
#     4  10  21  38  57  77 104 141 187 232 271 315
#     4  10  20  33  51  75 100 126 159 201 251 308
#     4  10  20  34  53  77 104 133 167 211 266 323
#     4   9  17  31  52  78 107 138 174 215 262 316
#     4  10  21  37  57  81 109 141 176 218 272 331
#     4  10  22  38  56  78 107 146 186 227 274 323
#     4   9  17  31  52  78 108 140 172 211 262 319
#
# _framework density 19.652118999999999
#
# number of rings (size 3 to 8) (size 9 to 14) (size 15 to 20)
#    0.000    2.375    0.000    2.250    0.000    7.250 
#    0.000    3.125    0.000    3.000    0.000    0.000 
#    0.000    0.000    0.000    0.000    0.000    0.000 
#
# Total GULP energy -356414.507906 kJ/mol
# GULP energy per Si atom -5568.976686 kJ/mol
# Density = 1.960739 g / cm^3
# Si number density = 19.652119 Si / 1000 Ang^3
#
#
#
# Elastic Constant Matrix: (Units=GPa)
#
#
# Indices 1 2 3 4 5 6 
#
# 1 86.6778 23.8974 30.2948 0.0000 0.0000 0.0000
# 2 23.8974 64.3773 26.9829 0.0000 0.0000 0.0000
# 3 30.2948 26.9829 80.5856 0.0000 0.0000 0.0000
# 4 0.0000 0.0000 0.0000 7.5446 0.0000 0.0000
# 5 0.0000 0.0000 0.0000 0.0000 24.4311 0.0000
# 6 0.0000 0.0000 0.0000 0.0000 0.0000 20.7575
#
#
#
# Elastic Compliance Matrix: (Units=1/GPa)
#
#
# Indices 1 2 3 4 5 6 
#
# 1 0.013914 -0.003458 -0.004073 0.000000 0.000000 0.000000
# 2 -0.003458 0.018929 -0.005038 0.000000 0.000000 0.000000
# 3 -0.004073 -0.005038 0.015627 0.000000 0.000000 0.000000
# 4 0.000000 0.000000 0.000000 0.132546 0.000000 0.000000
# 5 0.000000 0.000000 0.000000 0.000000 0.040931 0.000000
# 6 0.000000 0.000000 0.000000 0.000000 0.000000 0.048175
#
#
# Mechanical properties :
#
#
# Convention : Reuss Voigt Hill
#
# Bulk Modulus (GPa) = 42.85932 43.77678 43.31805
# Shear Modulus (GPa) = 16.49962 20.57768 18.53865
#
# Velocity S-wave (km/s) = 2.90070 3.23940 3.07472
# Velocity P-wave (km/s) = 5.75110 6.02626 5.89029
#
# Compressibility (1/GPa) = 0.02333215
#
# Stress axis : x y z
#
# Youngs Moduli (GPa) = 71.87097 52.83001 63.99098
#
# Poissons Ratio (x) = 0.18268 0.26063
# Poissons Ratio (y) = 0.24852 0.32239
# Poissons Ratio (z) = 0.29272 0.26616
#
# Static dielectric constant tensor:
#      x y z
#    x 1.624760 0.000000 0.000000 
#    y 0.000000 1.736200 0.000000 
#    z 0.000000 0.000000 1.890330 
# 
# From -- ./inp_files/20973.got.cif
#   From: 2010.05.17/outbox.cif.g08.bks.cpg/sg53_11_cif.got.tgz:20973.got - 2010.06.03 12:45:16.
