data_PCOD9416096
_publ_section_title
;
Structure prediction by ZEFSAII (Michael W. Deem and Ramdas Pophale) SiO2 
 PCOD9416096
Probable space group: P M N A
;
_chemical_formula_sum "Si O2"
_cell_formula_units_Z 56
_cell_length_a 14.361987
_cell_length_b 10.124304
_cell_length_c 20.030025
_cell_angle_alpha 90.000000
_cell_angle_beta 90.000000
_cell_angle_gamma 90.000000
_cell_volume 2912.468237
_symmetry_space_group_name_H-M "P M N A"
_symmetry_group_IT_number 53
_symmetry_cell_setting 'orthorhombic'
loop_
_space_group_symop_operation_xyz
x,y,z
1/2-x,-y,1/2+z
x,-y,-z
1/2-x,y,1/2-z
-x,-y,-z
1/2+x,y,1/2-z
-x,y,z
1/2+x,-y,1/2+z
loop_
_atom_site_type_symbol
_atom_site_label
_atom_site_fract_x
_atom_site_fract_y
_atom_site_fract_z
Si Si1 0.399069 0.628486 0.801842
Si Si2 0.397251 0.112180 0.286941
Si Si3 0.891692 0.383599 0.796507
Si Si4 0.107729 0.540704 0.923240
Si Si5 0.891733 0.972896 0.578732
Si Si6 0.609166 0.849487 0.200610
Si Si7 0.752187 0.247031 0.118980
O O1 0.500000 0.605134 0.835009
O O2 0.401377 0.771232 0.767189
O O3 0.388275 0.519482 0.744977
O O4 0.309056 0.637744 0.846952
O O5 0.500000 0.108521 0.320192
O O6 0.311505 0.152736 0.332467
O O7 0.383079 0.975349 0.249227
O O8 0.858148 0.427035 0.870636
O O9 0.852965 0.272876 0.744993
O O10 0.000000 0.343665 0.806890
O O11 0.169554 0.671885 0.919589
O O12 0.000000 0.568985 0.903104
O O13 0.108175 0.500000 0.000000
O O14 0.858826 0.093003 0.628140
O O15 0.000000 0.944269 0.598681
O O16 0.892108 0.000000 0.500000
O O17 0.824256 0.848158 0.586998
O O18 0.500000 0.816986 0.188969
#
# Coordination Sequence:
#
# PCOD9416096 Si02
#       7
#     8   8   8   8   8   8   8
#     4  10  19  33  58  89 117 147 191 248 302 355
#     4  10  19  33  58  89 117 147 191 248 302 355
#     4   9  18  35  59  87 117 154 197 244 303 365
#     4  10  22  41  62  84 121 167 204 250 313 376
#     4  10  22  41  62  84 121 167 204 250 313 376
#     4   9  18  35  59  87 117 154 197 244 303 365
#     4  12  21  36  62  88 113 152 204 252 293 372
#
# _framework density 19.227677
#
# number of rings (size 3 to 8) (size 9 to 14) (size 15 to 20)
#    0.000    2.000    2.857    1.286    0.000    0.000 
#    5.143    1.429    0.000    1.714    0.000    0.000 
#    0.000    0.000    0.000    0.000    0.000    0.000 
#
# Total GULP energy -311741.023774 kJ/mol
# GULP energy per Si atom -5566.803996 kJ/mol
# Density = 1.918391 g / cm^3
# Si number density = 19.227677 Si / 1000 Ang^3
#
#
#
# Elastic Constant Matrix: (Units=GPa)
#
#
# Indices 1 2 3 4 5 6 
#
# 1 95.8078 14.7495 38.3939 0.0000 0.0000 0.0000
# 2 14.7495 71.2388 42.7444 0.0000 0.0000 0.0000
# 3 38.3939 42.7444 96.1178 0.0000 0.0000 0.0000
# 4 0.0000 0.0000 0.0000 14.7206 0.0000 0.0000
# 5 0.0000 0.0000 0.0000 0.0000 11.3797 0.0000
# 6 0.0000 0.0000 0.0000 0.0000 0.0000 27.7477
#
#
#
# Elastic Compliance Matrix: (Units=1/GPa)
#
#
# Indices 1 2 3 4 5 6 
#
# 1 0.012443 0.000554 -0.005216 0.000000 0.000000 0.000000
# 2 0.000554 0.019171 -0.008747 0.000000 0.000000 0.000000
# 3 -0.005216 -0.008747 0.016377 0.000000 0.000000 0.000000
# 4 0.000000 0.000000 0.000000 0.067932 0.000000 0.000000
# 5 0.000000 0.000000 0.000000 0.000000 0.087876 0.000000
# 6 0.000000 0.000000 0.000000 0.000000 0.000000 0.036039
#
#
# Mechanical properties :
#
#
# Convention : Reuss Voigt Hill
#
# Bulk Modulus (GPa) = 47.23174 50.54888 48.89031
# Shear Modulus (GPa) = 18.26729 21.92138 20.09434
#
# Velocity S-wave (km/s) = 3.08563 3.38019 3.23627
# Velocity P-wave (km/s) = 6.10841 6.44833 6.28067
#
# Compressibility (1/GPa) = 0.02117220
#
# Stress axis : x y z
#
# Youngs Moduli (GPa) = 80.36801 52.16282 61.06017
#
# Poissons Ratio (x) = -0.02889 0.31852
# Poissons Ratio (y) = -0.04451 0.53407
# Poissons Ratio (z) = 0.41924 0.45625
#
# Static dielectric constant tensor:
#      x y z
#    x 1.751770 0.000000 0.000000 
#    y 0.000000 1.665770 0.000000 
#    z 0.000000 0.000000 1.687840 
# 
# From -- ./inp_files/32421.got.cif
#   From: 2010.05.17/outbox.cif.g08.bks.cpg/sg53_17_cif.got.tgz:32421.got - 2010.06.03 12:45:16.
