data_PCOD9416732
_publ_section_title
;
Structure prediction by ZEFSAII (Michael W. Deem and Ramdas Pophale) SiO2 
 PCOD9416732
Probable space group: P M N A
;
_chemical_formula_sum "Si O2"
_cell_formula_units_Z 64
_cell_length_a 9.198654
_cell_length_b 23.589867
_cell_length_c 16.233910
_cell_angle_alpha 90.000000
_cell_angle_beta 90.000000
_cell_angle_gamma 90.000000
_cell_volume 3522.677697
_symmetry_space_group_name_H-M "P M N A"
_symmetry_group_IT_number 53
_symmetry_cell_setting 'orthorhombic'
loop_
_space_group_symop_operation_xyz
x,y,z
1/2-x,-y,1/2+z
x,-y,-z
1/2-x,y,1/2-z
-x,-y,-z
1/2+x,y,1/2-z
-x,y,z
1/2+x,-y,1/2+z
loop_
_atom_site_type_symbol
_atom_site_label
_atom_site_fract_x
_atom_site_fract_y
_atom_site_fract_z
Si Si1 0.324309 0.133137 0.509535
Si Si2 0.825703 0.078301 0.165225
Si Si3 0.674095 0.944606 0.334685
Si Si4 0.326615 0.252868 0.991545
Si Si5 0.831938 0.642455 0.078941
Si Si6 0.674599 0.531317 0.334313
Si Si7 0.666255 0.412731 0.398436
Si Si8 0.827965 0.692321 0.668659
O O1 0.500000 0.138520 0.509907
O O2 0.282230 0.109885 0.418909
O O3 0.284610 0.090289 0.583655
O O4 0.249933 0.193340 0.523903
O O5 0.750000 0.097773 0.250000
O O6 0.000000 0.083765 0.174261
O O7 0.791841 0.011358 0.154442
O O8 0.750000 0.925261 0.250000
O O9 0.500000 0.939814 0.325089
O O10 0.500000 0.249111 0.983376
O O11 0.262855 0.301635 0.932411
O O12 0.293154 0.272812 0.085566
O O13 0.774381 0.593674 0.139165
O O14 0.000000 0.656974 0.098627
O O15 0.833028 0.610610 0.990842
O O16 0.750000 0.514993 0.250000
O O17 0.500000 0.535071 0.327348
O O18 0.705422 0.478825 0.394956
O O19 0.500000 0.406994 0.366813
O O20 0.770089 0.371353 0.347576
O O21 0.750000 0.715206 0.750000
O O22 0.000000 0.692323 0.680010
#
# Coordination Sequence:
#
# PCOD9416732 Si02
#       8
#     8   8   8   8   8   8   8   8
#     4  10  20  35  56  79 106 143 181 215 257 310
#     4   9  18  33  54  82 115 146 175 210 254 307
#     4   9  18  34  56  82 110 140 176 217 261 309
#     4  10  22  37  52  73 100 130 171 219 257 293
#     4   9  18  35  55  71  93 129 168 202 243 298
#     4  10  20  32  49  75 102 126 156 198 248 301
#     4   9  17  31  52  75  98 125 159 200 246 299
#     4  10  20  33  49  71 100 133 167 205 251 302
#
# _framework density 18.167998000000001
#
# number of rings (size 3 to 8) (size 9 to 14) (size 15 to 20)
#    0.000    2.500    0.000    1.875    0.000    8.000 
#    0.000    3.125    0.000    7.500    0.000    0.000 
#    0.000    0.000    0.000    0.000    0.000    0.000 
#
# Total GULP energy -356887.654840 kJ/mol
# GULP energy per Si atom -5576.369607 kJ/mol
# Density = 1.812665 g / cm^3
# Si number density = 18.167998 Si / 1000 Ang^3
#
#
#
# Elastic Constant Matrix: (Units=GPa)
#
#
# Indices 1 2 3 4 5 6 
#
# 1 15.7151 20.9070 11.9937 0.0000 0.0000 0.0000
# 2 20.9070 88.1904 27.6064 0.0000 0.0000 0.0000
# 3 11.9937 27.6064 50.1896 0.0000 0.0000 0.0000
# 4 0.0000 0.0000 0.0000 11.0219 0.0000 0.0000
# 5 0.0000 0.0000 0.0000 0.0000 26.3396 0.0000
# 6 0.0000 0.0000 0.0000 0.0000 0.0000 18.2393
#
#
#
# Elastic Compliance Matrix: (Units=1/GPa)
#
#
# Indices 1 2 3 4 5 6 
#
# 1 0.099561 -0.019515 -0.013058 0.000000 0.000000 0.000000
# 2 -0.019515 0.017523 -0.004975 0.000000 0.000000 0.000000
# 3 -0.013058 -0.004975 0.025781 0.000000 0.000000 0.000000
# 4 0.000000 0.000000 0.000000 0.090728 0.000000 0.000000
# 5 0.000000 0.000000 0.000000 0.000000 0.037966 0.000000
# 6 0.000000 0.000000 0.000000 0.000000 0.000000 0.054827
#
#
# Mechanical properties :
#
#
# Convention : Reuss Voigt Hill
#
# Bulk Modulus (GPa) = 14.75583 30.56770 22.66176
# Shear Modulus (GPa) = 11.79048 17.35937 14.57492
#
# Velocity S-wave (km/s) = 2.55025 3.09446 2.83544
# Velocity P-wave (km/s) = 4.10015 5.44326 4.81873
#
# Compressibility (1/GPa) = 0.06776984
#
# Stress axis : x y z
#
# Youngs Moduli (GPa) = 10.04407 57.06864 38.78806
#
# Poissons Ratio (x) = 1.11370 0.50648
# Poissons Ratio (y) = 0.19601 0.19296
# Poissons Ratio (z) = 0.13115 0.28390
#
# Static dielectric constant tensor:
#      x y z
#    x 1.605570 0.000000 0.000000 
#    y 0.000000 1.620550 0.000000 
#    z 0.000000 0.000000 1.629700 
# 
# From -- ./inp_files/20849.got.cif
#   From: 2010.05.17/outbox.cif.g08.bks.cpg/sg53_11_cif.got.tgz:20849.got - 2010.06.03 12:45:16.
