data_PCOD9416669
_publ_section_title
;
Structure prediction by ZEFSAII (Michael W. Deem and Ramdas Pophale) SiO2 
 PCOD9416669
Probable space group: P M N A
;
_chemical_formula_sum "Si O2"
_cell_formula_units_Z 48
_cell_length_a 18.524326
_cell_length_b 11.218034
_cell_length_c 9.290279
_cell_angle_alpha 90.000000
_cell_angle_beta 90.000000
_cell_angle_gamma 90.000000
_cell_volume 1930.580539
_symmetry_space_group_name_H-M "P M N A"
_symmetry_group_IT_number 53
_symmetry_cell_setting 'orthorhombic'
loop_
_space_group_symop_operation_xyz
x,y,z
1/2-x,-y,1/2+z
x,-y,-z
1/2-x,y,1/2-z
-x,-y,-z
1/2+x,y,1/2-z
-x,y,z
1/2+x,-y,1/2+z
loop_
_atom_site_type_symbol
_atom_site_label
_atom_site_fract_x
_atom_site_fract_y
_atom_site_fract_z
Si Si1 0.660912 0.813449 0.112968
Si Si2 0.500000 0.749282 0.493715
Si Si3 0.500000 0.058517 0.303079
Si Si4 0.779099 0.722536 0.892885
Si Si5 0.500000 0.468372 0.331334
Si Si6 0.869702 0.631913 0.152930
Si Si7 0.159092 0.021936 0.170152
Si Si8 0.500000 0.857024 0.996607
O O1 0.669184 0.701443 0.220532
O O2 0.576673 0.814658 0.061467
O O3 0.684805 0.935201 0.197490
O O4 0.714687 0.784951 0.982295
O O5 0.500000 0.879899 0.544655
O O6 0.500000 0.670305 0.639434
O O7 0.568556 0.722175 0.399654
O O8 0.424494 0.995491 0.298694
O O9 0.500000 0.154546 0.173940
O O10 0.750000 0.656240 0.750000
O O11 0.824812 0.835328 0.826955
O O12 0.820875 0.636294 0.006542
O O13 0.500000 0.500000 0.500000
O O14 0.578133 0.523816 0.287696
O O15 0.174660 0.000000 0.000000
O O16 0.500000 0.000000 0.000000
#
# Coordination Sequence:
#
# PCOD9416669 Si02
#       8
#     8   4   4   8   4   8   8   4
#     4  12  25  41  59  88 134 172 217 261 316 375
#     4  10  19  40  74 104 120 162 209 272 330 393
#     4  12  21  38  59  93 125 163 212 265 313 366
#     4  12  27  37  58  90 131 177 217 254 309 382
#     4   8  19  38  75 102 120 155 207 272 329 402
#     4  10  20  40  64  93 120 161 209 262 320 383
#     4  12  24  36  58  86 125 172 217 259 303 373
#     4  12  24  38  57  86 126 176 216 262 305 358
#
# _framework density 24.862988999999999
#
# number of rings (size 3 to 8) (size 9 to 14) (size 15 to 20)
#    0.000    1.000    5.000    2.750    2.333    0.000 
#    0.000    0.000    0.000   20.000    0.000    0.000 
#    0.000    0.000    0.000    0.000    0.000    0.000 
#
# Total GULP energy -267246.492219 kJ/mol
# GULP energy per Si atom -5567.635255 kJ/mol
# Density = 2.480640 g / cm^3
# Si number density = 24.862989 Si / 1000 Ang^3
#
#
#
# Elastic Constant Matrix: (Units=GPa)
#
#
# Indices 1 2 3 4 5 6 
#
# 1 153.3670 19.7569 44.3046 0.0000 0.0000 0.0000
# 2 19.7569 68.7219 28.1916 0.0000 0.0000 0.0000
# 3 44.3046 28.1916 140.8835 0.0000 0.0000 0.0000
# 4 0.0000 0.0000 0.0000 1.1789 0.0000 0.0000
# 5 0.0000 0.0000 0.0000 0.0000 2.8821 0.0000
# 6 0.0000 0.0000 0.0000 0.0000 0.0000 -25.4370
#
#
#
# Elastic Compliance Matrix: (Units=1/GPa)
#
#
# Indices 1 2 3 4 5 6 
#
# 1 0.007270 -0.001255 -0.002035 0.000000 0.000000 0.000000
# 2 -0.001255 0.016069 -0.002821 0.000000 0.000000 0.000000
# 3 -0.002035 -0.002821 0.008303 0.000000 0.000000 0.000000
# 4 0.000000 0.000000 0.000000 0.848225 0.000000 0.000000
# 5 0.000000 0.000000 0.000000 0.000000 0.346965 0.000000
# 6 0.000000 0.000000 0.000000 0.000000 0.000000 -0.039313
#
#
# Mechanical properties :
#
#
# Convention : Reuss Voigt Hill
#
# Bulk Modulus (GPa) = 51.49425 60.83098 56.16261
# Shear Modulus (GPa) = 4.14520 13.77276 8.95898
#
# Velocity S-wave (km/s) = 1.29261 2.35616 1.90031
# Velocity P-wave (km/s) = 4.79416 5.64992 5.23954
#
# Compressibility (1/GPa) = 0.01941964
#
# Stress axis : x y z
#
# Youngs Moduli (GPa) = 137.55381 62.22990 120.44560
#
# Poissons Ratio (x) = 0.07811 0.24511
# Poissons Ratio (y) = 0.17266 0.33976
# Poissons Ratio (z) = 0.27993 0.17554
#
# Static dielectric constant tensor:
#      x y z
#    x 2.156180 0.000000 0.000000 
#    y 0.000000 2.349940 0.000000 
#    z 0.000000 0.000000 2.136420 
# 
# From -- ./inp_files/10087.got.cif
#   From: 2010.05.17/outbox.cif.g08.bks.cpg/sg53_6_cif.got.tgz:10087.got - 2010.06.03 12:45:16.
