data_PCOD9416675
_publ_section_title
;
Structure prediction by ZEFSAII (Michael W. Deem and Ramdas Pophale) SiO2 
 PCOD9416675
Probable space group: P M N A
;
_chemical_formula_sum "Si O2"
_cell_formula_units_Z 40
_cell_length_a 21.040255
_cell_length_b 8.805874
_cell_length_c 11.382187
_cell_angle_alpha 90.000000
_cell_angle_beta 90.000000
_cell_angle_gamma 90.000000
_cell_volume 2108.866959
_symmetry_space_group_name_H-M "P M N A"
_symmetry_group_IT_number 53
_symmetry_cell_setting 'orthorhombic'
loop_
_space_group_symop_operation_xyz
x,y,z
1/2-x,-y,1/2+z
x,-y,-z
1/2-x,y,1/2-z
-x,-y,-z
1/2+x,y,1/2-z
-x,y,z
1/2+x,-y,1/2+z
loop_
_atom_site_type_symbol
_atom_site_label
_atom_site_fract_x
_atom_site_fract_y
_atom_site_fract_z
Si Si1 0.929240 0.202545 0.117768
Si Si2 0.742056 0.000000 0.000000
Si Si3 0.186537 0.760351 0.328052
Si Si4 0.928296 0.839491 0.157639
Si Si5 0.704316 0.264882 0.355033
Si Si6 0.718283 0.500000 0.000000
O O1 0.869090 0.283300 0.176096
O O2 0.000000 0.254830 0.151100
O O3 0.924838 0.023204 0.147745
O O4 0.922652 0.219153 0.976543
O O5 0.699733 0.913830 0.096889
O O6 0.787522 0.127740 0.053688
O O7 0.250000 0.735426 0.250000
O O8 0.126857 0.779894 0.242109
O O9 0.180667 0.623522 0.422314
O O10 0.000000 0.801774 0.198638
O O11 0.750000 0.220172 0.250000
O O12 0.735624 0.410960 0.412100
#
# Coordination Sequence:
#
# PCOD9416675 Si02
#       6
#     8   4   8   8   8   4
#     4   9  17  30  52  84 111 131 170 223 271 323
#     4  10  20  30  52  84 104 130 184 226 260 320
#     4  11  20  35  55  77 107 143 180 224 272 321
#     4   9  17  31  54  82 110 139 171 217 275 322
#     4  11  20  34  54  78 107 141 175 219 270 316
#     4  10  24  36  50  76 106 140 188 224 258 318
#
# _framework density 18.96753
#
# number of rings (size 3 to 8) (size 9 to 14) (size 15 to 20)
#    0.000    2.000    0.000    8.400    0.000    0.000 
#    0.000    1.500    0.000    9.600    0.000    0.000 
#    0.000    0.000    0.000    0.000    0.000    0.000 
#
# Total GULP energy -223277.793100 kJ/mol
# GULP energy per Si atom -5581.944828 kJ/mol
# Density = 1.892436 g / cm^3
# Si number density = 18.967530 Si / 1000 Ang^3
#
#
#
# Elastic Constant Matrix: (Units=GPa)
#
#
# Indices 1 2 3 4 5 6 
#
# 1 180.2727 17.3927 54.6120 0.0000 0.0000 0.0000
# 2 17.3927 50.5342 13.2722 0.0000 0.0000 0.0000
# 3 54.6120 13.2722 53.5484 0.0000 0.0000 0.0000
# 4 0.0000 0.0000 0.0000 19.2169 0.0000 0.0000
# 5 0.0000 0.0000 0.0000 0.0000 36.4297 0.0000
# 6 0.0000 0.0000 0.0000 0.0000 0.0000 1.9862
#
#
#
# Elastic Compliance Matrix: (Units=1/GPa)
#
#
# Indices 1 2 3 4 5 6 
#
# 1 0.008048 -0.000657 -0.008045 0.000000 0.000000 0.000000
# 2 -0.000657 0.021220 -0.004589 0.000000 0.000000 0.000000
# 3 -0.008045 -0.004589 0.028017 0.000000 0.000000 0.000000
# 4 0.000000 0.000000 0.000000 0.052038 0.000000 0.000000
# 5 0.000000 0.000000 0.000000 0.000000 0.027450 0.000000
# 6 0.000000 0.000000 0.000000 0.000000 0.000000 0.503466
#
#
# Mechanical properties :
#
#
# Convention : Reuss Voigt Hill
#
# Bulk Modulus (GPa) = 32.57096 50.54546 41.55821
# Shear Modulus (GPa) = 7.38494 24.79846 16.09170
#
# Velocity S-wave (km/s) = 1.97533 3.61974 2.91586
# Velocity P-wave (km/s) = 4.73411 6.64653 5.77010
#
# Compressibility (1/GPa) = 0.03070220
#
# Stress axis : x y z
#
# Youngs Moduli (GPa) = 124.26108 47.12521 35.69319
#
# Poissons Ratio (x) = 0.03096 0.28714
# Poissons Ratio (y) = 0.08164 0.16381
# Poissons Ratio (z) = 0.99963 0.21628
#
# Static dielectric constant tensor:
#      x y z
#    x 1.688040 0.000000 0.000000 
#    y 0.000000 1.658130 0.000000 
#    z 0.000000 0.000000 1.573600 
# 
# From -- ./inp_files/17690.got.cif
#   From: 2010.05.17/outbox.cif.g08.bks.cpg/sg53_9_cif.got.tgz:17690.got - 2010.06.03 12:45:16.
