data_PCOD9416639
_publ_section_title
;
Structure prediction by ZEFSAII (Michael W. Deem and Ramdas Pophale) SiO2 
 PCOD9416639
Probable space group: P M N A
;
_chemical_formula_sum "Si O2"
_cell_formula_units_Z 56
_cell_length_a 8.721386
_cell_length_b 21.727850
_cell_length_c 15.813295
_cell_angle_alpha 90.000000
_cell_angle_beta 90.000000
_cell_angle_gamma 90.000000
_cell_volume 2996.571438
_symmetry_space_group_name_H-M "P M N A"
_symmetry_group_IT_number 53
_symmetry_cell_setting 'orthorhombic'
loop_
_space_group_symop_operation_xyz
x,y,z
1/2-x,-y,1/2+z
x,-y,-z
1/2-x,y,1/2-z
-x,-y,-z
1/2+x,y,1/2-z
-x,y,z
1/2+x,-y,1/2+z
loop_
_atom_site_type_symbol
_atom_site_label
_atom_site_fract_x
_atom_site_fract_y
_atom_site_fract_z
Si Si1 0.685949 0.846270 0.996395
Si Si2 0.183303 0.498252 0.101011
Si Si3 0.682042 0.629648 0.840551
Si Si4 0.815188 0.933052 0.658824
Si Si5 0.815202 0.075165 0.658900
Si Si6 0.315395 0.634153 0.340107
Si Si7 0.184260 0.709471 0.993867
O O1 0.500000 0.842094 0.995932
O O2 0.732590 0.888146 0.916512
O O3 0.756037 0.778831 0.991266
O O4 0.732897 0.880958 0.082493
O O5 0.269557 0.440754 0.141043
O O6 0.230728 0.563682 0.139815
O O7 0.000000 0.490075 0.114010
O O8 0.209043 0.500000 0.000000
O O9 0.750000 0.648163 0.750000
O O10 0.500000 0.635154 0.839310
O O11 0.750622 0.670760 0.915605
O O12 0.750000 0.914744 0.750000
O O13 0.000000 0.932114 0.662579
O O14 0.768456 0.004081 0.642502
O O15 0.750000 0.093570 0.750000
O O16 0.000000 0.076184 0.662697
O O17 0.250000 0.653726 0.250000
O O18 0.500000 0.635224 0.336838
O O19 0.266980 0.676672 0.418504
O O20 0.000000 0.707865 0.990219
#
# Coordination Sequence:
#
# PCOD9416639 Si02
#       7
#     8   8   8   8   8   8   8
#     4  10  21  37  57  82 113 151 193 234 284 343
#     4  10  19  38  64  89 121 153 186 236 295 345
#     4  12  25  41  63  90 118 152 195 241 293 349
#     4   9  18  34  57  84 114 147 185 231 285 339
#     4   9  18  34  57  84 115 149 187 233 283 340
#     4  10  22  39  61  85 114 152 191 236 288 343
#     4  11  24  43  60  81 115 157 198 241 292 342
#
# _framework density 18.688023999999999
#
# number of rings (size 3 to 8) (size 9 to 14) (size 15 to 20)
#    0.000    1.857    1.429    2.571    0.000    7.143 
#    0.000    4.286    0.000    4.286    0.000    0.000 
#    0.000    0.000    0.000    0.000    0.000    0.000 
#
# Total GULP energy -312904.571112 kJ/mol
# GULP energy per Si atom -5587.581627 kJ/mol
# Density = 1.864549 g / cm^3
# Si number density = 18.688024 Si / 1000 Ang^3
#
#
#
# Elastic Constant Matrix: (Units=GPa)
#
#
# Indices 1 2 3 4 5 6 
#
# 1 36.2265 29.4653 40.1420 0.0000 0.0000 0.0000
# 2 29.4653 92.1281 63.1101 0.0000 0.0000 0.0000
# 3 40.1420 63.1101 143.3121 0.0000 0.0000 0.0000
# 4 0.0000 0.0000 0.0000 -3.3758 0.0000 0.0000
# 5 0.0000 0.0000 0.0000 0.0000 33.2522 0.0000
# 6 0.0000 0.0000 0.0000 0.0000 0.0000 35.2743
#
#
#
# Elastic Compliance Matrix: (Units=1/GPa)
#
#
# Indices 1 2 3 4 5 6 
#
# 1 0.043816 -0.008028 -0.008738 0.000000 0.000000 0.000000
# 2 -0.008028 0.017014 -0.005244 0.000000 0.000000 0.000000
# 3 -0.008738 -0.005244 0.011734 0.000000 0.000000 0.000000
# 4 0.000000 0.000000 0.000000 -0.296229 0.000000 0.000000
# 5 0.000000 0.000000 0.000000 0.000000 0.030073 0.000000
# 6 0.000000 0.000000 0.000000 0.000000 0.000000 0.028349
#
#
# Mechanical properties :
#
#
# Convention : Reuss Voigt Hill
#
# Bulk Modulus (GPa) = 35.03188 59.67793 47.35491
# Shear Modulus (GPa) = -44.75978 22.29345 -11.23317
#
# Velocity S-wave (km/s) = -4.89929 3.45762 -2.45437
# Velocity P-wave (km/s) = 3.63562 6.92411 4.16687
#
# Compressibility (1/GPa) = 0.02854543
#
# Stress axis : x y z
#
# Youngs Moduli (GPa) = 22.82278 58.77429 85.21944
#
# Poissons Ratio (x) = 0.47185 0.74461
# Poissons Ratio (y) = 0.18322 0.44688
# Poissons Ratio (z) = 0.19942 0.30820
#
# Static dielectric constant tensor:
#      x y z
#    x 1.632170 0.000000 0.000000 
#    y 0.000000 1.621940 0.000000 
#    z 0.000000 0.000000 1.628430 
# 
# From -- ./inp_files/20528.got.cif
#   From: 2010.05.17/outbox.cif.g08.bks.cpg/sg53_11_cif.got.tgz:20528.got - 2010.06.03 12:45:16.
