data_PCOD9416117
_publ_section_title
;
Structure prediction by ZEFSAII (Michael W. Deem and Ramdas Pophale) SiO2 
 PCOD9416117
Probable space group: P M N A
;
_chemical_formula_sum "Si O2"
_cell_formula_units_Z 48
_cell_length_a 8.994661
_cell_length_b 16.837749
_cell_length_c 18.477452
_cell_angle_alpha 90.000000
_cell_angle_beta 90.000000
_cell_angle_gamma 90.000000
_cell_volume 2798.407228
_symmetry_space_group_name_H-M "P M N A"
_symmetry_group_IT_number 53
_symmetry_cell_setting 'orthorhombic'
loop_
_space_group_symop_operation_xyz
x,y,z
1/2-x,-y,1/2+z
x,-y,-z
1/2-x,y,1/2-z
-x,-y,-z
1/2+x,y,1/2-z
-x,y,z
1/2+x,-y,1/2+z
loop_
_atom_site_type_symbol
_atom_site_label
_atom_site_fract_x
_atom_site_fract_y
_atom_site_fract_z
Si Si1 0.677999 0.338864 0.173347
Si Si2 0.179029 0.990056 0.915602
Si Si3 0.322581 0.748041 0.460652
Si Si4 0.177282 0.825866 0.599419
Si Si5 0.322005 0.583755 0.534076
Si Si6 0.821619 0.851378 0.171840
O O1 0.750000 0.359090 0.250000
O O2 0.500000 0.345170 0.176351
O O3 0.716740 0.247420 0.152188
O O4 0.740920 0.392710 0.108286
O O5 0.249260 0.910099 0.883822
O O6 0.000000 0.983164 0.914567
O O7 0.221443 0.067656 0.869961
O O8 0.223669 0.000000 0.000000
O O9 0.500000 0.762504 0.470073
O O10 0.237703 0.798761 0.521086
O O11 0.293964 0.656129 0.478320
O O12 0.281313 0.778892 0.381515
O O13 0.000000 0.833334 0.598059
O O14 0.276122 0.500000 0.500000
O O15 0.500000 0.581212 0.547346
O O16 0.750000 0.846226 0.250000
O O17 0.000000 0.852169 0.179273
#
# Coordination Sequence:
#
# PCOD9416117 Si02
#       6
#     8   8   8   8   8   8
#     4  10  21  36  54  79 111 144 177 218 270 320
#     4  10  19  34  53  72  99 138 180 214 258 316
#     4   9  17  34  55  73 101 139 173 206 254 316
#     4  10  20  32  51  79 104 131 174 221 262 305
#     4   9  18  34  59  86 108 136 176 218 262 320
#     4  10  21  35  51  72 100 136 174 213 256 305
#
# _framework density 17.152614
#
# number of rings (size 3 to 8) (size 9 to 14) (size 15 to 20)
#    0.000    2.333    1.667    1.000    0.000    4.667 
#    0.000    4.167    0.000    2.000    0.000    0.000 
#    0.000    0.000    0.000    0.000    0.000    0.000 
#
# Total GULP energy -267784.201536 kJ/mol
# GULP energy per Si atom -5578.837532 kJ/mol
# Density = 1.711357 g / cm^3
# Si number density = 17.152614 Si / 1000 Ang^3
#
#
#
# Elastic Constant Matrix: (Units=GPa)
#
#
# Indices 1 2 3 4 5 6 
#
# 1 26.0543 44.4445 44.3853 0.0000 0.0000 0.0000
# 2 44.4445 124.9352 76.0571 0.0000 0.0000 0.0000
# 3 44.3853 76.0571 146.2001 0.0000 0.0000 0.0000
# 4 0.0000 0.0000 0.0000 17.9688 0.0000 0.0000
# 5 0.0000 0.0000 0.0000 0.0000 29.2186 0.0000
# 6 0.0000 0.0000 0.0000 0.0000 0.0000 32.7718
#
#
#
# Elastic Compliance Matrix: (Units=1/GPa)
#
#
# Indices 1 2 3 4 5 6 
#
# 1 0.138165 -0.034561 -0.023967 0.000000 0.000000 0.000000
# 2 -0.034561 0.020359 -0.000099 0.000000 0.000000 0.000000
# 3 -0.023967 -0.000099 0.014167 0.000000 0.000000 0.000000
# 4 0.000000 0.000000 0.000000 0.055652 0.000000 0.000000
# 5 0.000000 0.000000 0.000000 0.000000 0.034225 0.000000
# 6 0.000000 0.000000 0.000000 0.000000 0.000000 0.030514
#
#
# Mechanical properties :
#
#
# Convention : Reuss Voigt Hill
#
# Bulk Modulus (GPa) = 18.03775 69.66262 43.85018
# Shear Modulus (GPa) = 11.66004 24.81203 18.23603
#
# Velocity S-wave (km/s) = 2.61009 3.80747 3.26416
# Velocity P-wave (km/s) = 4.42971 7.74795 6.31082
#
# Compressibility (1/GPa) = 0.05543930
#
# Stress axis : x y z
#
# Youngs Moduli (GPa) = 7.23770 49.11817 70.58440
#
# Poissons Ratio (x) = 1.69757 1.69166
# Poissons Ratio (y) = 0.25014 0.00698
# Poissons Ratio (z) = 0.17346 0.00486
#
# Static dielectric constant tensor:
#      x y z
#    x 1.572320 0.000000 0.000000 
#    y 0.000000 1.583280 0.000000 
#    z 0.000000 0.000000 1.557870 
# 
# From -- ./inp_files/20170.got.cif
#   From: 2010.05.17/outbox.cif.g08.bks.cpg/sg53_11_cif.got.tgz:20170.got - 2010.06.03 12:45:16.
