data_PCOD9416157
_publ_section_title
;
Structure prediction by ZEFSAII (Michael W. Deem and Ramdas Pophale) SiO2 
 PCOD9416157
Probable space group: P M N A
;
_chemical_formula_sum "Si O2"
_cell_formula_units_Z 48
_cell_length_a 19.856954
_cell_length_b 15.337718
_cell_length_c 8.228100
_cell_angle_alpha 90.000000
_cell_angle_beta 90.000000
_cell_angle_gamma 90.000000
_cell_volume 2505.953105
_symmetry_space_group_name_H-M "P M N A"
_symmetry_group_IT_number 53
_symmetry_cell_setting 'orthorhombic'
loop_
_space_group_symop_operation_xyz
x,y,z
1/2-x,-y,1/2+z
x,-y,-z
1/2-x,y,1/2-z
-x,-y,-z
1/2+x,y,1/2-z
-x,y,z
1/2+x,-y,1/2+z
loop_
_atom_site_type_symbol
_atom_site_label
_atom_site_fract_x
_atom_site_fract_y
_atom_site_fract_z
Si Si1 0.156052 0.240710 0.125853
Si Si2 0.803316 0.770101 0.509109
Si Si3 0.817711 0.047039 0.666773
Si Si4 0.078665 0.598177 0.997018
Si Si5 0.425807 0.297657 0.829455
Si Si6 0.923855 0.877868 0.116497
O O1 0.171950 0.210720 0.307878
O O2 0.226057 0.257909 0.030537
O O3 0.115671 0.331350 0.115372
O O4 0.114065 0.165998 0.034627
O O5 0.802059 0.854618 0.393968
O O6 0.858995 0.703976 0.438117
O O7 0.750000 0.010538 0.750000
O O8 0.877329 0.050516 0.797653
O O9 0.836288 0.000000 0.500000
O O10 0.081455 0.636384 0.179572
O O11 0.000000 0.594985 0.948951
O O12 0.105784 0.500000 0.000000
O O13 0.500000 0.311804 0.907677
O O14 0.428277 0.202077 0.745792
O O15 0.000000 0.904749 0.079354
#
# Coordination Sequence:
#
# PCOD9416157 Si02
#       6
#     8   8   8   8   8   8
#     4  10  19  34  55  81 112 149 193 235 276 339
#     4  10  21  35  54  83 112 146 195 237 276 340
#     4  11  23  37  60  84 114 149 186 239 292 346
#     4   9  18  34  56  81 111 148 187 230 286 344
#     4   8  16  31  53  79 107 143 185 226 272 328
#     4   9  18  35  57  81 110 149 190 228 279 339
#
# _framework density 19.154389999999999
#
# number of rings (size 3 to 8) (size 9 to 14) (size 15 to 20)
#    0.000    2.500    1.667    1.500    2.333    1.667 
#    0.000    4.167    0.000    6.500    0.000    0.000 
#    0.000    0.000    0.000    0.000    0.000    0.000 
#
# Total GULP energy -267619.668825 kJ/mol
# GULP energy per Si atom -5575.409767 kJ/mol
# Density = 1.911079 g / cm^3
# Si number density = 19.154390 Si / 1000 Ang^3
#
#
#
# Elastic Constant Matrix: (Units=GPa)
#
#
# Indices 1 2 3 4 5 6 
#
# 1 119.7225 15.3142 31.6772 0.0000 0.0000 0.0000
# 2 15.3142 42.6930 5.7270 0.0000 0.0000 0.0000
# 3 31.6772 5.7270 40.9416 0.0000 0.0000 0.0000
# 4 0.0000 0.0000 0.0000 11.0046 0.0000 0.0000
# 5 0.0000 0.0000 0.0000 0.0000 11.8116 0.0000
# 6 0.0000 0.0000 0.0000 0.0000 0.0000 -4.9224
#
#
#
# Elastic Compliance Matrix: (Units=1/GPa)
#
#
# Indices 1 2 3 4 5 6 
#
# 1 0.010824 -0.002812 -0.007981 0.000000 0.000000 0.000000
# 2 -0.002812 0.024602 -0.001266 0.000000 0.000000 0.000000
# 3 -0.007981 -0.001266 0.030777 0.000000 0.000000 0.000000
# 4 0.000000 0.000000 0.000000 0.090871 0.000000 0.000000
# 5 0.000000 0.000000 0.000000 0.000000 0.084663 0.000000
# 6 0.000000 0.000000 0.000000 0.000000 0.000000 -0.203155
#
#
# Mechanical properties :
#
#
# Convention : Reuss Voigt Hill
#
# Bulk Modulus (GPa) = 23.76147 34.31042 29.03594
# Shear Modulus (GPa) = 65.16461 13.62134 39.39297
#
# Velocity S-wave (km/s) = 5.83906 2.66960 4.53990
# Velocity P-wave (km/s) = 7.60865 5.23964 6.53243
#
# Compressibility (1/GPa) = 0.04208494
#
# Stress axis : x y z
#
# Youngs Moduli (GPa) = 92.38598 40.64789 32.49132
#
# Poissons Ratio (x) = 0.11430 0.25933
# Poissons Ratio (y) = 0.25979 0.04112
# Poissons Ratio (z) = 0.73738 0.05144
#
# Static dielectric constant tensor:
#      x y z
#    x 1.699040 0.000000 0.000000 
#    y 0.000000 1.674260 0.000000 
#    z 0.000000 0.000000 1.659990 
# 
# From -- ./inp_files/9919.got.cif
#   From: 2010.05.17/outbox.cif.g08.bks.cpg/sg53_5_cif.got.tgz:9919.got - 2010.06.03 12:45:16.
