data_PCOD9416457
_publ_section_title
;
Structure prediction by ZEFSAII (Michael W. Deem and Ramdas Pophale) SiO2 
 PCOD9416457
Probable space group: P M N A
;
_chemical_formula_sum "Si O2"
_cell_formula_units_Z 56
_cell_length_a 16.872102
_cell_length_b 13.599631
_cell_length_c 11.876952
_cell_angle_alpha 90.000000
_cell_angle_beta 90.000000
_cell_angle_gamma 90.000000
_cell_volume 2725.218436
_symmetry_space_group_name_H-M "P M N A"
_symmetry_group_IT_number 53
_symmetry_cell_setting 'orthorhombic'
loop_
_space_group_symop_operation_xyz
x,y,z
1/2-x,-y,1/2+z
x,-y,-z
1/2-x,y,1/2-z
-x,-y,-z
1/2+x,y,1/2-z
-x,y,z
1/2+x,-y,1/2+z
loop_
_atom_site_type_symbol
_atom_site_label
_atom_site_fract_x
_atom_site_fract_y
_atom_site_fract_z
Si Si1 0.407766 0.553273 0.187774
Si Si2 0.662700 0.272974 0.939612
Si Si3 0.908158 0.266113 0.111532
Si Si4 0.840011 0.683086 0.120833
Si Si5 0.668424 0.647165 0.819283
Si Si6 0.904698 0.863417 0.269130
Si Si7 0.403476 0.043291 0.378793
O O1 0.500000 0.528096 0.200322
O O2 0.399238 0.645331 0.103667
O O3 0.371060 0.592010 0.305792
O O4 0.355927 0.462404 0.144720
O O5 0.745785 0.303519 0.882255
O O6 0.634939 0.170458 0.885766
O O7 0.670972 0.282436 0.072837
O O8 0.896680 0.319904 0.228945
O O9 0.875706 0.155350 0.127117
O O10 0.000000 0.258660 0.080592
O O11 0.866186 0.320481 0.008594
O O12 0.878961 0.779758 0.178658
O O13 0.750000 0.647612 0.750000
O O14 0.000000 0.861756 0.278943
O O15 0.878714 0.968280 0.219163
O O16 0.500000 0.044418 0.375377
O O17 0.380392 0.000000 0.500000
#
# Coordination Sequence:
#
# PCOD9416457 Si02
#       7
#     8   8   8   8   8   8   8
#     4  11  24  40  64  93 118 156 214 263 311 378
#     4  11  23  40  63  86 126 170 204 252 313 378
#     4  11  22  38  64  91 122 160 204 256 313 368
#     4  11  20  38  62  92 125 154 201 261 315 368
#     4  12  25  43  58  83 127 171 209 253 317 374
#     4  10  19  35  64  96 123 156 209 258 304 367
#     4   9  17  33  61  94 122 153 196 253 309 361
#
# _framework density 20.548812000000002
#
# number of rings (size 3 to 8) (size 9 to 14) (size 15 to 20)
#    0.000    1.286    2.857    6.000    0.000    3.429 
#    0.000    3.571    3.143    2.571    0.000    0.000 
#    0.000    0.000    0.000    0.000    0.000    0.000 
#
# Total GULP energy -312888.560803 kJ/mol
# GULP energy per Si atom -5587.295729 kJ/mol
# Density = 2.050204 g / cm^3
# Si number density = 20.548812 Si / 1000 Ang^3
#
#
#
# Elastic Constant Matrix: (Units=GPa)
#
#
# Indices 1 2 3 4 5 6 
#
# 1 79.2860 -2.0769 22.9133 0.0000 0.0000 0.0000
# 2 -2.0769 40.4884 13.1498 0.0000 0.0000 0.0000
# 3 22.9133 13.1498 107.7882 0.0000 0.0000 0.0000
# 4 0.0000 0.0000 0.0000 30.6011 0.0000 0.0000
# 5 0.0000 0.0000 0.0000 0.0000 23.5316 0.0000
# 6 0.0000 0.0000 0.0000 0.0000 0.0000 -15.3750
#
#
#
# Elastic Compliance Matrix: (Units=1/GPa)
#
#
# Indices 1 2 3 4 5 6 
#
# 1 0.013549 0.001698 -0.003087 0.000000 0.000000 0.000000
# 2 0.001698 0.025930 -0.003524 0.000000 0.000000 0.000000
# 3 -0.003087 -0.003524 0.010364 0.000000 0.000000 0.000000
# 4 0.000000 0.000000 0.000000 0.032679 0.000000 0.000000
# 5 0.000000 0.000000 0.000000 0.000000 0.042496 0.000000
# 6 0.000000 0.000000 0.000000 0.000000 0.000000 -0.065041
#
#
# Mechanical properties :
#
#
# Convention : Reuss Voigt Hill
#
# Bulk Modulus (GPa) = 24.99046 32.83721 28.91384
# Shear Modulus (GPa) = 60.13718 20.65665 40.39691
#
# Velocity S-wave (km/s) = 5.41563 3.17400 4.43866
# Velocity P-wave (km/s) = 7.16194 5.42653 6.35376
#
# Compressibility (1/GPa) = 0.04001527
#
# Stress axis : x y z
#
# Youngs Moduli (GPa) = 73.80468 38.56519 96.49058
#
# Poissons Ratio (x) = -0.06547 0.29790
# Poissons Ratio (y) = -0.12530 0.34006
# Poissons Ratio (z) = 0.22786 0.13591
#
# Static dielectric constant tensor:
#      x y z
#    x 1.729470 0.000000 0.000000 
#    y 0.000000 1.752940 0.000000 
#    z 0.000000 0.000000 1.735870 
# 
# From -- ./inp_files/16028.got.cif
#   From: 2010.05.17/outbox.cif.g08.bks.cpg/sg53_9_cif.got.tgz:16028.got - 2010.06.03 12:45:16.
