data_PCOD9416736
_publ_section_title
;
Structure prediction by ZEFSAII (Michael W. Deem and Ramdas Pophale) SiO2 
 PCOD9416736
Probable space group: P M N A
;
_chemical_formula_sum "Si O2"
_cell_formula_units_Z 64
_cell_length_a 8.810013
_cell_length_b 15.896746
_cell_length_c 28.972064
_cell_angle_alpha 90.000000
_cell_angle_beta 90.000000
_cell_angle_gamma 90.000000
_cell_volume 4057.553177
_symmetry_space_group_name_H-M "P M N A"
_symmetry_group_IT_number 53
_symmetry_cell_setting 'orthorhombic'
loop_
_space_group_symop_operation_xyz
x,y,z
1/2-x,-y,1/2+z
x,-y,-z
1/2-x,y,1/2-z
-x,-y,-z
1/2+x,y,1/2-z
-x,y,z
1/2+x,-y,1/2+z
loop_
_atom_site_type_symbol
_atom_site_label
_atom_site_fract_x
_atom_site_fract_y
_atom_site_fract_z
Si Si1 0.818462 0.605160 0.799160
Si Si2 0.819610 0.183486 0.456045
Si Si3 0.325104 0.010845 0.444263
Si Si4 0.681123 0.418783 0.797851
Si Si5 0.819297 0.495742 0.945189
Si Si6 0.180827 0.335113 0.605338
Si Si7 0.682024 0.343381 0.106935
Si Si8 0.682585 0.174875 0.558072
O O1 0.750000 0.633130 0.750000
O O2 0.758400 0.509502 0.806223
O O3 0.757461 0.656896 0.842708
O O4 0.000000 0.605226 0.797431
O O5 0.779107 0.261282 0.423165
O O6 0.739764 0.191060 0.505851
O O7 0.000000 0.184368 0.463393
O O8 0.770306 0.094033 0.434549
O O9 0.500000 0.023980 0.430135
O O10 0.269889 0.919770 0.427200
O O11 0.324832 0.000000 0.500000
O O12 0.750000 0.385927 0.750000
O O13 0.500000 0.431534 0.793319
O O14 0.709683 0.359655 0.841516
O O15 0.752872 0.409465 0.925153
O O16 0.741112 0.574159 0.919817
O O17 0.000000 0.499106 0.936847
O O18 0.792739 0.500000 0.000000
O O19 0.251781 0.247076 0.590320
O O20 0.000000 0.333787 0.597914
O O21 0.500000 0.348441 0.111651
O O22 0.500000 0.176298 0.557715
#
# Coordination Sequence:
#
# PCOD9416736 Si02
#       8
#     8   8   8   8   8   8   8   8
#     4  11  21  34  54  74  96 127 164 207 253 295
#     4  10  20  32  50  74 101 133 167 207 249 292
#     4   8  16  31  49  70  97 129 164 206 250 291
#     4  10  20  34  52  73  97 126 162 206 251 295
#     4  11  23  35  48  68  96 134 174 205 240 290
#     4  11  22  34  50  72  99 131 166 205 248 294
#     4  11  22  35  49  71 101 132 168 205 247 295
#     4  10  20  33  50  72 101 134 169 207 246 294
#
# _framework density 15.773053000000001
#
# number of rings (size 3 to 8) (size 9 to 14) (size 15 to 20)
#    0.000    1.750    1.250    5.625    0.000    9.250 
#    0.000    0.000    0.000    0.000    0.000    0.875 
#    0.000    4.000    0.000    0.000    0.000    0.000 
#
# Total GULP energy -357270.008246 kJ/mol
# GULP energy per Si atom -5582.343879 kJ/mol
# Density = 1.573715 g / cm^3
# Si number density = 15.773053 Si / 1000 Ang^3
#
#
#
# Elastic Constant Matrix: (Units=GPa)
#
#
# Indices 1 2 3 4 5 6 
#
# 1 63.9557 19.1263 35.9892 0.0000 0.0000 0.0000
# 2 19.1263 61.8854 16.1811 0.0000 0.0000 0.0000
# 3 35.9892 16.1811 64.2759 0.0000 0.0000 0.0000
# 4 0.0000 0.0000 0.0000 8.7905 0.0000 0.0000
# 5 0.0000 0.0000 0.0000 0.0000 27.1050 0.0000
# 6 0.0000 0.0000 0.0000 0.0000 0.0000 26.9060
#
#
#
# Elastic Compliance Matrix: (Units=1/GPa)
#
#
# Indices 1 2 3 4 5 6 
#
# 1 0.023780 -0.004141 -0.012273 0.000000 0.000000 0.000000
# 2 -0.004141 0.018018 -0.002218 0.000000 0.000000 0.000000
# 3 -0.012273 -0.002218 0.022988 0.000000 0.000000 0.000000
# 4 0.000000 0.000000 0.000000 0.113759 0.000000 0.000000
# 5 0.000000 0.000000 0.000000 0.000000 0.036894 0.000000
# 6 0.000000 0.000000 0.000000 0.000000 0.000000 0.037166
#
#
# Mechanical properties :
#
#
# Convention : Reuss Voigt Hill
#
# Bulk Modulus (GPa) = 36.33083 36.96778 36.64930
# Shear Modulus (GPa) = 16.72006 20.48165 18.60086
#
# Velocity S-wave (km/s) = 3.25936 3.60741 3.43779
# Velocity P-wave (km/s) = 6.10312 6.39057 6.24850
#
# Compressibility (1/GPa) = 0.02752483
#
# Stress axis : x y z
#
# Youngs Moduli (GPa) = 42.05200 55.49867 43.50130
#
# Poissons Ratio (x) = 0.22980 0.53387
# Poissons Ratio (y) = 0.17412 0.09647
# Poissons Ratio (z) = 0.51608 0.12308
#
# Static dielectric constant tensor:
#      x y z
#    x 1.528760 0.000000 0.000000 
#    y 0.000000 1.521900 0.000000 
#    z 0.000000 0.000000 1.518610 
# 
# From -- ./inp_files/38470.got.cif
#   From: 2010.05.17/outbox.cif.g08.bks.cpg/sg53_20_cif.got.tgz:38470.got - 2010.06.03 12:45:16.
