data_PCOD9416083
_publ_section_title
;
Structure prediction by ZEFSAII (Michael W. Deem and Ramdas Pophale) SiO2 
 PCOD9416083
Probable space group: P M N A
;
_chemical_formula_sum "Si O2"
_cell_formula_units_Z 64
_cell_length_a 32.654736
_cell_length_b 8.538417
_cell_length_c 11.104301
_cell_angle_alpha 90.000000
_cell_angle_beta 90.000000
_cell_angle_gamma 90.000000
_cell_volume 3096.098462
_symmetry_space_group_name_H-M "P M N A"
_symmetry_group_IT_number 53
_symmetry_cell_setting 'orthorhombic'
loop_
_space_group_symop_operation_xyz
x,y,z
1/2-x,-y,1/2+z
x,-y,-z
1/2-x,y,1/2-z
-x,-y,-z
1/2+x,y,1/2-z
-x,y,z
1/2+x,-y,1/2+z
loop_
_atom_site_type_symbol
_atom_site_label
_atom_site_fract_x
_atom_site_fract_y
_atom_site_fract_z
Si Si1 0.452740 0.967356 0.286925
Si Si2 0.155109 0.865290 0.843997
Si Si3 0.907171 0.158206 0.555006
Si Si4 0.912921 0.736021 0.697784
Si Si5 0.778984 0.563799 0.633614
Si Si6 0.122058 0.193880 0.908657
Si Si7 0.366788 0.573927 0.206637
Si Si8 0.246806 0.101585 0.119890
O O1 0.500000 0.943079 0.312001
O O2 0.438952 0.898696 0.156577
O O3 0.422743 0.874120 0.376976
O O4 0.441928 0.152767 0.278288
O O5 0.131897 0.814627 0.724230
O O6 0.201440 0.823795 0.872153
O O7 0.151067 0.051955 0.861781
O O8 0.128665 0.789137 0.950769
O O9 0.926677 0.239642 0.439186
O O10 0.877640 0.283445 0.616888
O O11 0.887529 0.000000 0.500000
O O12 0.903149 0.553835 0.712350
O O13 0.766804 0.500000 0.500000
O O14 0.750000 0.523944 0.750000
O O15 0.824249 0.501846 0.665497
O O16 0.777297 0.752086 0.620347
O O17 0.134284 0.346973 0.837017
O O18 0.250000 0.015040 0.250000
O O19 0.250861 0.000000 0.000000
#
# Coordination Sequence:
#
# PCOD9416083 Si02
#       8
#     8   8   8   8   8   8   8   8
#     4   9  19  37  62  94 128 161 211 263 314 372
#     4  10  20  41  63  90 120 159 226 261 309 386
#     4   9  19  36  61  88 117 164 210 252 305 370
#     4  10  19  33  57  88 126 159 200 248 314 380
#     4  11  26  42  60  91 130 166 211 272 345 396
#     4   9  20  38  66  90 114 172 212 264 306 376
#     4  11  22  40  62  88 124 164 214 260 316 395
#     4  11  24  43  64  91 129 170 218 282 330 388
#
# _framework density 20.671175999999999
#
# number of rings (size 3 to 8) (size 9 to 14) (size 15 to 20)
#    0.000    2.000    1.250    3.375    1.750    4.250 
#    0.000   19.375    0.000    6.000    0.000   11.375 
#    0.000    0.000    0.000    0.000    0.000    0.000 
#
# Total GULP energy -356756.692394 kJ/mol
# GULP energy per Si atom -5574.323319 kJ/mol
# Density = 2.062413 g / cm^3
# Si number density = 20.671176 Si / 1000 Ang^3
#
#
#
# Elastic Constant Matrix: (Units=GPa)
#
#
# Indices 1 2 3 4 5 6 
#
# 1 98.3535 24.7166 27.1955 0.0000 0.0000 0.0000
# 2 24.7166 81.0914 22.6678 0.0000 0.0000 0.0000
# 3 27.1955 22.6678 119.9525 0.0000 0.0000 0.0000
# 4 0.0000 0.0000 0.0000 32.4853 0.0000 0.0000
# 5 0.0000 0.0000 0.0000 0.0000 7.3449 0.0000
# 6 0.0000 0.0000 0.0000 0.0000 0.0000 3.6816
#
#
#
# Elastic Compliance Matrix: (Units=1/GPa)
#
#
# Indices 1 2 3 4 5 6 
#
# 1 0.011468 -0.002923 -0.002048 0.000000 0.000000 0.000000
# 2 -0.002923 0.013765 -0.001938 0.000000 0.000000 0.000000
# 3 -0.002048 -0.001938 0.009167 0.000000 0.000000 0.000000
# 4 0.000000 0.000000 0.000000 0.030783 0.000000 0.000000
# 5 0.000000 0.000000 0.000000 0.000000 0.136149 0.000000
# 6 0.000000 0.000000 0.000000 0.000000 0.000000 0.271624
#
#
# Mechanical properties :
#
#
# Convention : Reuss Voigt Hill
#
# Bulk Modulus (GPa) = 48.58712 49.83969 49.21340
# Shear Modulus (GPa) = 10.12894 23.69018 16.90956
#
# Velocity S-wave (km/s) = 2.21600 3.38901 2.86322
# Velocity P-wave (km/s) = 5.48665 6.28306 5.89831
#
# Compressibility (1/GPa) = 0.02058159
#
# Stress axis : x y z
#
# Youngs Moduli (GPa) = 87.19779 72.65026 109.08477
#
# Poissons Ratio (x) = 0.21236 0.22337
# Poissons Ratio (y) = 0.25489 0.21145
# Poissons Ratio (z) = 0.17855 0.14083
#
# Static dielectric constant tensor:
#      x y z
#    x 1.734740 0.000000 0.000000 
#    y 0.000000 1.778660 0.000000 
#    z 0.000000 0.000000 1.796770 
# 
# From -- ./inp_files/19013.got.cif
#   From: 2010.05.17/outbox.cif.g08.bks.cpg/sg53_10_cif.got.tgz:19013.got - 2010.06.03 12:45:16.
