data_PCOD9416017
_publ_section_title
;
Structure prediction by ZEFSAII (Michael W. Deem and Ramdas Pophale) SiO2 
 PCOD9416017
Probable space group: P M N A
;
_chemical_formula_sum "Si O2"
_cell_formula_units_Z 20
_cell_length_a 5.390841
_cell_length_b 25.354433
_cell_length_c 7.086489
_cell_angle_alpha 90.000000
_cell_angle_beta 90.000000
_cell_angle_gamma 90.000000
_cell_volume 968.593484
_symmetry_space_group_name_H-M "P M N A"
_symmetry_group_IT_number 53
_symmetry_cell_setting 'orthorhombic'
loop_
_space_group_symop_operation_xyz
x,y,z
1/2-x,-y,1/2+z
x,-y,-z
1/2-x,y,1/2-z
-x,-y,-z
1/2+x,y,1/2-z
-x,y,z
1/2+x,-y,1/2+z
loop_
_atom_site_type_symbol
_atom_site_label
_atom_site_fract_x
_atom_site_fract_y
_atom_site_fract_z
Si Si1 0.000000 0.782212 0.379199
Si Si2 0.500000 0.892321 0.955691
Si Si3 0.000000 0.062322 0.028013
Si Si4 0.000000 0.551913 0.374806
Si Si5 0.000000 0.666155 0.376800
O O1 0.250000 0.786705 0.250000
O O2 0.000000 0.829386 0.529729
O O3 0.000000 0.723722 0.471553
O O4 0.500000 0.917678 0.746351
O O5 0.747916 0.913801 0.049122
O O6 0.000000 0.000000 0.000000
O O7 0.000000 0.500000 0.500000
O O8 0.750000 0.550557 0.250000
O O9 0.000000 0.609272 0.478800
O O10 0.750000 0.666040 0.250000
#
# Coordination Sequence:
#
# PCOD9416017 Si02
#       5
#     4   4   4   4   4
#     4  10  19  35  55  83 109 135 181 225 264 326
#     4  10  21  38  57  77 100 136 172 213 267 311
#     4  10  21  40  57  73 102 135 172 210 259 332
#     4  10  19  33  55  82 117 156 197 241 287 340
#     4   8  16  30  52  76 105 147 184 221 266 323
#
# _framework density 20.648498
#
# number of rings (size 3 to 8) (size 9 to 14) (size 15 to 20)
#    0.000    2.400    0.000    2.400    0.000    0.000 
#   21.600    0.000    8.800    0.000    0.000    0.000 
#    0.000    0.000    0.000    0.000    0.000    0.000 
#
# Total GULP energy -111391.093016 kJ/mol
# GULP energy per Si atom -5569.554651 kJ/mol
# Density = 2.060150 g / cm^3
# Si number density = 20.648498 Si / 1000 Ang^3
#
#
#
# Elastic Constant Matrix: (Units=GPa)
#
#
# Indices 1 2 3 4 5 6 
#
# 1 201.1796 37.6881 11.9663 0.0000 0.0000 0.0000
# 2 37.6881 285.0177 47.5451 0.0000 0.0000 0.0000
# 3 11.9663 47.5451 74.7041 0.0000 0.0000 0.0000
# 4 0.0000 0.0000 0.0000 39.1762 0.0000 0.0000
# 5 0.0000 0.0000 0.0000 0.0000 -18.6689 0.0000
# 6 0.0000 0.0000 0.0000 0.0000 0.0000 34.2418
#
#
#
# Elastic Compliance Matrix: (Units=1/GPa)
#
#
# Indices 1 2 3 4 5 6 
#
# 1 0.005110 -0.000603 -0.000435 0.000000 0.000000 0.000000
# 2 -0.000603 0.003996 -0.002447 0.000000 0.000000 0.000000
# 3 -0.000435 -0.002447 0.015013 0.000000 0.000000 0.000000
# 4 0.000000 0.000000 0.000000 0.025526 0.000000 0.000000
# 5 0.000000 0.000000 0.000000 0.000000 -0.053565 0.000000
# 6 0.000000 0.000000 0.000000 0.000000 0.000000 0.029204
#
#
# Mechanical properties :
#
#
# Convention : Reuss Voigt Hill
#
# Bulk Modulus (GPa) = 58.30977 83.92226 71.11602
# Shear Modulus (GPa) = 131.68368 41.86327 86.77348
#
# Velocity S-wave (km/s) = 7.99452 4.50758 6.48963
# Velocity P-wave (km/s) = 10.65444 8.23544 9.52207
#
# Compressibility (1/GPa) = 0.01714978
#
# Stress axis : x y z
#
# Youngs Moduli (GPa) = 195.71305 250.21938 66.60846
#
# Poissons Ratio (x) = 0.15092 0.02895
# Poissons Ratio (y) = 0.11804 0.16299
# Poissons Ratio (z) = 0.08506 0.61227
#
# Static dielectric constant tensor:
#      x y z
#    x 1.776540 0.000000 0.000000 
#    y 0.000000 1.776980 0.000000 
#    z 0.000000 0.000000 1.713130 
# 
# From -- ./inp_files/5527.got.cif
#   From: 2010.05.17/outbox.cif.g08.bks.cpg/sg53_3_cif.got.tgz:5527.got - 2010.06.03 12:45:16.
