data_PCOD9416466
_publ_section_title
;
Structure prediction by ZEFSAII (Michael W. Deem and Ramdas Pophale) SiO2 
 PCOD9416466
Probable space group: P M N A
;
_chemical_formula_sum "Si O2"
_cell_formula_units_Z 28
_cell_length_a 12.666399
_cell_length_b 10.249682
_cell_length_c 12.134944
_cell_angle_alpha 90.000000
_cell_angle_beta 90.000000
_cell_angle_gamma 90.000000
_cell_volume 1575.438058
_symmetry_space_group_name_H-M "P M N A"
_symmetry_group_IT_number 53
_symmetry_cell_setting 'orthorhombic'
loop_
_space_group_symop_operation_xyz
x,y,z
1/2-x,-y,1/2+z
x,-y,-z
1/2-x,y,1/2-z
-x,-y,-z
1/2+x,y,1/2-z
-x,y,z
1/2+x,-y,1/2+z
loop_
_atom_site_type_symbol
_atom_site_label
_atom_site_fract_x
_atom_site_fract_y
_atom_site_fract_z
Si Si1 0.624076 0.138192 0.552316
Si Si2 0.670326 0.610084 0.586103
Si Si3 0.619539 0.511850 0.827339
Si Si4 0.250000 0.733000 0.250000
O O1 0.500000 0.131855 0.581478
O O2 0.639981 0.251042 0.461550
O O3 0.690930 0.182049 0.658411
O O4 0.655590 0.000000 0.500000
O O5 0.633828 0.500000 0.500000
O O6 0.624508 0.577132 0.705794
O O7 0.796761 0.591484 0.599674
O O8 0.500000 0.509689 0.866477
O O9 0.668210 0.367279 0.808974
#
# Coordination Sequence:
#
# PCOD9416466 Si02
#       4
#     8   8   8   4
#     4  11  23  39  60  82 112 154 187 224 280 337
#     4  10  19  36  55  86 108 144 192 231 269 328
#     4  10  20  33  58  87 116 145 184 239 283 321
#     4  10  20  36  56  88 112 142 190 238 272 332
#
# _framework density 17.772834
#
# number of rings (size 3 to 8) (size 9 to 14) (size 15 to 20)
#    0.000    2.000    5.714    1.714    0.000    4.000 
#    0.000    0.000    0.000    6.000    0.000    0.000 
#    0.000    0.000    0.000    0.000    0.000    0.000 
#
# Total GULP energy -156303.689600 kJ/mol
# GULP energy per Si atom -5582.274629 kJ/mol
# Density = 1.773238 g / cm^3
# Si number density = 17.772834 Si / 1000 Ang^3
#
#
#
# Elastic Constant Matrix: (Units=GPa)
#
#
# Indices 1 2 3 4 5 6 
#
# 1 109.7332 22.0456 9.7057 0.0000 0.0000 0.0000
# 2 22.0456 141.5743 44.4575 0.0000 0.0000 0.0000
# 3 9.7057 44.4575 86.4864 0.0000 0.0000 0.0000
# 4 0.0000 0.0000 0.0000 23.2694 0.0000 0.0000
# 5 0.0000 0.0000 0.0000 0.0000 9.7489 0.0000
# 6 0.0000 0.0000 0.0000 0.0000 0.0000 67.4145
#
#
#
# Elastic Compliance Matrix: (Units=1/GPa)
#
#
# Indices 1 2 3 4 5 6 
#
# 1 0.009417 -0.001353 -0.000361 0.000000 0.000000 0.000000
# 2 -0.001353 0.008617 -0.004278 0.000000 0.000000 0.000000
# 3 -0.000361 -0.004278 0.013802 0.000000 0.000000 0.000000
# 4 0.000000 0.000000 0.000000 0.042975 0.000000 0.000000
# 5 0.000000 0.000000 0.000000 0.000000 0.102575 0.000000
# 6 0.000000 0.000000 0.000000 0.000000 0.000000 0.014834
#
#
# Mechanical properties :
#
#
# Convention : Reuss Voigt Hill
#
# Bulk Modulus (GPa) = 50.37259 54.46795 52.42027
# Shear Modulus (GPa) = 23.71674 37.52557 30.62115
#
# Velocity S-wave (km/s) = 3.65696 4.59998 4.15531
# Velocity P-wave (km/s) = 6.79964 7.67635 7.25126
#
# Compressibility (1/GPa) = 0.01985206
#
# Stress axis : x y z
#
# Youngs Moduli (GPa) = 106.19356 116.04357 72.45287
#
# Poissons Ratio (x) = 0.15699 0.02618
# Poissons Ratio (y) = 0.14367 0.30995
# Poissons Ratio (z) = 0.03837 0.49642
#
# Static dielectric constant tensor:
#      x y z
#    x 1.634500 0.000000 0.000000 
#    y 0.000000 1.568930 0.000000 
#    z 0.000000 0.000000 1.631360 
# 
# From -- ./inp_files/15286.got.cif
#   From: 2010.05.17/outbox.cif.g08.bks.cpg/sg53_8_cif.got.tgz:15286.got - 2010.06.03 12:45:16.
