data_PCOD9416668
_publ_section_title
;
Structure prediction by ZEFSAII (Michael W. Deem and Ramdas Pophale) SiO2 
 PCOD9416668
Probable space group: P M N A
;
_chemical_formula_sum "Si O2"
_cell_formula_units_Z 54
_cell_length_a 29.512859
_cell_length_b 13.975338
_cell_length_c 5.966608
_cell_angle_alpha 90.000000
_cell_angle_beta 90.000000
_cell_angle_gamma 90.000000
_cell_volume 2460.940476
_symmetry_space_group_name_H-M "P M N A"
_symmetry_group_IT_number 53
_symmetry_cell_setting 'orthorhombic'
loop_
_space_group_symop_operation_xyz
x,y,z
1/2-x,-y,1/2+z
x,-y,-z
1/2-x,y,1/2-z
-x,-y,-z
1/2+x,y,1/2-z
-x,y,z
1/2+x,-y,1/2+z
loop_
_atom_site_type_symbol
_atom_site_label
_atom_site_fract_x
_atom_site_fract_y
_atom_site_fract_z
Si Si1 0.137157 0.637740 0.650151
Si Si2 0.452686 0.897646 0.621447
Si Si3 0.900894 0.500000 0.000000
Si Si4 0.550728 0.396856 0.873168
Si Si5 0.141859 0.187168 0.013166
Si Si6 0.203787 0.739704 0.378097
Si Si7 0.797514 0.926293 0.672839
Si Si8 0.500000 0.000000 0.000000
O O1 0.091192 0.655277 0.506177
O O2 0.145212 0.721489 0.826624
O O3 0.180561 0.647522 0.491016
O O4 0.128617 0.543927 0.798942
O O5 0.500000 0.847788 0.553424
O O6 0.410179 0.841523 0.531661
O O7 0.460849 0.930218 0.878920
O O8 0.452051 0.000000 0.500000
O O9 0.932333 0.420668 0.878791
O O10 0.500000 0.355069 0.879429
O O11 0.547917 0.500000 0.000000
O O12 0.170454 0.101510 0.123655
O O13 0.165120 0.216045 0.782752
O O14 0.250000 0.717629 0.250000
O O15 0.214082 0.826093 0.550011
O O16 0.750000 0.970840 0.750000
O O17 0.819670 0.000000 0.500000
#
# Coordination Sequence:
#
# PCOD9416668 Si02
#       8
#     8   8   4   8   8   8   8   2
#     4  10  23  39  63 101 124 175 214 267 334 394
#     4   9  21  38  60  87 126 177 223 262 313 374
#     4  10  19  40  68 100 134 164 214 264 325 414
#     4   9  18  35  63  99 131 162 200 252 319 388
#     4  11  24  39  63  96 128 175 215 275 330 391
#     4  11  23  43  62  91 131 174 220 278 344 395
#     4  11  24  37  60  95 126 167 216 272 328 393
#     4   8  18  40  60  82 120 178 214 272 310 364
#
# _framework density 21.942831000000002
#
# number of rings (size 3 to 8) (size 9 to 14) (size 15 to 20)
#    0.444    1.481    1.481    1.556    3.111    2.370 
#    0.000    2.222    0.000    0.000   86.667    0.000 
#    0.000    0.000    0.000    0.000    0.000    0.000 
#
# Total GULP energy -300667.823523 kJ/mol
# GULP energy per Si atom -5567.922658 kJ/mol
# Density = 2.189289 g / cm^3
# Si number density = 21.942831 Si / 1000 Ang^3
#
#
#
# Elastic Constant Matrix: (Units=GPa)
#
#
# Indices 1 2 3 4 5 6 
#
# 1 138.2906 22.5497 39.1142 0.0000 0.0000 0.0000
# 2 22.5497 30.2033 10.8556 0.0000 0.0000 0.0000
# 3 39.1142 10.8556 76.5933 0.0000 0.0000 0.0000
# 4 0.0000 0.0000 0.0000 24.7965 0.0000 0.0000
# 5 0.0000 0.0000 0.0000 0.0000 26.1106 0.0000
# 6 0.0000 0.0000 0.0000 0.0000 0.0000 298.8387
#
#
#
# Elastic Compliance Matrix: (Units=1/GPa)
#
#
# Indices 1 2 3 4 5 6 
#
# 1 0.009240 -0.005482 -0.003942 0.000000 0.000000 0.000000
# 2 -0.005482 0.038138 -0.002606 0.000000 0.000000 0.000000
# 3 -0.003942 -0.002606 0.015438 0.000000 0.000000 0.000000
# 4 0.000000 0.000000 0.000000 0.040328 0.000000 0.000000
# 5 0.000000 0.000000 0.000000 0.000000 0.038299 0.000000
# 6 0.000000 0.000000 0.000000 0.000000 0.000000 0.003346
#
#
# Mechanical properties :
#
#
# Convention : Reuss Voigt Hill
#
# Bulk Modulus (GPa) = 25.80133 43.34734 34.57433
# Shear Modulus (GPa) = 27.50766 81.45367 54.48067
#
# Velocity S-wave (km/s) = 3.54447 6.09930 4.98822
# Velocity P-wave (km/s) = 5.34182 8.33063 6.99766
#
# Compressibility (1/GPa) = 0.03875770
#
# Stress axis : x y z
#
# Youngs Moduli (GPa) = 108.22675 26.22034 64.77447
#
# Poissons Ratio (x) = 0.14373 0.25532
# Poissons Ratio (y) = 0.59328 0.16880
# Poissons Ratio (z) = 0.42659 0.06833
#
# Static dielectric constant tensor:
#      x y z
#    x 1.825730 0.000000 0.000000 
#    y 0.000000 1.833730 0.000000 
#    z 0.000000 0.000000 1.867790 
# 
# From -- ./inp_files/5378.got.cif
#   From: 2010.05.17/outbox.cif.g08.bks.cpg/sg53_3_cif.got.tgz:5378.got - 2010.06.03 12:45:16.
