data_PCOD9416316
_publ_section_title
;
Structure prediction by ZEFSAII (Michael W. Deem and Ramdas Pophale) SiO2 
 PCOD9416316
Probable space group: P M N A
;
_chemical_formula_sum "Si O2"
_cell_formula_units_Z 48
_cell_length_a 28.328882
_cell_length_b 5.848240
_cell_length_c 13.943141
_cell_angle_alpha 90.000000
_cell_angle_beta 90.000000
_cell_angle_gamma 90.000000
_cell_volume 2310.017348
_symmetry_space_group_name_H-M "P M N A"
_symmetry_group_IT_number 53
_symmetry_cell_setting 'orthorhombic'
loop_
_space_group_symop_operation_xyz
x,y,z
1/2-x,-y,1/2+z
x,-y,-z
1/2-x,y,1/2-z
-x,-y,-z
1/2+x,y,1/2-z
-x,y,z
1/2+x,-y,1/2+z
loop_
_atom_site_type_symbol
_atom_site_label
_atom_site_fract_x
_atom_site_fract_y
_atom_site_fract_z
Si Si1 0.772570 0.636340 0.356629
Si Si2 0.553828 0.317931 0.279067
Si Si3 0.373212 0.299853 0.775185
Si Si4 0.261639 0.852954 0.636166
Si Si5 0.867004 0.952214 0.888658
Si Si6 0.050829 0.974244 0.386970
O O1 0.750000 0.633252 0.250000
O O2 0.828332 0.622807 0.335325
O O3 0.756145 0.889671 0.397393
O O4 0.760096 0.387234 0.401844
O O5 0.500000 0.359774 0.312132
O O6 0.588675 0.527291 0.266965
O O7 0.584371 0.151741 0.347362
O O8 0.550437 0.207220 0.173353
O O9 0.356128 0.163226 0.681812
O O10 0.403880 0.150314 0.847552
O O11 0.250000 0.858349 0.750000
O O12 0.317768 0.817028 0.621273
O O13 0.873443 0.000000 0.000000
O O14 0.000000 0.858068 0.363428
O O15 0.053023 0.000000 0.500000
#
# Coordination Sequence:
#
# PCOD9416316 Si02
#       6
#     8   8   8   8   8   8
#     4  10  19  34  65  87 121 164 210 267 331 386
#     4  10  22  40  65  94 127 170 220 276 333 399
#     4  11  21  38  65  91 127 174 214 272 333 399
#     4  10  19  38  63  89 118 165 214 273 329 391
#     4  11  24  41  64  90 129 177 227 274 332 395
#     4   9  20  39  64  94 128 164 209 266 335 408
#
# _framework density 20.779064999999999
#
# number of rings (size 3 to 8) (size 9 to 14) (size 15 to 20)
#    0.000    1.833    3.333    2.500    2.333    2.333 
#    0.000    4.167    3.667    0.000    0.000    0.000 
#    0.000    0.000    0.000    0.000    0.000    0.000 
#
# Total GULP energy -267276.767262 kJ/mol
# GULP energy per Si atom -5568.265985 kJ/mol
# Density = 2.073177 g / cm^3
# Si number density = 20.779065 Si / 1000 Ang^3
#
#
#
# Elastic Constant Matrix: (Units=GPa)
#
#
# Indices 1 2 3 4 5 6 
#
# 1 136.1623 50.5914 16.8412 0.0000 0.0000 0.0000
# 2 50.5914 111.1895 20.3439 0.0000 0.0000 0.0000
# 3 16.8412 20.3439 81.4567 0.0000 0.0000 0.0000
# 4 0.0000 0.0000 0.0000 1.6078 0.0000 0.0000
# 5 0.0000 0.0000 0.0000 0.0000 -40.9975 0.0000
# 6 0.0000 0.0000 0.0000 0.0000 0.0000 56.3028
#
#
#
# Elastic Compliance Matrix: (Units=1/GPa)
#
#
# Indices 1 2 3 4 5 6 
#
# 1 0.008897 -0.003889 -0.000868 0.000000 0.000000 0.000000
# 2 -0.003889 0.011124 -0.001974 0.000000 0.000000 0.000000
# 3 -0.000868 -0.001974 0.012949 0.000000 0.000000 0.000000
# 4 0.000000 0.000000 0.000000 0.621958 0.000000 0.000000
# 5 0.000000 0.000000 0.000000 0.000000 -0.024392 0.000000
# 6 0.000000 0.000000 0.000000 0.000000 0.000000 0.017761
#
#
# Mechanical properties :
#
#
# Convention : Reuss Voigt Hill
#
# Bulk Modulus (GPa) = 51.26335 56.04017 53.65176
# Shear Modulus (GPa) = 7.48209 19.45141 13.46675
#
# Velocity S-wave (km/s) = 1.89963 3.06290 2.54853
# Velocity P-wave (km/s) = 5.43467 6.28781 5.87675
#
# Compressibility (1/GPa) = 0.01950712
#
# Stress axis : x y z
#
# Youngs Moduli (GPa) = 112.40314 89.89226 77.22599
#
# Poissons Ratio (x) = 0.34960 0.06704
# Poissons Ratio (y) = 0.43715 0.15246
# Poissons Ratio (z) = 0.09757 0.17747
#
# Static dielectric constant tensor:
#      x y z
#    x 1.775860 0.000000 0.000000 
#    y 0.000000 1.921580 0.000000 
#    z 0.000000 0.000000 1.714860 
# 
# From -- ./inp_files/24924.got.cif
#   From: 2010.05.17/outbox.cif.g08.bks.cpg/sg53_13_cif.got.tgz:24924.got - 2010.06.03 12:45:16.
