data_PCOD9416613
_publ_section_title
;
Structure prediction by ZEFSAII (Michael W. Deem and Ramdas Pophale) SiO2 
 PCOD9416613
Probable space group: P M N A
;
_chemical_formula_sum "Si O2"
_cell_formula_units_Z 64
_cell_length_a 16.782995
_cell_length_b 20.313255
_cell_length_c 9.504871
_cell_angle_alpha 90.000000
_cell_angle_beta 90.000000
_cell_angle_gamma 90.000000
_cell_volume 3240.374550
_symmetry_space_group_name_H-M "P M N A"
_symmetry_group_IT_number 53
_symmetry_cell_setting 'orthorhombic'
loop_
_space_group_symop_operation_xyz
x,y,z
1/2-x,-y,1/2+z
x,-y,-z
1/2-x,y,1/2-z
-x,-y,-z
1/2+x,y,1/2-z
-x,y,z
1/2+x,-y,1/2+z
loop_
_atom_site_type_symbol
_atom_site_label
_atom_site_fract_x
_atom_site_fract_y
_atom_site_fract_z
Si Si1 0.370815 0.719769 0.524016
Si Si2 0.594972 0.476970 0.843512
Si Si3 0.742533 0.929912 0.420904
Si Si4 0.179427 0.282982 0.438619
Si Si5 0.591043 0.616177 0.754673
Si Si6 0.844850 0.333021 0.728844
Si Si7 0.331491 0.141356 0.159435
Si Si8 0.088444 0.129139 0.066427
O O1 0.275053 0.722574 0.551465
O O2 0.404810 0.660410 0.616519
O O3 0.384029 0.699767 0.363426
O O4 0.404966 0.791432 0.557364
O O5 0.500000 0.467159 0.848786
O O6 0.611345 0.539291 0.742433
O O7 0.631447 0.408347 0.796649
O O8 0.620795 0.500000 0.000000
O O9 0.750000 0.932838 0.250000
O O10 0.810450 0.888521 0.506384
O O11 0.657751 0.898372 0.465670
O O12 0.745507 0.000000 0.500000
O O13 0.152799 0.348077 0.357346
O O14 0.140962 0.289962 0.591004
O O15 0.148778 0.217851 0.362694
O O16 0.500000 0.619147 0.811621
O O17 0.750000 0.332109 0.750000
O O18 0.250000 0.137631 0.250000
O O19 0.393322 0.110311 0.269984
O O20 0.000000 0.107748 0.026544
#
# Coordination Sequence:
#
# PCOD9416613 Si02
#       8
#     8   8   8   8   8   8   8   8
#     4  11  22  37  57  91 123 157 203 262 317 375
#     4  10  21  40  57  76 110 155 203 257 318 386
#     4  11  24  44  74 103 135 178 223 258 305 377
#     4  11  19  36  61  86 116 160 203 254 311 379
#     4  11  22  36  59  83 111 157 207 254 317 383
#     4  10  24  37  57  85 115 152 206 264 319 373
#     4  10  19  37  65  94 128 167 213 255 309 374
#     4  11  23  40  65  99 140 175 214 269 326 377
#
# _framework density 19.750805
#
# number of rings (size 3 to 8) (size 9 to 14) (size 15 to 20)
#    0.000    1.375    5.000    1.875    1.750    2.750 
#    0.000    1.875    0.000    1.500    0.000    0.000 
#    0.000    0.000    0.000    0.000    0.000    0.000 
#
# Total GULP energy -357120.896147 kJ/mol
# GULP energy per Si atom -5580.014002 kJ/mol
# Density = 1.970585 g / cm^3
# Si number density = 19.750805 Si / 1000 Ang^3
#
#
#
# Elastic Constant Matrix: (Units=GPa)
#
#
# Indices 1 2 3 4 5 6 
#
# 1 48.2572 9.1544 21.2323 0.0000 0.0000 0.0000
# 2 9.1544 67.9387 24.2128 0.0000 0.0000 0.0000
# 3 21.2323 24.2128 128.6969 0.0000 0.0000 0.0000
# 4 0.0000 0.0000 0.0000 32.6552 0.0000 0.0000
# 5 0.0000 0.0000 0.0000 0.0000 26.2901 0.0000
# 6 0.0000 0.0000 0.0000 0.0000 0.0000 0.6870
#
#
#
# Elastic Compliance Matrix: (Units=1/GPa)
#
#
# Indices 1 2 3 4 5 6 
#
# 1 0.022556 -0.001836 -0.003376 0.000000 0.000000 0.000000
# 2 -0.001836 0.015926 -0.002693 0.000000 0.000000 0.000000
# 3 -0.003376 -0.002693 0.008834 0.000000 0.000000 0.000000
# 4 0.000000 0.000000 0.000000 0.030623 0.000000 0.000000
# 5 0.000000 0.000000 0.000000 0.000000 0.038037 0.000000
# 6 0.000000 0.000000 0.000000 0.000000 0.000000 1.455626
#
#
# Mechanical properties :
#
#
# Convention : Reuss Voigt Hill
#
# Bulk Modulus (GPa) = 31.74059 39.34353 35.54206
# Shear Modulus (GPa) = 3.12908 24.61268 13.87088
#
# Velocity S-wave (km/s) = 1.26005 3.53393 2.65296
# Velocity P-wave (km/s) = 4.26877 6.05101 5.23627
#
# Compressibility (1/GPa) = 0.03150540
#
# Stress axis : x y z
#
# Youngs Moduli (GPa) = 44.33429 62.78853 113.20071
#
# Poissons Ratio (x) = 0.11529 0.38214
# Poissons Ratio (y) = 0.08141 0.30490
# Poissons Ratio (z) = 0.14966 0.16912
#
# Static dielectric constant tensor:
#      x y z
#    x 1.701400 0.000000 0.000000 
#    y 0.000000 1.686670 0.000000 
#    z 0.000000 0.000000 1.752550 
# 
# From -- ./inp_files/10258.got.cif
#   From: 2010.05.17/outbox.cif.g08.bks.cpg/sg53_6_cif.got.tgz:10258.got - 2010.06.03 12:45:16.
