data_PCOD9416806
_publ_section_title
;
Structure prediction by ZEFSAII (Michael W. Deem and Ramdas Pophale) SiO2 
 PCOD9416806
Probable space group: P M N A
;
_chemical_formula_sum "Si O2"
_cell_formula_units_Z 64
_cell_length_a 8.821422
_cell_length_b 11.788272
_cell_length_c 29.846723
_cell_angle_alpha 90.000000
_cell_angle_beta 90.000000
_cell_angle_gamma 90.000000
_cell_volume 3103.740488
_symmetry_space_group_name_H-M "P M N A"
_symmetry_group_IT_number 53
_symmetry_cell_setting 'orthorhombic'
loop_
_space_group_symop_operation_xyz
x,y,z
1/2-x,-y,1/2+z
x,-y,-z
1/2-x,y,1/2-z
-x,-y,-z
1/2+x,y,1/2-z
-x,y,z
1/2+x,-y,1/2+z
loop_
_atom_site_type_symbol
_atom_site_label
_atom_site_fract_x
_atom_site_fract_y
_atom_site_fract_z
Si Si1 0.818405 0.320291 0.578854
Si Si2 0.321657 0.612883 0.701961
Si Si3 0.680866 0.550169 0.609657
Si Si4 0.675702 0.914915 0.387308
Si Si5 0.329854 0.931037 0.953924
Si Si6 0.321612 0.631098 0.203345
Si Si7 0.676908 0.883733 0.201015
Si Si8 0.823369 0.665740 0.524822
O O1 0.760673 0.425538 0.609178
O O2 0.750779 0.197359 0.590484
O O3 0.779557 0.350026 0.527056
O O4 0.000000 0.314290 0.582314
O O5 0.250000 0.649954 0.750000
O O6 0.500000 0.632873 0.706145
O O7 0.272956 0.638062 0.650233
O O8 0.281332 0.479119 0.697352
O O9 0.500000 0.533915 0.613247
O O10 0.725601 0.602954 0.562050
O O11 0.500000 0.889598 0.381688
O O12 0.742934 0.948989 0.339031
O O13 0.708027 0.018437 0.420478
O O14 0.500000 0.951390 0.935155
O O15 0.314656 0.799347 0.964910
O O16 0.320210 0.000000 0.000000
O O17 0.250000 0.670742 0.250000
O O18 0.500000 0.597315 0.205000
O O19 0.314031 0.753924 0.180847
O O20 0.750000 0.900597 0.250000
O O21 0.500000 0.909206 0.205154
O O22 0.000000 0.629666 0.529755
#
# Coordination Sequence:
#
# PCOD9416806 Si02
#       8
#     8   8   8   8   8   8   8   8
#     4  11  22  39  60  85 118 158 201 240 287 353
#     4  10  20  33  50  73 105 145 189 235 282 332
#     4  11  24  38  55  86 123 155 190 240 298 354
#     4  12  24  36  57  90 122 155 197 244 299 356
#     4  10  20  41  66  87 114 149 194 246 296 349
#     4   9  16  26  44  69  98 137 181 225 273 327
#     4  10  20  34  52  77 113 155 195 239 292 350
#     4  10  22  40  63  86 113 154 198 240 290 352
#
# _framework density 20.620282
#
# number of rings (size 3 to 8) (size 9 to 14) (size 15 to 20)
#    0.000    1.625    1.250    4.875    0.000    8.750 
#    0.000    0.000    0.000    0.750    0.000    1.750 
#    0.000    0.000    0.000    0.000    0.000    0.000 
#
# Total GULP energy -356523.502735 kJ/mol
# GULP energy per Si atom -5570.679730 kJ/mol
# Density = 2.057335 g / cm^3
# Si number density = 20.620282 Si / 1000 Ang^3
#
#
#
# Elastic Constant Matrix: (Units=GPa)
#
#
# Indices 1 2 3 4 5 6 
#
# 1 63.9653 8.8499 36.4799 0.0000 0.0000 0.0000
# 2 8.8499 28.4155 1.5487 0.0000 0.0000 0.0000
# 3 36.4799 1.5487 111.2061 0.0000 0.0000 0.0000
# 4 0.0000 0.0000 0.0000 13.1015 0.0000 0.0000
# 5 0.0000 0.0000 0.0000 0.0000 35.0233 0.0000
# 6 0.0000 0.0000 0.0000 0.0000 0.0000 21.8364
#
#
#
# Elastic Compliance Matrix: (Units=1/GPa)
#
#
# Indices 1 2 3 4 5 6 
#
# 1 0.020183 -0.005929 -0.006538 0.000000 0.000000 0.000000
# 2 -0.005929 0.036961 0.001430 0.000000 0.000000 0.000000
# 3 -0.006538 0.001430 0.011117 0.000000 0.000000 0.000000
# 4 0.000000 0.000000 0.000000 0.076327 0.000000 0.000000
# 5 0.000000 0.000000 0.000000 0.000000 0.028552 0.000000
# 6 0.000000 0.000000 0.000000 0.000000 0.000000 0.045795
#
#
# Mechanical properties :
#
#
# Convention : Reuss Voigt Hill
#
# Bulk Modulus (GPa) = 21.65152 33.03822 27.34487
# Shear Modulus (GPa) = 19.50043 24.43947 21.96995
#
# Velocity S-wave (km/s) = 3.07855 3.44643 3.26767
# Velocity P-wave (km/s) = 4.81243 5.64749 5.24660
#
# Compressibility (1/GPa) = 0.04618613
#
# Stress axis : x y z
#
# Youngs Moduli (GPa) = 49.54776 27.05569 89.95126
#
# Poissons Ratio (x) = 0.16043 0.58811
# Poissons Ratio (y) = 0.29379 -0.12866
# Poissons Ratio (z) = 0.32395 -0.03870
#
# Static dielectric constant tensor:
#      x y z
#    x 1.710790 0.000000 0.000000 
#    y 0.000000 1.760070 0.000000 
#    z 0.000000 0.000000 1.848670 
# 
# From -- ./inp_files/38253.got.cif
#   From: 2010.05.17/outbox.cif.g08.bks.cpg/sg53_20_cif.got.tgz:38253.got - 2010.06.03 12:45:16.
