data_PCOD9416259
_publ_section_title
;
Structure prediction by ZEFSAII (Michael W. Deem and Ramdas Pophale) SiO2 
 PCOD9416259
Probable space group: P M N A
;
_chemical_formula_sum "Si O2"
_cell_formula_units_Z 64
_cell_length_a 9.016710
_cell_length_b 22.074007
_cell_length_c 17.926918
_cell_angle_alpha 90.000000
_cell_angle_beta 90.000000
_cell_angle_gamma 90.000000
_cell_volume 3568.082684
_symmetry_space_group_name_H-M "P M N A"
_symmetry_group_IT_number 53
_symmetry_cell_setting 'orthorhombic'
loop_
_space_group_symop_operation_xyz
x,y,z
1/2-x,-y,1/2+z
x,-y,-z
1/2-x,y,1/2-z
-x,-y,-z
1/2+x,y,1/2-z
-x,y,z
1/2+x,-y,1/2+z
loop_
_atom_site_type_symbol
_atom_site_label
_atom_site_fract_x
_atom_site_fract_y
_atom_site_fract_z
Si Si1 0.177690 0.875947 0.412898
Si Si2 0.822907 0.000067 0.330176
Si Si3 0.324080 0.625029 0.325114
Si Si4 0.821698 0.569260 0.015777
Si Si5 0.175705 0.684575 0.553104
Si Si6 0.676917 0.104632 0.426464
Si Si7 0.177081 0.226101 0.168729
Si Si8 0.324605 0.740631 0.110652
O O1 0.260521 0.885232 0.490925
O O2 0.217985 0.810490 0.379524
O O3 0.000000 0.874621 0.427323
O O4 0.208697 0.932159 0.358946
O O5 0.750000 0.010514 0.250000
O O6 0.755511 0.047379 0.388718
O O7 0.000000 0.007944 0.325739
O O8 0.250000 0.601472 0.250000
O O9 0.500000 0.625177 0.317140
O O10 0.284482 0.587066 0.399014
O O11 0.266149 0.692829 0.341180
O O12 0.000000 0.575629 0.006952
O O13 0.781117 0.500000 0.000000
O O14 0.741915 0.618328 0.963534
O O15 0.256365 0.719389 0.619710
O O16 0.198932 0.722584 0.476288
O O17 0.000000 0.681509 0.566576
O O18 0.500000 0.095644 0.428720
O O19 0.708186 0.163923 0.376200
O O20 0.250000 0.223834 0.250000
O O21 0.000000 0.232417 0.175206
O O22 0.500000 0.733253 0.126272
#
# Coordination Sequence:
#
# PCOD9416259 Si02
#       8
#     8   8   8   8   8   8   8   8
#     4  10  21  38  59  83 111 146 185 230 283 340
#     4  11  24  40  57  77 108 147 188 235 289 341
#     4  10  20  34  55  83 115 149 188 232 279 330
#     4   9  19  37  60  84 114 155 196 234 278 329
#     4  10  19  34  58  84 113 146 182 229 277 331
#     4  11  23  38  59  84 110 144 188 235 283 341
#     4  11  23  37  56  83 113 146 186 232 285 340
#     4   9  18  34  56  81 110 144 182 224 275 331
#
# _framework density 17.936803000000001
#
# number of rings (size 3 to 8) (size 9 to 14) (size 15 to 20)
#    0.000    1.875    1.250    2.625    0.000    7.250 
#    0.000    1.875    0.000    1.500    0.000    0.000 
#    0.000    0.000    0.000    0.000    0.000    0.000 
#
# Total GULP energy -357529.152979 kJ/mol
# GULP energy per Si atom -5586.393015 kJ/mol
# Density = 1.789598 g / cm^3
# Si number density = 17.936803 Si / 1000 Ang^3
#
#
#
# Elastic Constant Matrix: (Units=GPa)
#
#
# Indices 1 2 3 4 5 6 
#
# 1 33.0714 28.3477 17.6228 0.0000 0.0000 0.0000
# 2 28.3477 107.4710 5.0143 0.0000 0.0000 0.0000
# 3 17.6228 5.0143 41.2412 0.0000 0.0000 0.0000
# 4 0.0000 0.0000 0.0000 11.7428 0.0000 0.0000
# 5 0.0000 0.0000 0.0000 0.0000 33.7140 0.0000
# 6 0.0000 0.0000 0.0000 0.0000 0.0000 25.8187
#
#
#
# Elastic Compliance Matrix: (Units=1/GPa)
#
#
# Indices 1 2 3 4 5 6 
#
# 1 0.052315 -0.012829 -0.020795 0.000000 0.000000 0.000000
# 2 -0.012829 0.012504 0.003962 0.000000 0.000000 0.000000
# 3 -0.020795 0.003962 0.032652 0.000000 0.000000 0.000000
# 4 0.000000 0.000000 0.000000 0.085158 0.000000 0.000000
# 5 0.000000 0.000000 0.000000 0.000000 0.029661 0.000000
# 6 0.000000 0.000000 0.000000 0.000000 0.000000 0.038732
#
#
# Mechanical properties :
#
#
# Convention : Reuss Voigt Hill
#
# Bulk Modulus (GPa) = 26.21485 31.52813 28.87149
# Shear Modulus (GPa) = 15.47689 22.97504 19.22596
#
# Velocity S-wave (km/s) = 2.94063 3.58283 3.27750
# Velocity P-wave (km/s) = 5.11631 5.89331 5.51850
#
# Compressibility (1/GPa) = 0.03814632
#
# Stress axis : x y z
#
# Youngs Moduli (GPa) = 19.11486 79.97491 30.62614
#
# Poissons Ratio (x) = 1.02600 0.63687
# Poissons Ratio (y) = 0.24523 -0.12133
# Poissons Ratio (z) = 0.39749 -0.31684
#
# Static dielectric constant tensor:
#      x y z
#    x 1.596520 0.000000 0.000000 
#    y 0.000000 1.599190 0.000000 
#    z 0.000000 0.000000 1.585820 
# 
# From -- ./inp_files/26815.got.cif
#   From: 2010.05.17/outbox.cif.g08.bks.cpg/sg53_14_cif.got.tgz:26815.got - 2010.06.03 12:45:16.
