data_PCOD9416671
_publ_section_title
;
Structure prediction by ZEFSAII (Michael W. Deem and Ramdas Pophale) SiO2 
 PCOD9416671
Probable space group: P M N A
;
_chemical_formula_sum "Si O2"
_cell_formula_units_Z 56
_cell_length_a 8.298960
_cell_length_b 21.092760
_cell_length_c 13.873409
_cell_angle_alpha 90.000000
_cell_angle_beta 90.000000
_cell_angle_gamma 90.000000
_cell_volume 2428.512104
_symmetry_space_group_name_H-M "P M N A"
_symmetry_group_IT_number 53
_symmetry_cell_setting 'orthorhombic'
loop_
_space_group_symop_operation_xyz
x,y,z
1/2-x,-y,1/2+z
x,-y,-z
1/2-x,y,1/2-z
-x,-y,-z
1/2+x,y,1/2-z
-x,y,z
1/2+x,-y,1/2+z
loop_
_atom_site_type_symbol
_atom_site_label
_atom_site_fract_x
_atom_site_fract_y
_atom_site_fract_z
Si Si1 0.804711 0.382296 0.850080
Si Si2 0.312093 0.057924 0.621509
Si Si3 0.184049 0.191864 0.648587
Si Si4 0.816034 0.079459 0.109271
Si Si5 0.694668 0.652963 0.564973
Si Si6 0.191884 0.212839 0.433369
Si Si7 0.317140 0.518084 0.613067
O O1 0.750000 0.352299 0.750000
O O2 0.753377 0.351886 0.951895
O O3 0.736227 0.454467 0.848691
O O4 0.000000 0.384477 0.852493
O O5 0.500000 0.063949 0.652861
O O6 0.202477 0.115685 0.654084
O O7 0.317492 0.067512 0.505909
O O8 0.247003 0.987747 0.645137
O O9 0.250000 0.215797 0.750000
O O10 0.260156 0.208801 0.544328
O O11 0.000000 0.211117 0.643855
O O12 0.000000 0.083118 0.143389
O O13 0.738583 0.148274 0.121704
O O14 0.500000 0.649614 0.565810
O O15 0.748386 0.720104 0.606648
O O16 0.754938 0.588510 0.616918
O O17 0.000000 0.213745 0.438573
O O18 0.331390 0.500000 0.500000
O O19 0.500000 0.521901 0.652438
#
# Coordination Sequence:
#
# PCOD9416671 Si02
#       7
#     8   8   8   8   8   8   8
#     4   9  17  29  46  68  91 114 144 182 221 263
#     4   8  14  26  44  63  81 103 136 177 214 250
#     4  10  20  31  42  58  84 118 150 179 213 255
#     4   8  14  26  44  63  82 106 136 170 210 255
#     4   9  17  30  47  63  84 119 155 182 213 260
#     4  10  20  30  41  62  90 116 144 180 218 254
#     4   7  12  26  46  64  82 109 147 184 215 254
#
# _framework density 23.059386
#
# number of rings (size 3 to 8) (size 9 to 14) (size 15 to 20)
#    0.000    3.286    0.000    3.429    0.000    3.429 
#    0.000    6.429    0.000    2.571    0.000    1.000 
#    0.000    2.286    0.000    0.000    0.000    0.000 
#
# Total GULP energy -311921.610662 kJ/mol
# GULP energy per Si atom -5570.028762 kJ/mol
# Density = 2.300690 g / cm^3
# Si number density = 23.059386 Si / 1000 Ang^3
#
#
#
# Elastic Constant Matrix: (Units=GPa)
#
#
# Indices 1 2 3 4 5 6 
#
# 1 13.6372 14.5423 -3.6829 0.0000 0.0000 0.0000
# 2 14.5423 210.6247 -6.0426 0.0000 0.0000 0.0000
# 3 -3.6829 -6.0426 34.7870 0.0000 0.0000 0.0000
# 4 0.0000 0.0000 0.0000 -18.6447 0.0000 0.0000
# 5 0.0000 0.0000 0.0000 0.0000 6.6429 0.0000
# 6 0.0000 0.0000 0.0000 0.0000 0.0000 -40.8954
#
#
#
# Elastic Compliance Matrix: (Units=1/GPa)
#
#
# Indices 1 2 3 4 5 6 
#
# 1 0.081135 -0.005382 0.007655 0.000000 0.000000 0.000000
# 2 -0.005382 0.005129 0.000321 0.000000 0.000000 0.000000
# 3 0.007655 0.000321 0.029613 0.000000 0.000000 0.000000
# 4 0.000000 0.000000 0.000000 -0.053634 0.000000 0.000000
# 5 0.000000 0.000000 0.000000 0.000000 0.150537 0.000000
# 6 0.000000 0.000000 0.000000 0.000000 0.000000 -0.024453
#
#
# Mechanical properties :
#
#
# Convention : Reuss Voigt Hill
#
# Bulk Modulus (GPa) = 8.26009 29.85361 19.05685
# Shear Modulus (GPa) = 22.37193 6.36935 14.37064
#
# Velocity S-wave (km/s) = 3.11816 1.66378 2.49911
# Velocity P-wave (km/s) = 4.06863 4.08232 4.07549
#
# Compressibility (1/GPa) = 0.12106402
#
# Stress axis : x y z
#
# Youngs Moduli (GPa) = 12.32506 194.98474 33.76941
#
# Poissons Ratio (x) = 1.04946 -0.25850
# Poissons Ratio (y) = 0.06634 -0.01084
# Poissons Ratio (z) = -0.09435 -0.06260
#
# Static dielectric constant tensor:
#      x y z
#    x 1.812130 0.000000 0.000000 
#    y 0.000000 1.917310 0.000000 
#    z 0.000000 0.000000 1.944420 
# 
# From -- ./inp_files/26641.got.cif
#   From: 2010.05.17/outbox.cif.g08.bks.cpg/sg53_14_cif.got.tgz:26641.got - 2010.06.03 12:45:16.
