data_PCOD9416200
_publ_section_title
;
Structure prediction by ZEFSAII (Michael W. Deem and Ramdas Pophale) SiO2 
 PCOD9416200
Probable space group: P M N A
;
_chemical_formula_sum "Si O2"
_cell_formula_units_Z 48
_cell_length_a 8.737912
_cell_length_b 10.501315
_cell_length_c 29.000768
_cell_angle_alpha 90.000000
_cell_angle_beta 90.000000
_cell_angle_gamma 90.000000
_cell_volume 2661.097896
_symmetry_space_group_name_H-M "P M N A"
_symmetry_group_IT_number 53
_symmetry_cell_setting 'orthorhombic'
loop_
_space_group_symop_operation_xyz
x,y,z
1/2-x,-y,1/2+z
x,-y,-z
1/2-x,y,1/2-z
-x,-y,-z
1/2+x,y,1/2-z
-x,y,z
1/2+x,-y,1/2+z
loop_
_atom_site_type_symbol
_atom_site_label
_atom_site_fract_x
_atom_site_fract_y
_atom_site_fract_z
Si Si1 0.316906 0.260890 0.604478
Si Si2 0.815529 0.759362 0.607587
Si Si3 0.183792 0.983129 0.446154
Si Si4 0.184210 0.148011 0.799338
Si Si5 0.814958 0.494370 0.446580
Si Si6 0.183123 0.149007 0.200504
O O1 0.500000 0.271581 0.604268
O O2 0.266634 0.138234 0.575104
O O3 0.266269 0.232031 0.657104
O O4 0.245243 0.385669 0.581925
O O5 0.767071 0.636313 0.578382
O O6 0.745637 0.768472 0.658376
O O7 0.000000 0.756883 0.611054
O O8 0.772635 0.888518 0.580750
O O9 0.000000 0.965381 0.441649
O O10 0.218124 0.000000 0.500000
O O11 0.250000 0.188105 0.750000
O O12 0.000000 0.150550 0.797121
O O13 0.229872 0.999714 0.807167
O O14 0.764312 0.500000 0.500000
O O15 0.000000 0.497917 0.446779
O O16 0.250000 0.187369 0.250000
O O17 0.000000 0.153865 0.201719
#
# Coordination Sequence:
#
# PCOD9416200 Si02
#       6
#     8   8   8   8   8   8
#     4  11  22  37  56  85 118 148 187 233 286 340
#     4  10  20  35  57  84 112 147 192 236 282 333
#     4  10  20  35  57  83 110 145 190 237 282 333
#     4   9  19  34  54  82 114 146 182 228 279 335
#     4  10  22  41  61  81 112 154 197 236 277 333
#     4  10  19  34  56  83 116 148 184 232 284 338
#
# _framework density 18.037666999999999
#
# number of rings (size 3 to 8) (size 9 to 14) (size 15 to 20)
#    0.000    2.000    1.667    2.000    0.000    6.000 
#    0.000    2.500    0.000    2.000    0.000    0.000 
#    0.000    0.000    0.000    0.000    0.000    0.000 
#
# Total GULP energy -268025.704172 kJ/mol
# GULP energy per Si atom -5583.868837 kJ/mol
# Density = 1.799661 g / cm^3
# Si number density = 18.037667 Si / 1000 Ang^3
#
#
#
# Elastic Constant Matrix: (Units=GPa)
#
#
# Indices 1 2 3 4 5 6 
#
# 1 8.0790 18.7476 24.4382 0.0000 0.0000 0.0000
# 2 18.7476 95.5823 52.3531 0.0000 0.0000 0.0000
# 3 24.4382 52.3531 152.0463 0.0000 0.0000 0.0000
# 4 0.0000 0.0000 0.0000 32.0368 0.0000 0.0000
# 5 0.0000 0.0000 0.0000 0.0000 29.9811 0.0000
# 6 0.0000 0.0000 0.0000 0.0000 0.0000 42.0072
#
#
#
# Elastic Compliance Matrix: (Units=1/GPa)
#
#
# Indices 1 2 3 4 5 6 
#
# 1 0.360439 -0.048022 -0.041398 0.000000 0.000000 0.000000
# 2 -0.048022 0.019292 0.001076 0.000000 0.000000 0.000000
# 3 -0.041398 0.001076 0.012860 0.000000 0.000000 0.000000
# 4 0.000000 0.000000 0.000000 0.031214 0.000000 0.000000
# 5 0.000000 0.000000 0.000000 0.000000 0.033354 0.000000
# 6 0.000000 0.000000 0.000000 0.000000 0.000000 0.023805
#
#
# Mechanical properties :
#
#
# Convention : Reuss Voigt Hill
#
# Bulk Modulus (GPa) = 4.63171 49.64286 27.13728
# Shear Modulus (GPa) = 6.85287 31.48292 19.16789
#
# Velocity S-wave (km/s) = 1.95127 4.18233 3.26338
# Velocity P-wave (km/s) = 2.76586 7.13471 5.41082
#
# Compressibility (1/GPa) = 0.21590308
#
# Stress axis : x y z
#
# Youngs Moduli (GPa) = 2.77439 51.83480 77.75850
#
# Poissons Ratio (x) = 2.48922 3.21903
# Poissons Ratio (y) = 0.13323 -0.08366
# Poissons Ratio (z) = 0.11485 -0.05577
#
# Static dielectric constant tensor:
#      x y z
#    x 1.608700 0.000000 0.000000 
#    y 0.000000 1.593760 0.000000 
#    z 0.000000 0.000000 1.610080 
# 
# From -- ./inp_files/37761.got.cif
#   From: 2010.05.17/outbox.cif.g08.bks.cpg/sg53_19_cif.got.tgz:37761.got - 2010.06.03 12:45:16.
