data_PCOD9416487
_publ_section_title
;
Structure prediction by ZEFSAII (Michael W. Deem and Ramdas Pophale) SiO2 
 PCOD9416487
Probable space group: P M N A
;
_chemical_formula_sum "Si O2"
_cell_formula_units_Z 32
_cell_length_a 18.794545
_cell_length_b 7.262016
_cell_length_c 10.708795
_cell_angle_alpha 90.000000
_cell_angle_beta 90.000000
_cell_angle_gamma 90.000000
_cell_volume 1461.603662
_symmetry_space_group_name_H-M "P M N A"
_symmetry_group_IT_number 53
_symmetry_cell_setting 'orthorhombic'
loop_
_space_group_symop_operation_xyz
x,y,z
1/2-x,-y,1/2+z
x,-y,-z
1/2-x,y,1/2-z
-x,-y,-z
1/2+x,y,1/2-z
-x,y,z
1/2+x,-y,1/2+z
loop_
_atom_site_type_symbol
_atom_site_label
_atom_site_fract_x
_atom_site_fract_y
_atom_site_fract_z
Si Si1 0.297264 0.732904 0.635051
Si Si2 0.080836 0.123952 0.296495
Si Si3 0.261082 0.324874 0.879231
Si Si4 0.917680 0.725663 0.422874
O O1 0.250000 0.798768 0.750000
O O2 0.372714 0.803588 0.681677
O O3 0.266231 0.783751 0.499958
O O4 0.286297 0.510499 0.632082
O O5 0.089382 0.229822 0.429402
O O6 0.000000 0.147563 0.258457
O O7 0.089853 0.912494 0.341315
O O8 0.250000 0.220754 0.750000
O O9 0.344459 0.378289 0.890097
O O10 0.000000 0.658533 0.402420
#
# Coordination Sequence:
#
# PCOD9416487 Si02
#       4
#     8   8   8   8
#     4  10  19  36  58  82 121 160 201 247 297 358
#     4   9  18  35  61  89 117 155 203 255 308 361
#     4  10  21  36  54  86 125 159 202 250 295 355
#     4   9  18  36  60  88 119 153 202 255 305 362
#
# _framework density 21.893761000000001
#
# number of rings (size 3 to 8) (size 9 to 14) (size 15 to 20)
#    0.000    2.500    2.500    1.500    0.000    1.000 
#    0.000   11.250    0.000    3.000    0.000    0.000 
#    0.000    0.000    0.000    0.000    0.000    0.000 
#
# Total GULP energy -178297.492635 kJ/mol
# GULP energy per Si atom -5571.796645 kJ/mol
# Density = 2.184393 g / cm^3
# Si number density = 21.893761 Si / 1000 Ang^3
#
#
#
# Elastic Constant Matrix: (Units=GPa)
#
#
# Indices 1 2 3 4 5 6 
#
# 1 173.7884 46.4931 78.9919 0.0000 0.0000 0.0000
# 2 46.4931 83.2774 27.5500 0.0000 0.0000 0.0000
# 3 78.9919 27.5500 192.2084 0.0000 0.0000 0.0000
# 4 0.0000 0.0000 0.0000 1.9600 0.0000 0.0000
# 5 0.0000 0.0000 0.0000 0.0000 79.7127 0.0000
# 6 0.0000 0.0000 0.0000 0.0000 0.0000 -4.1022
#
#
#
# Elastic Compliance Matrix: (Units=1/GPa)
#
#
# Indices 1 2 3 4 5 6 
#
# 1 0.007953 -0.003526 -0.002763 0.000000 0.000000 0.000000
# 2 -0.003526 0.014169 -0.000582 0.000000 0.000000 0.000000
# 3 -0.002763 -0.000582 0.006422 0.000000 0.000000 0.000000
# 4 0.000000 0.000000 0.000000 0.510213 0.000000 0.000000
# 5 0.000000 0.000000 0.000000 0.000000 0.012545 0.000000
# 6 0.000000 0.000000 0.000000 0.000000 0.000000 -0.243773
#
#
# Mechanical properties :
#
#
# Convention : Reuss Voigt Hill
#
# Bulk Modulus (GPa) = 67.55872 83.92714 75.74293
# Shear Modulus (GPa) = 15.32776 35.26337 25.29557
#
# Velocity S-wave (km/s) = 2.64881 4.01765 3.40277
# Velocity P-wave (km/s) = 6.34661 7.74203 7.07879
#
# Compressibility (1/GPa) = 0.01480194
#
# Stress axis : x y z
#
# Youngs Moduli (GPa) = 125.73178 70.57573 155.72291
#
# Poissons Ratio (x) = 0.24887 0.43029
# Poissons Ratio (y) = 0.44336 0.09059
# Poissons Ratio (z) = 0.34742 0.04106
#
# Static dielectric constant tensor:
#      x y z
#    x 1.874100 0.000000 0.000000 
#    y 0.000000 1.922780 0.000000 
#    z 0.000000 0.000000 1.867580 
# 
# From -- ./inp_files/15527.got.cif
#   From: 2010.05.17/outbox.cif.g08.bks.cpg/sg53_8_cif.got.tgz:15527.got - 2010.06.03 12:45:16.
