data_PCOD9416486
_publ_section_title
;
Structure prediction by ZEFSAII (Michael W. Deem and Ramdas Pophale) SiO2 
 PCOD9416486
Probable space group: P M N A
;
_chemical_formula_sum "Si O2"
_cell_formula_units_Z 64
_cell_length_a 9.095034
_cell_length_b 24.266360
_cell_length_c 14.897935
_cell_angle_alpha 90.000000
_cell_angle_beta 90.000000
_cell_angle_gamma 90.000000
_cell_volume 3288.024449
_symmetry_space_group_name_H-M "P M N A"
_symmetry_group_IT_number 53
_symmetry_cell_setting 'orthorhombic'
loop_
_space_group_symop_operation_xyz
x,y,z
1/2-x,-y,1/2+z
x,-y,-z
1/2-x,y,1/2-z
-x,-y,-z
1/2+x,y,1/2-z
-x,y,z
1/2+x,-y,1/2+z
loop_
_atom_site_type_symbol
_atom_site_label
_atom_site_fract_x
_atom_site_fract_y
_atom_site_fract_z
Si Si1 0.674820 0.639942 0.156469
Si Si2 0.673283 0.407147 0.339461
Si Si3 0.328043 0.030125 0.343160
Si Si4 0.675882 0.887137 0.971067
Si Si5 0.822757 0.677073 0.532854
Si Si6 0.169426 0.513178 0.393987
Si Si7 0.824371 0.217712 0.346907
Si Si8 0.327817 0.897076 0.343147
O O1 0.750000 0.653072 0.250000
O O2 0.500000 0.643979 0.167656
O O3 0.705655 0.576327 0.128314
O O4 0.717363 0.677890 0.071991
O O5 0.750000 0.384509 0.250000
O O6 0.500000 0.400378 0.335333
O O7 0.743233 0.374551 0.422064
O O8 0.719506 0.470705 0.349019
O O9 0.250000 0.047144 0.250000
O O10 0.500000 0.045535 0.341888
O O11 0.247378 0.059025 0.425892
O O12 0.318561 0.963949 0.348572
O O13 0.500000 0.893103 0.979010
O O14 0.709227 0.837600 0.902214
O O15 0.745637 0.875966 0.068250
O O16 0.782880 0.730663 0.590202
O O17 0.000000 0.669090 0.537990
O O18 0.173951 0.500000 0.500000
O O19 0.000000 0.502415 0.364462
O O20 0.750000 0.219256 0.250000
O O21 0.000000 0.219988 0.334148
O O22 0.250000 0.880495 0.250000
O O23 0.500000 0.882260 0.342828
#
# Coordination Sequence:
#
# PCOD9416486 Si02
#       8
#     8   8   8   8   8   8   8   8
#     4  10  21  37  60  84 112 148 186 230 278 333
#     4  12  24  36  55  84 115 148 186 229 278 336
#     4  10  20  34  54  83 118 156 197 239 288 346
#     4  11  22  36  56  85 117 153 193 239 293 350
#     4  10  21  42  63  81 110 149 189 235 287 335
#     4  10  19  36  58  82 113 151 187 224 278 335
#     4  10  23  41  63  87 114 146 187 235 288 344
#     4  10  21  37  57  83 116 156 198 241 286 338
#
# _framework density 19.464576000000001
#
# number of rings (size 3 to 8) (size 9 to 14) (size 15 to 20)
#    0.000    1.625    1.250    3.750    0.000    8.750 
#    0.000    0.625    0.000    1.500    0.000    0.000 
#    0.000    0.000    0.000    0.000    0.000    0.000 
#
# Total GULP energy -357671.840832 kJ/mol
# GULP energy per Si atom -5588.622513 kJ/mol
# Density = 1.942027 g / cm^3
# Si number density = 19.464576 Si / 1000 Ang^3
#
#
#
# Elastic Constant Matrix: (Units=GPa)
#
#
# Indices 1 2 3 4 5 6 
#
# 1 77.3861 31.6102 66.1759 0.0000 0.0000 0.0000
# 2 31.6102 39.7528 35.1249 0.0000 0.0000 0.0000
# 3 66.1759 35.1249 182.5599 0.0000 0.0000 0.0000
# 4 0.0000 0.0000 0.0000 19.9121 0.0000 0.0000
# 5 0.0000 0.0000 0.0000 0.0000 38.0245 0.0000
# 6 0.0000 0.0000 0.0000 0.0000 0.0000 15.3396
#
#
#
# Elastic Compliance Matrix: (Units=1/GPa)
#
#
# Indices 1 2 3 4 5 6 
#
# 1 0.023476 -0.013432 -0.005925 0.000000 0.000000 0.000000
# 2 -0.013432 0.037993 -0.002441 0.000000 0.000000 0.000000
# 3 -0.005925 -0.002441 0.008095 0.000000 0.000000 0.000000
# 4 0.000000 0.000000 0.000000 0.050221 0.000000 0.000000
# 5 0.000000 0.000000 0.000000 0.000000 0.026299 0.000000
# 6 0.000000 0.000000 0.000000 0.000000 0.000000 0.065191
#
#
# Mechanical properties :
#
#
# Convention : Reuss Voigt Hill
#
# Bulk Modulus (GPa) = 38.50967 62.83566 50.67267
# Shear Modulus (GPa) = 18.97348 25.77444 22.37396
#
# Velocity S-wave (km/s) = 3.12552 3.64286 3.39406
# Velocity P-wave (km/s) = 5.73172 7.07433 6.43812
#
# Compressibility (1/GPa) = 0.02596750
#
# Stress axis : x y z
#
# Youngs Moduli (GPa) = 42.59720 26.32085 123.52969
#
# Poissons Ratio (x) = 0.35353 0.73197
# Poissons Ratio (y) = 0.57215 0.30155
# Poissons Ratio (z) = 0.25241 0.06425
#
# Static dielectric constant tensor:
#      x y z
#    x 1.651780 0.000000 0.000000 
#    y 0.000000 1.695550 0.000000 
#    z 0.000000 0.000000 1.690810 
# 
# From -- ./inp_files/20840.got.cif
#   From: 2010.05.17/outbox.cif.g08.bks.cpg/sg53_11_cif.got.tgz:20840.got - 2010.06.03 12:45:16.
