data_PCOD9416838
_publ_section_title
;
Structure prediction by ZEFSAII (Michael W. Deem and Ramdas Pophale) SiO2 
 PCOD9416838
Probable space group: P M N A
;
_chemical_formula_sum "Si O2"
_cell_formula_units_Z 40
_cell_length_a 22.968049
_cell_length_b 18.511357
_cell_length_c 4.991611
_cell_angle_alpha 90.000000
_cell_angle_beta 90.000000
_cell_angle_gamma 90.000000
_cell_volume 2122.282024
_symmetry_space_group_name_H-M "P M N A"
_symmetry_group_IT_number 53
_symmetry_cell_setting 'orthorhombic'
loop_
_space_group_symop_operation_xyz
x,y,z
1/2-x,-y,1/2+z
x,-y,-z
1/2-x,y,1/2-z
-x,-y,-z
1/2+x,y,1/2-z
-x,y,z
1/2+x,-y,1/2+z
loop_
_atom_site_type_symbol
_atom_site_label
_atom_site_fract_x
_atom_site_fract_y
_atom_site_fract_z
Si Si1 0.873376 0.082332 0.549139
Si Si2 0.864970 0.277133 0.084739
Si Si3 0.194668 0.868449 0.946343
Si Si4 0.292903 0.581280 0.500978
Si Si5 0.066409 0.227332 0.598942
O O1 0.855743 0.106805 0.252455
O O2 0.920453 0.141762 0.633701
O O3 0.890574 0.000000 0.500000
O O4 0.820087 0.092592 0.768662
O O5 0.814898 0.217325 0.013952
O O6 0.888757 0.260471 0.381446
O O7 0.839567 0.355903 0.035323
O O8 0.917392 0.262300 0.881326
O O9 0.250000 0.882028 0.750000
O O10 0.318242 0.500000 0.500000
O O11 0.250000 0.591730 0.250000
O O12 0.250000 0.585363 0.750000
O O13 0.000000 0.239082 0.520344
#
# Coordination Sequence:
#
# PCOD9416838 Si02
#       5
#     8   8   8   8   8
#     4  10  21  35  51  75 103 133 176 221 264 315
#     4  10  20  35  56  80 108 139 178 220 259 316
#     4  10  20  33  51  74 103 140 173 206 257 319
#     4  10  20  34  56  86 116 144 172 208 259 314
#     4  10  21  37  57  78 102 139 183 228 273 309
#
# _framework density 18.847635
#
# number of rings (size 3 to 8) (size 9 to 14) (size 15 to 20)
#    0.000    2.000    0.000    3.600    0.000    5.200 
#    0.000    0.000    0.000   12.000    0.000    0.000 
#    0.000    0.000    0.000    0.000    0.000    0.000 
#
# Total GULP energy -222809.569618 kJ/mol
# GULP energy per Si atom -5570.239240 kJ/mol
# Density = 1.880474 g / cm^3
# Si number density = 18.847635 Si / 1000 Ang^3
#
#
#
# Elastic Constant Matrix: (Units=GPa)
#
#
# Indices 1 2 3 4 5 6 
#
# 1 35.7422 31.5254 1.2682 0.0000 0.0000 0.0000
# 2 31.5254 142.0833 14.8672 0.0000 0.0000 0.0000
# 3 1.2682 14.8672 109.8714 0.0000 0.0000 0.0000
# 4 0.0000 0.0000 0.0000 21.2175 0.0000 0.0000
# 5 0.0000 0.0000 0.0000 0.0000 13.5784 0.0000
# 6 0.0000 0.0000 0.0000 0.0000 0.0000 1.7657
#
#
#
# Elastic Compliance Matrix: (Units=1/GPa)
#
#
# Indices 1 2 3 4 5 6 
#
# 1 0.034832 -0.007797 0.000653 0.000000 0.000000 0.000000
# 2 -0.007797 0.008884 -0.001112 0.000000 0.000000 0.000000
# 3 0.000653 -0.001112 0.009245 0.000000 0.000000 0.000000
# 4 0.000000 0.000000 0.000000 0.047131 0.000000 0.000000
# 5 0.000000 0.000000 0.000000 0.000000 0.073646 0.000000
# 6 0.000000 0.000000 0.000000 0.000000 0.000000 0.566343
#
#
# Mechanical properties :
#
#
# Convention : Reuss Voigt Hill
#
# Bulk Modulus (GPa) = 27.43575 42.55760 34.99667
# Shear Modulus (GPa) = 6.50413 23.31474 14.90944
#
# Velocity S-wave (km/s) = 1.85967 3.52093 2.81561
# Velocity P-wave (km/s) = 4.38171 6.25765 5.40174
#
# Compressibility (1/GPa) = 0.03644880
#
# Stress axis : x y z
#
# Youngs Moduli (GPa) = 28.70932 112.55619 108.17232
#
# Poissons Ratio (x) = 0.87758 -0.07063
# Poissons Ratio (y) = 0.22384 0.12031
# Poissons Ratio (z) = -0.01875 0.12519
#
# Static dielectric constant tensor:
#      x y z
#    x 1.656230 0.000000 0.000000 
#    y 0.000000 1.722000 0.000000 
#    z 0.000000 0.000000 1.647720 
# 
# From -- ./inp_files/2890.got.cif
#   From: 2010.05.17/outbox.cif.g08.bks.cpg/sg53_2_cif.got.tgz:2890.got - 2010.06.03 12:45:16.
