data_PCOD9416082
_publ_section_title
;
Structure prediction by ZEFSAII (Michael W. Deem and Ramdas Pophale) SiO2 
 PCOD9416082
Probable space group: P M N A
;
_chemical_formula_sum "Si O2"
_cell_formula_units_Z 40
_cell_length_a 15.766735
_cell_length_b 15.268810
_cell_length_c 8.216918
_cell_angle_alpha 90.000000
_cell_angle_beta 90.000000
_cell_angle_gamma 90.000000
_cell_volume 1978.134932
_symmetry_space_group_name_H-M "P M N A"
_symmetry_group_IT_number 53
_symmetry_cell_setting 'orthorhombic'
loop_
_space_group_symop_operation_xyz
x,y,z
1/2-x,-y,1/2+z
x,-y,-z
1/2-x,y,1/2-z
-x,-y,-z
1/2+x,y,1/2-z
-x,y,z
1/2+x,-y,1/2+z
loop_
_atom_site_type_symbol
_atom_site_label
_atom_site_fract_x
_atom_site_fract_y
_atom_site_fract_z
Si Si1 0.000000 0.097215 0.302879
Si Si2 0.500000 0.102062 0.808364
Si Si3 0.900824 0.598609 0.175809
Si Si4 0.657462 0.217741 0.695708
Si Si5 0.652570 0.412958 0.300024
Si Si6 0.347156 0.780757 0.694475
O O1 0.915711 0.148318 0.247888
O O2 0.000000 0.096822 0.497463
O O3 0.000000 0.997085 0.242495
O O4 0.582968 0.155029 0.754491
O O5 0.858258 0.682619 0.258881
O O6 0.890815 0.503158 0.256400
O O7 0.000000 0.618083 0.154825
O O8 0.860676 0.590413 0.995344
O O9 0.750000 0.187723 0.750000
O O10 0.653401 0.221467 0.500822
O O11 0.750000 0.420874 0.250000
O O12 0.624863 0.316248 0.242683
O O13 0.250000 0.796730 0.750000
#
# Coordination Sequence:
#
# PCOD9416082 Si02
#       6
#     4   4   8   8   8   8
#     4  11  25  43  68  83 126 154 201 261 314 373
#     4  11  25  45  62  95 114 160 203 257 318 367
#     4  10  19  33  57  88 121 163 209 246 297 359
#     4  11  22  39  66  92 126 162 205 253 304 365
#     4   9  18  31  53  86 120 160 203 242 290 352
#     4  10  22  39  62  95 122 164 204 248 305 363
#
# _framework density 20.221067000000001
#
# number of rings (size 3 to 8) (size 9 to 14) (size 15 to 20)
#    0.000    1.800    1.000    3.600    5.600    2.400 
#    0.000    0.000    0.000    1.200    0.000    0.000 
#    0.000    0.000    0.000    0.000    0.000    0.000 
#
# Total GULP energy -223256.736812 kJ/mol
# GULP energy per Si atom -5581.418420 kJ/mol
# Density = 2.017504 g / cm^3
# Si number density = 20.221067 Si / 1000 Ang^3
#
#
#
# Elastic Constant Matrix: (Units=GPa)
#
#
# Indices 1 2 3 4 5 6 
#
# 1 149.7697 85.3295 23.4525 0.0000 0.0000 0.0000
# 2 85.3295 186.1149 20.0408 0.0000 0.0000 0.0000
# 3 23.4525 20.0408 34.5647 0.0000 0.0000 0.0000
# 4 0.0000 0.0000 0.0000 5.1640 0.0000 0.0000
# 5 0.0000 0.0000 0.0000 0.0000 37.1229 0.0000
# 6 0.0000 0.0000 0.0000 0.0000 0.0000 -30.9785
#
#
#
# Elastic Compliance Matrix: (Units=1/GPa)
#
#
# Indices 1 2 3 4 5 6 
#
# 1 0.009581 -0.003939 -0.004217 0.000000 0.000000 0.000000
# 2 -0.003939 0.007350 -0.001589 0.000000 0.000000 0.000000
# 3 -0.004217 -0.001589 0.032714 0.000000 0.000000 0.000000
# 4 0.000000 0.000000 0.000000 0.193648 0.000000 0.000000
# 5 0.000000 0.000000 0.000000 0.000000 0.026938 0.000000
# 6 0.000000 0.000000 0.000000 0.000000 0.000000 -0.032280
#
#
# Mechanical properties :
#
#
# Convention : Reuss Voigt Hill
#
# Bulk Modulus (GPa) = 33.16189 69.78834 51.47511
# Shear Modulus (GPa) = 18.69215 18.37013 18.53114
#
# Velocity S-wave (km/s) = 3.04368 3.01735 3.03054
# Velocity P-wave (km/s) = 5.36537 6.83570 6.14467
#
# Compressibility (1/GPa) = 0.03015510
#
# Stress axis : x y z
#
# Youngs Moduli (GPa) = 104.36946 136.05530 30.56786
#
# Poissons Ratio (x) = 0.53588 0.12892
# Poissons Ratio (y) = 0.41108 0.04858
# Poissons Ratio (z) = 0.44016 0.21620
#
# Static dielectric constant tensor:
#      x y z
#    x 1.646970 0.000000 0.000000 
#    y 0.000000 1.778040 0.000000 
#    z 0.000000 0.000000 1.678460 
# 
# From -- ./inp_files/8446.got.cif
#   From: 2010.05.17/outbox.cif.g08.bks.cpg/sg53_5_cif.got.tgz:8446.got - 2010.06.03 12:45:16.
