data_PCOD9416251
_publ_section_title
;
Structure prediction by ZEFSAII (Michael W. Deem and Ramdas Pophale) SiO2 
 PCOD9416251
Probable space group: P M N A
;
_chemical_formula_sum "Si O2"
_cell_formula_units_Z 40
_cell_length_a 20.240884
_cell_length_b 6.155103
_cell_length_c 12.642099
_cell_angle_alpha 90.000000
_cell_angle_beta 90.000000
_cell_angle_gamma 90.000000
_cell_volume 1575.012438
_symmetry_space_group_name_H-M "P M N A"
_symmetry_group_IT_number 53
_symmetry_cell_setting 'orthorhombic'
loop_
_space_group_symop_operation_xyz
x,y,z
1/2-x,-y,1/2+z
x,-y,-z
1/2-x,y,1/2-z
-x,-y,-z
1/2+x,y,1/2-z
-x,y,z
1/2+x,-y,1/2+z
loop_
_atom_site_type_symbol
_atom_site_label
_atom_site_fract_x
_atom_site_fract_y
_atom_site_fract_z
Si Si1 0.646560 0.381828 0.222662
Si Si2 0.572379 0.991420 0.649332
Si Si3 0.288732 0.013766 0.864171
Si Si4 0.823248 0.316113 0.913666
Si Si5 0.427609 0.245691 0.868322
O O1 0.677024 0.565322 0.298952
O O2 0.592843 0.503591 0.149769
O O3 0.613827 0.210808 0.304768
O O4 0.695034 0.242598 0.148319
O O5 0.500000 0.922849 0.612008
O O6 0.613881 0.157024 0.578242
O O7 0.563504 0.140909 0.752865
O O8 0.250000 0.041850 0.750000
O O9 0.239291 0.162935 0.930540
O O10 0.359827 0.119144 0.896373
O O11 0.826652 0.500000 0.000000
O O12 0.500000 0.224214 0.922461
#
# Coordination Sequence:
#
# PCOD9416251 Si02
#       5
#     8   8   8   8   8
#     4  10  19  34  58  78 115 153 194 235 282 334
#     4   9  18  33  52  80 116 155 198 229 268 336
#     4  11  20  36  58  83 111 148 195 236 277 338
#     4  11  24  38  55  85 120 153 190 239 293 340
#     4   9  18  32  56  86 111 143 192 241 280 331
#
# _framework density 25.396623000000002
#
# number of rings (size 3 to 8) (size 9 to 14) (size 15 to 20)
#    0.000    2.000    6.000    0.600    2.800    2.800 
#    0.000    1.000    0.000    0.600    0.000    1.400 
#    0.000    0.000    0.000    0.000    0.000    0.000 
#
# Total GULP energy -223013.933605 kJ/mol
# GULP energy per Si atom -5575.348340 kJ/mol
# Density = 2.533882 g / cm^3
# Si number density = 25.396623 Si / 1000 Ang^3
#
#
#
# Elastic Constant Matrix: (Units=GPa)
#
#
# Indices 1 2 3 4 5 6 
#
# 1 192.6481 70.2463 26.1112 0.0000 0.0000 0.0000
# 2 70.2463 163.8521 26.7980 0.0000 0.0000 0.0000
# 3 26.1112 26.7980 57.9119 0.0000 0.0000 0.0000
# 4 0.0000 0.0000 0.0000 32.6683 0.0000 0.0000
# 5 0.0000 0.0000 0.0000 0.0000 -3.9463 0.0000
# 6 0.0000 0.0000 0.0000 0.0000 0.0000 331.4632
#
#
#
# Elastic Compliance Matrix: (Units=1/GPa)
#
#
# Indices 1 2 3 4 5 6 
#
# 1 0.006308 -0.002422 -0.001723 0.000000 0.000000 0.000000
# 2 -0.002422 0.007533 -0.002394 0.000000 0.000000 0.000000
# 3 -0.001723 -0.002394 0.019152 0.000000 0.000000 0.000000
# 4 0.000000 0.000000 0.000000 0.030611 0.000000 0.000000
# 5 0.000000 0.000000 0.000000 0.000000 -0.253402 0.000000
# 6 0.000000 0.000000 0.000000 0.000000 0.000000 0.003017
#
#
# Mechanical properties :
#
#
# Convention : Reuss Voigt Hill
#
# Bulk Modulus (GPa) = 50.21420 73.41368 61.81394
# Shear Modulus (GPa) = -29.92839 91.45414 30.76287
#
# Velocity S-wave (km/s) = -3.43657 6.00737 3.48415
# Velocity P-wave (km/s) = 2.01700 8.77996 6.37008
#
# Compressibility (1/GPa) = 0.01991469
#
# Stress axis : x y z
#
# Youngs Moduli (GPa) = 158.53792 132.74807 52.21359
#
# Poissons Ratio (x) = 0.32157 0.08997
# Poissons Ratio (y) = 0.38404 0.12498
# Poissons Ratio (z) = 0.27317 0.31775
#
# Static dielectric constant tensor:
#      x y z
#    x 2.054610 0.000000 0.000000 
#    y 0.000000 1.953390 0.000000 
#    z 0.000000 0.000000 2.255330 
# 
# From -- ./inp_files/32893.got.cif
#   From: 2010.05.17/outbox.cif.g08.bks.cpg/sg53_17_cif.got.tgz:32893.got - 2010.06.03 12:45:16.
