data_PCOD9416226
_publ_section_title
;
Structure prediction by ZEFSAII (Michael W. Deem and Ramdas Pophale) SiO2 
 PCOD9416226
Probable space group: P M N A
;
_chemical_formula_sum "Si O2"
_cell_formula_units_Z 56
_cell_length_a 9.006040
_cell_length_b 13.594685
_cell_length_c 21.332680
_cell_angle_alpha 90.000000
_cell_angle_beta 90.000000
_cell_angle_gamma 90.000000
_cell_volume 2611.851250
_symmetry_space_group_name_H-M "P M N A"
_symmetry_group_IT_number 53
_symmetry_cell_setting 'orthorhombic'
loop_
_space_group_symop_operation_xyz
x,y,z
1/2-x,-y,1/2+z
x,-y,-z
1/2-x,y,1/2-z
-x,-y,-z
1/2+x,y,1/2-z
-x,y,z
1/2+x,-y,1/2+z
loop_
_atom_site_type_symbol
_atom_site_label
_atom_site_fract_x
_atom_site_fract_y
_atom_site_fract_z
Si Si1 0.329468 0.097523 0.042878
Si Si2 0.678834 0.560479 0.185296
Si Si3 0.830533 0.614631 0.491204
Si Si4 0.172630 0.641800 0.634112
Si Si5 0.176832 0.209037 0.685592
Si Si6 0.671720 0.787930 0.437494
Si Si7 0.320623 0.849675 0.816118
O O1 0.500000 0.137278 0.040587
O O2 0.290895 0.093915 0.117285
O O3 0.215161 0.161861 0.002824
O O4 0.332875 0.000000 0.000000
O O5 0.750000 0.527373 0.250000
O O6 0.500000 0.562634 0.186015
O O7 0.729232 0.470139 0.141567
O O8 0.720993 0.675021 0.179867
O O9 0.800401 0.500000 0.500000
O O10 0.825287 0.660416 0.560284
O O11 0.720911 0.675019 0.448129
O O12 0.000000 0.623603 0.465905
O O13 0.234342 0.736727 0.670189
O O14 0.000000 0.637517 0.653609
O O15 0.250000 0.171617 0.750000
O O16 0.235936 0.166354 0.620223
O O17 0.000000 0.199926 0.689411
O O18 0.500000 0.796193 0.423342
O O19 0.250000 0.883756 0.750000
O O20 0.500000 0.850455 0.809028
#
# Coordination Sequence:
#
# PCOD9416226 Si02
#       7
#     8   8   8   8   8   8   8
#     4  10  22  44  71  93 117 159 210 257 312 379
#     4   9  17  29  47  73 107 152 198 243 292 350
#     4  10  19  34  57  82 116 165 215 258 301 356
#     4   9  16  29  49  77 113 152 199 245 295 355
#     4  10  20  36  57  82 116 159 210 258 307 362
#     4  12  24  38  59  89 125 160 200 253 314 376
#     4  10  20  36  60  90 123 154 193 247 308 375
#
# _framework density 21.440731
#
# number of rings (size 3 to 8) (size 9 to 14) (size 15 to 20)
#    0.000    2.000    1.429    3.000    0.000    4.000 
#    0.000    1.429    0.000    1.714    0.000    0.000 
#    0.000    0.000    0.000    0.000    0.000    0.000 
#
# Total GULP energy -312001.174499 kJ/mol
# GULP energy per Si atom -5571.449545 kJ/mol
# Density = 2.139193 g / cm^3
# Si number density = 21.440731 Si / 1000 Ang^3
#
#
#
# Elastic Constant Matrix: (Units=GPa)
#
#
# Indices 1 2 3 4 5 6 
#
# 1 50.4908 9.3223 44.3944 0.0000 0.0000 0.0000
# 2 9.3223 37.3221 16.7370 0.0000 0.0000 0.0000
# 3 44.3944 16.7370 162.9356 0.0000 0.0000 0.0000
# 4 0.0000 0.0000 0.0000 19.3363 0.0000 0.0000
# 5 0.0000 0.0000 0.0000 0.0000 29.9643 0.0000
# 6 0.0000 0.0000 0.0000 0.0000 0.0000 -162.4052
#
#
#
# Elastic Compliance Matrix: (Units=1/GPa)
#
#
# Indices 1 2 3 4 5 6 
#
# 1 0.026485 -0.003542 -0.006852 0.000000 0.000000 0.000000
# 2 -0.003542 0.028561 -0.001969 0.000000 0.000000 0.000000
# 3 -0.006852 -0.001969 0.008207 0.000000 0.000000 0.000000
# 4 0.000000 0.000000 0.000000 0.051716 0.000000 0.000000
# 5 0.000000 0.000000 0.000000 0.000000 0.033373 0.000000
# 6 0.000000 0.000000 0.000000 0.000000 0.000000 -0.006157
#
#
# Mechanical properties :
#
#
# Convention : Reuss Voigt Hill
#
# Bulk Modulus (GPa) = 25.95659 43.51731 34.73695
# Shear Modulus (GPa) = 27.81592 -10.60127 8.60733
#
# Velocity S-wave (km/s) = 3.60577 -2.22602 2.00579
# Velocity P-wave (km/s) = 5.42843 3.70590 4.64767
#
# Compressibility (1/GPa) = 0.03852587
#
# Stress axis : x y z
#
# Youngs Moduli (GPa) = 37.75790 35.01227 121.85284
#
# Poissons Ratio (x) = 0.12403 0.83497
# Poissons Ratio (y) = 0.13375 0.23989
# Poissons Ratio (z) = 0.25873 0.06893
#
# Static dielectric constant tensor:
#      x y z
#    x 1.727470 0.000000 0.000000 
#    y 0.000000 1.873820 0.000000 
#    z 0.000000 0.000000 1.792720 
# 
# From -- ./inp_files/30731.got.cif
#   From: 2010.05.17/outbox.cif.g08.bks.cpg/sg53_16_cif.got.tgz:30731.got - 2010.06.03 12:45:16.
