data_PCOD9416163
_publ_section_title
;
Structure prediction by ZEFSAII (Michael W. Deem and Ramdas Pophale) SiO2 
 PCOD9416163
Probable space group: P M N A
;
_chemical_formula_sum "Si O2"
_cell_formula_units_Z 64
_cell_length_a 8.936779
_cell_length_b 12.091984
_cell_length_c 32.306525
_cell_angle_alpha 90.000000
_cell_angle_beta 90.000000
_cell_angle_gamma 90.000000
_cell_volume 3491.152568
_symmetry_space_group_name_H-M "P M N A"
_symmetry_group_IT_number 53
_symmetry_cell_setting 'orthorhombic'
loop_
_space_group_symop_operation_xyz
x,y,z
1/2-x,-y,1/2+z
x,-y,-z
1/2-x,y,1/2-z
-x,-y,-z
1/2+x,y,1/2-z
-x,y,z
1/2+x,-y,1/2+z
loop_
_atom_site_type_symbol
_atom_site_label
_atom_site_fract_x
_atom_site_fract_y
_atom_site_fract_z
Si Si1 0.319945 0.688027 0.793444
Si Si2 0.176731 0.648978 0.616328
Si Si3 0.820583 0.509752 0.048535
Si Si4 0.334321 0.868528 0.994924
Si Si5 0.323478 0.921503 0.369331
Si Si6 0.326217 0.265590 0.920175
Si Si7 0.320504 0.051295 0.206503
Si Si8 0.829437 0.145634 0.084675
O O1 0.250000 0.649345 0.750000
O O2 0.500000 0.682340 0.790532
O O3 0.275009 0.626321 0.836032
O O4 0.279474 0.818442 0.798284
O O5 0.258023 0.583999 0.579420
O O6 0.215325 0.777557 0.609216
O O7 0.000000 0.629352 0.613284
O O8 0.761184 0.623650 0.068174
O O9 0.000000 0.506176 0.048720
O O10 0.771489 0.500000 0.000000
O O11 0.500000 0.840575 0.977389
O O12 0.206037 0.834935 0.963287
O O13 0.321311 0.808985 0.038474
O O14 0.328846 0.000000 0.000000
O O15 0.500000 0.905033 0.362542
O O16 0.247105 0.809183 0.384609
O O17 0.246937 0.976557 0.329631
O O18 0.307210 0.017245 0.404321
O O19 0.500000 0.290195 0.910844
O O20 0.250000 0.015644 0.250000
O O21 0.500000 0.043941 0.206911
O O22 0.000000 0.175126 0.095234
#
# Coordination Sequence:
#
# PCOD9416163 Si02
#       8
#     8   8   8   8   8   8   8   8
#     4   9  19  33  54  85 119 153 189 236 288 347
#     4  11  22  38  60  85 115 153 197 241 291 348
#     4  11  25  44  63  85 115 153 200 252 303 356
#     4  10  20  34  52  76 108 145 185 229 279 335
#     4  11  22  35  54  83 118 154 191 235 287 347
#     4  11  23  39  60  83 111 151 195 240 288 343
#     4  10  19  34  55  83 120 158 194 234 286 348
#     4  11  22  33  51  81 115 151 189 232 286 339
#
# _framework density 18.332056000000001
#
# number of rings (size 3 to 8) (size 9 to 14) (size 15 to 20)
#    0.000    1.500    2.500    3.000    0.000    6.750 
#    0.000    0.000    0.000    0.750    0.000    3.500 
#    0.000    0.000    0.000    0.000    0.000    0.000 
#
# Total GULP energy -357214.006439 kJ/mol
# GULP energy per Si atom -5581.468851 kJ/mol
# Density = 1.829033 g / cm^3
# Si number density = 18.332056 Si / 1000 Ang^3
#
#
#
# Elastic Constant Matrix: (Units=GPa)
#
#
# Indices 1 2 3 4 5 6 
#
# 1 69.2255 26.6728 49.6147 0.0000 0.0000 0.0000
# 2 26.6728 56.6096 23.2628 0.0000 0.0000 0.0000
# 3 49.6147 23.2628 118.5435 0.0000 0.0000 0.0000
# 4 0.0000 0.0000 0.0000 28.2834 0.0000 0.0000
# 5 0.0000 0.0000 0.0000 0.0000 30.6483 0.0000
# 6 0.0000 0.0000 0.0000 0.0000 0.0000 24.1258
#
#
#
# Elastic Compliance Matrix: (Units=1/GPa)
#
#
# Indices 1 2 3 4 5 6 
#
# 1 0.023284 -0.007577 -0.008258 0.000000 0.000000 0.000000
# 2 -0.007577 0.021680 -0.001083 0.000000 0.000000 0.000000
# 3 -0.008258 -0.001083 0.012105 0.000000 0.000000 0.000000
# 4 0.000000 0.000000 0.000000 0.035356 0.000000 0.000000
# 5 0.000000 0.000000 0.000000 0.000000 0.032628 0.000000
# 6 0.000000 0.000000 0.000000 0.000000 0.000000 0.041449
#
#
# Mechanical properties :
#
#
# Convention : Reuss Voigt Hill
#
# Bulk Modulus (GPa) = 43.04487 49.27547 46.16017
# Shear Modulus (GPa) = 24.02883 26.26671 25.14777
#
# Velocity S-wave (km/s) = 3.62436 3.78938 3.70779
# Velocity P-wave (km/s) = 6.40674 6.78849 6.60038
#
# Compressibility (1/GPa) = 0.02323157
#
# Stress axis : x y z
#
# Youngs Moduli (GPa) = 42.94839 46.12534 82.61312
#
# Poissons Ratio (x) = 0.34950 0.68223
# Poissons Ratio (y) = 0.32542 0.08948
# Poissons Ratio (z) = 0.35467 0.04996
#
# Static dielectric constant tensor:
#      x y z
#    x 1.627910 0.000000 0.000000 
#    y 0.000000 1.624260 0.000000 
#    z 0.000000 0.000000 1.649710 
# 
# From -- ./inp_files/38210.got.cif
#   From: 2010.05.17/outbox.cif.g08.bks.cpg/sg53_20_cif.got.tgz:38210.got - 2010.06.03 12:45:16.
