data_PCOD9416628
_publ_section_title
;
Structure prediction by ZEFSAII (Michael W. Deem and Ramdas Pophale) SiO2 
 PCOD9416628
Probable space group: P M N A
;
_chemical_formula_sum "Si O2"
_cell_formula_units_Z 64
_cell_length_a 30.743500
_cell_length_b 12.830246
_cell_length_c 8.349493
_cell_angle_alpha 90.000000
_cell_angle_beta 90.000000
_cell_angle_gamma 90.000000
_cell_volume 3293.429693
_symmetry_space_group_name_H-M "P M N A"
_symmetry_group_IT_number 53
_symmetry_cell_setting 'orthorhombic'
loop_
_space_group_symop_operation_xyz
x,y,z
1/2-x,-y,1/2+z
x,-y,-z
1/2-x,y,1/2-z
-x,-y,-z
1/2+x,y,1/2-z
-x,y,z
1/2+x,-y,1/2+z
loop_
_atom_site_type_symbol
_atom_site_label
_atom_site_fract_x
_atom_site_fract_y
_atom_site_fract_z
Si Si1 0.133858 0.117151 0.304228
Si Si2 0.411798 0.611523 0.580741
Si Si3 0.627371 0.868472 0.169702
Si Si4 0.454861 0.765485 0.773544
Si Si5 0.837370 0.227913 0.990448
Si Si6 0.050837 0.708509 0.361164
Si Si7 0.289621 0.592877 0.371905
Si Si8 0.624671 0.533568 0.176582
O O1 0.144196 0.155695 0.487187
O O2 0.086424 0.161943 0.263930
O O3 0.128483 0.993089 0.314646
O O4 0.162020 0.158608 0.152780
O O5 0.420380 0.500000 0.500000
O O6 0.452075 0.679641 0.634725
O O7 0.377971 0.690859 0.502107
O O8 0.387812 0.574385 0.740375
O O9 0.654977 0.830178 0.322128
O O10 0.579781 0.811581 0.181329
O O11 0.500000 0.825328 0.764187
O O12 0.452951 0.710487 0.946319
O O13 0.795229 0.300032 0.969754
O O14 0.082772 0.611469 0.318515
O O15 0.000000 0.704812 0.301446
O O16 0.287132 0.500000 0.500000
O O17 0.250000 0.592997 0.250000
O O18 0.333584 0.578497 0.267260
O O19 0.636463 0.500000 0.000000
#
# Coordination Sequence:
#
# PCOD9416628 Si02
#       8
#     8   8   8   8   8   8   8   8
#     4   9  21  35  61  93 121 164 219 263 318 377
#     4  11  19  34  53  77 115 162 207 251 309 373
#     4  10  19  38  61  93 120 168 217 263 317 365
#     4   9  19  33  50  80 122 164 217 270 313 362
#     4  11  20  39  65  87 124 161 204 254 318 378
#     4  10  20  33  55  90 125 169 221 262 309 374
#     4  12  25  44  64  98 127 158 203 255 319 389
#     4  12  21  37  62  85 126 172 210 263 314 373
#
# _framework density 19.432628999999999
#
# number of rings (size 3 to 8) (size 9 to 14) (size 15 to 20)
#    0.000    1.500    5.000    0.750    0.000    1.500 
#    2.250    7.500    0.000    4.125    6.500    0.000 
#    0.000    0.000    0.000    0.000    0.000    0.000 
#
# Total GULP energy -356326.699998 kJ/mol
# GULP energy per Si atom -5567.604687 kJ/mol
# Density = 1.938840 g / cm^3
# Si number density = 19.432629 Si / 1000 Ang^3
#
#
#
# Elastic Constant Matrix: (Units=GPa)
#
#
# Indices 1 2 3 4 5 6 
#
# 1 71.6974 22.8219 35.4976 0.0000 0.0000 0.0000
# 2 22.8219 89.1072 55.5883 0.0000 0.0000 0.0000
# 3 35.4976 55.5883 129.4408 0.0000 0.0000 0.0000
# 4 0.0000 0.0000 0.0000 37.7349 0.0000 0.0000
# 5 0.0000 0.0000 0.0000 0.0000 60.8110 0.0000
# 6 0.0000 0.0000 0.0000 0.0000 0.0000 16.7138
#
#
#
# Elastic Compliance Matrix: (Units=1/GPa)
#
#
# Indices 1 2 3 4 5 6 
#
# 1 0.016371 -0.001902 -0.003673 0.000000 0.000000 0.000000
# 2 -0.001902 0.015550 -0.006156 0.000000 0.000000 0.000000
# 3 -0.003673 -0.006156 0.011377 0.000000 0.000000 0.000000
# 4 0.000000 0.000000 0.000000 0.026501 0.000000 0.000000
# 5 0.000000 0.000000 0.000000 0.000000 0.016444 0.000000
# 6 0.000000 0.000000 0.000000 0.000000 0.000000 0.059831
#
#
# Mechanical properties :
#
#
# Convention : Reuss Voigt Hill
#
# Bulk Modulus (GPa) = 50.41358 57.56234 53.98796
# Shear Modulus (GPa) = 28.38521 34.80777 31.59649
#
# Velocity S-wave (km/s) = 3.82605 4.23685 4.03668
# Velocity P-wave (km/s) = 6.74665 7.32259 7.04051
#
# Compressibility (1/GPa) = 0.01983592
#
# Stress axis : x y z
#
# Youngs Moduli (GPa) = 61.08243 64.30816 87.89889
#
# Poissons Ratio (x) = 0.12229 0.32285
# Poissons Ratio (y) = 0.11616 0.54115
# Poissons Ratio (z) = 0.22435 0.39591
#
# Static dielectric constant tensor:
#      x y z
#    x 1.684620 0.000000 0.000000 
#    y 0.000000 1.670160 0.000000 
#    z 0.000000 0.000000 1.752320 
# 
# From -- ./inp_files/13255.got.cif
#   From: 2010.05.17/outbox.cif.g08.bks.cpg/sg53_7_cif.got.tgz:13255.got - 2010.06.03 12:45:16.
