data_PCOD9416172
_publ_section_title
;
Structure prediction by ZEFSAII (Michael W. Deem and Ramdas Pophale) SiO2 
 PCOD9416172
Probable space group: P M N A
;
_chemical_formula_sum "Si O2"
_cell_formula_units_Z 56
_cell_length_a 8.748176
_cell_length_b 15.713092
_cell_length_c 21.359498
_cell_angle_alpha 90.000000
_cell_angle_beta 90.000000
_cell_angle_gamma 90.000000
_cell_volume 2936.095697
_symmetry_space_group_name_H-M "P M N A"
_symmetry_group_IT_number 53
_symmetry_cell_setting 'orthorhombic'
loop_
_space_group_symop_operation_xyz
x,y,z
1/2-x,-y,1/2+z
x,-y,-z
1/2-x,y,1/2-z
-x,-y,-z
1/2+x,y,1/2-z
-x,y,z
1/2+x,-y,1/2+z
loop_
_atom_site_type_symbol
_atom_site_label
_atom_site_fract_x
_atom_site_fract_y
_atom_site_fract_z
Si Si1 0.823391 0.287851 0.872755
Si Si2 0.816194 0.544714 0.316281
Si Si3 0.182423 0.048816 0.183901
Si Si4 0.313823 0.082739 0.458578
Si Si5 0.320189 0.138310 0.812374
Si Si6 0.683548 0.443521 0.059620
Si Si7 0.176860 0.274745 0.016631
O O1 0.751427 0.362613 0.832197
O O2 0.724793 0.202805 0.865971
O O3 0.000000 0.271787 0.855023
O O4 0.819249 0.309223 0.945812
O O5 0.750000 0.515388 0.250000
O O6 0.769526 0.485982 0.374908
O O7 0.000000 0.549178 0.313545
O O8 0.250000 0.083237 0.250000
O O9 0.231087 0.081370 0.115106
O O10 0.000000 0.055386 0.187939
O O11 0.233508 0.950447 0.181224
O O12 0.500000 0.078640 0.460811
O O13 0.267845 0.176618 0.482610
O O14 0.261582 0.000000 0.500000
O O15 0.250000 0.179833 0.750000
O O16 0.500000 0.124456 0.806888
O O17 0.500000 0.445794 0.057149
O O18 0.735480 0.345901 0.055545
O O19 0.739111 0.500000 0.000000
O O20 0.000000 0.272186 0.037362
#
# Coordination Sequence:
#
# PCOD9416172 Si02
#       7
#     8   8   8   8   8   8   8
#     4  11  21  34  54  82 114 147 187 235 291 351
#     4  11  23  39  59  84 117 154 192 238 294 349
#     4  10  19  34  56  78 108 148 191 239 292 349
#     4   9  18  35  58  85 117 151 191 242 294 339
#     4  11  21  33  50  74 108 147 189 234 286 349
#     4  10  21  40  62  84 116 155 191 236 296 348
#     4  10  21  36  60  89 113 148 198 244 287 345
#
# _framework density 19.072949000000001
#
# number of rings (size 3 to 8) (size 9 to 14) (size 15 to 20)
#    0.000    1.714    1.429    4.714    0.000    4.286 
#    0.000    2.143    0.000    6.429    0.000    0.000 
#    0.000    0.000    0.000    0.000    0.000    0.000 
#
# Total GULP energy -312262.746634 kJ/mol
# GULP energy per Si atom -5576.120476 kJ/mol
# Density = 1.902954 g / cm^3
# Si number density = 19.072949 Si / 1000 Ang^3
#
#
#
# Elastic Constant Matrix: (Units=GPa)
#
#
# Indices 1 2 3 4 5 6 
#
# 1 28.2862 5.7582 31.2883 0.0000 0.0000 0.0000
# 2 5.7582 88.7700 47.3765 0.0000 0.0000 0.0000
# 3 31.2883 47.3765 130.7548 0.0000 0.0000 0.0000
# 4 0.0000 0.0000 0.0000 28.4084 0.0000 0.0000
# 5 0.0000 0.0000 0.0000 0.0000 27.5049 0.0000
# 6 0.0000 0.0000 0.0000 0.0000 0.0000 19.7713
#
#
#
# Elastic Compliance Matrix: (Units=1/GPa)
#
#
# Indices 1 2 3 4 5 6 
#
# 1 0.049105 0.003826 -0.013136 0.000000 0.000000 0.000000
# 2 0.003826 0.014264 -0.006084 0.000000 0.000000 0.000000
# 3 -0.013136 -0.006084 0.012996 0.000000 0.000000 0.000000
# 4 0.000000 0.000000 0.000000 0.035201 0.000000 0.000000
# 5 0.000000 0.000000 0.000000 0.000000 0.036357 0.000000
# 6 0.000000 0.000000 0.000000 0.000000 0.000000 0.050578
#
#
# Mechanical properties :
#
#
# Convention : Reuss Voigt Hill
#
# Bulk Modulus (GPa) = 21.94171 46.29521 34.11846
# Shear Modulus (GPa) = 20.45148 26.02945 23.24047
#
# Velocity S-wave (km/s) = 3.27812 3.69823 3.49449
# Velocity P-wave (km/s) = 5.08499 6.52390 5.84887
#
# Compressibility (1/GPa) = 0.04557530
#
# Stress axis : x y z
#
# Youngs Moduli (GPa) = 20.36464 70.10788 76.94919
#
# Poissons Ratio (x) = -0.26821 1.01084
# Poissons Ratio (y) = -0.07791 0.46813
# Poissons Ratio (z) = 0.26752 0.42651
#
# Static dielectric constant tensor:
#      x y z
#    x 1.656390 0.000000 0.000000 
#    y 0.000000 1.654890 0.000000 
#    z 0.000000 0.000000 1.833720 
# 
# From -- ./inp_files/30735.got.cif
#   From: 2010.05.17/outbox.cif.g08.bks.cpg/sg53_16_cif.got.tgz:30735.got - 2010.06.03 12:45:16.
