data_PCOD9416924
_publ_section_title
;
Structure prediction by ZEFSAII (Michael W. Deem and Ramdas Pophale) SiO2 
 PCOD9416924
Probable space group: P M N A
;
_chemical_formula_sum "Si O2"
_cell_formula_units_Z 64
_cell_length_a 25.912335
_cell_length_b 11.442529
_cell_length_c 10.998388
_cell_angle_alpha 90.000000
_cell_angle_beta 90.000000
_cell_angle_gamma 90.000000
_cell_volume 3261.051129
_symmetry_space_group_name_H-M "P M N A"
_symmetry_group_IT_number 53
_symmetry_cell_setting 'orthorhombic'
loop_
_space_group_symop_operation_xyz
x,y,z
1/2-x,-y,1/2+z
x,-y,-z
1/2-x,y,1/2-z
-x,-y,-z
1/2+x,y,1/2-z
-x,y,z
1/2+x,-y,1/2+z
loop_
_atom_site_type_symbol
_atom_site_label
_atom_site_fract_x
_atom_site_fract_y
_atom_site_fract_z
Si Si1 0.557092 0.457462 0.683894
Si Si2 0.613575 0.636066 0.850254
Si Si3 0.562546 0.827807 0.700814
Si Si4 0.942203 0.708010 0.420618
Si Si5 0.766563 0.620445 0.627544
Si Si6 0.725758 0.356040 0.621393
Si Si7 0.388972 0.732428 0.451341
Si Si8 0.438821 0.896977 0.253962
O O1 0.500000 0.503015 0.663024
O O2 0.591854 0.556584 0.741782
O O3 0.555677 0.364126 0.795124
O O4 0.577541 0.384270 0.571040
O O5 0.592615 0.762336 0.808637
O O6 0.672942 0.602855 0.859636
O O7 0.591182 0.633862 0.986075
O O8 0.500000 0.801858 0.692690
O O9 0.594026 0.786380 0.580522
O O10 0.566880 0.965588 0.727292
O O11 0.925335 0.837004 0.375996
O O12 0.000000 0.715506 0.472604
O O13 0.750000 0.686535 0.750000
O O14 0.733749 0.498331 0.627234
O O15 0.757585 0.679921 0.498259
O O16 0.750000 0.314485 0.750000
O O17 0.668475 0.311443 0.587250
O O18 0.405962 0.830432 0.355081
O O19 0.500000 0.870476 0.272053
#
# Coordination Sequence:
#
# PCOD9416924 Si02
#       8
#     8   8   8   8   8   8   8   8
#     4  10  20  33  53  86 124 160 194 243 307 384
#     4  12  23  34  59  84 126 165 203 249 319 383
#     4  11  23  39  61  94 128 168 206 250 316 399
#     4   9  19  34  55  86 120 157 200 250 299 372
#     4  10  22  39  56  84 123 159 205 257 317 369
#     4  10  22  37  61  89 118 160 216 265 307 372
#     4  11  21  37  63  87 123 159 214 261 321 372
#     4   9  20  39  64  90 122 159 207 257 309 378
#
# _framework density 19.625574
#
# number of rings (size 3 to 8) (size 9 to 14) (size 15 to 20)
#    0.000    1.750    0.000    6.000    7.000    4.000 
#    0.000    3.125    0.000    3.750    0.000    0.000 
#    0.000    0.000    0.000    0.000    0.000    0.000 
#
# Total GULP energy -356513.281945 kJ/mol
# GULP energy per Si atom -5570.520030 kJ/mol
# Density = 1.958091 g / cm^3
# Si number density = 19.625574 Si / 1000 Ang^3
#
#
#
# Elastic Constant Matrix: (Units=GPa)
#
#
# Indices 1 2 3 4 5 6 
#
# 1 85.9583 39.7395 19.7385 0.0000 0.0000 0.0000
# 2 39.7395 100.3374 17.9409 0.0000 0.0000 0.0000
# 3 19.7385 17.9409 91.0923 0.0000 0.0000 0.0000
# 4 0.0000 0.0000 0.0000 14.2541 0.0000 0.0000
# 5 0.0000 0.0000 0.0000 0.0000 -460.0850 0.0000
# 6 0.0000 0.0000 0.0000 0.0000 0.0000 14.4588
#
#
#
# Elastic Compliance Matrix: (Units=1/GPa)
#
#
# Indices 1 2 3 4 5 6 
#
# 1 0.014619 -0.005414 -0.002101 0.000000 0.000000 0.000000
# 2 -0.005414 0.012335 -0.001256 0.000000 0.000000 0.000000
# 3 -0.002101 -0.001256 0.011681 0.000000 0.000000 0.000000
# 4 0.000000 0.000000 0.000000 0.070155 0.000000 0.000000
# 5 0.000000 0.000000 0.000000 0.000000 -0.002174 0.000000
# 6 0.000000 0.000000 0.000000 0.000000 0.000000 0.069162
#
#
# Mechanical properties :
#
#
# Convention : Reuss Voigt Hill
#
# Bulk Modulus (GPa) = 47.41313 48.02509 47.71911
# Shear Modulus (GPa) = 24.95589 -72.94315 -23.99363
#
# Velocity S-wave (km/s) = 3.56982 -6.10312 -3.50032
# Velocity P-wave (km/s) = 6.41894 5.01401 2.83394
#
# Compressibility (1/GPa) = 0.02109121
#
# Stress axis : x y z
#
# Youngs Moduli (GPa) = 68.40318 81.06756 85.61162
#
# Poissons Ratio (x) = 0.43893 0.17991
# Poissons Ratio (y) = 0.37036 0.10755
# Poissons Ratio (z) = 0.14374 0.10184
#
# Static dielectric constant tensor:
#      x y z
#    x 1.712130 0.000000 0.000000 
#    y 0.000000 1.720110 0.000000 
#    z 0.000000 0.000000 1.809410 
# 
# From -- ./inp_files/18497.got.cif
#   From: 2010.05.17/outbox.cif.g08.bks.cpg/sg53_10_cif.got.tgz:18497.got - 2010.06.03 12:45:16.
