data_PCOD9416349
_publ_section_title
;
Structure prediction by ZEFSAII (Michael W. Deem and Ramdas Pophale) SiO2 
 PCOD9416349
Probable space group: P M N A
;
_chemical_formula_sum "Si O2"
_cell_formula_units_Z 34
_cell_length_a 10.325110
_cell_length_b 12.382724
_cell_length_c 12.109166
_cell_angle_alpha 90.000000
_cell_angle_beta 90.000000
_cell_angle_gamma 90.000000
_cell_volume 1548.193048
_symmetry_space_group_name_H-M "P M N A"
_symmetry_group_IT_number 53
_symmetry_cell_setting 'orthorhombic'
loop_
_space_group_symop_operation_xyz
x,y,z
1/2-x,-y,1/2+z
x,-y,-z
1/2-x,y,1/2-z
-x,-y,-z
1/2+x,y,1/2-z
-x,y,z
1/2+x,-y,1/2+z
loop_
_atom_site_type_symbol
_atom_site_label
_atom_site_fract_x
_atom_site_fract_y
_atom_site_fract_z
Si Si1 0.350745 0.344925 0.407425
Si Si2 0.356722 0.912763 0.163935
Si Si3 0.851228 0.409162 0.839496
Si Si4 0.240818 0.129134 0.424212
Si Si5 0.000000 0.000000 0.000000
O O1 0.500000 0.322192 0.377830
O O2 0.343703 0.352888 0.541273
O O3 0.321920 0.464139 0.362668
O O4 0.258089 0.247400 0.375626
O O5 0.250000 0.876051 0.250000
O O6 0.500000 0.889731 0.205935
O O7 0.331131 0.865969 0.042693
O O8 0.336366 0.041595 0.147415
O O9 0.750000 0.368854 0.750000
O O10 0.000000 0.399860 0.800921
O O11 0.383272 0.078573 0.449235
#
# Coordination Sequence:
#
# PCOD9416349 Si02
#       5
#     8   8   8   8   2
#     4   9  18  34  58  81 107 147 183 220 275 337
#     4  10  23  37  55  78 112 147 183 230 275 323
#     4   9  19  37  56  80 112 141 181 231 274 324
#     4  10  19  35  56  79 113 140 188 221 279 318
#     4   8  16  28  54  78 104 138 170 224 260 318
#
# _framework density 21.961088
#
# number of rings (size 3 to 8) (size 9 to 14) (size 15 to 20)
#    0.000    2.824    1.176    2.824    6.588    1.882 
#    0.000   11.765    0.000    0.000    0.000    0.000 
#    0.000    0.000    0.000    0.000    0.000    0.000 
#
# Total GULP energy -189465.852802 kJ/mol
# GULP energy per Si atom -5572.525082 kJ/mol
# Density = 2.191110 g / cm^3
# Si number density = 21.961088 Si / 1000 Ang^3
#
#
#
# Elastic Constant Matrix: (Units=GPa)
#
#
# Indices 1 2 3 4 5 6 
#
# 1 139.9737 6.4123 40.4500 0.0000 0.0000 0.0000
# 2 6.4123 99.3511 -5.5771 0.0000 0.0000 0.0000
# 3 40.4500 -5.5771 81.8642 0.0000 0.0000 0.0000
# 4 0.0000 0.0000 0.0000 -11.6645 0.0000 0.0000
# 5 0.0000 0.0000 0.0000 0.0000 21.1280 0.0000
# 6 0.0000 0.0000 0.0000 0.0000 0.0000 15.1485
#
#
#
# Elastic Compliance Matrix: (Units=1/GPa)
#
#
# Indices 1 2 3 4 5 6 
#
# 1 0.008394 -0.000778 -0.004200 0.000000 0.000000 0.000000
# 2 -0.000778 0.010176 0.001077 0.000000 0.000000 0.000000
# 3 -0.004200 0.001077 0.014364 0.000000 0.000000 0.000000
# 4 0.000000 0.000000 0.000000 -0.085730 0.000000 0.000000
# 5 0.000000 0.000000 0.000000 0.000000 0.047331 0.000000
# 6 0.000000 0.000000 0.000000 0.000000 0.000000 0.066013
#
#
# Mechanical properties :
#
#
# Convention : Reuss Voigt Hill
#
# Bulk Modulus (GPa) = 39.78846 44.86215 42.32531
# Shear Modulus (GPa) = 65.16680 23.58265 44.37472
#
# Velocity S-wave (km/s) = 5.45327 3.28050 4.49999
# Velocity P-wave (km/s) = 7.60315 5.90096 6.80548
#
# Compressibility (1/GPa) = 0.02513291
#
# Stress axis : x y z
#
# Youngs Moduli (GPa) = 119.13768 98.27065 69.61754
#
# Poissons Ratio (x) = 0.07641 0.29242
# Poissons Ratio (y) = 0.09263 -0.07501
# Poissons Ratio (z) = 0.50042 -0.10588
#
# Static dielectric constant tensor:
#      x y z
#    x 1.767370 0.000000 0.000000 
#    y 0.000000 1.844340 0.000000 
#    z 0.000000 0.000000 1.853780 
# 
# From -- ./inp_files/14682.got.cif
#   From: 2010.05.17/outbox.cif.g08.bks.cpg/sg53_8_cif.got.tgz:14682.got - 2010.06.03 12:45:16.
