data_PCOD9416202
_publ_section_title
;
Structure prediction by ZEFSAII (Michael W. Deem and Ramdas Pophale) SiO2 
 PCOD9416202
Probable space group: P M N A
;
_chemical_formula_sum "Si O2"
_cell_formula_units_Z 48
_cell_length_a 14.266689
_cell_length_b 16.632314
_cell_length_c 8.203619
_cell_angle_alpha 90.000000
_cell_angle_beta 90.000000
_cell_angle_gamma 90.000000
_cell_volume 1946.620765
_symmetry_space_group_name_H-M "P M N A"
_symmetry_group_IT_number 53
_symmetry_cell_setting 'orthorhombic'
loop_
_space_group_symop_operation_xyz
x,y,z
1/2-x,-y,1/2+z
x,-y,-z
1/2-x,y,1/2-z
-x,-y,-z
1/2+x,y,1/2-z
-x,y,z
1/2+x,-y,1/2+z
loop_
_atom_site_type_symbol
_atom_site_label
_atom_site_fract_x
_atom_site_fract_y
_atom_site_fract_z
Si Si1 0.113863 0.491428 0.182585
Si Si2 0.363023 0.809203 0.256703
Si Si3 0.386880 0.690567 0.780226
Si Si4 0.649514 0.851530 0.604158
Si Si5 0.137830 0.909661 0.555477
Si Si6 0.108123 0.644910 0.372874
O O1 0.132748 0.400454 0.229852
O O2 0.147296 0.561475 0.304670
O O3 0.000000 0.500806 0.178768
O O4 0.149749 0.500000 0.000000
O O5 0.250000 0.812978 0.250000
O O6 0.394315 0.850269 0.424639
O O7 0.389484 0.715208 0.260282
O O8 0.396497 0.852129 0.090840
O O9 0.500000 0.704246 0.774136
O O10 0.344137 0.759245 0.667136
O O11 0.351397 0.688109 0.967099
O O12 0.602876 0.893296 0.761163
O O13 0.751108 0.891351 0.575610
O O14 0.122104 0.000000 0.500000
O O15 0.000000 0.627308 0.417831
#
# Coordination Sequence:
#
# PCOD9416202 Si02
#       6
#     8   8   8   8   8   8
#     4   9  17  29  51  81 112 152 203 243 272 330
#     4  10  21  36  57  85 117 148 193 242 296 346
#     4  10  19  34  56  85 119 155 193 237 290 342
#     4  10  21  34  59  85 112 146 183 237 284 345
#     4  10  22  38  59  86 109 141 191 241 291 348
#     4  10  19  34  56  83 118 158 201 243 285 339
#
# _framework density 24.658114000000001
#
# number of rings (size 3 to 8) (size 9 to 14) (size 15 to 20)
#    0.000    2.167    1.667    1.500    7.000    4.000 
#    0.000    0.000    3.667    2.500    0.000    0.000 
#    0.000    0.000    0.000    0.000    0.000    0.000 
#
# Total GULP energy -268228.985163 kJ/mol
# GULP energy per Si atom -5588.103858 kJ/mol
# Density = 2.460199 g / cm^3
# Si number density = 24.658114 Si / 1000 Ang^3
#
#
#
# Elastic Constant Matrix: (Units=GPa)
#
#
# Indices 1 2 3 4 5 6 
#
# 1 102.5414 -0.5044 3.9265 0.0000 0.0000 0.0000
# 2 -0.5044 164.1195 54.2155 0.0000 0.0000 0.0000
# 3 3.9265 54.2155 167.1090 0.0000 0.0000 0.0000
# 4 0.0000 0.0000 0.0000 28.7680 0.0000 0.0000
# 5 0.0000 0.0000 0.0000 0.0000 -2.5763 0.0000
# 6 0.0000 0.0000 0.0000 0.0000 0.0000 18.4062
#
#
#
# Elastic Compliance Matrix: (Units=1/GPa)
#
#
# Indices 1 2 3 4 5 6 
#
# 1 0.009763 0.000118 -0.000268 0.000000 0.000000 0.000000
# 2 0.000118 0.006826 -0.002217 0.000000 0.000000 0.000000
# 3 -0.000268 -0.002217 0.006710 0.000000 0.000000 0.000000
# 4 0.000000 0.000000 0.000000 0.034761 0.000000 0.000000
# 5 0.000000 0.000000 0.000000 0.000000 -0.388149 0.000000
# 6 0.000000 0.000000 0.000000 0.000000 0.000000 0.054330
#
#
# Mechanical properties :
#
#
# Convention : Reuss Voigt Hill
#
# Bulk Modulus (GPa) = 53.86376 61.00501 57.43439
# Shear Modulus (GPa) = -18.87947 33.99505 7.55779
#
# Velocity S-wave (km/s) = -2.77004 3.71705 1.75262
# Velocity P-wave (km/s) = 3.41480 6.57389 5.23817
#
# Compressibility (1/GPa) = 0.01856536
#
# Stress axis : x y z
#
# Youngs Moduli (GPa) = 102.42751 146.49938 149.03592
#
# Poissons Ratio (x) = -0.01736 0.03992
# Poissons Ratio (y) = -0.01214 0.33046
# Poissons Ratio (z) = 0.02743 0.32484
#
# Static dielectric constant tensor:
#      x y z
#    x 1.993560 0.000000 0.000000 
#    y 0.000000 1.923120 0.000000 
#    z 0.000000 0.000000 1.997300 
# 
# From -- ./inp_files/9967.got.cif
#   From: 2010.05.17/outbox.cif.g08.bks.cpg/sg53_5_cif.got.tgz:9967.got - 2010.06.03 12:45:16.
