data_PCOD9416909
_publ_section_title
;
Structure prediction by ZEFSAII (Michael W. Deem and Ramdas Pophale) SiO2 
 PCOD9416909
Probable space group: P M N A
;
_chemical_formula_sum "Si O2"
_cell_formula_units_Z 64
_cell_length_a 7.567590
_cell_length_b 15.480490
_cell_length_c 23.575185
_cell_angle_alpha 90.000000
_cell_angle_beta 90.000000
_cell_angle_gamma 90.000000
_cell_volume 2761.832954
_symmetry_space_group_name_H-M "P M N A"
_symmetry_group_IT_number 53
_symmetry_cell_setting 'orthorhombic'
loop_
_space_group_symop_operation_xyz
x,y,z
1/2-x,-y,1/2+z
x,-y,-z
1/2-x,y,1/2-z
-x,-y,-z
1/2+x,y,1/2-z
-x,y,z
1/2+x,-y,1/2+z
loop_
_atom_site_type_symbol
_atom_site_label
_atom_site_fract_x
_atom_site_fract_y
_atom_site_fract_z
Si Si1 0.794023 0.260332 0.922491
Si Si2 0.715514 0.558493 0.446338
Si Si3 0.711172 0.312046 0.312519
Si Si4 0.710976 0.004565 0.313715
Si Si5 0.212392 0.509456 0.184489
Si Si6 0.212115 0.809275 0.187287
Si Si7 0.783942 0.159859 0.107694
Si Si8 0.201018 0.905316 0.487633
O O1 0.726891 0.341753 0.957550
O O2 0.714801 0.253959 0.859958
O O3 0.784103 0.162311 0.944565
O O4 0.000000 0.280444 0.917147
O O5 0.776805 0.500000 0.500000
O O6 0.500000 0.548749 0.446902
O O7 0.768185 0.541679 0.379535
O O8 0.750000 0.276036 0.250000
O O9 0.500000 0.317358 0.318884
O O10 0.778910 0.409765 0.314820
O O11 0.774359 0.245834 0.360032
O O12 0.750000 0.033662 0.250000
O O13 0.500000 0.000037 0.320625
O O14 0.774842 0.075347 0.357538
O O15 0.781950 0.907300 0.319491
O O16 0.250000 0.543251 0.250000
O O17 0.000000 0.512656 0.181917
O O18 0.250000 0.779180 0.250000
O O19 0.000000 0.813853 0.181434
O O20 0.000000 0.160236 0.104485
O O21 0.709788 0.147623 0.045664
O O22 0.000000 0.920484 0.468958
O O23 0.281946 0.000000 0.500000
#
# Coordination Sequence:
#
# PCOD9416909 Si02
#       8
#     8   8   8   8   8   8   8   8
#     4  10  21  38  61  85 110 145 192 237 279 335
#     4   9  19  35  60  89 116 150 196 247 292 340
#     4   9  18  31  51  80 113 148 187 232 282 338
#     4   9  17  29  46  71 104 138 177 224 273 326
#     4   9  18  34  56  84 118 154 194 238 290 348
#     4   9  18  32  51  77 106 138 175 219 271 327
#     4  10  20  33  53  78 104 143 192 237 279 332
#     4  11  25  41  56  79 112 149 188 234 291 348
#
# _framework density 23.173017000000002
#
# number of rings (size 3 to 8) (size 9 to 14) (size 15 to 20)
#    0.000    2.500    0.000    1.500    1.750    4.000 
#    0.000    3.125    0.000    0.750    0.000    0.000 
#    0.000    0.000    0.000    0.000    0.000    0.000 
#
# Total GULP energy -356749.810972 kJ/mol
# GULP energy per Si atom -5574.215796 kJ/mol
# Density = 2.312027 g / cm^3
# Si number density = 23.173017 Si / 1000 Ang^3
#
#
#
# Elastic Constant Matrix: (Units=GPa)
#
#
# Indices 1 2 3 4 5 6 
#
# 1 51.0847 2.6303 -3.2949 0.0000 0.0000 0.0000
# 2 2.6303 94.4493 47.3936 0.0000 0.0000 0.0000
# 3 -3.2949 47.3936 127.9806 0.0000 0.0000 0.0000
# 4 0.0000 0.0000 0.0000 34.6560 0.0000 0.0000
# 5 0.0000 0.0000 0.0000 0.0000 19.9507 0.0000
# 6 0.0000 0.0000 0.0000 0.0000 0.0000 5.5337
#
#
#
# Elastic Compliance Matrix: (Units=1/GPa)
#
#
# Indices 1 2 3 4 5 6 
#
# 1 0.019682 -0.000986 0.000872 0.000000 0.000000 0.000000
# 2 -0.000986 0.013053 -0.004859 0.000000 0.000000 0.000000
# 3 0.000872 -0.004859 0.009636 0.000000 0.000000 0.000000
# 4 0.000000 0.000000 0.000000 0.028855 0.000000 0.000000
# 5 0.000000 0.000000 0.000000 0.000000 0.050124 0.000000
# 6 0.000000 0.000000 0.000000 0.000000 0.000000 0.180712
#
#
# Mechanical properties :
#
#
# Convention : Reuss Voigt Hill
#
# Bulk Modulus (GPa) = 30.84033 40.77474 35.80753
# Shear Modulus (GPa) = 15.48864 27.14710 21.31787
#
# Velocity S-wave (km/s) = 2.58813 3.42643 3.03635
# Velocity P-wave (km/s) = 4.71899 5.76956 5.27052
#
# Compressibility (1/GPa) = 0.03242508
#
# Stress axis : x y z
#
# Youngs Moduli (GPa) = 50.80708 76.60781 103.78154
#
# Poissons Ratio (x) = 0.07550 -0.09046
# Poissons Ratio (y) = 0.05007 0.50431
# Poissons Ratio (z) = -0.04429 0.37226
#
# Static dielectric constant tensor:
#      x y z
#    x 1.725530 0.000000 0.000000 
#    y 0.000000 1.900300 0.000000 
#    z 0.000000 0.000000 1.949320 
# 
# From -- ./inp_files/34333.got.cif
#   From: 2010.05.17/outbox.cif.g08.bks.cpg/sg53_18_cif.got.tgz:34333.got - 2010.06.03 12:45:16.
