data_PCOD9416753
_publ_section_title
;
Structure prediction by ZEFSAII (Michael W. Deem and Ramdas Pophale) SiO2 
 PCOD9416753
Probable space group: P M N A
;
_chemical_formula_sum "Si O2"
_cell_formula_units_Z 56
_cell_length_a 14.612783
_cell_length_b 15.581001
_cell_length_c 10.437703
_cell_angle_alpha 90.000000
_cell_angle_beta 90.000000
_cell_angle_gamma 90.000000
_cell_volume 2376.474866
_symmetry_space_group_name_H-M "P M N A"
_symmetry_group_IT_number 53
_symmetry_cell_setting 'orthorhombic'
loop_
_space_group_symop_operation_xyz
x,y,z
1/2-x,-y,1/2+z
x,-y,-z
1/2-x,y,1/2-z
-x,-y,-z
1/2+x,y,1/2-z
-x,y,z
1/2+x,-y,1/2+z
loop_
_atom_site_type_symbol
_atom_site_label
_atom_site_fract_x
_atom_site_fract_y
_atom_site_fract_z
Si Si1 0.888153 0.237483 0.348143
Si Si2 0.140404 0.337157 0.728105
Si Si3 0.610722 0.218101 0.438879
Si Si4 0.105019 0.910811 0.462118
Si Si5 0.897056 0.408163 0.981316
Si Si6 0.146619 0.149747 0.799446
Si Si7 0.604862 0.591198 0.955361
O O1 0.857089 0.173756 0.463452
O O2 0.855588 0.337020 0.359310
O O3 0.000000 0.243672 0.353989
O O4 0.863235 0.201310 0.208122
O O5 0.250000 0.341128 0.750000
O O6 0.098603 0.401976 0.828497
O O7 0.107621 0.243466 0.767350
O O8 0.109067 0.356047 0.586915
O O9 0.500000 0.219672 0.445831
O O10 0.642913 0.316035 0.474204
O O11 0.640952 0.149458 0.547098
O O12 0.101823 0.909513 0.307582
O O13 0.000000 0.086692 0.491401
O O14 0.152025 0.000000 0.500000
O O15 0.000000 0.412278 0.037412
O O16 0.850502 0.500000 0.000000
O O17 0.250000 0.149124 0.750000
O O18 0.500000 0.572904 0.914851
O O19 0.645625 0.500000 0.000000
#
# Coordination Sequence:
#
# PCOD9416753 Si02
#       7
#     8   8   8   8   8   8   8
#     4   9  18  34  55  82 114 141 180 239 286 331
#     4  10  20  33  51  72 107 149 188 228 278 339
#     4   9  18  33  55  81 108 144 185 230 283 329
#     4  10  20  37  63  88 110 144 190 237 290 348
#     4   9  18  30  49  72  99 134 183 233 270 316
#     4  10  20  37  58  80 113 150 188 230 280 347
#     4  10  20  32  54  82 111 149 194 240 288 339
#
# _framework density 23.564312999999999
#
# number of rings (size 3 to 8) (size 9 to 14) (size 15 to 20)
#    0.000    2.429    1.429    0.857    2.000    1.714 
#    0.000    2.857    0.000    3.429    0.000    0.000 
#    0.000    0.000    0.000    0.000    0.000    0.000 
#
# Total GULP energy -311928.214974 kJ/mol
# GULP energy per Si atom -5570.146696 kJ/mol
# Density = 2.351068 g / cm^3
# Si number density = 23.564313 Si / 1000 Ang^3
#
#
#
# Elastic Constant Matrix: (Units=GPa)
#
#
# Indices 1 2 3 4 5 6 
#
# 1 78.4181 3.3376 3.4596 0.0000 0.0000 0.0000
# 2 3.3376 92.8086 23.9811 0.0000 0.0000 0.0000
# 3 3.4596 23.9811 120.9709 0.0000 0.0000 0.0000
# 4 0.0000 0.0000 0.0000 32.9345 0.0000 0.0000
# 5 0.0000 0.0000 0.0000 0.0000 46.2200 0.0000
# 6 0.0000 0.0000 0.0000 0.0000 0.0000 -1.4106
#
#
#
# Elastic Compliance Matrix: (Units=1/GPa)
#
#
# Indices 1 2 3 4 5 6 
#
# 1 0.012781 -0.000385 -0.000289 0.000000 0.000000 0.000000
# 2 -0.000385 0.011368 -0.002243 0.000000 0.000000 0.000000
# 3 -0.000289 -0.002243 0.008719 0.000000 0.000000 0.000000
# 4 0.000000 0.000000 0.000000 0.030363 0.000000 0.000000
# 5 0.000000 0.000000 0.000000 0.000000 0.021636 0.000000
# 6 0.000000 0.000000 0.000000 0.000000 0.000000 -0.708926
#
#
# Mechanical properties :
#
#
# Convention : Reuss Voigt Hill
#
# Bulk Modulus (GPa) = 36.98868 39.30601 38.14734
# Shear Modulus (GPa) = -8.20731 32.97674 12.38471
#
# Velocity S-wave (km/s) = -1.86829 3.74496 2.29502
# Velocity P-wave (km/s) = 3.32821 5.95115 4.82147
#
# Compressibility (1/GPa) = 0.02703530
#
# Stress axis : x y z
#
# Youngs Moduli (GPa) = 78.23932 87.96488 114.68818
#
# Poissons Ratio (x) = 0.03386 0.03317
# Poissons Ratio (y) = 0.03012 0.25720
# Poissons Ratio (z) = 0.02263 0.19727
#
# Static dielectric constant tensor:
#      x y z
#    x 1.989320 0.000000 0.000000 
#    y 0.000000 1.932530 0.000000 
#    z 0.000000 0.000000 2.104250 
# 
# From -- ./inp_files/11037.got.cif
#   From: 2010.05.17/outbox.cif.g08.bks.cpg/sg53_6_cif.got.tgz:11037.got - 2010.06.03 12:45:16.
