data_PCOD9416684
_publ_section_title
;
Structure prediction by ZEFSAII (Michael W. Deem and Ramdas Pophale) SiO2 
 PCOD9416684
Probable space group: P M N A
;
_chemical_formula_sum "Si O2"
_cell_formula_units_Z 48
_cell_length_a 14.087159
_cell_length_b 12.217382
_cell_length_c 11.882755
_cell_angle_alpha 90.000000
_cell_angle_beta 90.000000
_cell_angle_gamma 90.000000
_cell_volume 2045.119607
_symmetry_space_group_name_H-M "P M N A"
_symmetry_group_IT_number 53
_symmetry_cell_setting 'orthorhombic'
loop_
_space_group_symop_operation_xyz
x,y,z
1/2-x,-y,1/2+z
x,-y,-z
1/2-x,y,1/2-z
-x,-y,-z
1/2+x,y,1/2-z
-x,y,z
1/2+x,-y,1/2+z
loop_
_atom_site_type_symbol
_atom_site_label
_atom_site_fract_x
_atom_site_fract_y
_atom_site_fract_z
Si Si1 0.604168 0.653824 0.967892
Si Si2 0.110367 0.928454 0.862872
Si Si3 0.186211 0.848594 0.100205
Si Si4 0.109730 0.293638 0.219725
Si Si5 0.189625 0.377923 0.991687
Si Si6 0.104768 0.888082 0.430827
O O1 0.500000 0.614760 0.004771
O O2 0.617354 0.640194 0.834546
O O3 0.697344 0.612652 0.031087
O O4 0.601421 0.784123 0.986380
O O5 0.127293 0.837220 0.767683
O O6 0.000000 0.920352 0.895761
O O7 0.130756 0.054368 0.837079
O O8 0.171545 0.888280 0.969764
O O9 0.296582 0.861660 0.131394
O O10 0.155972 0.720365 0.092259
O O11 0.174336 0.333548 0.118166
O O12 0.000000 0.304702 0.182199
O O13 0.147539 0.500000 0.000000
O O14 0.000000 0.891471 0.374346
O O15 0.114668 0.000000 0.500000
#
# Coordination Sequence:
#
# PCOD9416684 Si02
#       6
#     8   8   8   8   8   8
#     4   9  18  32  50  73  96 125 162 205 253 296
#     4   9  15  25  44  68  93 119 147 188 238 292
#     4   9  15  26  41  63  94 121 152 188 233 285
#     4   9  18  32  50  74  98 122 162 208 255 302
#     4  10  20  31  46  72  99 132 170 211 245 289
#     4   9  15  24  41  67  95 119 143 180 233 288
#
# _framework density 23.470510999999998
#
# number of rings (size 3 to 8) (size 9 to 14) (size 15 to 20)
#    0.000    2.833    1.667    1.500    0.000    1.333 
#    0.000    0.000    0.000    0.000   17.333    0.000 
#    0.000    0.000    0.000    0.000    0.000    0.000 
#
# Total GULP energy -267304.033258 kJ/mol
# GULP energy per Si atom -5568.834026 kJ/mol
# Density = 2.341709 g / cm^3
# Si number density = 23.470511 Si / 1000 Ang^3
#
#
#
# Elastic Constant Matrix: (Units=GPa)
#
#
# Indices 1 2 3 4 5 6 
#
# 1 94.5629 -6.7449 -0.6223 0.0000 0.0000 0.0000
# 2 -6.7449 169.5453 -5.8039 0.0000 0.0000 0.0000
# 3 -0.6223 -5.8039 20.4962 0.0000 0.0000 0.0000
# 4 0.0000 0.0000 0.0000 3.4006 0.0000 0.0000
# 5 0.0000 0.0000 0.0000 0.0000 0.2034 0.0000
# 6 0.0000 0.0000 0.0000 0.0000 0.0000 -194.7962
#
#
#
# Elastic Compliance Matrix: (Units=1/GPa)
#
#
# Indices 1 2 3 4 5 6 
#
# 1 0.010609 0.000437 0.000446 0.000000 0.000000 0.000000
# 2 0.000437 0.005974 0.001705 0.000000 0.000000 0.000000
# 3 0.000446 0.001705 0.049286 0.000000 0.000000 0.000000
# 4 0.000000 0.000000 0.000000 0.294068 0.000000 0.000000
# 5 0.000000 0.000000 0.000000 0.000000 4.917465 0.000000
# 6 0.000000 0.000000 0.000000 0.000000 0.000000 -0.005134
#
#
# Mechanical properties :
#
#
# Convention : Reuss Voigt Hill
#
# Bulk Modulus (GPa) = 14.07555 28.69578 21.38566
# Shear Modulus (GPa) = 0.94504 -18.38674 -8.72085
#
# Velocity S-wave (km/s) = 0.63524 -2.80196 -1.92970
# Velocity P-wave (km/s) = 2.55894 1.33599 2.04121
#
# Compressibility (1/GPa) = 0.07104519
#
# Stress axis : x y z
#
# Youngs Moduli (GPa) = 94.25869 167.39512 20.28981
#
# Poissons Ratio (x) = -0.07321 -0.00905
# Poissons Ratio (y) = -0.04122 -0.03459
# Poissons Ratio (z) = -0.04204 -0.28539
#
# Static dielectric constant tensor:
#      x y z
#    x 1.915740 0.000000 0.000000 
#    y 0.000000 1.931790 0.000000 
#    z 0.000000 0.000000 1.897530 
# 
# From -- ./inp_files/22693.got.cif
#   From: 2010.05.17/outbox.cif.g08.bks.cpg/sg53_12_cif.got.tgz:22693.got - 2010.06.03 12:45:16.
