data_PCOD9416380
_publ_section_title
;
Structure prediction by ZEFSAII (Michael W. Deem and Ramdas Pophale) SiO2 
 PCOD9416380
Probable space group: P M N A
;
_chemical_formula_sum "Si O2"
_cell_formula_units_Z 48
_cell_length_a 8.563794
_cell_length_b 17.013680
_cell_length_c 18.463078
_cell_angle_alpha 90.000000
_cell_angle_beta 90.000000
_cell_angle_gamma 90.000000
_cell_volume 2690.100942
_symmetry_space_group_name_H-M "P M N A"
_symmetry_group_IT_number 53
_symmetry_cell_setting 'orthorhombic'
loop_
_space_group_symop_operation_xyz
x,y,z
1/2-x,-y,1/2+z
x,-y,-z
1/2-x,y,1/2-z
-x,-y,-z
1/2+x,y,1/2-z
-x,y,z
1/2+x,-y,1/2+z
loop_
_atom_site_type_symbol
_atom_site_label
_atom_site_fract_x
_atom_site_fract_y
_atom_site_fract_z
Si Si1 0.189021 0.757741 0.546832
Si Si2 0.186096 0.165513 0.828114
Si Si3 0.687206 0.507593 0.415476
Si Si4 0.689439 0.085338 0.971931
Si Si5 0.687411 0.322722 0.895894
Si Si6 0.812564 0.356667 0.330835
O O1 0.240150 0.845730 0.527388
O O2 0.231211 0.704036 0.477705
O O3 0.244116 0.716374 0.619751
O O4 0.000000 0.759256 0.549351
O O5 0.250000 0.140645 0.750000
O O6 0.247508 0.110799 0.893466
O O7 0.247239 0.253732 0.845263
O O8 0.000000 0.165639 0.827954
O O9 0.736300 0.500000 0.500000
O O10 0.500000 0.504656 0.412817
O O11 0.745368 0.590843 0.384586
O O12 0.756471 0.435779 0.370267
O O13 0.500000 0.086581 0.967928
O O14 0.738335 0.000000 0.000000
O O15 0.500000 0.323787 0.890363
O O16 0.750000 0.352559 0.250000
O O17 0.000000 0.356324 0.329728
#
# Coordination Sequence:
#
# PCOD9416380 Si02
#       6
#     8   8   8   8   8   8
#     4   8  16  32  55  79 105 141 181 220 270 329
#     4  11  22  37  57  84 118 151 187 233 288 338
#     4  11  22  35  54  82 113 145 188 234 281 332
#     4   9  18  36  62  89 115 148 188 228 277 341
#     4  10  19  35  58  82 107 144 189 227 278 337
#     4  11  22  37  54  76 108 147 190 233 281 327
#
# _framework density 17.843197
#
# number of rings (size 3 to 8) (size 9 to 14) (size 15 to 20)
#    0.000    2.000    1.667    4.000    0.000    1.667 
#    0.000    5.000    0.000    2.000    0.000    0.000 
#    0.000    0.000    0.000    0.000    0.000    0.000 
#
# Total GULP energy -267947.656187 kJ/mol
# GULP energy per Si atom -5582.242837 kJ/mol
# Density = 1.780259 g / cm^3
# Si number density = 17.843197 Si / 1000 Ang^3
#
#
#
# Elastic Constant Matrix: (Units=GPa)
#
#
# Indices 1 2 3 4 5 6 
#
# 1 59.8494 35.2230 37.7678 0.0000 0.0000 0.0000
# 2 35.2230 159.0088 88.8088 0.0000 0.0000 0.0000
# 3 37.7678 88.8088 144.2124 0.0000 0.0000 0.0000
# 4 0.0000 0.0000 0.0000 19.0350 0.0000 0.0000
# 5 0.0000 0.0000 0.0000 0.0000 22.3147 0.0000
# 6 0.0000 0.0000 0.0000 0.0000 0.0000 17.6059
#
#
#
# Elastic Compliance Matrix: (Units=1/GPa)
#
#
# Indices 1 2 3 4 5 6 
#
# 1 0.020582 -0.002361 -0.003936 0.000000 0.000000 0.000000
# 2 -0.002361 0.009857 -0.005452 0.000000 0.000000 0.000000
# 3 -0.003936 -0.005452 0.011322 0.000000 0.000000 0.000000
# 4 0.000000 0.000000 0.000000 0.052535 0.000000 0.000000
# 5 0.000000 0.000000 0.000000 0.000000 0.044813 0.000000
# 6 0.000000 0.000000 0.000000 0.000000 0.000000 0.056799
#
#
# Mechanical properties :
#
#
# Convention : Reuss Voigt Hill
#
# Bulk Modulus (GPa) = 54.75422 76.29666 65.52544
# Shear Modulus (GPa) = 22.17350 25.20918 23.69134
#
# Velocity S-wave (km/s) = 3.52900 3.76282 3.64779
# Velocity P-wave (km/s) = 6.88172 7.85690 7.38542
#
# Compressibility (1/GPa) = 0.01826343
#
# Stress axis : x y z
#
# Youngs Moduli (GPa) = 48.58602 101.45302 88.32009
#
# Poissons Ratio (x) = 0.23950 0.34767
# Poissons Ratio (y) = 0.11470 0.48150
# Poissons Ratio (z) = 0.19126 0.55310
#
# Static dielectric constant tensor:
#      x y z
#    x 1.597020 0.000000 0.000000 
#    y 0.000000 1.598440 0.000000 
#    z 0.000000 0.000000 1.601200 
# 
# From -- ./inp_files/20125.got.cif
#   From: 2010.05.17/outbox.cif.g08.bks.cpg/sg53_11_cif.got.tgz:20125.got - 2010.06.03 12:45:16.
