data_PCOD9416604
_publ_section_title
;
Structure prediction by ZEFSAII (Michael W. Deem and Ramdas Pophale) SiO2 
 PCOD9416604
Probable space group: P M N A
;
_chemical_formula_sum "Si O2"
_cell_formula_units_Z 64
_cell_length_a 11.942041
_cell_length_b 12.992824
_cell_length_c 18.037374
_cell_angle_alpha 90.000000
_cell_angle_beta 90.000000
_cell_angle_gamma 90.000000
_cell_volume 2798.694046
_symmetry_space_group_name_H-M "P M N A"
_symmetry_group_IT_number 53
_symmetry_cell_setting 'orthorhombic'
loop_
_space_group_symop_operation_xyz
x,y,z
1/2-x,-y,1/2+z
x,-y,-z
1/2-x,y,1/2-z
-x,-y,-z
1/2+x,y,1/2-z
-x,y,z
1/2+x,-y,1/2+z
loop_
_atom_site_type_symbol
_atom_site_label
_atom_site_fract_x
_atom_site_fract_y
_atom_site_fract_z
Si Si1 0.375324 0.879845 0.290082
Si Si2 0.117740 0.178596 0.404173
Si Si3 0.872878 0.607263 0.957174
Si Si4 0.806052 0.368620 0.324978
Si Si5 0.219530 0.004997 0.914546
Si Si6 0.829704 0.678842 0.114618
Si Si7 0.873532 0.207768 0.575976
Si Si8 0.875948 0.418535 0.750477
O O1 0.250000 0.883512 0.250000
O O2 0.500000 0.887050 0.252952
O O3 0.368934 0.968197 0.352075
O O4 0.375231 0.773481 0.336691
O O5 0.117479 0.276645 0.352193
O O6 0.124711 0.220197 0.487801
O O7 0.000000 0.119800 0.397789
O O8 0.217931 0.099781 0.394053
O O9 0.782589 0.620719 0.892441
O O10 0.000000 0.613289 0.929029
O O11 0.852479 0.500000 0.000000
O O12 0.863770 0.684138 0.028426
O O13 0.750000 0.330078 0.250000
O O14 0.640142 0.476709 0.203082
O O15 0.308376 0.100465 0.911572
O O16 0.180485 0.000000 0.000000
O O17 0.695787 0.698273 0.110821
O O18 0.875994 0.579297 0.158461
O O19 0.000000 0.204048 0.602056
O O20 0.750000 0.368674 0.750000
O O21 0.000000 0.378039 0.730622
#
# Coordination Sequence:
#
# PCOD9416604 Si02
#       8
#     8   8   8   8   8   8   8   8
#     4  11  25  43  68 103 145 183 226 286 350 417
#     4  10  19  37  63  90 133 178 219 274 338 410
#     4  11  23  41  65  90 121 169 231 290 342 405
#     4  11  24  40  60  92 130 172 223 279 343 414
#     4   9  20  39  66 100 134 179 231 280 342 410
#     4  11  22  42  68  98 130 173 231 289 347 406
#     4   9  18  35  64 100 133 168 221 280 342 409
#     4  11  24  42  66  93 128 173 220 273 338 406
#
# _framework density 22.867809000000001
#
# number of rings (size 3 to 8) (size 9 to 14) (size 15 to 20)
#    0.000    1.625    1.250    3.750    0.000    9.750 
#    0.000    0.625    0.000    1.875    0.000    0.000 
#    0.000    0.000    0.000    0.000    0.000    0.000 
#
# Total GULP energy -356397.964842 kJ/mol
# GULP energy per Si atom -5568.718201 kJ/mol
# Density = 2.281576 g / cm^3
# Si number density = 22.867809 Si / 1000 Ang^3
#
#
#
# Elastic Constant Matrix: (Units=GPa)
#
#
# Indices 1 2 3 4 5 6 
#
# 1 172.0414 25.1943 58.0985 0.0000 0.0000 0.0000
# 2 25.1943 66.8267 43.2173 0.0000 0.0000 0.0000
# 3 58.0985 43.2173 130.1481 0.0000 0.0000 0.0000
# 4 0.0000 0.0000 0.0000 43.4115 0.0000 0.0000
# 5 0.0000 0.0000 0.0000 0.0000 14.1203 0.0000
# 6 0.0000 0.0000 0.0000 0.0000 0.0000 -119.9412
#
#
#
# Elastic Compliance Matrix: (Units=1/GPa)
#
#
# Indices 1 2 3 4 5 6 
#
# 1 0.006876 -0.000773 -0.002813 0.000000 0.000000 0.000000
# 2 -0.000773 0.019143 -0.006012 0.000000 0.000000 0.000000
# 3 -0.002813 -0.006012 0.010935 0.000000 0.000000 0.000000
# 4 0.000000 0.000000 0.000000 0.023035 0.000000 0.000000
# 5 0.000000 0.000000 0.000000 0.000000 0.070820 0.000000
# 6 0.000000 0.000000 0.000000 0.000000 0.000000 -0.008337
#
#
# Mechanical properties :
#
#
# Convention : Reuss Voigt Hill
#
# Bulk Modulus (GPa) = 56.30801 69.11515 62.71158
# Shear Modulus (GPa) = 33.87834 3.68518 18.78176
#
# Velocity S-wave (km/s) = 3.85318 1.27083 2.86898
# Velocity P-wave (km/s) = 6.66879 5.69585 6.20143
#
# Compressibility (1/GPa) = 0.01775946
#
# Stress axis : x y z
#
# Youngs Moduli (GPa) = 145.44225 52.23744 91.44705
#
# Poissons Ratio (x) = 0.04039 0.25720
# Poissons Ratio (y) = 0.11247 0.54974
# Poissons Ratio (z) = 0.40906 0.31403
#
# Static dielectric constant tensor:
#      x y z
#    x 1.559940 0.000000 0.000000 
#    y 0.000000 1.897640 0.000000 
#    z 0.000000 0.000000 1.945800 
# 
# From -- ./inp_files/27698.got.cif
#   From: 2010.05.17/outbox.cif.g08.bks.cpg/sg53_14_cif.got.tgz:27698.got - 2010.06.03 12:45:16.
