data_PCOD9416485
_publ_section_title
;
Structure prediction by ZEFSAII (Michael W. Deem and Ramdas Pophale) SiO2 
 PCOD9416485
Probable space group: P M N A
;
_chemical_formula_sum "Si O2"
_cell_formula_units_Z 64
_cell_length_a 7.513915
_cell_length_b 12.362787
_cell_length_c 31.582440
_cell_angle_alpha 90.000000
_cell_angle_beta 90.000000
_cell_angle_gamma 90.000000
_cell_volume 2933.785410
_symmetry_space_group_name_H-M "P M N A"
_symmetry_group_IT_number 53
_symmetry_cell_setting 'orthorhombic'
loop_
_space_group_symop_operation_xyz
x,y,z
1/2-x,-y,1/2+z
x,-y,-z
1/2-x,y,1/2-z
-x,-y,-z
1/2+x,y,1/2-z
-x,y,z
1/2+x,-y,1/2+z
loop_
_atom_site_type_symbol
_atom_site_label
_atom_site_fract_x
_atom_site_fract_y
_atom_site_fract_z
Si Si1 0.286717 0.977133 0.796713
Si Si2 0.213090 0.496945 0.296519
Si Si3 0.282183 0.635082 0.123000
Si Si4 0.789423 0.036876 0.045255
Si Si5 0.703422 0.260286 0.187115
Si Si6 0.284810 0.479124 0.047634
Si Si7 0.715185 0.116994 0.876547
Si Si8 0.709261 0.748454 0.590398
O O1 0.250000 0.021689 0.750000
O O2 0.500000 0.970092 0.802044
O O3 0.214635 0.854173 0.799385
O O4 0.220631 0.050041 0.835521
O O5 0.250000 0.542237 0.250000
O O6 0.277549 0.570030 0.335278
O O7 0.286122 0.374192 0.298996
O O8 0.000000 0.489243 0.301932
O O9 0.500000 0.635584 0.123185
O O10 0.225666 0.569552 0.081295
O O11 0.223292 0.759179 0.123351
O O12 0.765994 0.945924 0.080903
O O13 0.000000 0.055435 0.038915
O O14 0.718311 0.149271 0.064291
O O15 0.714794 0.000000 0.000000
O O16 0.500000 0.260045 0.203048
O O17 0.702014 0.261087 0.136163
O O18 0.500000 0.481827 0.047142
O O19 0.231245 0.361886 0.064735
O O20 0.221675 0.500000 0.000000
O O21 0.500000 0.118818 0.874841
O O22 0.500000 0.766381 0.598777
#
# Coordination Sequence:
#
# PCOD9416485 Si02
#       8
#     8   8   8   8   8   8   8   8
#     4  10  21  35  55  83 113 146 187 234 283 338
#     4  10  20  35  56  80 113 148 183 230 280 334
#     4   9  19  37  57  81 114 147 182 234 284 323
#     4  10  23  41  58  82 118 154 185 228 289 342
#     4  10  19  36  58  82 113 149 186 232 286 333
#     4  10  21  38  61  86 114 150 190 231 283 339
#     4  10  21  38  60  85 111 146 195 239 276 330
#     4  11  22  36  59  87 116 149 186 233 282 335
#
# _framework density 21.814821999999999
#
# number of rings (size 3 to 8) (size 9 to 14) (size 15 to 20)
#    0.000    2.000    2.500    0.750    1.750    3.000 
#    0.000    1.250    0.000    0.000    0.000    0.000 
#    0.000    0.000    0.000    0.000    0.000    0.000 
#
# Total GULP energy -357697.994316 kJ/mol
# GULP energy per Si atom -5589.031161 kJ/mol
# Density = 2.176517 g / cm^3
# Si number density = 21.814822 Si / 1000 Ang^3
#
#
#
# Elastic Constant Matrix: (Units=GPa)
#
#
# Indices 1 2 3 4 5 6 
#
# 1 56.3310 -9.0126 -14.4109 0.0000 0.0000 0.0000
# 2 -9.0126 143.6804 71.0868 0.0000 0.0000 0.0000
# 3 -14.4109 71.0868 184.5573 0.0000 0.0000 0.0000
# 4 0.0000 0.0000 0.0000 48.1422 0.0000 0.0000
# 5 0.0000 0.0000 0.0000 0.0000 15.3097 0.0000
# 6 0.0000 0.0000 0.0000 0.0000 0.0000 -14.1983
#
#
#
# Elastic Compliance Matrix: (Units=1/GPa)
#
#
# Indices 1 2 3 4 5 6 
#
# 1 0.018148 0.000540 0.001209 0.000000 0.000000 0.000000
# 2 0.000540 0.008615 -0.003276 0.000000 0.000000 0.000000
# 3 0.001209 -0.003276 0.006775 0.000000 0.000000 0.000000
# 4 0.000000 0.000000 0.000000 0.020772 0.000000 0.000000
# 5 0.000000 0.000000 0.000000 0.000000 0.065318 0.000000
# 6 0.000000 0.000000 0.000000 0.000000 0.000000 -0.070431
#
#
# Mechanical properties :
#
#
# Convention : Reuss Voigt Hill
#
# Bulk Modulus (GPa) = 32.80453 53.32171 43.06312
# Shear Modulus (GPa) = 80.11433 32.31107 56.21270
#
# Velocity S-wave (km/s) = 6.06667 3.85275 5.08174
# Velocity P-wave (km/s) = 8.00893 6.65489 7.36310
#
# Compressibility (1/GPa) = 0.03048360
#
# Stress axis : x y z
#
# Youngs Moduli (GPa) = 55.10268 116.08247 147.61065
#
# Poissons Ratio (x) = -0.06271 -0.17846
# Poissons Ratio (y) = -0.02977 0.48356
# Poissons Ratio (z) = -0.06662 0.38028
#
# Static dielectric constant tensor:
#      x y z
#    x 1.822290 0.000000 0.000000 
#    y 0.000000 1.770280 0.000000 
#    z 0.000000 0.000000 1.762300 
# 
# From -- ./inp_files/38217.got.cif
#   From: 2010.05.17/outbox.cif.g08.bks.cpg/sg53_20_cif.got.tgz:38217.got - 2010.06.03 12:45:16.
