data_PCOD9416282
_publ_section_title
;
Structure prediction by ZEFSAII (Michael W. Deem and Ramdas Pophale) SiO2 
 PCOD9416282
Probable space group: P M N A
;
_chemical_formula_sum "Si O2"
_cell_formula_units_Z 24
_cell_length_a 26.479870
_cell_length_b 7.266764
_cell_length_c 4.835155
_cell_angle_alpha 90.000000
_cell_angle_beta 90.000000
_cell_angle_gamma 90.000000
_cell_volume 930.394866
_symmetry_space_group_name_H-M "P M N A"
_symmetry_group_IT_number 53
_symmetry_cell_setting 'orthorhombic'
loop_
_space_group_symop_operation_xyz
x,y,z
1/2-x,-y,1/2+z
x,-y,-z
1/2-x,y,1/2-z
-x,-y,-z
1/2+x,y,1/2-z
-x,y,z
1/2+x,-y,1/2+z
loop_
_atom_site_type_symbol
_atom_site_label
_atom_site_fract_x
_atom_site_fract_y
_atom_site_fract_z
Si Si1 0.943484 0.202967 0.870287
Si Si2 0.285342 0.722789 0.510499
Si Si3 0.617576 0.689156 0.848401
O O1 0.904720 0.207312 0.613954
O O2 0.000000 0.245941 0.770261
O O3 0.927563 0.330050 0.129861
O O4 0.943575 0.000000 0.000000
O O5 0.288905 0.500000 0.500000
O O6 0.250000 0.773272 0.250000
O O7 0.340014 0.773443 0.642481
O O8 0.250000 0.788982 0.750000
O O9 0.636141 0.500000 0.000000
#
# Coordination Sequence:
#
# PCOD9416282 Si02
#       3
#     8   8   8
#     4  11  25  44  64  91 135 187 226 265 334 410
#     4  10  19  34  58  92 131 165 204 264 335 397
#     4  12  23  39  67 102 131 166 225 285 330 379
#
# _framework density 25.795500000000001
#
# number of rings (size 3 to 8) (size 9 to 14) (size 15 to 20)
#    0.000    1.000    0.000   10.000    0.000    6.667 
#    0.000    0.000    0.000    6.000    0.000   32.667 
#    0.000    0.000    0.000    0.000    0.000    0.000 
#
# Total GULP energy -133750.623257 kJ/mol
# GULP energy per Si atom -5572.942636 kJ/mol
# Density = 2.573679 g / cm^3
# Si number density = 25.795500 Si / 1000 Ang^3
#
#
#
# Elastic Constant Matrix: (Units=GPa)
#
#
# Indices 1 2 3 4 5 6 
#
# 1 171.2013 14.0673 102.0556 0.0000 0.0000 0.0000
# 2 14.0673 43.1666 35.2111 0.0000 0.0000 0.0000
# 3 102.0556 35.2111 272.1571 0.0000 0.0000 0.0000
# 4 0.0000 0.0000 0.0000 26.4933 0.0000 0.0000
# 5 0.0000 0.0000 0.0000 0.0000 58.1609 0.0000
# 6 0.0000 0.0000 0.0000 0.0000 0.0000 53.4266
#
#
#
# Elastic Compliance Matrix: (Units=1/GPa)
#
#
# Indices 1 2 3 4 5 6 
#
# 1 0.007524 -0.000168 -0.002800 0.000000 0.000000 0.000000
# 2 -0.000168 0.025903 -0.003288 0.000000 0.000000 0.000000
# 3 -0.002800 -0.003288 0.005150 0.000000 0.000000 0.000000
# 4 0.000000 0.000000 0.000000 0.037745 0.000000 0.000000
# 5 0.000000 0.000000 0.000000 0.000000 0.017194 0.000000
# 6 0.000000 0.000000 0.000000 0.000000 0.000000 0.018717
#
#
# Mechanical properties :
#
#
# Convention : Reuss Voigt Hill
#
# Bulk Modulus (GPa) = 38.36650 87.68812 63.02731
# Shear Modulus (GPa) = 37.47202 49.96222 43.71712
#
# Velocity S-wave (km/s) = 3.81551 4.40575 4.12121
# Velocity P-wave (km/s) = 5.85802 7.74262 6.86530
#
# Compressibility (1/GPa) = 0.02606440
#
# Stress axis : x y z
#
# Youngs Moduli (GPa) = 132.91234 38.60540 194.19120
#
# Poissons Ratio (x) = 0.00650 0.54365
# Poissons Ratio (y) = 0.02237 0.63854
# Poissons Ratio (z) = 0.37209 0.12694
#
# Static dielectric constant tensor:
#      x y z
#    x 1.986140 0.000000 0.000000 
#    y 0.000000 2.185610 0.000000 
#    z 0.000000 0.000000 1.928330 
# 
# From -- ./inp_files/4072.got.cif
#   From: 2010.05.17/outbox.cif.g08.bks.cpg/sg53_3_cif.got.tgz:4072.got - 2010.06.03 12:45:16.
