data_PCOD9416679
_publ_section_title
;
Structure prediction by ZEFSAII (Michael W. Deem and Ramdas Pophale) SiO2 
 PCOD9416679
Probable space group: P M N A
;
_chemical_formula_sum "Si O2"
_cell_formula_units_Z 64
_cell_length_a 7.466814
_cell_length_b 24.190932
_cell_length_c 13.926129
_cell_angle_alpha 90.000000
_cell_angle_beta 90.000000
_cell_angle_gamma 90.000000
_cell_volume 2515.465397
_symmetry_space_group_name_H-M "P M N A"
_symmetry_group_IT_number 53
_symmetry_cell_setting 'orthorhombic'
loop_
_space_group_symop_operation_xyz
x,y,z
1/2-x,-y,1/2+z
x,-y,-z
1/2-x,y,1/2-z
-x,-y,-z
1/2+x,y,1/2-z
-x,y,z
1/2+x,-y,1/2+z
loop_
_atom_site_type_symbol
_atom_site_label
_atom_site_fract_x
_atom_site_fract_y
_atom_site_fract_z
Si Si1 0.202866 0.626404 0.383874
Si Si2 0.713006 0.391272 0.397774
Si Si3 0.296232 0.016879 0.887514
Si Si4 0.291305 0.746093 0.075638
Si Si5 0.714433 0.899307 0.852738
Si Si6 0.287979 0.727940 0.645582
Si Si7 0.720289 0.864987 0.063849
Si Si8 0.785483 0.489810 0.608578
O O1 0.196739 0.613404 0.497801
O O2 0.285394 0.688223 0.382448
O O3 0.288425 0.568056 0.350471
O O4 0.000000 0.630458 0.345024
O O5 0.500000 0.387241 0.412037
O O6 0.776125 0.335687 0.347301
O O7 0.750787 0.449798 0.349662
O O8 0.500000 0.021042 0.850106
O O9 0.207635 0.961671 0.847271
O O10 0.219359 0.078569 0.883992
O O11 0.307625 0.000000 0.000000
O O12 0.500000 0.744768 0.102020
O O13 0.285303 0.746620 0.958325
O O14 0.217859 0.806110 0.104483
O O15 0.750000 0.872605 0.750000
O O16 0.500000 0.903714 0.863306
O O17 0.776265 0.871089 0.951407
O O18 0.250000 0.753459 0.750000
O O19 0.500000 0.730357 0.633145
O O20 0.500000 0.865361 0.065231
O O21 0.716105 0.500000 0.500000
O O22 0.000000 0.483083 0.605747
#
# Coordination Sequence:
#
# PCOD9416679 Si02
#       8
#     8   8   8   8   8   8   8   8
#     4   8  14  23  34  50  72  95 115 140 179 223
#     4   9  16  24  35  51  67  86 117 154 186 218
#     4   7  11  22  40  59  78 102 133 166 199 237
#     4   9  16  27  42  57  75 100 131 165 196 227
#     4   9  16  26  41  61  84 107 133 168 206 241
#     4  10  20  31  40  51  71 100 133 165 197 234
#     4   8  14  25  42  61  78 104 141 172 198 233
#     4   8  13  21  33  49  69  91 112 136 174 221
#
# _framework density 25.442608
#
# number of rings (size 3 to 8) (size 9 to 14) (size 15 to 20)
#    0.000    3.500    0.000    3.000    0.000    4.250 
#    0.000    1.875    0.000    4.125    0.000    0.000 
#    0.000    1.000    0.000    6.250    0.000    4.000 
#
# Total GULP energy -356473.357209 kJ/mol
# GULP energy per Si atom -5569.896206 kJ/mol
# Density = 2.538470 g / cm^3
# Si number density = 25.442608 Si / 1000 Ang^3
#
#
#
# Elastic Constant Matrix: (Units=GPa)
#
#
# Indices 1 2 3 4 5 6 
#
# 1 85.6629 14.7107 -9.8683 0.0000 0.0000 0.0000
# 2 14.7107 265.3732 -3.0845 0.0000 0.0000 0.0000
# 3 -9.8683 -3.0845 56.2094 0.0000 0.0000 0.0000
# 4 0.0000 0.0000 0.0000 -40.0406 0.0000 0.0000
# 5 0.0000 0.0000 0.0000 0.0000 7.3740 0.0000
# 6 0.0000 0.0000 0.0000 0.0000 0.0000 -29.6443
#
#
#
# Elastic Compliance Matrix: (Units=1/GPa)
#
#
# Indices 1 2 3 4 5 6 
#
# 1 0.012023 -0.000642 0.002076 0.000000 0.000000 0.000000
# 2 -0.000642 0.003805 0.000096 0.000000 0.000000 0.000000
# 3 0.002076 0.000096 0.018160 0.000000 0.000000 0.000000
# 4 0.000000 0.000000 0.000000 -0.024975 0.000000 0.000000
# 5 0.000000 0.000000 0.000000 0.000000 0.135612 0.000000
# 6 0.000000 0.000000 0.000000 0.000000 0.000000 -0.033733
#
#
# Mechanical properties :
#
#
# Convention : Reuss Voigt Hill
#
# Bulk Modulus (GPa) = 26.99288 45.64016 36.31652
# Shear Modulus (GPa) = 41.60325 14.57032 28.08678
#
# Velocity S-wave (km/s) = 4.04812 2.39566 3.32614
# Velocity P-wave (km/s) = 5.69931 5.06257 5.39035
#
# Compressibility (1/GPa) = 0.03704680
#
# Stress axis : x y z
#
# Youngs Moduli (GPa) = 83.17337 262.81193 55.06525
#
# Poissons Ratio (x) = 0.16882 -0.11429
# Poissons Ratio (y) = 0.05343 -0.00529
# Poissons Ratio (z) = -0.17263 -0.02524
#
# Static dielectric constant tensor:
#      x y z
#    x 1.845700 0.000000 0.000000 
#    y 0.000000 2.106130 0.000000 
#    z 0.000000 0.000000 2.029620 
# 
# From -- ./inp_files/27068.got.cif
#   From: 2010.05.17/outbox.cif.g08.bks.cpg/sg53_14_cif.got.tgz:27068.got - 2010.06.03 12:45:16.
