data_PCOD9416338
_publ_section_title
;
Structure prediction by ZEFSAII (Michael W. Deem and Ramdas Pophale) SiO2 
 PCOD9416338
Probable space group: P M N A
;
_chemical_formula_sum "Si O2"
_cell_formula_units_Z 52
_cell_length_a 25.392638
_cell_length_b 10.721644
_cell_length_c 9.109367
_cell_angle_alpha 90.000000
_cell_angle_beta 90.000000
_cell_angle_gamma 90.000000
_cell_volume 2480.032680
_symmetry_space_group_name_H-M "P M N A"
_symmetry_group_IT_number 53
_symmetry_cell_setting 'orthorhombic'
loop_
_space_group_symop_operation_xyz
x,y,z
1/2-x,-y,1/2+z
x,-y,-z
1/2-x,y,1/2-z
-x,-y,-z
1/2+x,y,1/2-z
-x,y,z
1/2+x,-y,1/2+z
loop_
_atom_site_type_symbol
_atom_site_label
_atom_site_fract_x
_atom_site_fract_y
_atom_site_fract_z
Si Si1 0.366275 0.211980 0.645710
Si Si2 0.305319 0.642738 0.103717
Si Si3 0.411416 0.623062 0.923126
Si Si4 0.250000 0.416102 0.250000
Si Si5 0.638686 0.617727 0.609454
Si Si6 0.260100 0.117060 0.581245
Si Si7 0.561017 0.874480 0.084906
O O1 0.330447 0.308042 0.742515
O O2 0.387203 0.282633 0.502479
O O3 0.322787 0.122986 0.573392
O O4 0.405131 0.154569 0.767615
O O5 0.276081 0.515945 0.140187
O O6 0.267704 0.752295 0.045504
O O7 0.354235 0.632928 0.997630
O O8 0.399461 0.601880 0.750794
O O9 0.436242 0.500000 0.000000
O O10 0.436308 0.754152 0.975459
O O11 0.302210 0.352530 0.323728
O O12 0.645123 0.500000 0.500000
O O13 0.250000 0.094558 0.750000
O O14 0.236337 0.000000 0.500000
O O15 0.500000 0.893386 0.125761
O O16 0.579455 0.000000 0.000000
#
# Coordination Sequence:
#
# PCOD9416338 Si02
#       7
#     8   8   8   4   8   8   8
#     4  10  21  38  58  92 130 166 221 282 333 394
#     4  10  19  35  55  85 131 185 231 262 303 383
#     4  11  23  39  66 100 136 177 225 277 333 394
#     4  12  20  34  58  84 136 192 234 258 310 392
#     4  12  23  34  59  97 140 183 223 272 328 375
#     4  10  21  34  52  80 128 178 219 260 314 378
#     4  10  24  50  79  97 119 167 224 282 355 432
#
# _framework density 20.967466999999999
#
# number of rings (size 3 to 8) (size 9 to 14) (size 15 to 20)
#    0.000    1.385    5.385    0.923    4.308    8.308 
#    0.000    0.769    0.000    4.154    0.000    0.000 
#    0.000    0.000    0.000    0.000    0.000    0.000 
#
# Total GULP energy -289699.179655 kJ/mol
# GULP energy per Si atom -5571.138070 kJ/mol
# Density = 2.091974 g / cm^3
# Si number density = 20.967467 Si / 1000 Ang^3
#
#
#
# Elastic Constant Matrix: (Units=GPa)
#
#
# Indices 1 2 3 4 5 6 
#
# 1 65.0806 19.5862 13.9068 0.0000 0.0000 0.0000
# 2 19.5862 89.5895 40.6035 0.0000 0.0000 0.0000
# 3 13.9068 40.6035 95.0930 0.0000 0.0000 0.0000
# 4 0.0000 0.0000 0.0000 8.4740 0.0000 0.0000
# 5 0.0000 0.0000 0.0000 0.0000 17.1482 0.0000
# 6 0.0000 0.0000 0.0000 0.0000 0.0000 19.9881
#
#
#
# Elastic Compliance Matrix: (Units=1/GPa)
#
#
# Indices 1 2 3 4 5 6 
#
# 1 0.016537 -0.003124 -0.001085 0.000000 0.000000 0.000000
# 2 -0.003124 0.014430 -0.005705 0.000000 0.000000 0.000000
# 3 -0.001085 -0.005705 0.013111 0.000000 0.000000 0.000000
# 4 0.000000 0.000000 0.000000 0.118008 0.000000 0.000000
# 5 0.000000 0.000000 0.000000 0.000000 0.058315 0.000000
# 6 0.000000 0.000000 0.000000 0.000000 0.000000 0.050030
#
#
# Mechanical properties :
#
#
# Convention : Reuss Voigt Hill
#
# Bulk Modulus (GPa) = 41.23396 44.21735 42.72566
# Shear Modulus (GPa) = 16.75932 20.83318 18.79625
#
# Velocity S-wave (km/s) = 2.83026 3.15555 2.99732
# Velocity P-wave (km/s) = 5.51261 5.86609 5.69210
#
# Compressibility (1/GPa) = 0.02425185
#
# Stress axis : x y z
#
# Youngs Moduli (GPa) = 60.46873 69.29779 76.27462
#
# Poissons Ratio (x) = 0.21648 0.08273
# Poissons Ratio (y) = 0.18890 0.43513
# Poissons Ratio (z) = 0.06559 0.39533
#
# Static dielectric constant tensor:
#      x y z
#    x 1.865400 0.000000 0.000000 
#    y 0.000000 1.912980 0.000000 
#    z 0.000000 0.000000 1.950520 
# 
# From -- ./inp_files/12484.got.cif
#   From: 2010.05.17/outbox.cif.g08.bks.cpg/sg53_7_cif.got.tgz:12484.got - 2010.06.03 12:45:16.
