data_PCOD9416113
_publ_section_title
;
Structure prediction by ZEFSAII (Michael W. Deem and Ramdas Pophale) SiO2 
 PCOD9416113
Probable space group: P M N A
;
_chemical_formula_sum "Si O2"
_cell_formula_units_Z 64
_cell_length_a 8.010516
_cell_length_b 21.347266
_cell_length_c 20.479978
_cell_angle_alpha 90.000000
_cell_angle_beta 90.000000
_cell_angle_gamma 90.000000
_cell_volume 3502.129811
_symmetry_space_group_name_H-M "P M N A"
_symmetry_group_IT_number 53
_symmetry_cell_setting 'orthorhombic'
loop_
_space_group_symop_operation_xyz
x,y,z
1/2-x,-y,1/2+z
x,-y,-z
1/2-x,y,1/2-z
-x,-y,-z
1/2+x,y,1/2-z
-x,y,z
1/2+x,-y,1/2+z
loop_
_atom_site_type_symbol
_atom_site_label
_atom_site_fract_x
_atom_site_fract_y
_atom_site_fract_z
Si Si1 0.699976 0.940498 0.041154
Si Si2 0.200754 0.984234 0.321222
Si Si3 0.299140 0.484249 0.678941
Si Si4 0.302801 0.820137 0.539975
Si Si5 0.299350 0.371195 0.320870
Si Si6 0.300345 0.870577 0.821867
Si Si7 0.204838 0.681761 0.958302
Si Si8 0.295964 0.438202 0.540619
O O1 0.500000 0.947351 0.043929
O O2 0.761763 0.946328 0.115639
O O3 0.734141 0.876595 0.003410
O O4 0.765455 0.000000 0.000000
O O5 0.250000 0.960009 0.250000
O O6 0.000000 0.985982 0.322780
O O7 0.258970 0.056764 0.326727
O O8 0.250000 0.459420 0.750000
O O9 0.500000 0.486295 0.676153
O O10 0.238805 0.556553 0.674504
O O11 0.240938 0.446714 0.615398
O O12 0.500000 0.819871 0.530067
O O13 0.268642 0.833591 0.616292
O O14 0.237418 0.751015 0.522771
O O15 0.250000 0.345875 0.250000
O O16 0.500000 0.372947 0.323394
O O17 0.241494 0.333830 0.384251
O O18 0.250000 0.847147 0.750000
O O19 0.500000 0.870500 0.826570
O O20 0.000000 0.681828 0.958623
O O21 0.258995 0.625179 0.005092
O O22 0.245873 0.500000 0.500000
O O23 0.500000 0.437649 0.539899
#
# Coordination Sequence:
#
# PCOD9416113 Si02
#       8
#     8   8   8   8   8   8   8   8
#     4  10  19  36  56  74  99 134 171 209 254 302
#     4   9  18  32  53  77 100 126 160 206 254 296
#     4   9  16  26  47  74  96 121 157 201 247 289
#     4  11  22  33  48  75 106 137 169 211 257 301
#     4   9  16  28  45  67  96 128 160 198 238 286
#     4  10  19  34  52  73 102 137 173 209 248 299
#     4   9  18  31  46  69 101 129 165 210 245 284
#     4   9  14  26  50  74  92 123 169 208 241 283
#
# _framework density 18.274592999999999
#
# number of rings (size 3 to 8) (size 9 to 14) (size 15 to 20)
#    0.000    2.500    2.500    0.750    0.000    1.750 
#    0.000    2.500    0.000    3.375    0.000    3.500 
#    0.000    0.000    0.000    0.000    0.000    0.000 
#
# Total GULP energy -356918.813739 kJ/mol
# GULP energy per Si atom -5576.856465 kJ/mol
# Density = 1.823300 g / cm^3
# Si number density = 18.274593 Si / 1000 Ang^3
#
#
#
# Elastic Constant Matrix: (Units=GPa)
#
#
# Indices 1 2 3 4 5 6 
#
# 1 8.8454 2.4156 6.0003 0.0000 0.0000 0.0000
# 2 2.4156 116.3715 80.8309 0.0000 0.0000 0.0000
# 3 6.0003 80.8309 155.2778 0.0000 0.0000 0.0000
# 4 0.0000 0.0000 0.0000 -19.4576 0.0000 0.0000
# 5 0.0000 0.0000 0.0000 0.0000 25.2083 0.0000
# 6 0.0000 0.0000 0.0000 0.0000 0.0000 -0.8165
#
#
#
# Elastic Compliance Matrix: (Units=1/GPa)
#
#
# Indices 1 2 3 4 5 6 
#
# 1 0.116187 0.001107 -0.005066 0.000000 0.000000 0.000000
# 2 0.001107 0.013470 -0.007055 0.000000 0.000000 0.000000
# 3 -0.005066 -0.007055 0.010308 0.000000 0.000000 0.000000
# 4 0.000000 0.000000 0.000000 -0.051394 0.000000 0.000000
# 5 0.000000 0.000000 0.000000 0.000000 0.039669 0.000000
# 6 0.000000 0.000000 0.000000 0.000000 0.000000 -1.224768
#
#
# Mechanical properties :
#
#
# Convention : Reuss Voigt Hill
#
# Bulk Modulus (GPa) = 8.47905 50.99870 29.73888
# Shear Modulus (GPa) = -4.83005 13.73672 4.45334
#
# Velocity S-wave (km/s) = -1.62751 2.74466 1.56275
# Velocity P-wave (km/s) = 1.05744 6.16536 4.42323
#
# Compressibility (1/GPa) = 0.11793772
#
# Stress axis : x y z
#
# Youngs Moduli (GPa) = 8.60684 74.23633 97.00903
#
# Poissons Ratio (x) = -0.08218 0.49145
# Poissons Ratio (y) = -0.00953 0.68439
# Poissons Ratio (z) = 0.04360 0.52373
#
# Static dielectric constant tensor:
#      x y z
#    x 1.657740 0.000000 0.000000 
#    y 0.000000 1.626290 0.000000 
#    z 0.000000 0.000000 1.650100 
# 
# From -- ./inp_files/31137.got.cif
#   From: 2010.05.17/outbox.cif.g08.bks.cpg/sg53_16_cif.got.tgz:31137.got - 2010.06.03 12:45:16.
