data_PCOD9416248
_publ_section_title
;
Structure prediction by ZEFSAII (Michael W. Deem and Ramdas Pophale) SiO2 
 PCOD9416248
Probable space group: P M N A
;
_chemical_formula_sum "Si O2"
_cell_formula_units_Z 56
_cell_length_a 11.338369
_cell_length_b 16.518456
_cell_length_c 14.024459
_cell_angle_alpha 90.000000
_cell_angle_beta 90.000000
_cell_angle_gamma 90.000000
_cell_volume 2626.673876
_symmetry_space_group_name_H-M "P M N A"
_symmetry_group_IT_number 53
_symmetry_cell_setting 'orthorhombic'
loop_
_space_group_symop_operation_xyz
x,y,z
1/2-x,-y,1/2+z
x,-y,-z
1/2-x,y,1/2-z
-x,-y,-z
1/2+x,y,1/2-z
-x,y,z
1/2+x,-y,1/2+z
loop_
_atom_site_type_symbol
_atom_site_label
_atom_site_fract_x
_atom_site_fract_y
_atom_site_fract_z
Si Si1 0.137552 0.636572 0.821498
Si Si2 0.874710 0.023930 0.611552
Si Si3 0.625171 0.385766 0.856205
Si Si4 0.308151 0.203366 0.853105
Si Si5 0.866037 0.220592 0.029475
Si Si6 0.869973 0.958251 0.895616
Si Si7 0.371186 0.551201 0.363444
O O1 0.250000 0.642054 0.750000
O O2 0.157163 0.703582 0.902553
O O3 0.137886 0.545545 0.862383
O O4 0.000000 0.648626 0.784359
O O5 0.873975 0.120351 0.624113
O O6 0.000000 0.991121 0.648504
O O7 0.873128 0.000000 0.500000
O O8 0.749602 0.992009 0.649449
O O9 0.500000 0.412829 0.900121
O O10 0.626056 0.288880 0.850865
O O11 0.626186 0.419785 0.747570
O O12 0.748689 0.413278 0.903015
O O13 0.250000 0.193732 0.750000
O O14 0.214665 0.213497 0.937786
O O15 0.855850 0.137583 0.089417
O O16 0.000000 0.225826 0.995166
O O17 0.000000 0.975274 0.853893
O O18 0.874281 0.000000 0.000000
O O19 0.500000 0.574883 0.405198
#
# Coordination Sequence:
#
# PCOD9416248 Si02
#       7
#     8   8   8   8   8   8   8
#     4  10  20  39  68  98 126 168 219 268 330 394
#     4  10  20  37  61  86 118 159 201 255 317 371
#     4  10  19  34  57  88 124 164 210 263 317 376
#     4  12  23  38  60  94 131 173 214 260 320 384
#     4  10  22  39  64  97 131 167 219 273 318 382
#     4   9  16  35  63  85 113 161 203 247 309 369
#     4   9  17  34  60  86 119 166 209 260 321 378
#
# _framework density 21.319738000000001
#
# number of rings (size 3 to 8) (size 9 to 14) (size 15 to 20)
#    0.000    2.000    5.714    0.429    0.000    1.714 
#    0.000    3.571    0.000    5.143    0.000    0.000 
#    0.000    0.000    0.000    0.000    0.000    0.000 
#
# Total GULP energy -312231.865591 kJ/mol
# GULP energy per Si atom -5575.569028 kJ/mol
# Density = 2.127121 g / cm^3
# Si number density = 21.319738 Si / 1000 Ang^3
#
#
#
# Elastic Constant Matrix: (Units=GPa)
#
#
# Indices 1 2 3 4 5 6 
#
# 1 249.4609 56.2244 48.5125 0.0000 0.0000 0.0000
# 2 56.2244 110.7471 23.2145 0.0000 0.0000 0.0000
# 3 48.5125 23.2145 58.9467 0.0000 0.0000 0.0000
# 4 0.0000 0.0000 0.0000 33.8248 0.0000 0.0000
# 5 0.0000 0.0000 0.0000 0.0000 -18.3695 0.0000
# 6 0.0000 0.0000 0.0000 0.0000 0.0000 15.6502
#
#
#
# Elastic Compliance Matrix: (Units=1/GPa)
#
#
# Indices 1 2 3 4 5 6 
#
# 1 0.005103 -0.001864 -0.003465 0.000000 0.000000 0.000000
# 2 -0.001864 0.010523 -0.002610 0.000000 0.000000 0.000000
# 3 -0.003465 -0.002610 0.020844 0.000000 0.000000 0.000000
# 4 0.000000 0.000000 0.000000 0.029564 0.000000 0.000000
# 5 0.000000 0.000000 0.000000 0.000000 -0.054438 0.000000
# 6 0.000000 0.000000 0.000000 0.000000 0.000000 0.063897
#
#
# Mechanical properties :
#
#
# Convention : Reuss Voigt Hill
#
# Bulk Modulus (GPa) = 48.56481 75.00638 61.78559
# Shear Modulus (GPa) = 50.89801 25.63466 38.26633
#
# Velocity S-wave (km/s) = 4.89137 3.47131 4.24120
# Velocity P-wave (km/s) = 7.39793 7.16413 7.28197
#
# Compressibility (1/GPa) = 0.02059104
#
# Stress axis : x y z
#
# Youngs Moduli (GPa) = 195.97502 95.02908 47.97478
#
# Poissons Ratio (x) = 0.17715 0.16625
# Poissons Ratio (y) = 0.36533 0.12522
# Poissons Ratio (z) = 0.67911 0.24803
#
# Static dielectric constant tensor:
#      x y z
#    x 1.878830 0.000000 0.000000 
#    y 0.000000 1.747550 0.000000 
#    z 0.000000 0.000000 1.713920 
# 
# From -- ./inp_files/21868.got.cif
#   From: 2010.05.17/outbox.cif.g08.bks.cpg/sg53_11_cif.got.tgz:21868.got - 2010.06.03 12:45:16.
