data_PCOD9416764
_publ_section_title
;
Structure prediction by ZEFSAII (Michael W. Deem and Ramdas Pophale) SiO2 
 PCOD9416764
Probable space group: P M N A
;
_chemical_formula_sum "Si O2"
_cell_formula_units_Z 64
_cell_length_a 9.676377
_cell_length_b 20.890585
_cell_length_c 20.237248
_cell_angle_alpha 90.000000
_cell_angle_beta 90.000000
_cell_angle_gamma 90.000000
_cell_volume 4090.862063
_symmetry_space_group_name_H-M "P M N A"
_symmetry_group_IT_number 53
_symmetry_cell_setting 'orthorhombic'
loop_
_space_group_symop_operation_xyz
x,y,z
1/2-x,-y,1/2+z
x,-y,-z
1/2-x,y,1/2-z
-x,-y,-z
1/2+x,y,1/2-z
-x,y,z
1/2+x,-y,1/2+z
loop_
_atom_site_type_symbol
_atom_site_label
_atom_site_fract_x
_atom_site_fract_y
_atom_site_fract_z
Si Si1 0.832050 0.534415 0.067165
Si Si2 0.837420 0.321455 0.954419
Si Si3 0.159654 0.920170 0.071798
Si Si4 0.660303 0.304002 0.387424
Si Si5 0.659465 0.063887 0.411831
Si Si6 0.334570 0.438360 0.316474
Si Si7 0.841238 0.817021 0.601610
Si Si8 0.340811 0.800918 0.058779
O O1 0.790592 0.608551 0.069300
O O2 0.793543 0.491593 0.129618
O O3 0.000000 0.534941 0.064090
O O4 0.783597 0.500000 0.000000
O O5 0.744979 0.263522 0.928068
O O6 0.000000 0.311961 0.938395
O O7 0.827751 0.320328 0.034478
O O8 0.261756 0.862401 0.087876
O O9 0.000000 0.905879 0.089241
O O10 0.197479 0.989838 0.100561
O O11 0.162127 0.927810 0.991785
O O12 0.500000 0.285951 0.376056
O O13 0.691649 0.368087 0.347068
O O14 0.759464 0.244702 0.372163
O O15 0.500000 0.074088 0.391617
O O16 0.760139 0.117517 0.383215
O O17 0.250000 0.446616 0.250000
O O18 0.500000 0.443381 0.305734
O O19 0.840203 0.809701 0.521336
O O20 0.000000 0.818645 0.623108
O O21 0.500000 0.797000 0.079648
#
# Coordination Sequence:
#
# PCOD9416764 Si02
#       8
#     8   8   8   8   8   8   8   8
#     4   9  15  28  50  71  86 108 150 194 224 260
#     4   9  15  25  44  63  78 102 142 187 220 251
#     4   8  13  21  32  45  65  98 139 175 206 246
#     4   9  16  27  43  60  79 107 142 179 216 256
#     4   8  13  21  32  46  66  96 136 177 210 245
#     4  10  20  33  49  69  92 117 146 183 229 277
#     4   9  16  23  33  51  75 102 134 173 214 255
#     4   9  16  23  31  49  78 106 132 168 216 264
#
# _framework density 15.644624
#
# number of rings (size 3 to 8) (size 9 to 14) (size 15 to 20)
#    0.000    3.125    1.250    1.500    0.000    4.000 
#    0.000    3.125    0.000    0.750    0.000    0.000 
#    0.000    0.000    0.000    1.125    0.000   16.250 
#
# Total GULP energy -356283.932100 kJ/mol
# GULP energy per Si atom -5566.936439 kJ/mol
# Density = 1.560902 g / cm^3
# Si number density = 15.644624 Si / 1000 Ang^3
#
#
#
# Elastic Constant Matrix: (Units=GPa)
#
#
# Indices 1 2 3 4 5 6 
#
# 1 93.3769 102.2738 31.0194 0.0000 0.0000 0.0000
# 2 102.2738 174.9207 38.8160 0.0000 0.0000 0.0000
# 3 31.0194 38.8160 31.0225 0.0000 0.0000 0.0000
# 4 0.0000 0.0000 0.0000 5.5856 0.0000 0.0000
# 5 0.0000 0.0000 0.0000 0.0000 12.9960 0.0000
# 6 0.0000 0.0000 0.0000 0.0000 0.0000 7.7110
#
#
#
# Elastic Compliance Matrix: (Units=1/GPa)
#
#
# Indices 1 2 3 4 5 6 
#
# 1 0.032801 -0.016475 -0.012185 0.000000 0.000000 0.000000
# 2 -0.016475 0.016189 -0.003783 0.000000 0.000000 0.000000
# 3 -0.012185 -0.003783 0.049151 0.000000 0.000000 0.000000
# 4 0.000000 0.000000 0.000000 0.179033 0.000000 0.000000
# 5 0.000000 0.000000 0.000000 0.000000 0.076947 0.000000
# 6 0.000000 0.000000 0.000000 0.000000 0.000000 0.129686
#
#
# Mechanical properties :
#
#
# Convention : Reuss Voigt Hill
#
# Bulk Modulus (GPa) = 30.06867 71.50429 50.78648
# Shear Modulus (GPa) = 8.93213 13.73922 11.33567
#
# Velocity S-wave (km/s) = 2.39203 2.96667 2.69471
# Velocity P-wave (km/s) = 5.18561 7.58547 6.49731
#
# Compressibility (1/GPa) = 0.03325721
#
# Stress axis : x y z
#
# Youngs Moduli (GPa) = 30.48662 61.77120 20.34537
#
# Poissons Ratio (x) = 1.01766 0.24790
# Poissons Ratio (y) = 0.50226 0.07696
# Poissons Ratio (z) = 0.37147 0.23367
#
# Static dielectric constant tensor:
#      x y z
#    x 1.519340 0.000000 0.000000 
#    y 0.000000 1.535280 0.000000 
#    z 0.000000 0.000000 1.491340 
# 
# From -- ./inp_files/27013.got.cif
#   From: 2010.05.17/outbox.cif.g08.bks.cpg/sg53_14_cif.got.tgz:27013.got - 2010.06.03 12:45:16.
