data_PCOD9416803
_publ_section_title
;
Structure prediction by ZEFSAII (Michael W. Deem and Ramdas Pophale) SiO2 
 PCOD9416803
Probable space group: P M N A
;
_chemical_formula_sum "Si O2"
_cell_formula_units_Z 64
_cell_length_a 8.816511
_cell_length_b 28.391424
_cell_length_c 14.965013
_cell_angle_alpha 90.000000
_cell_angle_beta 90.000000
_cell_angle_gamma 90.000000
_cell_volume 3745.941819
_symmetry_space_group_name_H-M "P M N A"
_symmetry_group_IT_number 53
_symmetry_cell_setting 'orthorhombic'
loop_
_space_group_symop_operation_xyz
x,y,z
1/2-x,-y,1/2+z
x,-y,-z
1/2-x,y,1/2-z
-x,-y,-z
1/2+x,y,1/2-z
-x,y,z
1/2+x,-y,1/2+z
loop_
_atom_site_type_symbol
_atom_site_label
_atom_site_fract_x
_atom_site_fract_y
_atom_site_fract_z
Si Si1 0.681934 0.388128 0.961582
Si Si2 0.817707 0.111101 0.968313
Si Si3 0.318785 0.927538 0.655526
Si Si4 0.680761 0.422647 0.158942
Si Si5 0.317817 0.197175 0.653859
Si Si6 0.171847 0.518003 0.102377
Si Si7 0.682292 0.305883 0.652594
Si Si8 0.681337 0.030570 0.846348
O O1 0.500000 0.387519 0.956647
O O2 0.744774 0.432114 0.903811
O O3 0.751350 0.340963 0.920849
O O4 0.725129 0.397332 0.065632
O O5 0.771800 0.159766 0.921240
O O6 0.736585 0.068220 0.918177
O O7 0.000000 0.105501 0.957198
O O8 0.785567 0.106939 0.073344
O O9 0.250000 0.912196 0.750000
O O10 0.500000 0.933117 0.664053
O O11 0.247325 0.978680 0.634220
O O12 0.750000 0.402163 0.250000
O O13 0.500000 0.422178 0.164532
O O14 0.738535 0.476446 0.150744
O O15 0.250000 0.183820 0.750000
O O16 0.500000 0.195885 0.660943
O O17 0.274902 0.251304 0.634536
O O18 0.000000 0.522710 0.136888
O O19 0.163359 0.500000 0.000000
O O20 0.750000 0.317991 0.750000
O O21 0.500000 0.309491 0.655313
O O22 0.750000 0.044423 0.750000
O O23 0.500000 0.028625 0.841703
#
# Coordination Sequence:
#
# PCOD9416803 Si02
#       8
#     8   8   8   8   8   8   8   8
#     4  10  20  34  52  75 103 133 168 209 250 294
#     4  10  20  34  52  74 100 131 166 204 249 296
#     4  10  20  34  51  70  98 134 170 208 246 288
#     4  10  20  33  50  73 103 137 171 208 248 291
#     4   9  19  35  54  77 102 127 157 197 247 300
#     4   9  17  30  48  70  97 129 165 203 243 288
#     4  10  20  35  55  77 101 129 162 202 249 300
#     4  11  21  32  48  72 103 135 168 205 244 291
#
# _framework density 17.085156000000001
#
# number of rings (size 3 to 8) (size 9 to 14) (size 15 to 20)
#    0.000    2.125    0.000    4.500    0.000    8.000 
#    0.000    2.500    0.000    0.750    0.000    3.500 
#    0.000    0.000    0.000    0.000    0.000    0.000 
#
# Total GULP energy -357177.881027 kJ/mol
# GULP energy per Si atom -5580.904391 kJ/mol
# Density = 1.704627 g / cm^3
# Si number density = 17.085156 Si / 1000 Ang^3
#
#
#
# Elastic Constant Matrix: (Units=GPa)
#
#
# Indices 1 2 3 4 5 6 
#
# 1 67.4688 41.3101 52.1976 0.0000 0.0000 0.0000
# 2 41.3101 87.4240 84.6966 0.0000 0.0000 0.0000
# 3 52.1976 84.6966 128.6104 0.0000 0.0000 0.0000
# 4 0.0000 0.0000 0.0000 26.4707 0.0000 0.0000
# 5 0.0000 0.0000 0.0000 0.0000 27.7937 0.0000
# 6 0.0000 0.0000 0.0000 0.0000 0.0000 125.6828
#
#
#
# Elastic Compliance Matrix: (Units=1/GPa)
#
#
# Indices 1 2 3 4 5 6 
#
# 1 0.022339 -0.004896 -0.005843 0.000000 0.000000 0.000000
# 2 -0.004896 0.032672 -0.019529 0.000000 0.000000 0.000000
# 3 -0.005843 -0.019529 0.023008 0.000000 0.000000 0.000000
# 4 0.000000 0.000000 0.000000 0.037778 0.000000 0.000000
# 5 0.000000 0.000000 0.000000 0.000000 0.035979 0.000000
# 6 0.000000 0.000000 0.000000 0.000000 0.000000 0.007957
#
#
# Mechanical properties :
#
#
# Convention : Reuss Voigt Hill
#
# Bulk Modulus (GPa) = 57.19497 71.10132 64.14814
# Shear Modulus (GPa) = 22.11466 43.00936 32.56201
#
# Velocity S-wave (km/s) = 3.60165 5.02277 4.37036
# Velocity P-wave (km/s) = 7.13056 8.68008 7.94319
#
# Compressibility (1/GPa) = 0.01748405
#
# Stress axis : x y z
#
# Youngs Moduli (GPa) = 44.76413 30.60769 43.46395
#
# Poissons Ratio (x) = 0.14984 0.25394
# Poissons Ratio (y) = 0.21914 0.84881
# Poissons Ratio (z) = 0.26154 0.59774
#
# Static dielectric constant tensor:
#      x y z
#    x 1.577170 0.000000 0.000000 
#    y 0.000000 1.560400 0.000000 
#    z 0.000000 0.000000 1.597410 
# 
# From -- ./inp_files/20868.got.cif
#   From: 2010.05.17/outbox.cif.g08.bks.cpg/sg53_11_cif.got.tgz:20868.got - 2010.06.03 12:45:16.
