data_PCOD9416378
_publ_section_title
;
Structure prediction by ZEFSAII (Michael W. Deem and Ramdas Pophale) SiO2 
 PCOD9416378
Probable space group: P M N A
;
_chemical_formula_sum "Si O2"
_cell_formula_units_Z 64
_cell_length_a 7.665776
_cell_length_b 15.394241
_cell_length_c 25.452596
_cell_angle_alpha 90.000000
_cell_angle_beta 90.000000
_cell_angle_gamma 90.000000
_cell_volume 3003.630392
_symmetry_space_group_name_H-M "P M N A"
_symmetry_group_IT_number 53
_symmetry_cell_setting 'orthorhombic'
loop_
_space_group_symop_operation_xyz
x,y,z
1/2-x,-y,1/2+z
x,-y,-z
1/2-x,y,1/2-z
-x,-y,-z
1/2+x,y,1/2-z
-x,y,z
1/2+x,-y,1/2+z
loop_
_atom_site_type_symbol
_atom_site_label
_atom_site_fract_x
_atom_site_fract_y
_atom_site_fract_z
Si Si1 0.699196 0.750727 0.995179
Si Si2 0.203684 0.066143 0.048043
Si Si3 0.790438 0.854238 0.692186
Si Si4 0.291892 0.546244 0.810185
Si Si5 0.801729 0.029194 0.651609
Si Si6 0.714419 0.701521 0.885157
Si Si7 0.700554 0.208052 0.890917
Si Si8 0.699393 0.347335 0.689480
O O1 0.500000 0.719691 0.002897
O O2 0.780155 0.761749 0.053234
O O3 0.703964 0.846998 0.970810
O O4 0.775388 0.697730 0.945696
O O5 0.000000 0.083288 0.061232
O O6 0.298990 0.020874 0.096145
O O7 0.205151 0.000000 0.000000
O O8 0.750000 0.818965 0.750000
O O9 0.729605 0.788245 0.646690
O O10 0.000000 0.859728 0.686775
O O11 0.719915 0.953139 0.687408
O O12 0.250000 0.570449 0.750000
O O13 0.500000 0.540058 0.814400
O O14 0.230688 0.619044 0.850733
O O15 0.220242 0.449945 0.820267
O O16 0.720780 0.123124 0.638076
O O17 0.000000 0.045318 0.670625
O O18 0.500000 0.703378 0.886335
O O19 0.500000 0.181839 0.903682
O O20 0.698239 0.287649 0.850917
O O21 0.750000 0.332356 0.750000
O O22 0.500000 0.322349 0.682456
#
# Coordination Sequence:
#
# PCOD9416378 Si02
#       8
#     8   8   8   8   8   8   8   8
#     4  10  19  35  58  81 111 150 191 229 274 333
#     4  11  21  31  48  77 111 144 187 237 280 319
#     4  10  20  34  51  75 111 146 186 229 277 333
#     4  10  19  35  60  87 113 141 183 232 277 333
#     4  10  20  35  55  76 105 148 192 231 271 328
#     4   9  18  33  56  84 112 145 184 229 275 327
#     4  10  21  36  59  87 110 144 192 235 280 332
#     4  11  23  41  64  85 111 143 180 231 283 335
#
# _framework density 21.307548000000001
#
# number of rings (size 3 to 8) (size 9 to 14) (size 15 to 20)
#    0.000    1.875    2.500    3.000    0.000    2.500 
#    0.000    3.750    0.000    3.750    0.000    0.000 
#    0.000    0.000    0.000    0.000    0.000    0.000 
#
# Total GULP energy -357039.307144 kJ/mol
# GULP energy per Si atom -5578.739174 kJ/mol
# Density = 2.125905 g / cm^3
# Si number density = 21.307548 Si / 1000 Ang^3
#
#
#
# Elastic Constant Matrix: (Units=GPa)
#
#
# Indices 1 2 3 4 5 6 
#
# 1 57.1023 -9.5890 -7.7374 0.0000 0.0000 0.0000
# 2 -9.5890 93.3074 62.7935 0.0000 0.0000 0.0000
# 3 -7.7374 62.7935 98.9339 0.0000 0.0000 0.0000
# 4 0.0000 0.0000 0.0000 24.4424 0.0000 0.0000
# 5 0.0000 0.0000 0.0000 0.0000 16.4173 0.0000
# 6 0.0000 0.0000 0.0000 0.0000 0.0000 11.1819
#
#
#
# Elastic Compliance Matrix: (Units=1/GPa)
#
#
# Indices 1 2 3 4 5 6 
#
# 1 0.017829 0.001560 0.000404 0.000000 0.000000 0.000000
# 2 0.001560 0.018845 -0.011839 0.000000 0.000000 0.000000
# 3 0.000404 -0.011839 0.017653 0.000000 0.000000 0.000000
# 4 0.000000 0.000000 0.000000 0.040913 0.000000 0.000000
# 5 0.000000 0.000000 0.000000 0.000000 0.060911 0.000000
# 6 0.000000 0.000000 0.000000 0.000000 0.000000 0.089430
#
#
# Mechanical properties :
#
#
# Convention : Reuss Voigt Hill
#
# Bulk Modulus (GPa) = 28.91955 37.80862 33.36409
# Shear Modulus (GPa) = 18.05988 24.00008 21.02998
#
# Velocity S-wave (km/s) = 2.91448 3.35978 3.14502
# Velocity P-wave (km/s) = 4.99275 5.73006 5.37406
#
# Compressibility (1/GPa) = 0.03457868
#
# Stress axis : x y z
#
# Youngs Moduli (GPa) = 56.08772 53.06495 56.64613
#
# Poissons Ratio (x) = -0.08280 -0.02289
# Poissons Ratio (y) = -0.08752 0.67062
# Poissons Ratio (z) = -0.02266 0.62823
#
# Static dielectric constant tensor:
#      x y z
#    x 1.808690 0.000000 0.000000 
#    y 0.000000 1.758220 0.000000 
#    z 0.000000 0.000000 1.813490 
# 
# From -- ./inp_files/34319.got.cif
#   From: 2010.05.17/outbox.cif.g08.bks.cpg/sg53_18_cif.got.tgz:34319.got - 2010.06.03 12:45:16.
