data_PCOD9416814
_publ_section_title
;
Structure prediction by ZEFSAII (Michael W. Deem and Ramdas Pophale) SiO2 
 PCOD9416814
Probable space group: P M N A
;
_chemical_formula_sum "Si O2"
_cell_formula_units_Z 48
_cell_length_a 8.659836
_cell_length_b 32.150177
_cell_length_c 9.177543
_cell_angle_alpha 90.000000
_cell_angle_beta 90.000000
_cell_angle_gamma 90.000000
_cell_volume 2555.168022
_symmetry_space_group_name_H-M "P M N A"
_symmetry_group_IT_number 53
_symmetry_cell_setting 'orthorhombic'
loop_
_space_group_symop_operation_xyz
x,y,z
1/2-x,-y,1/2+z
x,-y,-z
1/2-x,y,1/2-z
-x,-y,-z
1/2+x,y,1/2-z
-x,y,z
1/2+x,-y,1/2+z
loop_
_atom_site_type_symbol
_atom_site_label
_atom_site_fract_x
_atom_site_fract_y
_atom_site_fract_z
Si Si1 0.315061 0.041285 0.586391
Si Si2 0.184626 0.378908 0.913039
Si Si3 0.313942 0.300122 0.087163
Si Si4 0.314878 0.873412 0.084884
Si Si5 0.315099 0.542405 0.912853
Si Si6 0.813990 0.781923 0.413883
O O1 0.250000 0.038445 0.750000
O O2 0.500000 0.043290 0.592288
O O3 0.253256 0.084452 0.518002
O O4 0.268231 0.000000 0.500000
O O5 0.250000 0.381602 0.750000
O O6 0.000000 0.377458 0.909225
O O7 0.249623 0.337792 0.990822
O O8 0.240425 0.418788 0.003996
O O9 0.250000 0.303458 0.250000
O O10 0.500000 0.302050 0.089359
O O11 0.265267 0.256401 0.014108
O O12 0.250000 0.872759 0.250000
O O13 0.500000 0.876681 0.088087
O O14 0.270758 0.827783 0.025739
O O15 0.250000 0.539719 0.750000
O O16 0.500000 0.547878 0.908235
O O17 0.281031 0.500000 0.000000
O O18 0.750000 0.777277 0.250000
O O19 0.000000 0.781174 0.403864
#
# Coordination Sequence:
#
# PCOD9416814 Si02
#       6
#     8   8   8   8   8   8
#     4  10  20  33  50  74 102 134 174 217 264 319
#     4  12  25  42  64  90 120 154 195 241 288 338
#     4  11  23  40  59  83 116 152 190 231 281 336
#     4   9  16  29  50  75 102 134 173 217 267 320
#     4  11  24  42  65  93 125 161 200 242 290 342
#     4   9  19  34  55  81 107 137 177 224 271 325
#
# _framework density 18.785457999999998
#
# number of rings (size 3 to 8) (size 9 to 14) (size 15 to 20)
#    0.000    1.667    0.000    6.000    0.000    7.333 
#    0.000    0.833    0.000    4.000    0.000    0.000 
#    0.000    0.000    0.000    0.000    0.000    0.000 
#
# Total GULP energy -268105.572918 kJ/mol
# GULP energy per Si atom -5585.532769 kJ/mol
# Density = 1.874270 g / cm^3
# Si number density = 18.785458 Si / 1000 Ang^3
#
#
#
# Elastic Constant Matrix: (Units=GPa)
#
#
# Indices 1 2 3 4 5 6 
#
# 1 81.1042 74.0681 45.0764 0.0000 0.0000 0.0000
# 2 74.0681 202.4638 87.1253 0.0000 0.0000 0.0000
# 3 45.0764 87.1253 122.7635 0.0000 0.0000 0.0000
# 4 0.0000 0.0000 0.0000 29.5685 0.0000 0.0000
# 5 0.0000 0.0000 0.0000 0.0000 23.6525 0.0000
# 6 0.0000 0.0000 0.0000 0.0000 0.0000 51.5086
#
#
#
# Elastic Compliance Matrix: (Units=1/GPa)
#
#
# Indices 1 2 3 4 5 6 
#
# 1 0.019244 -0.005758 -0.002980 0.000000 0.000000 0.000000
# 2 -0.005758 0.008834 -0.004155 0.000000 0.000000 0.000000
# 3 -0.002980 -0.004155 0.012189 0.000000 0.000000 0.000000
# 4 0.000000 0.000000 0.000000 0.033820 0.000000 0.000000
# 5 0.000000 0.000000 0.000000 0.000000 0.042279 0.000000
# 6 0.000000 0.000000 0.000000 0.000000 0.000000 0.019414
#
#
# Mechanical properties :
#
#
# Convention : Reuss Voigt Hill
#
# Bulk Modulus (GPa) = 69.05497 90.98567 80.02032
# Shear Modulus (GPa) = 30.04955 34.28338 32.16647
#
# Velocity S-wave (km/s) = 4.00386 4.27663 4.14249
# Velocity P-wave (km/s) = 7.62982 8.53963 8.09751
#
# Compressibility (1/GPa) = 0.01448122
#
# Stress axis : x y z
#
# Youngs Moduli (GPa) = 51.96324 113.20385 82.04365
#
# Poissons Ratio (x) = 0.65183 0.24447
# Poissons Ratio (y) = 0.29920 0.34089
# Poissons Ratio (z) = 0.15484 0.47036
#
# Static dielectric constant tensor:
#      x y z
#    x 1.630670 0.000000 0.000000 
#    y 0.000000 1.680430 0.000000 
#    z 0.000000 0.000000 1.612710 
# 
# From -- ./inp_files/6733.got.cif
#   From: 2010.05.17/outbox.cif.g08.bks.cpg/sg53_4_cif.got.tgz:6733.got - 2010.06.03 12:45:16.
