data_PCOD9416772
_publ_section_title
;
Structure prediction by ZEFSAII (Michael W. Deem and Ramdas Pophale) SiO2 
 PCOD9416772
Probable space group: P M N A
;
_chemical_formula_sum "Si O2"
_cell_formula_units_Z 56
_cell_length_a 8.492566
_cell_length_b 20.240078
_cell_length_c 18.760737
_cell_angle_alpha 90.000000
_cell_angle_beta 90.000000
_cell_angle_gamma 90.000000
_cell_volume 3224.786802
_symmetry_space_group_name_H-M "P M N A"
_symmetry_group_IT_number 53
_symmetry_cell_setting 'orthorhombic'
loop_
_space_group_symop_operation_xyz
x,y,z
1/2-x,-y,1/2+z
x,-y,-z
1/2-x,y,1/2-z
-x,-y,-z
1/2+x,y,1/2-z
-x,y,z
1/2+x,-y,1/2+z
loop_
_atom_site_type_symbol
_atom_site_label
_atom_site_fract_x
_atom_site_fract_y
_atom_site_fract_z
Si Si1 0.685601 0.296067 0.962777
Si Si2 0.318997 0.955744 0.571993
Si Si3 0.187210 0.484603 0.170943
Si Si4 0.813173 0.068468 0.668520
Si Si5 0.187420 0.568909 0.533016
Si Si6 0.687705 0.638488 0.329080
Si Si7 0.188172 0.150937 0.966891
O O1 0.500000 0.288898 0.977009
O O2 0.717537 0.314607 0.881102
O O3 0.769681 0.227148 0.976371
O O4 0.748800 0.361533 0.003303
O O5 0.500000 0.945970 0.595312
O O6 0.251622 0.888805 0.537112
O O7 0.321612 0.000000 0.500000
O O8 0.233307 0.997412 0.633360
O O9 0.250000 0.474212 0.250000
O O10 0.275483 0.438270 0.115780
O O11 0.220155 0.561607 0.152414
O O12 0.000000 0.475193 0.167499
O O13 0.750000 0.076045 0.750000
O O14 0.751475 0.120668 0.608192
O O15 0.000000 0.074458 0.671533
O O16 0.252394 0.500000 0.500000
O O17 0.000000 0.569184 0.519120
O O18 0.750000 0.648309 0.250000
O O19 0.500000 0.649230 0.333982
O O20 0.000000 0.141535 0.964948
#
# Coordination Sequence:
#
# PCOD9416772 Si02
#       7
#     8   8   8   8   8   8   8
#     4  11  22  35  53  77 106 142 181 222 270 323
#     4   8  16  33  55  78 106 140 175 213 257 304
#     4  10  20  33  53  76 100 130 169 218 271 326
#     4  11  21  34  56  85 115 145 180 218 257 307
#     4  10  20  35  54  76 105 138 177 228 278 324
#     4  10  20  33  49  71 100 134 172 214 263 321
#     4  10  21  37  55  77 110 146 180 219 265 318
#
# _framework density 17.365490000000001
#
# number of rings (size 3 to 8) (size 9 to 14) (size 15 to 20)
#    0.000    2.000    1.429    3.857    0.000    6.286 
#    0.000    2.857    0.000    0.857    0.000    6.000 
#    0.000    0.000    0.000    0.000    0.000    0.000 
#
# Total GULP energy -312090.726197 kJ/mol
# GULP energy per Si atom -5573.048682 kJ/mol
# Density = 1.732597 g / cm^3
# Si number density = 17.365490 Si / 1000 Ang^3
#
#
#
# Elastic Constant Matrix: (Units=GPa)
#
#
# Indices 1 2 3 4 5 6 
#
# 1 42.9463 21.9270 9.0187 0.0000 0.0000 0.0000
# 2 21.9270 118.1133 46.8392 0.0000 0.0000 0.0000
# 3 9.0187 46.8392 49.3553 0.0000 0.0000 0.0000
# 4 0.0000 0.0000 0.0000 -18.0467 0.0000 0.0000
# 5 0.0000 0.0000 0.0000 0.0000 25.2813 0.0000
# 6 0.0000 0.0000 0.0000 0.0000 0.0000 23.3519
#
#
#
# Elastic Compliance Matrix: (Units=1/GPa)
#
#
# Indices 1 2 3 4 5 6 
#
# 1 0.025725 -0.004669 -0.000270 0.000000 0.000000 0.000000
# 2 -0.004669 0.014423 -0.012834 0.000000 0.000000 0.000000
# 3 -0.000270 -0.012834 0.032491 0.000000 0.000000 0.000000
# 4 0.000000 0.000000 0.000000 -0.055412 0.000000 0.000000
# 5 0.000000 0.000000 0.000000 0.000000 0.039555 0.000000
# 6 0.000000 0.000000 0.000000 0.000000 0.000000 0.042823
#
#
# Mechanical properties :
#
#
# Convention : Reuss Voigt Hill
#
# Bulk Modulus (GPa) = 26.95974 40.66496 33.81235
# Shear Modulus (GPa) = 33.89477 14.95931 24.42704
#
# Velocity S-wave (km/s) = 4.42276 2.93821 3.75459
# Velocity P-wave (km/s) = 6.45288 5.91428 6.18944
#
# Compressibility (1/GPa) = 0.03709235
#
# Stress axis : x y z
#
# Youngs Moduli (GPa) = 38.87231 69.33487 30.77801
#
# Poissons Ratio (x) = 0.32369 0.00832
# Poissons Ratio (y) = 0.18148 0.39502
# Poissons Ratio (z) = 0.01050 0.88987
#
# Static dielectric constant tensor:
#      x y z
#    x 1.595500 0.000000 0.000000 
#    y 0.000000 1.625140 0.000000 
#    z 0.000000 0.000000 1.608870 
# 
# From -- ./inp_files/26653.got.cif
#   From: 2010.05.17/outbox.cif.g08.bks.cpg/sg53_14_cif.got.tgz:26653.got - 2010.06.03 12:45:16.
