data_PCOD9416031
_publ_section_title
;
Structure prediction by ZEFSAII (Michael W. Deem and Ramdas Pophale) SiO2 
 PCOD9416031
Probable space group: P M N A
;
_chemical_formula_sum "Si O2"
_cell_formula_units_Z 48
_cell_length_a 9.052923
_cell_length_b 16.931433
_cell_length_c 18.329674
_cell_angle_alpha 90.000000
_cell_angle_beta 90.000000
_cell_angle_gamma 90.000000
_cell_volume 2809.553354
_symmetry_space_group_name_H-M "P M N A"
_symmetry_group_IT_number 53
_symmetry_cell_setting 'orthorhombic'
loop_
_space_group_symop_operation_xyz
x,y,z
1/2-x,-y,1/2+z
x,-y,-z
1/2-x,y,1/2-z
-x,-y,-z
1/2+x,y,1/2-z
-x,y,z
1/2+x,-y,1/2+z
loop_
_atom_site_type_symbol
_atom_site_label
_atom_site_fract_x
_atom_site_fract_y
_atom_site_fract_z
Si Si1 0.677989 0.910829 0.479680
Si Si2 0.323765 0.498918 0.586881
Si Si3 0.676454 0.240065 0.043686
Si Si4 0.176383 0.163050 0.825361
Si Si5 0.822668 0.679215 0.094688
Si Si6 0.176382 0.643192 0.671281
O O1 0.500000 0.902576 0.485293
O O2 0.752927 0.845639 0.531025
O O3 0.718969 0.888166 0.396398
O O4 0.718012 0.000000 0.500000
O O5 0.293160 0.500000 0.500000
O O6 0.500000 0.511957 0.595792
O O7 0.286830 0.410651 0.614277
O O8 0.236799 0.566270 0.629151
O O9 0.500000 0.235919 0.035887
O O10 0.711835 0.281526 0.120249
O O11 0.742855 0.295060 0.979671
O O12 0.250000 0.139167 0.750000
O O13 0.215019 0.253750 0.846305
O O14 0.000000 0.158307 0.817899
O O15 0.000000 0.683248 0.082171
O O16 0.250000 0.648918 0.750000
O O17 0.000000 0.637731 0.678276
#
# Coordination Sequence:
#
# PCOD9416031 Si02
#       6
#     8   8   8   8   8   8
#     4   9  19  37  60  82 104 137 178 215 261 328
#     4  10  19  33  56  80 105 142 186 229 274 321
#     4  10  20  34  54  80 106 135 174 221 268 314
#     4   9  18  32  51  76 107 137 168 208 258 313
#     4   9  18  33  53  77 104 140 181 215 258 323
#     4  11  24  38  53  76 109 146 187 231 276 321
#
# _framework density 17.084565999999999
#
# number of rings (size 3 to 8) (size 9 to 14) (size 15 to 20)
#    0.000    2.333    1.667    2.000    0.000    6.667 
#    0.000    2.500    0.000    4.000    0.000    0.000 
#    0.000    0.000    0.000    0.000    0.000    0.000 
#
# Total GULP energy -267774.352760 kJ/mol
# GULP energy per Si atom -5578.632349 kJ/mol
# Density = 1.704568 g / cm^3
# Si number density = 17.084566 Si / 1000 Ang^3
#
#
#
# Elastic Constant Matrix: (Units=GPa)
#
#
# Indices 1 2 3 4 5 6 
#
# 1 36.9236 53.0755 52.5938 0.0000 0.0000 0.0000
# 2 53.0755 154.3677 80.1929 0.0000 0.0000 0.0000
# 3 52.5938 80.1929 127.7192 0.0000 0.0000 0.0000
# 4 0.0000 0.0000 0.0000 15.5760 0.0000 0.0000
# 5 0.0000 0.0000 0.0000 0.0000 23.9906 0.0000
# 6 0.0000 0.0000 0.0000 0.0000 0.0000 1.4564
#
#
#
# Elastic Compliance Matrix: (Units=1/GPa)
#
#
# Indices 1 2 3 4 5 6 
#
# 1 0.087719 -0.016911 -0.025504 0.000000 0.000000 0.000000
# 2 -0.016911 0.012874 -0.001120 0.000000 0.000000 0.000000
# 3 -0.025504 -0.001120 0.019035 0.000000 0.000000 0.000000
# 4 0.000000 0.000000 0.000000 0.064202 0.000000 0.000000
# 5 0.000000 0.000000 0.000000 0.000000 0.041683 0.000000
# 6 0.000000 0.000000 0.000000 0.000000 0.000000 0.686602
#
#
# Mechanical properties :
#
#
# Convention : Reuss Voigt Hill
#
# Bulk Modulus (GPa) = 30.71337 76.74832 53.73085
# Shear Modulus (GPa) = 4.95032 17.08116 11.01574
#
# Velocity S-wave (km/s) = 1.70406 3.16539 2.54200
# Velocity P-wave (km/s) = 4.67847 7.64066 6.33513
#
# Compressibility (1/GPa) = 0.03255911
#
# Stress axis : x y z
#
# Youngs Moduli (GPa) = 11.40004 77.67538 52.53475
#
# Poissons Ratio (x) = 1.31356 1.33984
# Poissons Ratio (y) = 0.19279 0.05882
# Poissons Ratio (z) = 0.29075 0.08697
#
# Static dielectric constant tensor:
#      x y z
#    x 1.568540 0.000000 0.000000 
#    y 0.000000 1.578810 0.000000 
#    z 0.000000 0.000000 1.560600 
# 
# From -- ./inp_files/20177.got.cif
#   From: 2010.05.17/outbox.cif.g08.bks.cpg/sg53_11_cif.got.tgz:20177.got - 2010.06.03 12:45:16.
