data_PCOD9416496
_publ_section_title
;
Structure prediction by ZEFSAII (Michael W. Deem and Ramdas Pophale) SiO2 
 PCOD9416496
Probable space group: P M N A
;
_chemical_formula_sum "Si O2"
_cell_formula_units_Z 64
_cell_length_a 9.251823
_cell_length_b 24.313417
_cell_length_c 14.902542
_cell_angle_alpha 90.000000
_cell_angle_beta 90.000000
_cell_angle_gamma 90.000000
_cell_volume 3352.228922
_symmetry_space_group_name_H-M "P M N A"
_symmetry_group_IT_number 53
_symmetry_cell_setting 'orthorhombic'
loop_
_space_group_symop_operation_xyz
x,y,z
1/2-x,-y,1/2+z
x,-y,-z
1/2-x,y,1/2-z
-x,-y,-z
1/2+x,y,1/2-z
-x,y,z
1/2+x,-y,1/2+z
loop_
_atom_site_type_symbol
_atom_site_label
_atom_site_fract_x
_atom_site_fract_y
_atom_site_fract_z
Si Si1 0.670647 0.639563 0.158080
Si Si2 0.329640 0.408839 0.337872
Si Si3 0.327906 0.027082 0.340402
Si Si4 0.826325 0.871615 0.961467
Si Si5 0.830233 0.670908 0.533575
Si Si6 0.165829 0.512771 0.393874
Si Si7 0.829507 0.220779 0.344932
Si Si8 0.326303 0.898501 0.341376
O O1 0.750000 0.652526 0.250000
O O2 0.500000 0.644587 0.173284
O O3 0.698036 0.575988 0.129054
O O4 0.708602 0.676016 0.071121
O O5 0.250000 0.385914 0.250000
O O6 0.500000 0.403909 0.329769
O O7 0.267931 0.375494 0.421856
O O8 0.278431 0.471541 0.349239
O O9 0.250000 0.046895 0.250000
O O10 0.500000 0.028859 0.326118
O O11 0.295870 0.067385 0.422688
O O12 0.288513 0.963279 0.354348
O O13 0.743152 0.828988 0.899122
O O14 0.000000 0.863075 0.954757
O O15 0.785478 0.868500 0.066218
O O16 0.814777 0.725572 0.592107
O O17 0.000000 0.653417 0.537027
O O18 0.170362 0.500000 0.500000
O O19 0.000000 0.500794 0.364094
O O20 0.750000 0.228443 0.250000
O O21 0.000000 0.210932 0.329854
O O22 0.250000 0.879563 0.250000
O O23 0.500000 0.895058 0.331510
#
# Coordination Sequence:
#
# PCOD9416496 Si02
#       8
#     8   8   8   8   8   8   8   8
#     4  10  21  38  61  85 113 148 187 229 277 329
#     4  12  24  36  56  85 116 148 186 228 275 334
#     4   9  17  30  50  78 112 150 189 229 278 335
#     4  10  20  35  56  81 113 150 189 233 283 338
#     4  10  22  43  63  81 109 147 188 232 283 332
#     4  10  19  36  59  82 115 155 186 224 276 329
#     4  11  24  41  63  86 112 143 183 232 284 341
#     4   9  18  33  53  79 112 152 193 234 278 328
#
# _framework density 19.091774000000001
#
# number of rings (size 3 to 8) (size 9 to 14) (size 15 to 20)
#    0.000    1.875    1.250    3.000    0.000    7.750 
#    0.000    0.625    0.000    6.750    0.000    0.000 
#    0.000    0.000    0.000    0.000    0.000    0.000 
#
# Total GULP energy -357409.004570 kJ/mol
# GULP energy per Si atom -5584.515696 kJ/mol
# Density = 1.904832 g / cm^3
# Si number density = 19.091774 Si / 1000 Ang^3
#
#
#
# Elastic Constant Matrix: (Units=GPa)
#
#
# Indices 1 2 3 4 5 6 
#
# 1 71.5834 33.5953 69.4545 0.0000 0.0000 0.0000
# 2 33.5953 39.3618 38.3903 0.0000 0.0000 0.0000
# 3 69.4545 38.3903 179.2917 0.0000 0.0000 0.0000
# 4 0.0000 0.0000 0.0000 25.2651 0.0000 0.0000
# 5 0.0000 0.0000 0.0000 0.0000 33.2760 0.0000
# 6 0.0000 0.0000 0.0000 0.0000 0.0000 -159.0474
#
#
#
# Elastic Compliance Matrix: (Units=1/GPa)
#
#
# Indices 1 2 3 4 5 6 
#
# 1 0.029922 -0.017990 -0.007739 0.000000 0.000000 0.000000
# 2 -0.017990 0.042928 -0.002223 0.000000 0.000000 0.000000
# 3 -0.007739 -0.002223 0.009051 0.000000 0.000000 0.000000
# 4 0.000000 0.000000 0.000000 0.039580 0.000000 0.000000
# 5 0.000000 0.000000 0.000000 0.000000 0.030052 0.000000
# 6 0.000000 0.000000 0.000000 0.000000 0.000000 -0.006287
#
#
# Mechanical properties :
#
#
# Convention : Reuss Voigt Hill
#
# Bulk Modulus (GPa) = 38.46584 63.67968 51.07276
# Shear Modulus (GPa) = 23.83047 -10.18149 6.82449
#
# Velocity S-wave (km/s) = 3.53683 -2.31182 1.89270
# Velocity P-wave (km/s) = 6.07211 5.12844 5.62012
#
# Compressibility (1/GPa) = 0.02599710
#
# Stress axis : x y z
#
# Youngs Moduli (GPa) = 33.42047 23.29485 110.47985
#
# Poissons Ratio (x) = 0.41908 0.85501
# Poissons Ratio (y) = 0.60124 0.24557
# Poissons Ratio (z) = 0.25864 0.05178
#
# Static dielectric constant tensor:
#      x y z
#    x 1.637690 0.000000 0.000000 
#    y 0.000000 1.668880 0.000000 
#    z 0.000000 0.000000 1.681590 
# 
# From -- ./inp_files/20839.got.cif
#   From: 2010.05.17/outbox.cif.g08.bks.cpg/sg53_11_cif.got.tgz:20839.got - 2010.06.03 12:45:16.
