data_PCOD9416734
_publ_section_title
;
Structure prediction by ZEFSAII (Michael W. Deem and Ramdas Pophale) SiO2 
 PCOD9416734
Probable space group: P M N A
;
_chemical_formula_sum "Si O2"
_cell_formula_units_Z 56
_cell_length_a 9.508495
_cell_length_b 14.928092
_cell_length_c 20.736198
_cell_angle_alpha 90.000000
_cell_angle_beta 90.000000
_cell_angle_gamma 90.000000
_cell_volume 2943.372422
_symmetry_space_group_name_H-M "P M N A"
_symmetry_group_IT_number 53
_symmetry_cell_setting 'orthorhombic'
loop_
_space_group_symop_operation_xyz
x,y,z
1/2-x,-y,1/2+z
x,-y,-z
1/2-x,y,1/2-z
-x,-y,-z
1/2+x,y,1/2-z
-x,y,z
1/2+x,-y,1/2+z
loop_
_atom_site_type_symbol
_atom_site_label
_atom_site_fract_x
_atom_site_fract_y
_atom_site_fract_z
Si Si1 0.844676 0.160029 0.690716
Si Si2 0.833558 0.925909 0.945539
Si Si3 0.838359 0.945363 0.686911
Si Si4 0.845913 0.273244 0.880959
Si Si5 0.167063 0.446231 0.432487
Si Si6 0.841863 0.716540 0.971866
Si Si7 0.333698 0.461262 0.684213
O O1 0.750000 0.189623 0.750000
O O2 0.771355 0.198814 0.627988
O O3 0.000000 0.196510 0.697235
O O4 0.847715 0.053273 0.691408
O O5 0.743788 0.929592 0.879868
O O6 0.819832 0.823439 0.969601
O O7 0.000000 0.941998 0.931537
O O8 0.792824 0.000000 0.000000
O O9 0.750000 0.914500 0.750000
O O10 0.000000 0.911300 0.686737
O O11 0.825981 0.355722 0.833004
O O12 0.000000 0.231673 0.870113
O O13 0.842606 0.309718 0.953055
O O14 0.190492 0.500000 0.500000
O O15 0.225216 0.345124 0.439504
O O16 0.255885 0.490303 0.375007
O O17 0.000000 0.448642 0.419568
O O18 0.000000 0.698747 0.945710
O O19 0.250000 0.479527 0.750000
O O20 0.500000 0.484357 0.688299
#
# Coordination Sequence:
#
# PCOD9416734 Si02
#       7
#     8   8   8   8   8   8   8
#     4  10  20  32  49  75 109 150 193 240 295 357
#     4  10  21  38  62  91 125 161 201 252 304 362
#     4  10  21  37  57  81 113 156 204 253 307 363
#     4  10  20  34  55  83 115 153 193 239 296 362
#     4  11  23  40  63  90 120 158 202 248 297 354
#     4  10  21  38  61  89 118 156 202 245 300 360
#     4  11  23  39  61  88 122 160 200 250 305 362
#
# _framework density 19.025794999999999
#
# number of rings (size 3 to 8) (size 9 to 14) (size 15 to 20)
#    0.000    1.714    1.429    3.000    0.000    7.143 
#    0.000    0.714    0.000    3.429    0.000    0.000 
#    0.000    0.000    0.000    0.000    0.000    0.000 
#
# Total GULP energy -312387.329135 kJ/mol
# GULP energy per Si atom -5578.345163 kJ/mol
# Density = 1.898249 g / cm^3
# Si number density = 19.025795 Si / 1000 Ang^3
#
#
#
# Elastic Constant Matrix: (Units=GPa)
#
#
# Indices 1 2 3 4 5 6 
#
# 1 146.2432 41.3870 75.5801 0.0000 0.0000 0.0000
# 2 41.3870 56.4468 22.5283 0.0000 0.0000 0.0000
# 3 75.5801 22.5283 118.9643 0.0000 0.0000 0.0000
# 4 0.0000 0.0000 0.0000 30.4102 0.0000 0.0000
# 5 0.0000 0.0000 0.0000 0.0000 32.5036 0.0000
# 6 0.0000 0.0000 0.0000 0.0000 0.0000 4.5272
#
#
#
# Elastic Compliance Matrix: (Units=1/GPa)
#
#
# Indices 1 2 3 4 5 6 
#
# 1 0.011880 -0.006164 -0.006380 0.000000 0.000000 0.000000
# 2 -0.006164 0.022362 -0.000319 0.000000 0.000000 0.000000
# 3 -0.006380 -0.000319 0.012520 0.000000 0.000000 0.000000
# 4 0.000000 0.000000 0.000000 0.032884 0.000000 0.000000
# 5 0.000000 0.000000 0.000000 0.000000 0.030766 0.000000
# 6 0.000000 0.000000 0.000000 0.000000 0.000000 0.220889
#
#
# Mechanical properties :
#
#
# Convention : Reuss Voigt Hill
#
# Bulk Modulus (GPa) = 47.53706 66.73834 57.13770
# Shear Modulus (GPa) = 13.73485 25.63212 19.68348
#
# Velocity S-wave (km/s) = 2.68975 3.67444 3.21996
# Velocity P-wave (km/s) = 5.88949 7.29082 6.62730
#
# Compressibility (1/GPa) = 0.02103622
#
# Stress axis : x y z
#
# Youngs Moduli (GPa) = 84.17806 44.71802 79.87463
#
# Poissons Ratio (x) = 0.27563 0.50961
# Poissons Ratio (y) = 0.51886 0.02546
# Poissons Ratio (z) = 0.53706 0.01426
#
# Static dielectric constant tensor:
#      x y z
#    x 1.705620 0.000000 0.000000 
#    y 0.000000 1.654300 0.000000 
#    z 0.000000 0.000000 1.681450 
# 
# From -- ./inp_files/30747.got.cif
#   From: 2010.05.17/outbox.cif.g08.bks.cpg/sg53_16_cif.got.tgz:30747.got - 2010.06.03 12:45:16.
