data_PCOD9416891
_publ_section_title
;
Structure prediction by ZEFSAII (Michael W. Deem and Ramdas Pophale) SiO2 
 PCOD9416891
Probable space group: P M N A
;
_chemical_formula_sum "Si O2"
_cell_formula_units_Z 64
_cell_length_a 10.095249
_cell_length_b 16.816811
_cell_length_c 20.049740
_cell_angle_alpha 90.000000
_cell_angle_beta 90.000000
_cell_angle_gamma 90.000000
_cell_volume 3403.842243
_symmetry_space_group_name_H-M "P M N A"
_symmetry_group_IT_number 53
_symmetry_cell_setting 'orthorhombic'
loop_
_space_group_symop_operation_xyz
x,y,z
1/2-x,-y,1/2+z
x,-y,-z
1/2-x,y,1/2-z
-x,-y,-z
1/2+x,y,1/2-z
-x,y,z
1/2+x,-y,1/2+z
loop_
_atom_site_type_symbol
_atom_site_label
_atom_site_fract_x
_atom_site_fract_y
_atom_site_fract_z
Si Si1 0.354300 0.426360 0.154985
Si Si2 0.653000 0.322115 0.945835
Si Si3 0.841169 0.874181 0.584830
Si Si4 0.660943 0.978295 0.183169
Si Si5 0.156499 0.866230 0.436439
Si Si6 0.353798 0.601929 0.197887
Si Si7 0.151999 0.583867 0.961332
Si Si8 0.847806 0.754370 0.692315
O O1 0.500000 0.428601 0.119904
O O2 0.352792 0.505967 0.198438
O O3 0.229844 0.430057 0.106767
O O4 0.348102 0.341182 0.190231
O O5 0.500000 0.334755 0.968400
O O6 0.668425 0.228685 0.932572
O O7 0.671621 0.370164 0.877260
O O8 0.759482 0.354089 0.997639
O O9 0.787592 0.888781 0.510054
O O10 0.805069 0.791228 0.621027
O O11 0.000000 0.870914 0.576027
O O12 0.814869 0.942225 0.639125
O O13 0.750000 0.977445 0.250000
O O14 0.500000 0.973586 0.196886
O O15 0.703469 0.909075 0.130808
O O16 0.000000 0.887559 0.437726
O O17 0.250000 0.633924 0.250000
O O18 0.500000 0.629884 0.216089
O O19 0.000000 0.609216 0.952374
O O20 0.152193 0.500000 0.000000
O O21 0.750000 0.782253 0.750000
O O22 0.000000 0.780181 0.704518
#
# Coordination Sequence:
#
# PCOD9416891 Si02
#       8
#     8   8   8   8   8   8   8   8
#     4  10  20  35  53  74 102 140 183 224 270 327
#     4  10  20  36  56  77 103 139 182 223 268 323
#     4   9  17  32  55  83 111 142 183 228 271 322
#     4  10  20  35  58  86 115 146 181 223 275 329
#     4   9  18  34  58  84 108 141 189 235 268 315
#     4  10  21  34  50  71  97 135 178 220 267 317
#     4  11  22  34  52  79 106 134 172 223 279 326
#     4  10  20  33  52  78 109 145 183 227 278 331
#
# _framework density 18.802282000000002
#
# number of rings (size 3 to 8) (size 9 to 14) (size 15 to 20)
#    0.000    2.125    1.250    2.250    0.000    6.000 
#    0.000    0.625    0.000    3.000    0.000    0.000 
#    0.000    0.000    0.000    0.000    0.000    0.000 
#
# Total GULP energy -356690.886470 kJ/mol
# GULP energy per Si atom -5573.295101 kJ/mol
# Density = 1.875949 g / cm^3
# Si number density = 18.802282 Si / 1000 Ang^3
#
#
#
# Elastic Constant Matrix: (Units=GPa)
#
#
# Indices 1 2 3 4 5 6 
#
# 1 90.4476 11.0284 45.0723 0.0000 0.0000 0.0000
# 2 11.0284 30.3981 29.8413 0.0000 0.0000 0.0000
# 3 45.0723 29.8413 89.7622 0.0000 0.0000 0.0000
# 4 0.0000 0.0000 0.0000 4.4608 0.0000 0.0000
# 5 0.0000 0.0000 0.0000 0.0000 32.1098 0.0000
# 6 0.0000 0.0000 0.0000 0.0000 0.0000 65.6223
#
#
#
# Elastic Compliance Matrix: (Units=1/GPa)
#
#
# Indices 1 2 3 4 5 6 
#
# 1 0.014914 0.002881 -0.008447 0.000000 0.000000 0.000000
# 2 0.002881 0.049391 -0.017867 0.000000 0.000000 0.000000
# 3 -0.008447 -0.017867 0.021322 0.000000 0.000000 0.000000
# 4 0.000000 0.000000 0.000000 0.224177 0.000000 0.000000
# 5 0.000000 0.000000 0.000000 0.000000 0.031143 0.000000
# 6 0.000000 0.000000 0.000000 0.000000 0.000000 0.015239
#
#
# Mechanical properties :
#
#
# Convention : Reuss Voigt Hill
#
# Bulk Modulus (GPa) = 25.79829 42.49909 34.14869
# Shear Modulus (GPa) = 12.02010 28.74965 20.38487
#
# Velocity S-wave (km/s) = 2.53116 3.91455 3.29625
# Velocity P-wave (km/s) = 4.72154 6.56383 5.71738
#
# Compressibility (1/GPa) = 0.03876226
#
# Stress axis : x y z
#
# Youngs Moduli (GPa) = 67.05128 20.24663 46.90091
#
# Poissons Ratio (x) = -0.05833 0.39615
# Poissons Ratio (y) = -0.19318 0.83796
# Poissons Ratio (z) = 0.56635 0.36174
#
# Static dielectric constant tensor:
#      x y z
#    x 1.645940 0.000000 0.000000 
#    y 0.000000 1.685740 0.000000 
#    z 0.000000 0.000000 1.664570 
# 
# From -- ./inp_files/31121.got.cif
#   From: 2010.05.17/outbox.cif.g08.bks.cpg/sg53_16_cif.got.tgz:31121.got - 2010.06.03 12:45:16.
