data_PCOD9416683
_publ_section_title
;
Structure prediction by ZEFSAII (Michael W. Deem and Ramdas Pophale) SiO2 
 PCOD9416683
Probable space group: P M N A
;
_chemical_formula_sum "Si O2"
_cell_formula_units_Z 64
_cell_length_a 7.556029
_cell_length_b 19.147108
_cell_length_c 23.252075
_cell_angle_alpha 90.000000
_cell_angle_beta 90.000000
_cell_angle_gamma 90.000000
_cell_volume 3364.019605
_symmetry_space_group_name_H-M "P M N A"
_symmetry_group_IT_number 53
_symmetry_cell_setting 'orthorhombic'
loop_
_space_group_symop_operation_xyz
x,y,z
1/2-x,-y,1/2+z
x,-y,-z
1/2-x,y,1/2-z
-x,-y,-z
1/2+x,y,1/2-z
-x,y,z
1/2+x,-y,1/2+z
loop_
_atom_site_type_symbol
_atom_site_label
_atom_site_fract_x
_atom_site_fract_y
_atom_site_fract_z
Si Si1 0.205477 0.136597 0.862796
Si Si2 0.287945 0.994301 0.685235
Si Si3 0.285421 0.132418 0.392807
Si Si4 0.287277 0.717984 0.318105
Si Si5 0.287184 0.736804 0.682044
Si Si6 0.287529 0.433690 0.681548
Si Si7 0.707120 0.922338 0.014832
Si Si8 0.787784 0.583807 0.818298
O O1 0.282134 0.212864 0.849737
O O2 0.211954 0.112814 0.928900
O O3 0.000000 0.141619 0.845156
O O4 0.284452 0.071584 0.827404
O O5 0.250000 0.972227 0.750000
O O6 0.500000 0.997143 0.677875
O O7 0.221772 0.937005 0.640343
O O8 0.500000 0.132709 0.391402
O O9 0.222665 0.200129 0.357736
O O10 0.230296 0.125169 0.458672
O O11 0.250000 0.724945 0.250000
O O12 0.500000 0.715035 0.325200
O O13 0.219471 0.641886 0.338790
O O14 0.250000 0.747693 0.750000
O O15 0.500000 0.735596 0.677172
O O16 0.220380 0.659964 0.662959
O O17 0.250000 0.433619 0.750000
O O18 0.500000 0.434338 0.674019
O O19 0.220204 0.508836 0.658903
O O20 0.500000 0.930973 0.027619
O O21 0.779692 0.000000 0.000000
O O22 0.750000 0.583166 0.750000
O O23 0.000000 0.583968 0.826341
#
# Coordination Sequence:
#
# PCOD9416683 Si02
#       8
#     8   8   8   8   8   8   8   8
#     4  10  20  34  50  67  90 121 153 185 226 272
#     4  10  20  31  46  67  91 120 148 176 217 266
#     4  10  20  34  50  67  90 121 153 185 226 272
#     4   9  17  28  44  68  96 125 154 184 222 267
#     4   9  17  28  44  68  96 125 154 184 222 267
#     4   8  13  22  37  59  89 122 152 181 214 256
#     4  11  23  37  53  71  86 109 150 198 237 269
#     4   8  13  22  37  59  89 122 152 181 214 256
#
# _framework density 19.024857999999998
#
# number of rings (size 3 to 8) (size 9 to 14) (size 15 to 20)
#    0.000    2.625    1.250    1.125    0.000    2.500 
#    0.000    0.000    0.000    0.000    0.000    0.875 
#    0.000    7.000    0.000    0.000    0.000    0.000 
#
# Total GULP energy -356592.966912 kJ/mol
# GULP energy per Si atom -5571.765108 kJ/mol
# Density = 1.898156 g / cm^3
# Si number density = 19.024858 Si / 1000 Ang^3
#
#
#
# Elastic Constant Matrix: (Units=GPa)
#
#
# Indices 1 2 3 4 5 6 
#
# 1 48.0290 6.9523 -13.0795 0.0000 0.0000 0.0000
# 2 6.9523 153.2841 12.4479 0.0000 0.0000 0.0000
# 3 -13.0795 12.4479 38.3374 0.0000 0.0000 0.0000
# 4 0.0000 0.0000 0.0000 6.7065 0.0000 0.0000
# 5 0.0000 0.0000 0.0000 0.0000 16.1161 0.0000
# 6 0.0000 0.0000 0.0000 0.0000 0.0000 -10.7332
#
#
#
# Elastic Compliance Matrix: (Units=1/GPa)
#
#
# Indices 1 2 3 4 5 6 
#
# 1 0.023405 -0.001756 0.008555 0.000000 0.000000 0.000000
# 2 -0.001756 0.006832 -0.002818 0.000000 0.000000 0.000000
# 3 0.008555 -0.002818 0.029918 0.000000 0.000000 0.000000
# 4 0.000000 0.000000 0.000000 0.149108 0.000000 0.000000
# 5 0.000000 0.000000 0.000000 0.000000 0.062050 0.000000
# 6 0.000000 0.000000 0.000000 0.000000 0.000000 -0.093169
#
#
# Mechanical properties :
#
#
# Convention : Reuss Voigt Hill
#
# Bulk Modulus (GPa) = 14.68049 28.03241 21.35645
# Shear Modulus (GPa) = 25.92187 17.97321 21.94754
#
# Velocity S-wave (km/s) = 3.69525 3.07697 3.40019
# Velocity P-wave (km/s) = 5.09310 5.23357 5.16381
#
# Compressibility (1/GPa) = 0.06811761
#
# Stress axis : x y z
#
# Youngs Moduli (GPa) = 42.72632 146.36354 33.42491
#
# Poissons Ratio (x) = 0.25706 -0.28596
# Poissons Ratio (y) = 0.07504 0.09418
# Poissons Ratio (z) = -0.36553 0.41239
#
# Static dielectric constant tensor:
#      x y z
#    x 1.706880 0.000000 0.000000 
#    y 0.000000 1.754840 0.000000 
#    z 0.000000 0.000000 1.601120 
# 
# From -- ./inp_files/34510.got.cif
#   From: 2010.05.17/outbox.cif.g08.bks.cpg/sg53_18_cif.got.tgz:34510.got - 2010.06.03 12:45:16.
