data_PCOD9416326
_publ_section_title
;
Structure prediction by ZEFSAII (Michael W. Deem and Ramdas Pophale) SiO2 
 PCOD9416326
Probable space group: P M N A
;
_chemical_formula_sum "Si O2"
_cell_formula_units_Z 40
_cell_length_a 8.223155
_cell_length_b 14.673970
_cell_length_c 14.711492
_cell_angle_alpha 90.000000
_cell_angle_beta 90.000000
_cell_angle_gamma 90.000000
_cell_volume 1775.181745
_symmetry_space_group_name_H-M "P M N A"
_symmetry_group_IT_number 53
_symmetry_cell_setting 'orthorhombic'
loop_
_space_group_symop_operation_xyz
x,y,z
1/2-x,-y,1/2+z
x,-y,-z
1/2-x,y,1/2-z
-x,-y,-z
1/2+x,y,1/2-z
-x,y,z
1/2+x,-y,1/2+z
loop_
_atom_site_type_symbol
_atom_site_label
_atom_site_fract_x
_atom_site_fract_y
_atom_site_fract_z
Si Si1 0.692768 0.587247 0.645956
Si Si2 0.317296 0.792846 0.605089
Si Si3 0.323322 0.796015 0.395237
Si Si4 0.309110 0.395942 0.854465
Si Si5 0.500000 0.894609 0.888080
Si Si6 0.000000 0.892812 0.389009
O O1 0.750000 0.596265 0.750000
O O2 0.500000 0.571506 0.643111
O O3 0.726604 0.685546 0.603581
O O4 0.775642 0.496645 0.607079
O O5 0.500000 0.801765 0.645421
O O6 0.330561 0.824479 0.500712
O O7 0.165091 0.846609 0.645905
O O8 0.500000 0.815687 0.353566
O O9 0.291377 0.687723 0.394473
O O10 0.164361 0.844149 0.355424
O O11 0.250000 0.400587 0.750000
O O12 0.500000 0.375687 0.859785
O O13 0.500000 0.000997 0.866307
O O14 0.500000 0.885233 0.999460
#
# Coordination Sequence:
#
# PCOD9416326 Si02
#       6
#     8   8   8   8   4   4
#     4  10  20  34  51  77 106 140 181 212 256 314
#     4   9  20  34  53  80 107 139 176 216 266 312
#     4  10  19  35  54  78 109 138 174 219 264 310
#     4  11  21  34  52  78 106 140 181 212 257 316
#     4   9  18  32  57  75 111 131 175 220 266 312
#     4   9  18  34  51  85 101 137 173 220 266 320
#
# _framework density 22.532903000000001
#
# number of rings (size 3 to 8) (size 9 to 14) (size 15 to 20)
#    0.000    2.200    1.000    3.600    2.800    1.600 
#    0.000    8.000    0.000    1.200    0.000    0.000 
#    0.000    0.000    0.000    0.000    0.000    0.000 
#
# Total GULP energy -223372.697879 kJ/mol
# GULP energy per Si atom -5584.317447 kJ/mol
# Density = 2.248162 g / cm^3
# Si number density = 22.532903 Si / 1000 Ang^3
#
#
#
# Elastic Constant Matrix: (Units=GPa)
#
#
# Indices 1 2 3 4 5 6 
#
# 1 193.5812 99.6642 9.4914 0.0000 0.0000 0.0000
# 2 99.6642 119.4141 -3.5583 0.0000 0.0000 0.0000
# 3 9.4914 -3.5583 47.4455 0.0000 0.0000 0.0000
# 4 0.0000 0.0000 0.0000 27.7637 0.0000 0.0000
# 5 0.0000 0.0000 0.0000 0.0000 14.5551 0.0000
# 6 0.0000 0.0000 0.0000 0.0000 0.0000 20.8058
#
#
#
# Elastic Compliance Matrix: (Units=1/GPa)
#
#
# Indices 1 2 3 4 5 6 
#
# 1 0.009335 -0.007865 -0.002457 0.000000 0.000000 0.000000
# 2 -0.007865 0.015018 0.002700 0.000000 0.000000 0.000000
# 3 -0.002457 0.002700 0.021771 0.000000 0.000000 0.000000
# 4 0.000000 0.000000 0.000000 0.036018 0.000000 0.000000
# 5 0.000000 0.000000 0.000000 0.000000 0.068704 0.000000
# 6 0.000000 0.000000 0.000000 0.000000 0.000000 0.048064
#
#
# Mechanical properties :
#
#
# Convention : Reuss Voigt Hill
#
# Bulk Modulus (GPa) = 32.38322 63.51504 47.94913
# Shear Modulus (GPa) = 22.27678 29.61448 25.94563
#
# Velocity S-wave (km/s) = 3.14767 3.62923 3.39699
# Velocity P-wave (km/s) = 5.25482 6.76835 6.05903
#
# Compressibility (1/GPa) = 0.03088019
#
# Stress axis : x y z
#
# Youngs Moduli (GPa) = 107.12032 66.58457 45.93291
#
# Poissons Ratio (x) = 0.52366 0.11287
# Poissons Ratio (y) = 0.84245 -0.12400
# Poissons Ratio (z) = 0.26323 -0.17975
#
# Static dielectric constant tensor:
#      x y z
#    x 1.834210 0.000000 0.000000 
#    y 0.000000 1.798160 0.000000 
#    z 0.000000 0.000000 1.802290 
# 
# From -- ./inp_files/19905.got.cif
#   From: 2010.05.17/outbox.cif.g08.bks.cpg/sg53_10_cif.got.tgz:19905.got - 2010.06.03 12:45:16.
