data_PCOD9416395
_publ_section_title
;
Structure prediction by ZEFSAII (Michael W. Deem and Ramdas Pophale) SiO2 
 PCOD9416395
Probable space group: P M N A
;
_chemical_formula_sum "Si O2"
_cell_formula_units_Z 48
_cell_length_a 8.899962
_cell_length_b 10.498432
_cell_length_c 28.856395
_cell_angle_alpha 90.000000
_cell_angle_beta 90.000000
_cell_angle_gamma 90.000000
_cell_volume 2696.215904
_symmetry_space_group_name_H-M "P M N A"
_symmetry_group_IT_number 53
_symmetry_cell_setting 'orthorhombic'
loop_
_space_group_symop_operation_xyz
x,y,z
1/2-x,-y,1/2+z
x,-y,-z
1/2-x,y,1/2-z
-x,-y,-z
1/2+x,y,1/2-z
-x,y,z
1/2+x,-y,1/2+z
loop_
_atom_site_type_symbol
_atom_site_label
_atom_site_fract_x
_atom_site_fract_y
_atom_site_fract_z
Si Si1 0.318903 0.263425 0.604683
Si Si2 0.820345 0.762042 0.607284
Si Si3 0.321873 0.000751 0.445001
Si Si4 0.180284 0.149533 0.799017
Si Si5 0.818704 0.495081 0.446312
Si Si6 0.179965 0.149469 0.200373
O O1 0.500000 0.276498 0.603765
O O2 0.271716 0.234804 0.657551
O O3 0.245725 0.385963 0.581802
O O4 0.280378 0.136159 0.575905
O O5 0.767794 0.886108 0.579083
O O6 0.774495 0.636479 0.578681
O O7 0.745672 0.771032 0.657817
O O8 0.000000 0.761972 0.612118
O O9 0.500000 0.020389 0.435430
O O10 0.299358 0.000000 0.500000
O O11 0.250000 0.187028 0.750000
O O12 0.000000 0.155274 0.795884
O O13 0.218826 0.000504 0.807873
O O14 0.768861 0.500000 0.500000
O O15 0.000000 0.501649 0.446083
O O16 0.250000 0.184669 0.250000
O O17 0.000000 0.159707 0.201904
#
# Coordination Sequence:
#
# PCOD9416395 Si02
#       6
#     8   8   8   8   8   8
#     4  10  20  36  56  83 112 143 187 233 280 337
#     4  11  22  36  56  83 114 150 193 234 283 341
#     4  10  20  35  56  82 112 144 185 240 292 339
#     4   9  18  33  54  82 114 142 177 226 276 331
#     4  10  23  41  57  78 113 153 192 235 280 333
#     4  10  19  35  58  85 118 148 184 233 284 337
#
# _framework density 17.802727999999998
#
# number of rings (size 3 to 8) (size 9 to 14) (size 15 to 20)
#    0.000    2.000    1.667    2.000    0.000    4.000 
#    0.000    0.833    0.000    2.000    0.000    0.000 
#    0.000    0.000    0.000    0.000    0.000    0.000 
#
# Total GULP energy -268033.227831 kJ/mol
# GULP energy per Si atom -5584.025580 kJ/mol
# Density = 1.776221 g / cm^3
# Si number density = 17.802728 Si / 1000 Ang^3
#
#
#
# Elastic Constant Matrix: (Units=GPa)
#
#
# Indices 1 2 3 4 5 6 
#
# 1 29.7007 34.9413 44.7233 0.0000 0.0000 0.0000
# 2 34.9413 112.1198 71.0805 0.0000 0.0000 0.0000
# 3 44.7233 71.0805 142.5080 0.0000 0.0000 0.0000
# 4 0.0000 0.0000 0.0000 31.7289 0.0000 0.0000
# 5 0.0000 0.0000 0.0000 0.0000 33.8145 0.0000
# 6 0.0000 0.0000 0.0000 0.0000 0.0000 44.3384
#
#
#
# Elastic Compliance Matrix: (Units=1/GPa)
#
#
# Indices 1 2 3 4 5 6 
#
# 1 0.073621 -0.012132 -0.017053 0.000000 0.000000 0.000000
# 2 -0.012132 0.015043 -0.003696 0.000000 0.000000 0.000000
# 3 -0.017053 -0.003696 0.014212 0.000000 0.000000 0.000000
# 4 0.000000 0.000000 0.000000 0.031517 0.000000 0.000000
# 5 0.000000 0.000000 0.000000 0.000000 0.029573 0.000000
# 6 0.000000 0.000000 0.000000 0.000000 0.000000 0.022554
#
#
# Mechanical properties :
#
#
# Convention : Reuss Voigt Hill
#
# Bulk Modulus (GPa) = 26.94406 65.09096 46.01751
# Shear Modulus (GPa) = 18.89266 30.88191 24.88729
#
# Velocity S-wave (km/s) = 3.26118 4.16946 3.74297
# Velocity P-wave (km/s) = 5.41738 7.73440 6.67716
#
# Compressibility (1/GPa) = 0.03711392
#
# Stress axis : x y z
#
# Youngs Moduli (GPa) = 13.58314 66.47659 70.36183
#
# Poissons Ratio (x) = 0.80651 1.19988
# Poissons Ratio (y) = 0.16479 0.26003
# Poissons Ratio (z) = 0.23163 0.24568
#
# Static dielectric constant tensor:
#      x y z
#    x 1.599730 0.000000 0.000000 
#    y 0.000000 1.577990 0.000000 
#    z 0.000000 0.000000 1.604470 
# 
# From -- ./inp_files/37714.got.cif
#   From: 2010.05.17/outbox.cif.g08.bks.cpg/sg53_19_cif.got.tgz:37714.got - 2010.06.03 12:45:16.
