data_PCOD9416577
_publ_section_title
;
Structure prediction by ZEFSAII (Michael W. Deem and Ramdas Pophale) SiO2 
 PCOD9416577
Probable space group: P M N A
;
_chemical_formula_sum "Si O2"
_cell_formula_units_Z 64
_cell_length_a 8.755283
_cell_length_b 25.335338
_cell_length_c 14.779158
_cell_angle_alpha 90.000000
_cell_angle_beta 90.000000
_cell_angle_gamma 90.000000
_cell_volume 3278.284069
_symmetry_space_group_name_H-M "P M N A"
_symmetry_group_IT_number 53
_symmetry_cell_setting 'orthorhombic'
loop_
_space_group_symop_operation_xyz
x,y,z
1/2-x,-y,1/2+z
x,-y,-z
1/2-x,y,1/2-z
-x,-y,-z
1/2+x,y,1/2-z
-x,y,z
1/2+x,-y,1/2+z
loop_
_atom_site_type_symbol
_atom_site_label
_atom_site_fract_x
_atom_site_fract_y
_atom_site_fract_z
Si Si1 0.683527 0.633370 0.153103
Si Si2 0.320927 0.407677 0.343134
Si Si3 0.172184 0.019718 0.396389
Si Si4 0.818037 0.876373 0.962119
Si Si5 0.817584 0.676667 0.532636
Si Si6 0.177376 0.512852 0.393362
Si Si7 0.682911 0.228178 0.351010
Si Si8 0.184358 0.905706 0.343919
O O1 0.750000 0.647269 0.250000
O O2 0.500000 0.634664 0.156363
O O3 0.724528 0.572646 0.128495
O O4 0.732063 0.671886 0.071782
O O5 0.250000 0.386907 0.250000
O O6 0.500000 0.396944 0.348475
O O7 0.230553 0.378600 0.422461
O O8 0.286262 0.469717 0.348817
O O9 0.269428 0.072599 0.403018
O O10 0.000000 0.031409 0.363590
O O11 0.159945 0.000000 0.500000
O O12 0.234810 0.967523 0.348298
O O13 0.742040 0.880238 0.061905
O O14 0.000000 0.876667 0.974496
O O15 0.772532 0.824351 0.906728
O O16 0.740469 0.722208 0.590936
O O17 0.000000 0.682462 0.536451
O O18 0.181545 0.500000 0.500000
O O19 0.000000 0.505382 0.363808
O O20 0.750000 0.228489 0.250000
O O21 0.500000 0.229795 0.344503
O O22 0.250000 0.883003 0.250000
O O23 0.000000 0.904732 0.343502
#
# Coordination Sequence:
#
# PCOD9416577 Si02
#       8
#     8   8   8   8   8   8   8   8
#     4  10  22  39  62  88 118 155 192 235 287 342
#     4  12  24  37  57  86 118 154 194 236 286 344
#     4   8  16  31  51  78 114 155 197 240 287 340
#     4  10  21  37  58  85 119 156 198 245 297 354
#     4  11  23  43  65  86 114 152 193 240 297 347
#     4  10  19  37  59  84 121 157 191 235 284 340
#     4  11  25  44  65  91 117 148 190 243 298 353
#     4  10  20  34  55  85 122 162 203 245 293 347
#
# _framework density 19.522407999999999
#
# number of rings (size 3 to 8) (size 9 to 14) (size 15 to 20)
#    0.000    1.750    1.250    4.125    0.000    8.000 
#    0.000    3.125    0.000    1.500    0.000    0.000 
#    0.000    0.000    0.000    0.000    0.000    0.000 
#
# Total GULP energy -357345.963791 kJ/mol
# GULP energy per Si atom -5583.530684 kJ/mol
# Density = 1.947797 g / cm^3
# Si number density = 19.522408 Si / 1000 Ang^3
#
#
#
# Elastic Constant Matrix: (Units=GPa)
#
#
# Indices 1 2 3 4 5 6 
#
# 1 32.4956 31.3514 35.2908 0.0000 0.0000 0.0000
# 2 31.3514 96.4670 57.0251 0.0000 0.0000 0.0000
# 3 35.2908 57.0251 157.4212 0.0000 0.0000 0.0000
# 4 0.0000 0.0000 0.0000 26.2986 0.0000 0.0000
# 5 0.0000 0.0000 0.0000 0.0000 17.7282 0.0000
# 6 0.0000 0.0000 0.0000 0.0000 0.0000 43.6845
#
#
#
# Elastic Compliance Matrix: (Units=1/GPa)
#
#
# Indices 1 2 3 4 5 6 
#
# 1 0.049909 -0.012224 -0.006761 0.000000 0.000000 0.000000
# 2 -0.012224 0.016185 -0.003123 0.000000 0.000000 0.000000
# 3 -0.006761 -0.003123 0.008999 0.000000 0.000000 0.000000
# 4 0.000000 0.000000 0.000000 0.038025 0.000000 0.000000
# 5 0.000000 0.000000 0.000000 0.000000 0.056407 0.000000
# 6 0.000000 0.000000 0.000000 0.000000 0.000000 0.022891
#
#
# Mechanical properties :
#
#
# Convention : Reuss Voigt Hill
#
# Bulk Modulus (GPa) = 32.38450 59.30206 45.84328
# Shear Modulus (GPa) = 20.24921 28.39001 24.31961
#
# Velocity S-wave (km/s) = 3.22410 3.81757 3.53332
# Velocity P-wave (km/s) = 5.52124 7.06216 6.33870
#
# Compressibility (1/GPa) = 0.03087897
#
# Stress axis : x y z
#
# Youngs Moduli (GPa) = 20.03650 61.78662 111.12212
#
# Poissons Ratio (x) = 0.75526 0.75126
# Poissons Ratio (y) = 0.24492 0.34698
# Poissons Ratio (z) = 0.13546 0.19293
#
# Static dielectric constant tensor:
#      x y z
#    x 1.666000 0.000000 0.000000 
#    y 0.000000 1.688420 0.000000 
#    z 0.000000 0.000000 1.696270 
# 
# From -- ./inp_files/20837.got.cif
#   From: 2010.05.17/outbox.cif.g08.bks.cpg/sg53_11_cif.got.tgz:20837.got - 2010.06.03 12:45:16.
