data_PCOD9416352
_publ_section_title
;
Structure prediction by ZEFSAII (Michael W. Deem and Ramdas Pophale) SiO2 
 PCOD9416352
Probable space group: P M N A
;
_chemical_formula_sum "Si O2"
_cell_formula_units_Z 48
_cell_length_a 7.841740
_cell_length_b 15.502604
_cell_length_c 19.766372
_cell_angle_alpha 90.000000
_cell_angle_beta 90.000000
_cell_angle_gamma 90.000000
_cell_volume 2402.946252
_symmetry_space_group_name_H-M "P M N A"
_symmetry_group_IT_number 53
_symmetry_cell_setting 'orthorhombic'
loop_
_space_group_symop_operation_xyz
x,y,z
1/2-x,-y,1/2+z
x,-y,-z
1/2-x,y,1/2-z
-x,-y,-z
1/2+x,y,1/2-z
-x,y,z
1/2+x,-y,1/2+z
loop_
_atom_site_type_symbol
_atom_site_label
_atom_site_fract_x
_atom_site_fract_y
_atom_site_fract_z
Si Si1 0.706492 0.532584 0.425417
Si Si2 0.709454 0.728799 0.434414
Si Si3 0.205165 0.870364 0.172936
Si Si4 0.302070 0.620778 0.827987
Si Si5 0.293958 0.934219 0.672747
Si Si6 0.301012 0.779389 0.582879
O O1 0.759427 0.500000 0.500000
O O2 0.500000 0.529811 0.423842
O O3 0.762002 0.631428 0.416909
O O4 0.770235 0.467709 0.368243
O O5 0.500000 0.727800 0.434928
O O6 0.766593 0.799519 0.380172
O O7 0.769881 0.753949 0.509649
O O8 0.250000 0.847844 0.250000
O O9 0.000000 0.872789 0.167718
O O10 0.268031 0.968110 0.159920
O O11 0.250000 0.614075 0.750000
O O12 0.500000 0.642722 0.831092
O O13 0.208406 0.697541 0.867571
O O14 0.250000 0.910903 0.750000
O O15 0.500000 0.935241 0.668480
O O16 0.226863 0.862715 0.620833
O O17 0.500000 0.799062 0.570827
#
# Coordination Sequence:
#
# PCOD9416352 Si02
#       6
#     8   8   8   8   8   8
#     4  10  19  37  61  81 109 148 182 222 278 334
#     4   9  18  33  57  82 108 142 180 221 274 331
#     4   9  18  34  53  78 108 142 182 225 270 321
#     4  12  25  39  57  83 113 145 185 232 275 327
#     4   9  18  31  52  77 107 143 181 223 269 321
#     4  10  19  35  56  81 110 144 181 223 276 331
#
# _framework density 19.975477999999999
#
# number of rings (size 3 to 8) (size 9 to 14) (size 15 to 20)
#    0.000    2.167    1.667    2.000    0.000    3.667 
#    0.000    6.667    0.000    0.000    0.000    5.833 
#    0.000    0.000    0.000    0.000    0.000    0.000 
#
# Total GULP energy -268004.386303 kJ/mol
# GULP energy per Si atom -5583.424715 kJ/mol
# Density = 1.993001 g / cm^3
# Si number density = 19.975478 Si / 1000 Ang^3
#
#
#
# Elastic Constant Matrix: (Units=GPa)
#
#
# Indices 1 2 3 4 5 6 
#
# 1 22.1181 -9.4872 -11.3051 0.0000 0.0000 0.0000
# 2 -9.4872 136.7942 92.0513 0.0000 0.0000 0.0000
# 3 -11.3051 92.0513 143.8974 0.0000 0.0000 0.0000
# 4 0.0000 0.0000 0.0000 -31.6792 0.0000 0.0000
# 5 0.0000 0.0000 0.0000 0.0000 20.0793 0.0000
# 6 0.0000 0.0000 0.0000 0.0000 0.0000 6.7115
#
#
#
# Elastic Compliance Matrix: (Units=1/GPa)
#
#
# Indices 1 2 3 4 5 6 
#
# 1 0.047249 0.001368 0.002837 0.000000 0.000000 0.000000
# 2 0.001368 0.012875 -0.008129 0.000000 0.000000 0.000000
# 3 0.002837 -0.008129 0.012372 0.000000 0.000000 0.000000
# 4 0.000000 0.000000 0.000000 -0.031566 0.000000 0.000000
# 5 0.000000 0.000000 0.000000 0.000000 0.049803 0.000000
# 6 0.000000 0.000000 0.000000 0.000000 0.000000 0.148998
#
#
# Mechanical properties :
#
#
# Convention : Reuss Voigt Hill
#
# Bulk Modulus (GPa) = 15.46836 49.48086 32.47461
# Shear Modulus (GPa) = 18.57854 14.45902 16.51878
#
# Velocity S-wave (km/s) = 3.05301 2.69334 2.87880
# Velocity P-wave (km/s) = 4.49314 5.87339 5.22901
#
# Compressibility (1/GPa) = 0.06464808
#
# Stress axis : x y z
#
# Youngs Moduli (GPa) = 21.16465 77.66924 80.82593
#
# Poissons Ratio (x) = -0.10623 -0.22931
# Poissons Ratio (y) = -0.02895 0.65702
# Poissons Ratio (z) = -0.06005 0.63136
#
# Static dielectric constant tensor:
#      x y z
#    x 1.735890 0.000000 0.000000 
#    y 0.000000 1.695880 0.000000 
#    z 0.000000 0.000000 1.599780 
# 
# From -- ./inp_files/26182.got.cif
#   From: 2010.05.17/outbox.cif.g08.bks.cpg/sg53_14_cif.got.tgz:26182.got - 2010.06.03 12:45:16.
