data_PCOD9416667
_publ_section_title
;
Structure prediction by ZEFSAII (Michael W. Deem and Ramdas Pophale) SiO2 
 PCOD9416667
Probable space group: P M N A
;
_chemical_formula_sum "Si O2"
_cell_formula_units_Z 48
_cell_length_a 32.448266
_cell_length_b 8.284139
_cell_length_c 8.936919
_cell_angle_alpha 90.000000
_cell_angle_beta 90.000000
_cell_angle_gamma 90.000000
_cell_volume 2402.296965
_symmetry_space_group_name_H-M "P M N A"
_symmetry_group_IT_number 53
_symmetry_cell_setting 'orthorhombic'
loop_
_space_group_symop_operation_xyz
x,y,z
1/2-x,-y,1/2+z
x,-y,-z
1/2-x,y,1/2-z
-x,-y,-z
1/2+x,y,1/2-z
-x,y,z
1/2+x,-y,1/2+z
loop_
_atom_site_type_symbol
_atom_site_label
_atom_site_fract_x
_atom_site_fract_y
_atom_site_fract_z
Si Si1 0.207021 0.149490 0.676546
Si Si2 0.578521 0.000000 0.000000
Si Si3 0.072049 0.000000 0.000000
Si Si4 0.706749 0.760063 0.836272
Si Si5 0.380213 0.792216 0.257231
Si Si6 0.123332 0.558827 0.673920
Si Si7 0.955498 0.223212 0.255602
O O1 0.250000 0.183619 0.750000
O O2 0.208349 0.239898 0.517022
O O3 0.168696 0.210076 0.768950
O O4 0.200849 0.954449 0.681402
O O5 0.549348 0.908854 0.885177
O O6 0.606833 0.121549 0.900667
O O7 0.099464 0.102507 0.885276
O O8 0.047356 0.872188 0.900384
O O9 0.750000 0.719054 0.750000
O O10 0.666891 0.651026 0.791937
O O11 0.389627 0.604181 0.259566
O O12 0.124999 0.500000 0.500000
O O13 0.085621 0.675400 0.714002
O O14 0.000000 0.307262 0.267226
#
# Coordination Sequence:
#
# PCOD9416667 Si02
#       7
#     8   4   4   8   8   8   8
#     4  10  20  35  60  90 124 168 219 260 306 381
#     4  10  19  40  67  92 122 176 227 268 310 390
#     4  10  25  44  67  90 128 174 227 270 326 390
#     4  10  21  39  63  90 127 168 212 266 319 376
#     4  11  22  41  65  92 128 174 217 267 326 388
#     4  12  23  41  66  98 137 170 213 270 340 392
#     4  11  23  42  67  98 132 172 222 277 331 394
#
# _framework density 19.980877
#
# number of rings (size 3 to 8) (size 9 to 14) (size 15 to 20)
#    0.000    1.333    3.333    3.500    0.000    5.667 
#    0.000    2.500    0.000    0.000    0.000    0.000 
#    0.000    0.000    0.000    0.000    0.000    0.000 
#
# Total GULP energy -267498.985380 kJ/mol
# GULP energy per Si atom -5572.895529 kJ/mol
# Density = 1.993540 g / cm^3
# Si number density = 19.980877 Si / 1000 Ang^3
#
#
#
# Elastic Constant Matrix: (Units=GPa)
#
#
# Indices 1 2 3 4 5 6 
#
# 1 142.4717 52.5897 39.3286 0.0000 0.0000 0.0000
# 2 52.5897 76.4982 35.8573 0.0000 0.0000 0.0000
# 3 39.3286 35.8573 68.5924 0.0000 0.0000 0.0000
# 4 0.0000 0.0000 0.0000 -2.8356 0.0000 0.0000
# 5 0.0000 0.0000 0.0000 0.0000 -10.6928 0.0000
# 6 0.0000 0.0000 0.0000 0.0000 0.0000 91.0593
#
#
#
# Elastic Compliance Matrix: (Units=1/GPa)
#
#
# Indices 1 2 3 4 5 6 
#
# 1 0.009789 -0.005429 -0.002775 0.000000 0.000000 0.000000
# 2 -0.005429 0.020326 -0.007513 0.000000 0.000000 0.000000
# 3 -0.002775 -0.007513 0.020097 0.000000 0.000000 0.000000
# 4 0.000000 0.000000 0.000000 -0.352660 0.000000 0.000000
# 5 0.000000 0.000000 0.000000 0.000000 -0.093521 0.000000
# 6 0.000000 0.000000 0.000000 0.000000 0.000000 0.010982
#
#
# Mechanical properties :
#
#
# Convention : Reuss Voigt Hill
#
# Bulk Modulus (GPa) = 53.25021 60.34594 56.79808
# Shear Modulus (GPa) = -14.39698 26.15862 5.88082
#
# Velocity S-wave (km/s) = -2.68720 3.62219 1.71744
# Velocity P-wave (km/s) = 4.13285 6.91094 5.69392
#
# Compressibility (1/GPa) = 0.01877927
#
# Stress axis : x y z
#
# Youngs Moduli (GPa) = 102.15772 49.19838 49.75846
#
# Poissons Ratio (x) = 0.26709 0.13806
# Poissons Ratio (y) = 0.55460 0.37382
# Poissons Ratio (z) = 0.28344 0.36962
#
# Static dielectric constant tensor:
#      x y z
#    x 1.704490 0.000000 0.000000 
#    y 0.000000 1.745850 0.000000 
#    z 0.000000 0.000000 1.721850 
# 
# From -- ./inp_files/13091.got.cif
#   From: 2010.05.17/outbox.cif.g08.bks.cpg/sg53_7_cif.got.tgz:13091.got - 2010.06.03 12:45:16.
