data_PCOD9416232
_publ_section_title
;
Structure prediction by ZEFSAII (Michael W. Deem and Ramdas Pophale) SiO2 
 PCOD9416232
Probable space group: P M N A
;
_chemical_formula_sum "Si O2"
_cell_formula_units_Z 60
_cell_length_a 9.597204
_cell_length_b 19.785446
_cell_length_c 17.046160
_cell_angle_alpha 90.000000
_cell_angle_beta 90.000000
_cell_angle_gamma 90.000000
_cell_volume 3236.809435
_symmetry_space_group_name_H-M "P M N A"
_symmetry_group_IT_number 53
_symmetry_cell_setting 'orthorhombic'
loop_
_space_group_symop_operation_xyz
x,y,z
1/2-x,-y,1/2+z
x,-y,-z
1/2-x,y,1/2-z
-x,-y,-z
1/2+x,y,1/2-z
-x,y,z
1/2+x,-y,1/2+z
loop_
_atom_site_type_symbol
_atom_site_label
_atom_site_fract_x
_atom_site_fract_y
_atom_site_fract_z
Si Si1 0.163828 0.380400 0.131949
Si Si2 0.750000 0.736316 0.750000
Si Si3 0.169004 0.636690 0.043872
Si Si4 0.830990 0.530284 0.174727
Si Si5 0.337431 0.985398 0.906954
Si Si6 0.657914 0.173710 0.107782
Si Si7 0.166166 0.214827 0.958786
Si Si8 0.332883 0.101884 0.671493
O O1 0.179646 0.317078 0.189938
O O2 0.215539 0.452451 0.163189
O O3 0.000000 0.365460 0.958349
O O4 0.223116 0.368392 0.045150
O O5 0.828614 0.786426 0.689898
O O6 0.208775 0.575092 0.099472
O O7 0.207378 0.711362 0.073214
O O8 0.000000 0.784946 0.027955
O O9 0.750000 0.557469 0.250000
O O10 0.000000 0.532857 0.184529
O O11 0.500000 0.002259 0.889172
O O12 0.231632 0.031574 0.858846
O O13 0.315983 0.906656 0.886741
O O14 0.317411 0.000000 0.000000
O O15 0.500000 0.181875 0.078824
O O16 0.760665 0.201952 0.041719
O O17 0.500000 0.609456 0.621504
O O18 0.196919 0.156417 0.896652
O O19 0.250000 0.120641 0.750000
O O20 0.500000 0.098218 0.683386
#
# Coordination Sequence:
#
# PCOD9416232 Si02
#       8
#     8   4   8   8   8   8   8   8
#     4  10  19  34  57  83 114 156 194 234 285 350
#     4  12  22  36  58  88 124 154 184 240 296 364
#     4   9  18  35  59  84 112 151 200 242 282 345
#     4  10  20  35  58  86 115 150 197 242 290 346
#     4  10  21  40  63  86 119 158 196 242 298 355
#     4  11  24  39  59  90 121 154 194 241 300 357
#     4  10  21  39  62  86 115 155 199 244 295 353
#     4  11  24  40  61  89 119 158 207 252 299 353
#
# _framework density 18.536773
#
# number of rings (size 3 to 8) (size 9 to 14) (size 15 to 20)
#    0.000    1.733    3.333    1.200    0.933    4.000 
#    0.000    0.667    0.000    0.800    0.000    0.000 
#    0.000    0.000    0.000    0.000    0.000    0.000 
#
# Total GULP energy -334441.273685 kJ/mol
# GULP energy per Si atom -5574.021228 kJ/mol
# Density = 1.849458 g / cm^3
# Si number density = 18.536773 Si / 1000 Ang^3
#
#
#
# Elastic Constant Matrix: (Units=GPa)
#
#
# Indices 1 2 3 4 5 6 
#
# 1 33.7268 30.7280 33.8926 0.0000 0.0000 0.0000
# 2 30.7280 122.1835 56.8590 0.0000 0.0000 0.0000
# 3 33.8926 56.8590 113.0648 0.0000 0.0000 0.0000
# 4 0.0000 0.0000 0.0000 30.4038 0.0000 0.0000
# 5 0.0000 0.0000 0.0000 0.0000 28.7506 0.0000
# 6 0.0000 0.0000 0.0000 0.0000 0.0000 -579.4627
#
#
#
# Elastic Compliance Matrix: (Units=1/GPa)
#
#
# Indices 1 2 3 4 5 6 
#
# 1 0.046369 -0.006780 -0.010490 0.000000 0.000000 0.000000
# 2 -0.006780 0.011676 -0.003840 0.000000 0.000000 0.000000
# 3 -0.010490 -0.003840 0.013920 0.000000 0.000000 0.000000
# 4 0.000000 0.000000 0.000000 0.032891 0.000000 0.000000
# 5 0.000000 0.000000 0.000000 0.000000 0.034782 0.000000
# 6 0.000000 0.000000 0.000000 0.000000 0.000000 -0.001726
#
#
# Mechanical properties :
#
#
# Convention : Reuss Voigt Hill
#
# Bulk Modulus (GPa) = 33.61793 56.88159 45.24976
# Shear Modulus (GPa) = 26.30951 -94.22862 -33.95955
#
# Velocity S-wave (km/s) = 3.77147 -7.13749 -4.28484
# Velocity P-wave (km/s) = 6.09430 6.09693 0.12659
#
# Compressibility (1/GPa) = 0.02974603
#
# Stress axis : x y z
#
# Youngs Moduli (GPa) = 21.56634 85.64446 71.83957
#
# Poissons Ratio (x) = 0.58063 0.75361
# Poissons Ratio (y) = 0.14621 0.27583
# Poissons Ratio (z) = 0.22623 0.32884
#
# Static dielectric constant tensor:
#      x y z
#    x 1.624690 0.000000 0.000000 
#    y 0.000000 1.659330 0.000000 
#    z 0.000000 0.000000 1.644500 
# 
# From -- ./inp_files/26565.got.cif
#   From: 2010.05.17/outbox.cif.g08.bks.cpg/sg53_14_cif.got.tgz:26565.got - 2010.06.03 12:45:16.
