data_PCOD9416444
_publ_section_title
;
Structure prediction by ZEFSAII (Michael W. Deem and Ramdas Pophale) SiO2 
 PCOD9416444
Probable space group: P M N A
;
_chemical_formula_sum "Si O2"
_cell_formula_units_Z 64
_cell_length_a 8.504821
_cell_length_b 12.235366
_cell_length_c 31.848744
_cell_angle_alpha 90.000000
_cell_angle_beta 90.000000
_cell_angle_gamma 90.000000
_cell_volume 3314.167488
_symmetry_space_group_name_H-M "P M N A"
_symmetry_group_IT_number 53
_symmetry_cell_setting 'orthorhombic'
loop_
_space_group_symop_operation_xyz
x,y,z
1/2-x,-y,1/2+z
x,-y,-z
1/2-x,y,1/2-z
-x,-y,-z
1/2+x,y,1/2-z
-x,y,z
1/2+x,-y,1/2+z
loop_
_atom_site_type_symbol
_atom_site_label
_atom_site_fract_x
_atom_site_fract_y
_atom_site_fract_z
Si Si1 0.809974 0.127067 0.624609
Si Si2 0.688416 0.124781 0.126379
Si Si3 0.690572 0.262757 0.451829
Si Si4 0.808984 0.500932 0.078773
Si Si5 0.687716 0.734651 0.205324
Si Si6 0.811717 0.737026 0.795122
Si Si7 0.190244 0.263886 0.953880
Si Si8 0.189980 0.496855 0.823267
O O1 0.755414 0.194547 0.665547
O O2 0.751362 0.185697 0.582574
O O3 0.000000 0.129273 0.624493
O O4 0.758729 0.001273 0.626697
O O5 0.500000 0.126933 0.127782
O O6 0.745141 0.184773 0.084263
O O7 0.752552 0.189407 0.166623
O O8 0.500000 0.260522 0.449835
O O9 0.741552 0.387470 0.442075
O O10 0.738918 0.232259 0.499048
O O11 0.757211 0.611852 0.056178
O O12 0.763079 0.503506 0.127663
O O13 0.000000 0.500712 0.077519
O O14 0.750000 0.775289 0.250000
O O15 0.500000 0.738008 0.205903
O O16 0.741949 0.610030 0.198530
O O17 0.750000 0.774327 0.750000
O O18 0.758994 0.611589 0.803215
O O19 0.000000 0.737760 0.795271
O O20 0.000000 0.263211 0.952661
O O21 0.000000 0.491386 0.821397
#
# Coordination Sequence:
#
# PCOD9416444 Si02
#       8
#     8   8   8   8   8   8   8   8
#     4  10  24  43  59  80 115 154 196 244 293 340
#     4  11  24  42  61  82 113 157 202 244 291 341
#     4  10  20  37  60  90 121 151 191 239 289 344
#     4   9  16  32  58  88 120 151 184 229 288 347
#     4  11  23  39  60  86 116 150 189 237 287 343
#     4  11  23  40  62  90 121 153 189 237 288 346
#     4  10  20  35  62  91 117 152 193 236 287 347
#     4  10  19  35  61  89 119 153 187 228 286 346
#
# _framework density 19.311033999999999
#
# number of rings (size 3 to 8) (size 9 to 14) (size 15 to 20)
#    0.000    1.750    2.500    1.875    0.000    6.500 
#    0.000    4.375    0.000    1.500    0.000    0.000 
#    0.000    0.000    0.000    0.000    0.000    0.000 
#
# Total GULP energy -357598.059288 kJ/mol
# GULP energy per Si atom -5587.469676 kJ/mol
# Density = 1.926708 g / cm^3
# Si number density = 19.311034 Si / 1000 Ang^3
#
#
#
# Elastic Constant Matrix: (Units=GPa)
#
#
# Indices 1 2 3 4 5 6 
#
# 1 21.0277 27.3886 31.9824 0.0000 0.0000 0.0000
# 2 27.3886 155.1410 91.6861 0.0000 0.0000 0.0000
# 3 31.9824 91.6861 201.1247 0.0000 0.0000 0.0000
# 4 0.0000 0.0000 0.0000 -3.1281 0.0000 0.0000
# 5 0.0000 0.0000 0.0000 0.0000 30.9395 0.0000
# 6 0.0000 0.0000 0.0000 0.0000 0.0000 18.7314
#
#
#
# Elastic Compliance Matrix: (Units=1/GPa)
#
#
# Indices 1 2 3 4 5 6 
#
# 1 0.068992 -0.007797 -0.007417 0.000000 0.000000 0.000000
# 2 -0.007797 0.009704 -0.003184 0.000000 0.000000 0.000000
# 3 -0.007417 -0.003184 0.007603 0.000000 0.000000 0.000000
# 4 0.000000 0.000000 0.000000 -0.319682 0.000000 0.000000
# 5 0.000000 0.000000 0.000000 0.000000 0.032321 0.000000
# 6 0.000000 0.000000 0.000000 0.000000 0.000000 0.053386
#
#
# Mechanical properties :
#
#
# Convention : Reuss Voigt Hill
#
# Bulk Modulus (GPa) = 20.20033 75.48973 47.84503
# Shear Modulus (GPa) = -52.97692 24.39099 -14.29297
#
# Velocity S-wave (km/s) = -5.24338 3.55781 -2.72351
# Velocity P-wave (km/s) = 5.11607 7.48690 3.86520
#
# Compressibility (1/GPa) = 0.04950413
#
# Stress axis : x y z
#
# Youngs Moduli (GPa) = 14.49445 103.05276 131.53028
#
# Poissons Ratio (x) = 0.80347 0.97552
# Poissons Ratio (y) = 0.11301 0.41877
# Poissons Ratio (z) = 0.10750 0.32810
#
# Static dielectric constant tensor:
#      x y z
#    x 1.667440 0.000000 0.000000 
#    y 0.000000 1.655530 0.000000 
#    z 0.000000 0.000000 1.658460 
# 
# From -- ./inp_files/38170.got.cif
#   From: 2010.05.17/outbox.cif.g08.bks.cpg/sg53_20_cif.got.tgz:38170.got - 2010.06.03 12:45:16.
