data_PCOD9416144
_publ_section_title
;
Structure prediction by ZEFSAII (Michael W. Deem and Ramdas Pophale) SiO2 
 PCOD9416144
Probable space group: P M N A
;
_chemical_formula_sum "Si O2"
_cell_formula_units_Z 56
_cell_length_a 14.717445
_cell_length_b 9.123465
_cell_length_c 21.365762
_cell_angle_alpha 90.000000
_cell_angle_beta 90.000000
_cell_angle_gamma 90.000000
_cell_volume 2868.868343
_symmetry_space_group_name_H-M "P M N A"
_symmetry_group_IT_number 53
_symmetry_cell_setting 'orthorhombic'
loop_
_space_group_symop_operation_xyz
x,y,z
1/2-x,-y,1/2+z
x,-y,-z
1/2-x,y,1/2-z
-x,-y,-z
1/2+x,y,1/2-z
-x,y,z
1/2+x,-y,1/2+z
loop_
_atom_site_type_symbol
_atom_site_label
_atom_site_fract_x
_atom_site_fract_y
_atom_site_fract_z
Si Si1 0.394142 0.369160 0.647031
Si Si2 0.393431 0.086408 0.188806
Si Si3 0.780753 0.245958 0.402294
Si Si4 0.258051 0.656971 0.468566
Si Si5 0.664137 0.332441 0.289789
Si Si6 0.889471 0.232288 0.727002
Si Si7 0.391107 0.552850 0.113219
O O1 0.500000 0.342063 0.631700
O O2 0.329920 0.338350 0.587807
O O3 0.388419 0.531265 0.679312
O O4 0.359583 0.268405 0.703373
O O5 0.500000 0.075036 0.180590
O O6 0.348786 0.125175 0.122804
O O7 0.378003 0.215421 0.240768
O O8 0.356836 0.928650 0.209150
O O9 0.743446 0.234983 0.472320
O O10 0.701684 0.248364 0.350561
O O11 0.837504 0.398953 0.392809
O O12 0.277521 0.500000 0.500000
O O13 0.156291 0.650231 0.440356
O O14 0.750000 0.391793 0.250000
O O15 0.869791 0.361439 0.677553
O O16 0.000000 0.228717 0.728971
O O17 0.500000 0.534745 0.107504
#
# Coordination Sequence:
#
# PCOD9416144 Si02
#       7
#     8   8   8   8   8   8   8
#     4  11  21  36  60  86 116 154 190 238 292 332
#     4  10  20  36  58  83 113 147 187 240 292 344
#     4  10  20  37  53  80 120 146 192 235 275 343
#     4  10  21  37  54  84 120 149 196 234 270 341
#     4  10  19  34  54  85 115 144 188 244 286 341
#     4   9  20  36  56  86 114 143 193 239 289 347
#     4  10  19  35  60  86 114 149 187 237 295 340
#
# _framework density 19.519893
#
# number of rings (size 3 to 8) (size 9 to 14) (size 15 to 20)
#    0.000    2.000    2.857    2.571    0.000    4.571 
#    7.714    0.714    0.000    2.571    0.000    3.000 
#    0.000    0.000    0.000    0.000    0.000    0.000 
#
# Total GULP energy -312053.835166 kJ/mol
# GULP energy per Si atom -5572.389914 kJ/mol
# Density = 1.947546 g / cm^3
# Si number density = 19.519893 Si / 1000 Ang^3
#
#
#
# Elastic Constant Matrix: (Units=GPa)
#
#
# Indices 1 2 3 4 5 6 
#
# 1 39.0315 13.7318 19.1508 0.0000 0.0000 0.0000
# 2 13.7318 59.7706 26.1302 0.0000 0.0000 0.0000
# 3 19.1508 26.1302 130.5177 0.0000 0.0000 0.0000
# 4 0.0000 0.0000 0.0000 15.8886 0.0000 0.0000
# 5 0.0000 0.0000 0.0000 0.0000 28.4403 0.0000
# 6 0.0000 0.0000 0.0000 0.0000 0.0000 -23.5950
#
#
#
# Elastic Compliance Matrix: (Units=1/GPa)
#
#
# Indices 1 2 3 4 5 6 
#
# 1 0.029048 -0.005272 -0.003207 0.000000 0.000000 0.000000
# 2 -0.005272 0.019292 -0.003089 0.000000 0.000000 0.000000
# 3 -0.003207 -0.003089 0.008751 0.000000 0.000000 0.000000
# 4 0.000000 0.000000 0.000000 0.062938 0.000000 0.000000
# 5 0.000000 0.000000 0.000000 0.000000 0.035161 0.000000
# 6 0.000000 0.000000 0.000000 0.000000 0.000000 -0.042382
#
#
# Mechanical properties :
#
#
# Convention : Reuss Voigt Hill
#
# Bulk Modulus (GPa) = 29.44940 38.59391 34.02166
# Shear Modulus (GPa) = 33.95292 15.50057 24.72675
#
# Velocity S-wave (km/s) = 4.17514 2.82102 3.56300
# Velocity P-wave (km/s) = 6.19370 5.51592 5.86461
#
# Compressibility (1/GPa) = 0.03395655
#
# Stress axis : x y z
#
# Youngs Moduli (GPa) = 34.42529 51.83462 114.27615
#
# Poissons Ratio (x) = 0.27325 0.36647
# Poissons Ratio (y) = 0.18148 0.35298
# Poissons Ratio (z) = 0.11040 0.16011
#
# Static dielectric constant tensor:
#      x y z
#    x 1.709540 0.000000 0.000000 
#    y 0.000000 1.714040 0.000000 
#    z 0.000000 0.000000 1.712270 
# 
# From -- ./inp_files/32433.got.cif
#   From: 2010.05.17/outbox.cif.g08.bks.cpg/sg53_17_cif.got.tgz:32433.got - 2010.06.03 12:45:16.
