data_PCOD9416151
_publ_section_title
;
Structure prediction by ZEFSAII (Michael W. Deem and Ramdas Pophale) SiO2 
 PCOD9416151
Probable space group: P M N A
;
_chemical_formula_sum "Si O2"
_cell_formula_units_Z 64
_cell_length_a 9.579877
_cell_length_b 9.931445
_cell_length_c 32.757416
_cell_angle_alpha 90.000000
_cell_angle_beta 90.000000
_cell_angle_gamma 90.000000
_cell_volume 3116.606778
_symmetry_space_group_name_H-M "P M N A"
_symmetry_group_IT_number 53
_symmetry_cell_setting 'orthorhombic'
loop_
_space_group_symop_operation_xyz
x,y,z
1/2-x,-y,1/2+z
x,-y,-z
1/2-x,y,1/2-z
-x,-y,-z
1/2+x,y,1/2-z
-x,y,z
1/2+x,-y,1/2+z
loop_
_atom_site_type_symbol
_atom_site_label
_atom_site_fract_x
_atom_site_fract_y
_atom_site_fract_z
Si Si1 0.844426 0.801971 0.077585
Si Si2 0.340142 0.084178 0.711455
Si Si3 0.844382 0.917134 0.964645
Si Si4 0.163591 0.515662 0.631380
Si Si5 0.344429 0.066192 0.863377
Si Si6 0.663738 0.403131 0.961036
Si Si7 0.336423 0.410388 0.708991
Si Si8 0.152145 0.217119 0.408476
O O1 0.861397 0.959290 0.066964
O O2 0.726971 0.810268 0.112571
O O3 0.774602 0.718843 0.040905
O O4 0.000000 0.751176 0.088658
O O5 0.250000 0.042440 0.750000
O O6 0.500000 0.042017 0.714006
O O7 0.261717 0.030863 0.672080
O O8 0.335983 0.247142 0.708685
O O9 0.000000 0.877226 0.978800
O O10 0.764428 0.795887 0.944009
O O11 0.766183 0.000000 0.000000
O O12 0.187645 0.469985 0.583994
O O13 0.260786 0.459951 0.667465
O O14 0.184638 0.676699 0.626681
O O15 0.000000 0.487820 0.640775
O O16 0.500000 0.104121 0.848977
O O17 0.358651 0.932807 0.890574
O O18 0.500000 0.360158 0.962230
O O19 0.685789 0.500000 0.000000
O O20 0.250000 0.451161 0.750000
O O21 0.500000 0.452186 0.710768
O O22 0.000000 0.256685 0.425562
#
# Coordination Sequence:
#
# PCOD9416151 Si02
#       8
#     8   8   8   8   8   8   8   8
#     4  10  20  34  52  75 103 136 175 220 270 321
#     4  10  20  34  55  84 114 141 175 219 271 327
#     4   9  19  34  52  75 103 135 175 225 277 324
#     4  10  21  38  57  79 113 151 188 234 282 331
#     4  10  19  34  55  78 106 137 176 222 271 324
#     4  10  22  37  54  79 111 148 188 231 280 334
#     4  10  21  37  59  87 114 144 184 227 276 334
#     4   9  20  36  54  78 104 141 186 227 272 325
#
# _framework density 20.535155
#
# number of rings (size 3 to 8) (size 9 to 14) (size 15 to 20)
#    0.000    2.250    0.000    2.250    1.750    6.000 
#    0.000    0.625    0.000    0.000    0.000    0.000 
#    0.000    0.000    0.000    0.000    0.000    0.000 
#
# Total GULP energy -356612.324265 kJ/mol
# GULP energy per Si atom -5572.067567 kJ/mol
# Density = 2.048842 g / cm^3
# Si number density = 20.535155 Si / 1000 Ang^3
#
#
#
# Elastic Constant Matrix: (Units=GPa)
#
#
# Indices 1 2 3 4 5 6 
#
# 1 132.4304 19.2131 47.3832 0.0000 0.0000 0.0000
# 2 19.2131 33.3095 1.6627 0.0000 0.0000 0.0000
# 3 47.3832 1.6627 85.0923 0.0000 0.0000 0.0000
# 4 0.0000 0.0000 0.0000 22.9107 0.0000 0.0000
# 5 0.0000 0.0000 0.0000 0.0000 32.7448 0.0000
# 6 0.0000 0.0000 0.0000 0.0000 0.0000 11.2479
#
#
#
# Elastic Compliance Matrix: (Units=1/GPa)
#
#
# Indices 1 2 3 4 5 6 
#
# 1 0.010417 -0.005725 -0.005689 0.000000 0.000000 0.000000
# 2 -0.005725 0.033197 0.002539 0.000000 0.000000 0.000000
# 3 -0.005689 0.002539 0.014870 0.000000 0.000000 0.000000
# 4 0.000000 0.000000 0.000000 0.043648 0.000000 0.000000
# 5 0.000000 0.000000 0.000000 0.000000 0.030539 0.000000
# 6 0.000000 0.000000 0.000000 0.000000 0.000000 0.088906
#
#
# Mechanical properties :
#
#
# Convention : Reuss Voigt Hill
#
# Bulk Modulus (GPa) = 24.54881 43.03888 33.79385
# Shear Modulus (GPa) = 19.77036 25.55223 22.66130
#
# Velocity S-wave (km/s) = 3.10620 3.53131 3.32556
# Velocity P-wave (km/s) = 4.98449 6.13441 5.58910
#
# Compressibility (1/GPa) = 0.04073517
#
# Stress axis : x y z
#
# Youngs Moduli (GPa) = 95.99563 30.12340 67.24879
#
# Poissons Ratio (x) = 0.17245 0.38257
# Poissons Ratio (y) = 0.54955 -0.17075
# Poissons Ratio (z) = 0.54611 -0.07649
#
# Static dielectric constant tensor:
#      x y z
#    x 1.787490 0.000000 0.000000 
#    y 0.000000 1.780750 0.000000 
#    z 0.000000 0.000000 1.813110 
# 
# From -- ./inp_files/38276.got.cif
#   From: 2010.05.17/outbox.cif.g08.bks.cpg/sg53_20_cif.got.tgz:38276.got - 2010.06.03 12:45:16.
