data_PCOD9416490
_publ_section_title
;
Structure prediction by ZEFSAII (Michael W. Deem and Ramdas Pophale) SiO2 
 PCOD9416490
Probable space group: P M N A
;
_chemical_formula_sum "Si O2"
_cell_formula_units_Z 48
_cell_length_a 7.759640
_cell_length_b 9.854236
_cell_length_c 34.421914
_cell_angle_alpha 90.000000
_cell_angle_beta 90.000000
_cell_angle_gamma 90.000000
_cell_volume 2632.082801
_symmetry_space_group_name_H-M "P M N A"
_symmetry_group_IT_number 53
_symmetry_cell_setting 'orthorhombic'
loop_
_space_group_symop_operation_xyz
x,y,z
1/2-x,-y,1/2+z
x,-y,-z
1/2-x,y,1/2-z
-x,-y,-z
1/2+x,y,1/2-z
-x,y,z
1/2+x,-y,1/2+z
loop_
_atom_site_type_symbol
_atom_site_label
_atom_site_fract_x
_atom_site_fract_y
_atom_site_fract_z
Si Si1 0.700648 0.652096 0.882153
Si Si2 0.201591 0.049085 0.134752
Si Si3 0.500000 0.293089 0.529098
Si Si4 0.301324 0.194435 0.919177
Si Si5 0.000000 0.393103 0.056496
Si Si6 0.793383 0.382663 0.655083
Si Si7 0.706306 0.139831 0.794663
O O1 0.500000 0.624344 0.892484
O O2 0.760447 0.537297 0.851235
O O3 0.830171 0.638166 0.918239
O O4 0.715124 0.803259 0.865738
O O5 0.280729 0.950403 0.101981
O O6 0.223469 0.972884 0.175793
O O7 0.000000 0.064033 0.126258
O O8 0.332406 0.218697 0.546448
O O9 0.500000 0.448058 0.544992
O O10 0.500000 0.305870 0.482845
O O11 0.500000 0.214822 0.930549
O O12 0.256721 0.302509 0.885016
O O13 0.727406 0.286115 0.689463
O O14 0.000000 0.385889 0.659556
O O15 0.750000 0.118364 0.750000
O O16 0.500000 0.137099 0.799026
#
# Coordination Sequence:
#
# PCOD9416490 Si02
#       7
#     8   8   4   8   4   8   8
#     4  11  21  39  59  84 117 156 199 242 291 356
#     4  11  21  36  61  87 114 155 198 245 293 351
#     4  11  22  37  59  89 121 153 193 261 303 345
#     4  10  19  36  58  84 112 152 202 241 290 351
#     4  11  24  37  57  91 123 149 199 255 303 349
#     4   8  17  33  58  80 109 150 192 236 279 341
#     4  10  20  37  57  88 119 149 190 237 291 344
#
# _framework density 18.236509000000002
#
# number of rings (size 3 to 8) (size 9 to 14) (size 15 to 20)
#    0.000    1.833    3.333    3.000    0.000    0.667 
#    1.500    4.167    0.000    4.000    0.000    0.000 
#    0.000    0.000    0.000    0.000    0.000    0.000 
#
# Total GULP energy -267814.129006 kJ/mol
# GULP energy per Si atom -5579.461021 kJ/mol
# Density = 1.819500 g / cm^3
# Si number density = 18.236509 Si / 1000 Ang^3
#
#
#
# Elastic Constant Matrix: (Units=GPa)
#
#
# Indices 1 2 3 4 5 6 
#
# 1 88.7725 5.2964 22.9829 0.0000 0.0000 0.0000
# 2 5.2964 122.3334 28.4738 0.0000 0.0000 0.0000
# 3 22.9829 28.4738 78.5175 0.0000 0.0000 0.0000
# 4 0.0000 0.0000 0.0000 15.2104 0.0000 0.0000
# 5 0.0000 0.0000 0.0000 0.0000 21.1077 0.0000
# 6 0.0000 0.0000 0.0000 0.0000 0.0000 21.5024
#
#
#
# Elastic Compliance Matrix: (Units=1/GPa)
#
#
# Indices 1 2 3 4 5 6 
#
# 1 0.012201 0.000331 -0.003691 0.000000 0.000000 0.000000
# 2 0.000331 0.008937 -0.003338 0.000000 0.000000 0.000000
# 3 -0.003691 -0.003338 0.015027 0.000000 0.000000 0.000000
# 4 0.000000 0.000000 0.000000 0.065744 0.000000 0.000000
# 5 0.000000 0.000000 0.000000 0.000000 0.047376 0.000000
# 6 0.000000 0.000000 0.000000 0.000000 0.000000 0.046506
#
#
# Mechanical properties :
#
#
# Convention : Reuss Voigt Hill
#
# Bulk Modulus (GPa) = 43.92076 44.79217 44.35646
# Shear Modulus (GPa) = 23.06516 27.08878 25.07697
#
# Velocity S-wave (km/s) = 3.56023 3.85829 3.71225
# Velocity P-wave (km/s) = 6.40598 6.66811 6.53836
#
# Compressibility (1/GPa) = 0.02276828
#
# Stress axis : x y z
#
# Youngs Moduli (GPa) = 81.96275 111.89506 66.54725
#
# Poissons Ratio (x) = -0.03703 0.24564
# Poissons Ratio (y) = -0.02712 0.22212
# Poissons Ratio (z) = 0.30255 0.37348
#
# Static dielectric constant tensor:
#      x y z
#    x 1.652260 0.000000 0.000000 
#    y 0.000000 1.650000 0.000000 
#    z 0.000000 0.000000 1.606140 
# 
# From -- ./inp_files/37817.got.cif
#   From: 2010.05.17/outbox.cif.g08.bks.cpg/sg53_19_cif.got.tgz:37817.got - 2010.06.03 12:45:16.
