data_PCOD9416569
_publ_section_title
;
Structure prediction by ZEFSAII (Michael W. Deem and Ramdas Pophale) SiO2 
 PCOD9416569
Probable space group: P M N A
;
_chemical_formula_sum "Si O2"
_cell_formula_units_Z 56
_cell_length_a 13.885549
_cell_length_b 5.542202
_cell_length_c 30.986894
_cell_angle_alpha 90.000000
_cell_angle_beta 90.000000
_cell_angle_gamma 90.000000
_cell_volume 2384.643448
_symmetry_space_group_name_H-M "P M N A"
_symmetry_group_IT_number 53
_symmetry_cell_setting 'orthorhombic'
loop_
_space_group_symop_operation_xyz
x,y,z
1/2-x,-y,1/2+z
x,-y,-z
1/2-x,y,1/2-z
-x,-y,-z
1/2+x,y,1/2-z
-x,y,z
1/2+x,-y,1/2+z
loop_
_atom_site_type_symbol
_atom_site_label
_atom_site_fract_x
_atom_site_fract_y
_atom_site_fract_z
Si Si1 0.616150 0.967898 0.266134
Si Si2 0.116871 0.468909 0.187222
Si Si3 0.116617 0.936265 0.334525
Si Si4 0.146524 0.757269 0.983987
Si Si5 0.772262 0.242693 0.109241
Si Si6 0.897323 0.551500 0.397574
Si Si7 0.363723 0.245662 0.980968
O O1 0.500000 0.958888 0.268704
O O2 0.647640 0.725582 0.291932
O O3 0.642745 0.230934 0.284632
O O4 0.640506 0.956981 0.215711
O O5 0.167179 0.409719 0.141822
O O6 0.000000 0.473790 0.182796
O O7 0.203637 0.064281 0.361710
O O8 0.000000 0.007069 0.339926
O O9 0.117186 0.658472 0.350304
O O10 0.161619 0.806634 0.932463
O O11 0.105345 0.500000 0.000000
O O12 0.249955 0.755064 0.009140
O O13 0.097849 0.000000 0.000000
O O14 0.687976 0.390965 0.086715
O O15 0.891220 0.769315 0.430866
O O16 0.000000 0.431612 0.400651
O O17 0.399564 0.500000 0.000000
O O18 0.400873 0.000000 0.000000
#
# Coordination Sequence:
#
# PCOD9416569 Si02
#       7
#     8   8   8   8   8   8   8
#     4   9  21  45  68  93 129 167 208 263 325 385
#     4  10  24  45  71  97 125 167 216 272 330 387
#     4  10  23  41  63  91 134 175 208 259 320 380
#     4  10  20  37  59  87 124 167 207 261 320 376
#     4  12  24  40  66  93 131 167 222 271 322 386
#     4  11  24  39  58  92 130 172 220 262 314 380
#     4  10  19  37  56  79 117 164 210 250 299 364
#
# _framework density 23.483594
#
# number of rings (size 3 to 8) (size 9 to 14) (size 15 to 20)
#    0.000    1.714    2.857    2.143    4.000    1.143 
#    0.000    0.000    0.000    1.714    0.000    0.000 
#    0.000    0.571    0.000    0.000    0.000    0.000 
#
# Total GULP energy -312019.522477 kJ/mol
# GULP energy per Si atom -5571.777187 kJ/mol
# Density = 2.343014 g / cm^3
# Si number density = 23.483594 Si / 1000 Ang^3
#
#
#
# Elastic Constant Matrix: (Units=GPa)
#
#
# Indices 1 2 3 4 5 6 
#
# 1 98.7299 27.8512 15.8326 0.0000 0.0000 0.0000
# 2 27.8512 148.1442 36.2852 0.0000 0.0000 0.0000
# 3 15.8326 36.2852 123.3296 0.0000 0.0000 0.0000
# 4 0.0000 0.0000 0.0000 39.4538 0.0000 0.0000
# 5 0.0000 0.0000 0.0000 0.0000 4.5675 0.0000
# 6 0.0000 0.0000 0.0000 0.0000 0.0000 -4.7553
#
#
#
# Elastic Compliance Matrix: (Units=1/GPa)
#
#
# Indices 1 2 3 4 5 6 
#
# 1 0.010778 -0.001818 -0.000849 0.000000 0.000000 0.000000
# 2 -0.001818 0.007581 -0.001997 0.000000 0.000000 0.000000
# 3 -0.000849 -0.001997 0.008805 0.000000 0.000000 0.000000
# 4 0.000000 0.000000 0.000000 0.025346 0.000000 0.000000
# 5 0.000000 0.000000 0.000000 0.000000 0.218939 0.000000
# 6 0.000000 0.000000 0.000000 0.000000 0.000000 -0.210293
#
#
# Mechanical properties :
#
#
# Convention : Reuss Voigt Hill
#
# Bulk Modulus (GPa) = 56.06741 58.90461 57.48601
# Shear Modulus (GPa) = 65.42021 27.20217 46.31119
#
# Velocity S-wave (km/s) = 5.28378 3.40714 4.44561
# Velocity P-wave (km/s) = 7.81994 6.37306 7.13328
#
# Compressibility (1/GPa) = 0.01783567
#
# Stress axis : x y z
#
# Youngs Moduli (GPa) = 92.78438 131.90569 113.57368
#
# Poissons Ratio (x) = 0.23985 0.09638
# Poissons Ratio (y) = 0.16871 0.22681
# Poissons Ratio (z) = 0.07874 0.26342
#
# Static dielectric constant tensor:
#      x y z
#    x 1.896910 0.000000 0.000000 
#    y 0.000000 1.955530 0.000000 
#    z 0.000000 0.000000 1.916570 
# 
# From -- ./inp_files/38882.got.cif
#   From: 2010.05.17/outbox.cif.g08.bks.cpg/sg53_20_cif.got.tgz:38882.got - 2010.06.03 12:45:16.
