data_PCOD9416401
_publ_section_title
;
Structure prediction by ZEFSAII (Michael W. Deem and Ramdas Pophale) SiO2 
 PCOD9416401
Probable space group: P M N A
;
_chemical_formula_sum "Si O2"
_cell_formula_units_Z 40
_cell_length_a 13.473121
_cell_length_b 11.014976
_cell_length_c 13.365736
_cell_angle_alpha 90.000000
_cell_angle_beta 90.000000
_cell_angle_gamma 90.000000
_cell_volume 1983.556813
_symmetry_space_group_name_H-M "P M N A"
_symmetry_group_IT_number 53
_symmetry_cell_setting 'orthorhombic'
loop_
_space_group_symop_operation_xyz
x,y,z
1/2-x,-y,1/2+z
x,-y,-z
1/2-x,y,1/2-z
-x,-y,-z
1/2+x,y,1/2-z
-x,y,z
1/2+x,-y,1/2+z
loop_
_atom_site_type_symbol
_atom_site_label
_atom_site_fract_x
_atom_site_fract_y
_atom_site_fract_z
Si Si1 0.315199 0.063681 0.395094
Si Si2 0.386230 0.662092 0.591030
Si Si3 0.387297 0.305350 0.835527
Si Si4 0.888390 0.981690 0.318194
Si Si5 0.318111 0.405441 0.624155
O O1 0.345298 0.203951 0.391865
O O2 0.365955 0.998038 0.300065
O O3 0.197420 0.051308 0.377008
O O4 0.342052 0.000000 0.500000
O O5 0.500000 0.655929 0.624389
O O6 0.327515 0.549722 0.639240
O O7 0.378874 0.634507 0.472783
O O8 0.500000 0.342301 0.860626
O O9 0.362720 0.339449 0.720629
O O10 0.296024 0.367067 0.893108
O O11 0.379860 0.160264 0.844720
O O12 0.000000 0.023258 0.339906
#
# Coordination Sequence:
#
# PCOD9416401 Si02
#       5
#     8   8   8   8   8
#     4  11  22  38  59  85 114 151 194 235 281 337
#     4  11  22  36  56  81 110 143 183 232 282 330
#     4  10  19  35  59  81 108 147 184 222 274 332
#     4  10  22  38  57  86 119 149 188 235 282 337
#     4  10  20  36  55  81 110 140 184 232 275 327
#
# _framework density 20.165794000000002
#
# number of rings (size 3 to 8) (size 9 to 14) (size 15 to 20)
#    0.000    1.600    0.000    7.800    0.000    6.800 
#    0.000    6.000    0.000    0.000    0.000    0.000 
#    0.000    0.000    0.000    0.000    0.000    0.000 
#
# Total GULP energy -223478.227685 kJ/mol
# GULP energy per Si atom -5586.955692 kJ/mol
# Density = 2.011990 g / cm^3
# Si number density = 20.165794 Si / 1000 Ang^3
#
#
#
# Elastic Constant Matrix: (Units=GPa)
#
#
# Indices 1 2 3 4 5 6 
#
# 1 157.9065 70.8299 -9.3886 0.0000 0.0000 0.0000
# 2 70.8299 113.7215 -1.5574 0.0000 0.0000 0.0000
# 3 -9.3886 -1.5574 19.6756 0.0000 0.0000 0.0000
# 4 0.0000 0.0000 0.0000 9.2621 0.0000 0.0000
# 5 0.0000 0.0000 0.0000 0.0000 16.5154 0.0000
# 6 0.0000 0.0000 0.0000 0.0000 0.0000 -78.4926
#
#
#
# Elastic Compliance Matrix: (Units=1/GPa)
#
#
# Indices 1 2 3 4 5 6 
#
# 1 0.009076 -0.005599 0.003887 0.000000 0.000000 0.000000
# 2 -0.005599 0.012258 -0.001702 0.000000 0.000000 0.000000
# 3 0.003887 -0.001702 0.052545 0.000000 0.000000 0.000000
# 4 0.000000 0.000000 0.000000 0.107966 0.000000 0.000000
# 5 0.000000 0.000000 0.000000 0.000000 0.060550 0.000000
# 6 0.000000 0.000000 0.000000 0.000000 0.000000 -0.012740
#
#
# Mechanical properties :
#
#
# Convention : Reuss Voigt Hill
#
# Bulk Modulus (GPa) = 14.91409 45.67458 30.29434
# Shear Modulus (GPa) = 19.31761 4.88499 12.10130
#
# Velocity S-wave (km/s) = 3.09842 1.55810 2.45233
# Velocity P-wave (km/s) = 4.49578 5.09270 4.80352
#
# Compressibility (1/GPa) = 0.06705069
#
# Stress axis : x y z
#
# Youngs Moduli (GPa) = 110.18517 81.58198 19.03144
#
# Poissons Ratio (x) = 0.45681 -0.07398
# Poissons Ratio (y) = 0.61697 0.03238
# Poissons Ratio (z) = -0.42833 0.13882
#
# Static dielectric constant tensor:
#      x y z
#    x 1.737090 0.000000 0.000000 
#    y 0.000000 1.696390 0.000000 
#    z 0.000000 0.000000 1.728860 
# 
# From -- ./inp_files/22426.got.cif
#   From: 2010.05.17/outbox.cif.g08.bks.cpg/sg53_12_cif.got.tgz:22426.got - 2010.06.03 12:45:16.
