data_PCOD9416846
_publ_section_title
;
Structure prediction by ZEFSAII (Michael W. Deem and Ramdas Pophale) SiO2 
 PCOD9416846
Probable space group: P M N A
;
_chemical_formula_sum "Si O2"
_cell_formula_units_Z 48
_cell_length_a 8.819721
_cell_length_b 31.781870
_cell_length_c 9.570912
_cell_angle_alpha 90.000000
_cell_angle_beta 90.000000
_cell_angle_gamma 90.000000
_cell_volume 2682.795795
_symmetry_space_group_name_H-M "P M N A"
_symmetry_group_IT_number 53
_symmetry_cell_setting 'orthorhombic'
loop_
_space_group_symop_operation_xyz
x,y,z
1/2-x,-y,1/2+z
x,-y,-z
1/2-x,y,1/2-z
-x,-y,-z
1/2+x,y,1/2-z
-x,y,z
1/2+x,-y,1/2+z
loop_
_atom_site_type_symbol
_atom_site_label
_atom_site_fract_x
_atom_site_fract_y
_atom_site_fract_z
Si Si1 0.318455 0.887566 0.404225
Si Si2 0.681615 0.040470 0.095567
Si Si3 0.681496 0.718568 0.905124
Si Si4 0.181028 0.209677 0.902848
Si Si5 0.318504 0.459846 0.405525
Si Si6 0.681523 0.625714 0.906456
O O1 0.250000 0.895748 0.250000
O O2 0.500000 0.892693 0.398021
O O3 0.248223 0.919098 0.516211
O O4 0.284457 0.838884 0.441398
O O5 0.750000 0.036102 0.250000
O O6 0.500000 0.043774 0.105286
O O7 0.718741 0.000000 0.000000
O O8 0.750000 0.720388 0.750000
O O9 0.500000 0.721913 0.897098
O O10 0.717320 0.671936 0.966786
O O11 0.748882 0.756357 0.993976
O O12 0.250000 0.216543 0.750000
O O13 0.000000 0.214123 0.898522
O O14 0.280364 0.500000 0.500000
O O15 0.250000 0.464785 0.250000
O O16 0.500000 0.456419 0.394480
O O17 0.253033 0.416432 0.469559
O O18 0.750000 0.626853 0.750000
O O19 0.500000 0.621317 0.899706
#
# Coordination Sequence:
#
# PCOD9416846 Si02
#       6
#     8   8   8   8   8   8
#     4  10  21  38  60  84 111 145 184 224 269 321
#     4  11  24  40  60  86 115 148 185 226 272 321
#     4  10  20  34  54  80 107 138 178 221 265 315
#     4  10  21  37  57  81 110 145 181 220 269 322
#     4  10  20  33  51  75 101 132 170 211 258 311
#     4   9  17  30  50  74 100 133 171 211 258 310
#
# _framework density 17.891784000000001
#
# number of rings (size 3 to 8) (size 9 to 14) (size 15 to 20)
#    0.000    2.000    0.000    4.500    0.000    8.667 
#    0.000    0.833    0.000    2.000    0.000    0.000 
#    0.000    0.000    0.000    0.000    0.000    0.000 
#
# Total GULP energy -267891.235062 kJ/mol
# GULP energy per Si atom -5581.067397 kJ/mol
# Density = 1.785106 g / cm^3
# Si number density = 17.891784 Si / 1000 Ang^3
#
#
#
# Elastic Constant Matrix: (Units=GPa)
#
#
# Indices 1 2 3 4 5 6 
#
# 1 81.7494 83.8555 54.3782 0.0000 0.0000 0.0000
# 2 83.8555 179.4570 104.3058 0.0000 0.0000 0.0000
# 3 54.3782 104.3058 96.6731 0.0000 0.0000 0.0000
# 4 0.0000 0.0000 0.0000 35.0097 0.0000 0.0000
# 5 0.0000 0.0000 0.0000 0.0000 30.2428 0.0000
# 6 0.0000 0.0000 0.0000 0.0000 0.0000 34.7411
#
#
#
# Elastic Compliance Matrix: (Units=1/GPa)
#
#
# Indices 1 2 3 4 5 6 
#
# 1 0.023990 -0.009029 -0.003753 0.000000 0.000000 0.000000
# 2 -0.009029 0.018342 -0.014712 0.000000 0.000000 0.000000
# 3 -0.003753 -0.014712 0.028328 0.000000 0.000000 0.000000
# 4 0.000000 0.000000 0.000000 0.028564 0.000000 0.000000
# 5 0.000000 0.000000 0.000000 0.000000 0.033066 0.000000
# 6 0.000000 0.000000 0.000000 0.000000 0.000000 0.028784
#
#
# Mechanical properties :
#
#
# Convention : Reuss Voigt Hill
#
# Bulk Modulus (GPa) = 63.79916 93.66205 78.73061
# Shear Modulus (GPa) = 22.59526 27.68804 25.14165
#
# Velocity S-wave (km/s) = 3.55756 3.93813 3.75267
# Velocity P-wave (km/s) = 7.25333 8.55227 7.92944
#
# Compressibility (1/GPa) = 0.01567419
#
# Stress axis : x y z
#
# Youngs Moduli (GPa) = 41.68383 54.51920 35.30034
#
# Poissons Ratio (x) = 0.49224 0.13247
# Poissons Ratio (y) = 0.37635 0.51933
# Poissons Ratio (z) = 0.15643 0.80207
#
# Static dielectric constant tensor:
#      x y z
#    x 1.596870 0.000000 0.000000 
#    y 0.000000 1.641510 0.000000 
#    z 0.000000 0.000000 1.572170 
# 
# From -- ./inp_files/6608.got.cif
#   From: 2010.05.17/outbox.cif.g08.bks.cpg/sg53_4_cif.got.tgz:6608.got - 2010.06.03 12:45:16.
