data_PCOD9416067
_publ_section_title
;
Structure prediction by ZEFSAII (Michael W. Deem and Ramdas Pophale) SiO2 
 PCOD9416067
Probable space group: P M N A
;
_chemical_formula_sum "Si O2"
_cell_formula_units_Z 24
_cell_length_a 17.095335
_cell_length_b 7.117027
_cell_length_c 8.285404
_cell_angle_alpha 90.000000
_cell_angle_beta 90.000000
_cell_angle_gamma 90.000000
_cell_volume 1008.068209
_symmetry_space_group_name_H-M "P M N A"
_symmetry_group_IT_number 53
_symmetry_cell_setting 'orthorhombic'
loop_
_space_group_symop_operation_xyz
x,y,z
1/2-x,-y,1/2+z
x,-y,-z
1/2-x,y,1/2-z
-x,-y,-z
1/2+x,y,1/2-z
-x,y,z
1/2+x,-y,1/2+z
loop_
_atom_site_type_symbol
_atom_site_label
_atom_site_fract_x
_atom_site_fract_y
_atom_site_fract_z
Si Si1 0.167070 0.458765 0.190480
Si Si2 0.000000 0.467590 0.195257
Si Si3 0.000000 0.022764 0.189936
Si Si4 0.333239 0.023290 0.191297
O O1 0.250000 0.533416 0.250000
O O2 0.167076 0.237390 0.238221
O O3 0.084269 0.534646 0.258123
O O4 0.165489 0.500000 0.000000
O O5 0.000000 0.244595 0.227202
O O6 0.000000 0.500000 0.000000
O O7 0.917058 0.945195 0.250834
O O8 0.000000 0.000000 0.000000
O O9 0.250000 0.942808 0.250000
O O10 0.332604 0.000000 0.000000
#
# Coordination Sequence:
#
# PCOD9416067 Si02
#       4
#     8   4   4   8
#     4   9  18  35  57  81 111 152 195 241 293 353
#     4   8  16  33  53  73 107 147 184 224 283 348
#     4  10  19  33  56  87 117 151 193 246 301 354
#     4  10  20  36  57  85 117 154 198 248 297 352
#
# _framework density 23.80791
#
# number of rings (size 3 to 8) (size 9 to 14) (size 15 to 20)
#    0.000    2.667    0.000    1.500    0.000    0.000 
#    0.000   27.500    0.000    0.000    0.000    0.000 
#    0.000    0.000    0.000    0.000    0.000    0.000 
#
# Total GULP energy -133781.099561 kJ/mol
# GULP energy per Si atom -5574.212482 kJ/mol
# Density = 2.375372 g / cm^3
# Si number density = 23.807910 Si / 1000 Ang^3
#
#
#
# Elastic Constant Matrix: (Units=GPa)
#
#
# Indices 1 2 3 4 5 6 
#
# 1 377.7912 12.1278 62.9459 0.0000 0.0000 0.0000
# 2 12.1278 154.4543 -1.5753 0.0000 0.0000 0.0000
# 3 62.9459 -1.5753 105.1397 0.0000 0.0000 0.0000
# 4 0.0000 0.0000 0.0000 24.4065 0.0000 0.0000
# 5 0.0000 0.0000 0.0000 0.0000 52.5795 0.0000
# 6 0.0000 0.0000 0.0000 0.0000 0.0000 -61.3355
#
#
#
# Elastic Compliance Matrix: (Units=1/GPa)
#
#
# Indices 1 2 3 4 5 6 
#
# 1 0.002950 -0.000250 -0.001770 0.000000 0.000000 0.000000
# 2 -0.000250 0.006497 0.000247 0.000000 0.000000 0.000000
# 3 -0.001770 0.000247 0.010574 0.000000 0.000000 0.000000
# 4 0.000000 0.000000 0.000000 0.040973 0.000000 0.000000
# 5 0.000000 0.000000 0.000000 0.000000 0.019019 0.000000
# 6 0.000000 0.000000 0.000000 0.000000 0.000000 -0.016304
#
#
# Mechanical properties :
#
#
# Convention : Reuss Voigt Hill
#
# Bulk Modulus (GPa) = 60.69622 87.15356 73.92489
# Shear Modulus (GPa) = 68.73255 40.72252 54.72754
#
# Velocity S-wave (km/s) = 5.37888 4.14026 4.79969
# Velocity P-wave (km/s) = 8.00786 7.71635 7.86346
#
# Compressibility (1/GPa) = 0.01647549
#
# Stress axis : x y z
#
# Youngs Moduli (GPa) = 338.99995 153.92835 94.56803
#
# Poissons Ratio (x) = 0.03843 0.16736
# Poissons Ratio (y) = 0.08464 -0.02334
# Poissons Ratio (z) = 0.59996 -0.03799
#
# Static dielectric constant tensor:
#      x y z
#    x 1.962050 0.000000 0.000000 
#    y 0.000000 1.799800 0.000000 
#    z 0.000000 0.000000 1.834960 
# 
# From -- ./inp_files/9251.got.cif
#   From: 2010.05.17/outbox.cif.g08.bks.cpg/sg53_5_cif.got.tgz:9251.got - 2010.06.03 12:45:16.
