data_PCOD9416471
_publ_section_title
;
Structure prediction by ZEFSAII (Michael W. Deem and Ramdas Pophale) SiO2 
 PCOD9416471
Probable space group: P M N A
;
_chemical_formula_sum "Si O2"
_cell_formula_units_Z 64
_cell_length_a 29.620384
_cell_length_b 11.517798
_cell_length_c 9.580116
_cell_angle_alpha 90.000000
_cell_angle_beta 90.000000
_cell_angle_gamma 90.000000
_cell_volume 3268.367699
_symmetry_space_group_name_H-M "P M N A"
_symmetry_group_IT_number 53
_symmetry_cell_setting 'orthorhombic'
loop_
_space_group_symop_operation_xyz
x,y,z
1/2-x,-y,1/2+z
x,-y,-z
1/2-x,y,1/2-z
-x,-y,-z
1/2+x,y,1/2-z
-x,y,z
1/2+x,-y,1/2+z
loop_
_atom_site_type_symbol
_atom_site_label
_atom_site_fract_x
_atom_site_fract_y
_atom_site_fract_z
Si Si1 0.947989 0.495565 0.653820
Si Si2 0.295185 0.473531 0.668440
Si Si3 0.221214 0.867203 0.026216
Si Si4 0.673208 0.863762 0.998519
Si Si5 0.850944 0.754060 0.225632
Si Si6 0.950607 0.731677 0.159951
Si Si7 0.676100 0.272088 0.289545
Si Si8 0.407446 0.384484 0.415166
O O1 0.927625 0.500000 0.500000
O O2 0.948584 0.367474 0.720651
O O3 0.923403 0.575563 0.764486
O O4 0.000000 0.534806 0.643443
O O5 0.288764 0.500000 0.500000
O O6 0.250000 0.431690 0.750000
O O7 0.334506 0.378568 0.697038
O O8 0.307681 0.596720 0.738345
O O9 0.211473 0.791708 0.888973
O O10 0.274544 0.860173 0.047901
O O11 0.188839 0.823491 0.148177
O O12 0.209506 0.000000 0.000000
O O13 0.647926 0.786771 0.112465
O O14 0.668688 0.804650 0.847251
O O15 0.659699 0.000000 0.000000
O O16 0.900955 0.787613 0.171142
O O17 0.000000 0.790276 0.170867
O O18 0.946863 0.667563 0.010462
O O19 0.632069 0.293246 0.385927
O O20 0.392431 0.500000 0.500000
#
# Coordination Sequence:
#
# PCOD9416471 Si02
#       8
#     8   8   8   8   8   8   8   8
#     4   9  18  31  53  85 120 159 203 249 301 367
#     4  12  24  38  59  93 137 171 203 246 312 391
#     4  11  22  42  67  89 119 167 217 264 302 351
#     4  11  26  44  64  93 124 165 217 261 306 364
#     4  12  24  41  64  94 129 166 208 258 314 372
#     4  10  20  37  60  86 119 161 207 256 310 366
#     4  12  23  38  62  91 130 164 204 256 306 377
#     4  10  19  36  56  87 125 163 202 247 305 371
#
# _framework density 19.581638999999999
#
# number of rings (size 3 to 8) (size 9 to 14) (size 15 to 20)
#    0.000    1.125    2.500    5.250    3.500    3.500 
#    0.000    0.000    0.000    0.750    0.000    0.000 
#    0.000    0.000    0.000    0.000    0.000    0.000 
#
# Total GULP energy -357104.166330 kJ/mol
# GULP energy per Si atom -5579.752599 kJ/mol
# Density = 1.953707 g / cm^3
# Si number density = 19.581639 Si / 1000 Ang^3
#
#
#
# Elastic Constant Matrix: (Units=GPa)
#
#
# Indices 1 2 3 4 5 6 
#
# 1 64.9536 14.2714 13.6202 0.0000 0.0000 0.0000
# 2 14.2714 80.6822 17.4756 0.0000 0.0000 0.0000
# 3 13.6202 17.4756 123.0048 0.0000 0.0000 0.0000
# 4 0.0000 0.0000 0.0000 22.0103 0.0000 0.0000
# 5 0.0000 0.0000 0.0000 0.0000 25.3206 0.0000
# 6 0.0000 0.0000 0.0000 0.0000 0.0000 -9.3480
#
#
#
# Elastic Compliance Matrix: (Units=1/GPa)
#
#
# Indices 1 2 3 4 5 6 
#
# 1 0.016260 -0.002565 -0.001436 0.000000 0.000000 0.000000
# 2 -0.002565 0.013192 -0.001590 0.000000 0.000000 0.000000
# 3 -0.001436 -0.001590 0.008515 0.000000 0.000000 0.000000
# 4 0.000000 0.000000 0.000000 0.045433 0.000000 0.000000
# 5 0.000000 0.000000 0.000000 0.000000 0.039494 0.000000
# 6 0.000000 0.000000 0.000000 0.000000 0.000000 -0.106975
#
#
# Mechanical properties :
#
#
# Convention : Reuss Voigt Hill
#
# Bulk Modulus (GPa) = 37.33483 39.93053 38.63268
# Shear Modulus (GPa) = 138.77102 22.48148 80.62625
#
# Velocity S-wave (km/s) = 8.42744 3.39202 6.42369
# Velocity P-wave (km/s) = 10.66786 5.98140 8.64814
#
# Compressibility (1/GPa) = 0.02678464
#
# Stress axis : x y z
#
# Youngs Moduli (GPa) = 61.49929 75.80074 117.44380
#
# Poissons Ratio (x) = 0.19444 0.16866
# Poissons Ratio (y) = 0.15775 0.18677
# Poissons Ratio (z) = 0.08832 0.12054
#
# Static dielectric constant tensor:
#      x y z
#    x 1.753840 0.000000 0.000000 
#    y 0.000000 1.679710 0.000000 
#    z 0.000000 0.000000 1.715410 
# 
# From -- ./inp_files/13225.got.cif
#   From: 2010.05.17/outbox.cif.g08.bks.cpg/sg53_7_cif.got.tgz:13225.got - 2010.06.03 12:45:16.
