data_PCOD9416642
_publ_section_title
;
Structure prediction by ZEFSAII (Michael W. Deem and Ramdas Pophale) SiO2 
 PCOD9416642
Probable space group: P M N A
;
_chemical_formula_sum "Si O2"
_cell_formula_units_Z 64
_cell_length_a 8.658217
_cell_length_b 24.655966
_cell_length_c 15.416524
_cell_angle_alpha 90.000000
_cell_angle_beta 90.000000
_cell_angle_gamma 90.000000
_cell_volume 3291.068730
_symmetry_space_group_name_H-M "P M N A"
_symmetry_group_IT_number 53
_symmetry_cell_setting 'orthorhombic'
loop_
_space_group_symop_operation_xyz
x,y,z
1/2-x,-y,1/2+z
x,-y,-z
1/2-x,y,1/2-z
-x,-y,-z
1/2+x,y,1/2-z
-x,y,z
1/2+x,-y,1/2+z
loop_
_atom_site_type_symbol
_atom_site_label
_atom_site_fract_x
_atom_site_fract_y
_atom_site_fract_z
Si Si1 0.684223 0.893651 0.348306
Si Si2 0.814801 0.688411 0.011026
Si Si3 0.814041 0.622947 0.842531
Si Si4 0.185751 0.127037 0.347285
Si Si5 0.682499 0.610612 0.157583
Si Si6 0.185475 0.808066 0.484479
Si Si7 0.185341 0.006084 0.347983
Si Si8 0.182051 0.497908 0.104184
O O1 0.750000 0.888006 0.250000
O O2 0.500000 0.893963 0.343424
O O3 0.743962 0.846027 0.409974
O O4 0.742821 0.951510 0.386290
O O5 0.763929 0.645515 0.083334
O O6 0.739632 0.746578 0.026142
O O7 0.000000 0.693426 0.011514
O O8 0.764880 0.662985 0.919020
O O9 0.750000 0.639567 0.750000
O O10 0.765354 0.561094 0.863688
O O11 0.000000 0.622544 0.841241
O O12 0.250000 0.135313 0.250000
O O13 0.235246 0.169458 0.420663
O O14 0.226339 0.066167 0.380761
O O15 0.000000 0.128766 0.340238
O O16 0.750000 0.627468 0.250000
O O17 0.500000 0.618612 0.154384
O O18 0.723359 0.547499 0.143077
O O19 0.000000 0.811637 0.479958
O O20 0.250000 0.006784 0.250000
O O21 0.000000 0.000724 0.348544
O O22 0.000000 0.505044 0.126170
O O23 0.194118 0.500000 0.000000
#
# Coordination Sequence:
#
# PCOD9416642 Si02
#       8
#     8   8   8   8   8   8   8   8
#     4  11  22  38  60  88 119 156 195 243 297 357
#     4  11  24  45  64  85 117 158 203 253 303 351
#     4  10  22  39  63  90 122 160 198 243 296 352
#     4   9  20  37  60  87 121 158 197 243 297 353
#     4  12  25  41  64  94 124 160 201 247 298 359
#     4  11  24  42  61  87 118 155 201 251 298 353
#     4   9  16  31  55  85 118 155 192 238 294 353
#     4  10  19  38  64  92 128 165 196 242 300 352
#
# _framework density 19.446570000000001
#
# number of rings (size 3 to 8) (size 9 to 14) (size 15 to 20)
#    0.000    1.625    1.250    4.500    0.000    5.750 
#    0.000    7.500    0.000    0.000    0.000    0.000 
#    0.000    0.000    0.000    0.000    0.000    0.000 
#
# Total GULP energy -357612.429130 kJ/mol
# GULP energy per Si atom -5587.694205 kJ/mol
# Density = 1.940231 g / cm^3
# Si number density = 19.446570 Si / 1000 Ang^3
#
#
#
# Elastic Constant Matrix: (Units=GPa)
#
#
# Indices 1 2 3 4 5 6 
#
# 1 64.0003 8.7307 9.4431 0.0000 0.0000 0.0000
# 2 8.7307 36.2143 -20.4665 0.0000 0.0000 0.0000
# 3 9.4431 -20.4665 55.9940 0.0000 0.0000 0.0000
# 4 0.0000 0.0000 0.0000 -298.2297 0.0000 0.0000
# 5 0.0000 0.0000 0.0000 0.0000 23.8769 0.0000
# 6 0.0000 0.0000 0.0000 0.0000 0.0000 45.9642
#
#
#
# Elastic Compliance Matrix: (Units=1/GPa)
#
#
# Indices 1 2 3 4 5 6 
#
# 1 0.017469 -0.007407 -0.005653 0.000000 0.000000 0.000000
# 2 -0.007407 0.037943 0.015118 0.000000 0.000000 0.000000
# 3 -0.005653 0.015118 0.024338 0.000000 0.000000 0.000000
# 4 0.000000 0.000000 0.000000 -0.003353 0.000000 0.000000
# 5 0.000000 0.000000 0.000000 0.000000 0.041881 0.000000
# 6 0.000000 0.000000 0.000000 0.000000 0.000000 0.021756
#
#
# Mechanical properties :
#
#
# Convention : Reuss Voigt Hill
#
# Bulk Modulus (GPa) = 11.92383 16.84704 14.38543
# Shear Modulus (GPa) = 30.51113 -35.11095 -2.29991
#
# Velocity S-wave (km/s) = 3.96532 -4.25374 -1.08869
# Velocity P-wave (km/s) = 5.20672 3.92984 2.41519
#
# Compressibility (1/GPa) = 0.08386569
#
# Stress axis : x y z
#
# Youngs Moduli (GPa) = 57.24278 26.35550 41.08772
#
# Poissons Ratio (x) = 0.19521 0.23228
# Poissons Ratio (y) = 0.42398 -0.62115
# Poissons Ratio (z) = 0.32361 -0.39843
#
# Static dielectric constant tensor:
#      x y z
#    x 1.718600 0.000000 0.000000 
#    y 0.000000 1.674420 0.000000 
#    z 0.000000 0.000000 1.659600 
# 
# From -- ./inp_files/20873.got.cif
#   From: 2010.05.17/outbox.cif.g08.bks.cpg/sg53_11_cif.got.tgz:20873.got - 2010.06.03 12:45:16.
