data_PCOD9416655
_publ_section_title
;
Structure prediction by ZEFSAII (Michael W. Deem and Ramdas Pophale) SiO2 
 PCOD9416655
Probable space group: P M N A
;
_chemical_formula_sum "Si O2"
_cell_formula_units_Z 22
_cell_length_a 30.874526
_cell_length_b 4.981818
_cell_length_c 5.332403
_cell_angle_alpha 90.000000
_cell_angle_beta 90.000000
_cell_angle_gamma 90.000000
_cell_volume 820.183674
_symmetry_space_group_name_H-M "P M N A"
_symmetry_group_IT_number 53
_symmetry_cell_setting 'orthorhombic'
loop_
_space_group_symop_operation_xyz
x,y,z
1/2-x,-y,1/2+z
x,-y,-z
1/2-x,y,1/2-z
-x,-y,-z
1/2+x,y,1/2-z
-x,y,z
1/2+x,-y,1/2+z
loop_
_atom_site_type_symbol
_atom_site_label
_atom_site_fract_x
_atom_site_fract_y
_atom_site_fract_z
Si Si1 0.250000 0.184023 0.750000
Si Si2 0.561093 0.649793 0.248569
Si Si3 0.000000 0.000000 0.000000
Si Si4 0.157105 0.818790 0.249811
O O1 0.249941 0.000000 0.500000
O O2 0.296373 0.331389 0.750347
O O3 0.545286 0.500000 0.500000
O O4 0.538398 0.933029 0.290586
O O5 0.613000 0.654956 0.251484
O O6 0.547527 0.500000 0.000000
O O7 0.155566 0.000000 0.500000
O O8 0.156038 0.000000 0.000000
#
# Coordination Sequence:
#
# PCOD9416655 Si02
#       4
#     4   8   2   8
#     4   8  16  30  60  94 124 172 220 252 322 408
#     4  12  27  45  69 101 131 173 229 281 341 410
#     4  12  28  50  72  92 138 180 226 286 350 396
#     4  10  19  39  65  94 133 176 215 270 335 395
#
# _framework density 26.823257999999999
#
# number of rings (size 3 to 8) (size 9 to 14) (size 15 to 20)
#    0.000    1.455    1.818    3.273    0.000    1.455 
#    0.000    1.818    0.000    0.000    0.000    0.000 
#    0.000    0.000    0.000    0.000    0.000    0.000 
#
# Total GULP energy -122713.999895 kJ/mol
# GULP energy per Si atom -5577.909086 kJ/mol
# Density = 2.676221 g / cm^3
# Si number density = 26.823258 Si / 1000 Ang^3
#
#
#
# Elastic Constant Matrix: (Units=GPa)
#
#
# Indices 1 2 3 4 5 6 
#
# 1 308.0441 12.2696 32.1149 0.0000 0.0000 0.0000
# 2 12.2696 46.8937 64.2105 0.0000 0.0000 0.0000
# 3 32.1149 64.2105 279.4694 0.0000 0.0000 0.0000
# 4 0.0000 0.0000 0.0000 75.0127 0.0000 0.0000
# 5 0.0000 0.0000 0.0000 0.0000 -144.6602 0.0000
# 6 0.0000 0.0000 0.0000 0.0000 0.0000 48.4564
#
#
#
# Elastic Compliance Matrix: (Units=1/GPa)
#
#
# Indices 1 2 3 4 5 6 
#
# 1 0.003294 -0.000501 -0.000263 0.000000 0.000000 0.000000
# 2 -0.000501 0.031189 -0.007108 0.000000 0.000000 0.000000
# 3 -0.000263 -0.007108 0.005242 0.000000 0.000000 0.000000
# 4 0.000000 0.000000 0.000000 0.013331 0.000000 0.000000
# 5 0.000000 0.000000 0.000000 0.000000 -0.006913 0.000000
# 6 0.000000 0.000000 0.000000 0.000000 0.000000 0.020637
#
#
# Mechanical properties :
#
#
# Convention : Reuss Voigt Hill
#
# Bulk Modulus (GPa) = 41.70349 94.62193 68.16271
# Shear Modulus (GPa) = 55.23697 30.81592 43.02644
#
# Velocity S-wave (km/s) = 4.54287 3.39315 4.00943
# Velocity P-wave (km/s) = 6.56492 7.12067 6.84843
#
# Compressibility (1/GPa) = 0.02397881
#
# Stress axis : x y z
#
# Youngs Moduli (GPa) = 303.60934 32.06222 190.77813
#
# Poissons Ratio (x) = 0.01607 0.05024
# Poissons Ratio (y) = 0.15217 1.35613
# Poissons Ratio (z) = 0.07995 0.22791
#
# Static dielectric constant tensor:
#      x y z
#    x 2.088410 0.000000 0.000000 
#    y 0.000000 2.357150 0.000000 
#    z 0.000000 0.000000 2.038070 
# 
# From -- ./inp_files/4782.got.cif
#   From: 2010.05.17/outbox.cif.g08.bks.cpg/sg53_3_cif.got.tgz:4782.got - 2010.06.03 12:45:16.
