data_PCOD9416508
_publ_section_title
;
Structure prediction by ZEFSAII (Michael W. Deem and Ramdas Pophale) SiO2 
 PCOD9416508
Probable space group: P M N A
;
_chemical_formula_sum "Si O2"
_cell_formula_units_Z 48
_cell_length_a 14.808430
_cell_length_b 9.477868
_cell_length_c 14.973200
_cell_angle_alpha 90.000000
_cell_angle_beta 90.000000
_cell_angle_gamma 90.000000
_cell_volume 2101.523730
_symmetry_space_group_name_H-M "P M N A"
_symmetry_group_IT_number 53
_symmetry_cell_setting 'orthorhombic'
loop_
_space_group_symop_operation_xyz
x,y,z
1/2-x,-y,1/2+z
x,-y,-z
1/2-x,y,1/2-z
-x,-y,-z
1/2+x,y,1/2-z
-x,y,z
1/2+x,-y,1/2+z
loop_
_atom_site_type_symbol
_atom_site_label
_atom_site_fract_x
_atom_site_fract_y
_atom_site_fract_z
Si Si1 0.395077 0.151556 0.543219
Si Si2 0.599473 0.611357 0.579441
Si Si3 0.645722 0.429678 0.752595
Si Si4 0.397465 0.884235 0.260645
Si Si5 0.893693 0.607308 0.573738
Si Si6 0.389260 0.070613 0.093249
O O1 0.500000 0.203731 0.558264
O O2 0.353015 0.257898 0.470499
O O3 0.352951 0.130480 0.641179
O O4 0.399353 0.000000 0.500000
O O5 0.592664 0.500000 0.500000
O O6 0.500000 0.664564 0.607663
O O7 0.632156 0.520970 0.662972
O O8 0.750000 0.392282 0.750000
O O9 0.597743 0.279797 0.766599
O O10 0.617899 0.528993 0.833204
O O11 0.500000 0.938317 0.276487
O O12 0.359656 0.983337 0.181718
O O13 0.852671 0.500000 0.500000
O O14 0.859738 0.766535 0.587139
O O15 0.000000 0.623422 0.550896
O O16 0.500000 0.066160 0.095368
O O17 0.360611 0.000000 0.000000
#
# Coordination Sequence:
#
# PCOD9416508 Si02
#       6
#     8   8   8   8   8   8
#     4   9  18  31  56  91 116 141 183 244 306 358
#     4  10  19  36  61  87 115 149 195 246 303 360
#     4  12  25  38  56  84 121 163 199 246 297 362
#     4  10  19  36  60  85 114 152 200 248 301 353
#     4  10  21  39  64  91 117 152 200 248 295 352
#     4   9  18  33  59  90 116 146 191 252 304 345
#
# _framework density 22.840571000000001
#
# number of rings (size 3 to 8) (size 9 to 14) (size 15 to 20)
#    0.000    2.000    1.667    2.500    2.333    3.333 
#    0.000    0.833    0.000    0.000    0.000    0.000 
#    0.000    0.000    0.000    0.000    0.000    0.000 
#
# Total GULP energy -267659.439235 kJ/mol
# GULP energy per Si atom -5576.238317 kJ/mol
# Density = 2.278858 g / cm^3
# Si number density = 22.840571 Si / 1000 Ang^3
#
#
#
# Elastic Constant Matrix: (Units=GPa)
#
#
# Indices 1 2 3 4 5 6 
#
# 1 41.9370 0.2978 3.0982 0.0000 0.0000 0.0000
# 2 0.2978 190.3930 97.6062 0.0000 0.0000 0.0000
# 3 3.0982 97.6062 179.4914 0.0000 0.0000 0.0000
# 4 0.0000 0.0000 0.0000 51.9848 0.0000 0.0000
# 5 0.0000 0.0000 0.0000 0.0000 -20.9990 0.0000
# 6 0.0000 0.0000 0.0000 0.0000 0.0000 -8.2699
#
#
#
# Elastic Compliance Matrix: (Units=1/GPa)
#
#
# Indices 1 2 3 4 5 6 
#
# 1 0.023884 0.000241 -0.000543 0.000000 0.000000 0.000000
# 2 0.000241 0.007285 -0.003966 0.000000 0.000000 0.000000
# 3 -0.000543 -0.003966 0.007737 0.000000 0.000000 0.000000
# 4 0.000000 0.000000 0.000000 0.019236 0.000000 0.000000
# 5 0.000000 0.000000 0.000000 0.000000 -0.047621 0.000000
# 6 0.000000 0.000000 0.000000 0.000000 0.000000 -0.120921
#
#
# Mechanical properties :
#
#
# Convention : Reuss Voigt Hill
#
# Bulk Modulus (GPa) = 32.92712 68.20288 50.56500
# Shear Modulus (GPa) = -54.50125 25.26447 -14.61839
#
# Velocity S-wave (km/s) = -4.89013 3.32945 -2.53260
# Velocity P-wave (km/s) = 4.17578 6.68622 3.69245
#
# Compressibility (1/GPa) = 0.03037010
#
# Stress axis : x y z
#
# Youngs Moduli (GPa) = 41.86954 137.26943 129.24604
#
# Poissons Ratio (x) = -0.03312 0.07024
# Poissons Ratio (y) = -0.01010 0.51255
# Poissons Ratio (z) = 0.02275 0.54436
#
# Static dielectric constant tensor:
#      x y z
#    x 1.921010 0.000000 0.000000 
#    y 0.000000 1.723290 0.000000 
#    z 0.000000 0.000000 1.888680 
# 
# From -- ./inp_files/23674.got.cif
#   From: 2010.05.17/outbox.cif.g08.bks.cpg/sg53_12_cif.got.tgz:23674.got - 2010.06.03 12:45:16.
