data_PCOD9416052
_publ_section_title
;
Structure prediction by ZEFSAII (Michael W. Deem and Ramdas Pophale) SiO2 
 PCOD9416052
Probable space group: P M N A
;
_chemical_formula_sum "Si O2"
_cell_formula_units_Z 40
_cell_length_a 9.708173
_cell_length_b 14.060510
_cell_length_c 14.635404
_cell_angle_alpha 90.000000
_cell_angle_beta 90.000000
_cell_angle_gamma 90.000000
_cell_volume 1997.759920
_symmetry_space_group_name_H-M "P M N A"
_symmetry_group_IT_number 53
_symmetry_cell_setting 'orthorhombic'
loop_
_space_group_symop_operation_xyz
x,y,z
1/2-x,-y,1/2+z
x,-y,-z
1/2-x,y,1/2-z
-x,-y,-z
1/2+x,y,1/2-z
-x,y,z
1/2+x,-y,1/2+z
loop_
_atom_site_type_symbol
_atom_site_label
_atom_site_fract_x
_atom_site_fract_y
_atom_site_fract_z
Si Si1 0.848594 0.378174 0.824882
Si Si2 0.835139 0.240440 0.343434
Si Si3 0.163127 0.888932 0.975898
Si Si4 0.848199 0.386515 0.506939
Si Si5 0.849099 0.157977 0.823640
O O1 0.750000 0.425664 0.750000
O O2 0.865690 0.267965 0.796361
O O3 0.000000 0.422021 0.830082
O O4 0.772422 0.372569 0.920878
O O5 0.750000 0.254985 0.250000
O O6 0.761158 0.153494 0.398048
O O7 0.822671 0.331044 0.412336
O O8 0.000000 0.224970 0.328364
O O9 0.000000 0.869214 0.956659
O O10 0.202483 0.841971 0.072903
O O11 0.176997 0.000000 0.000000
O O12 0.856338 0.500000 0.500000
O O13 0.000000 0.352868 0.541036
O O14 0.750000 0.111150 0.750000
O O15 0.000000 0.111772 0.824318
#
# Coordination Sequence:
#
# PCOD9416052 Si02
#       5
#     8   8   8   8   8
#     4  10  19  33  56  84 114 148 187 236 293 355
#     4  11  24  42  65  89 123 168 210 259 312 372
#     4  10  21  39  62  89 123 160 202 253 305 363
#     4  10  22  40  61  88 121 158 204 255 307 366
#     4   9  18  32  53  81 111 145 183 230 286 347
#
# _framework density 20.022425999999999
#
# number of rings (size 3 to 8) (size 9 to 14) (size 15 to 20)
#    0.000    2.000    2.000    1.200    0.000    4.800 
#    0.000    4.000    0.000    0.000    0.000    0.000 
#    0.000    0.000    0.000    0.000    0.000    0.000 
#
# Total GULP energy -222793.902980 kJ/mol
# GULP energy per Si atom -5569.847575 kJ/mol
# Density = 1.997685 g / cm^3
# Si number density = 20.022426 Si / 1000 Ang^3
#
#
#
# Elastic Constant Matrix: (Units=GPa)
#
#
# Indices 1 2 3 4 5 6 
#
# 1 170.1980 26.2296 109.4611 0.0000 0.0000 0.0000
# 2 26.2296 56.4640 16.3462 0.0000 0.0000 0.0000
# 3 109.4611 16.3462 130.9197 0.0000 0.0000 0.0000
# 4 0.0000 0.0000 0.0000 -4.5355 0.0000 0.0000
# 5 0.0000 0.0000 0.0000 0.0000 39.0318 0.0000
# 6 0.0000 0.0000 0.0000 0.0000 0.0000 8.6103
#
#
#
# Elastic Compliance Matrix: (Units=1/GPa)
#
#
# Indices 1 2 3 4 5 6 
#
# 1 0.013196 -0.003046 -0.010653 0.000000 0.000000 0.000000
# 2 -0.003046 0.019078 0.000165 0.000000 0.000000 0.000000
# 3 -0.010653 0.000165 0.016525 0.000000 0.000000 0.000000
# 4 0.000000 0.000000 0.000000 -0.220481 0.000000 0.000000
# 5 0.000000 0.000000 0.000000 0.000000 0.025620 0.000000
# 6 0.000000 0.000000 0.000000 0.000000 0.000000 0.116140
#
#
# Mechanical properties :
#
#
# Convention : Reuss Voigt Hill
#
# Bulk Modulus (GPa) = 46.01922 73.51727 59.76825
# Shear Modulus (GPa) = 1139.14504 22.32431 580.73468
#
# Velocity S-wave (km/s) = 23.87823 3.34273 17.04910
# Velocity P-wave (km/s) = 27.98678 7.18997 20.43227
#
# Compressibility (1/GPa) = 0.02173005
#
# Stress axis : x y z
#
# Youngs Moduli (GPa) = 75.77859 52.41719 60.51582
#
# Poissons Ratio (x) = 0.15967 0.64468
# Poissons Ratio (y) = 0.23083 -0.00998
# Poissons Ratio (z) = 0.80727 -0.00864
#
# Static dielectric constant tensor:
#      x y z
#    x 1.800710 0.000000 0.000000 
#    y 0.000000 1.557760 0.000000 
#    z 0.000000 0.000000 1.703510 
# 
# From -- ./inp_files/19874.got.cif
#   From: 2010.05.17/outbox.cif.g08.bks.cpg/sg53_10_cif.got.tgz:19874.got - 2010.06.03 12:45:16.
