data_PCOD9416099
_publ_section_title
;
Structure prediction by ZEFSAII (Michael W. Deem and Ramdas Pophale) SiO2 
 PCOD9416099
Probable space group: P M N A
;
_chemical_formula_sum "Si O2"
_cell_formula_units_Z 48
_cell_length_a 15.209632
_cell_length_b 14.627098
_cell_length_c 9.755702
_cell_angle_alpha 90.000000
_cell_angle_beta 90.000000
_cell_angle_gamma 90.000000
_cell_volume 2170.378123
_symmetry_space_group_name_H-M "P M N A"
_symmetry_group_IT_number 53
_symmetry_cell_setting 'orthorhombic'
loop_
_space_group_symop_operation_xyz
x,y,z
1/2-x,-y,1/2+z
x,-y,-z
1/2-x,y,1/2-z
-x,-y,-z
1/2+x,y,1/2-z
-x,y,z
1/2+x,-y,1/2+z
loop_
_atom_site_type_symbol
_atom_site_label
_atom_site_fract_x
_atom_site_fract_y
_atom_site_fract_z
Si Si1 0.404466 0.653294 0.666648
Si Si2 0.146776 0.926652 0.785403
Si Si3 0.398473 0.881825 0.393211
Si Si4 0.313403 0.478460 0.640953
Si Si5 0.098504 0.231907 0.430711
Si Si6 0.281235 0.278066 0.566508
O O1 0.500000 0.683962 0.614247
O O2 0.396894 0.544054 0.645562
O O3 0.398843 0.684014 0.822935
O O4 0.328201 0.702151 0.580649
O O5 0.250000 0.926222 0.750000
O O6 0.108330 0.857298 0.670548
O O7 0.114282 0.031408 0.793064
O O8 0.124468 0.900349 0.944312
O O9 0.500000 0.854816 0.387421
O O10 0.330196 0.803531 0.358087
O O11 0.266207 0.500000 0.500000
O O12 0.250000 0.520603 0.750000
O O13 0.312280 0.370008 0.646616
O O14 0.180865 0.250439 0.531410
O O15 0.000000 0.228334 0.493037
#
# Coordination Sequence:
#
# PCOD9416099 Si02
#       6
#     8   8   8   8   8   8
#     4  10  19  33  58  91 122 156 203 261 319 381
#     4  11  20  36  60  88 123 157 204 260 324 384
#     4  11  22  36  59  95 124 157 208 270 326 388
#     4  10  22  39  62  89 125 166 210 260 318 386
#     4  11  20  36  62  90 120 162 214 264 320 393
#     4  11  21  36  59  88 123 159 207 263 327 377
#
# _framework density 22.115963000000001
#
# number of rings (size 3 to 8) (size 9 to 14) (size 15 to 20)
#    0.000    1.333    3.333    5.000    0.000    4.333 
#    0.000    0.833    0.000   13.000    0.000    0.000 
#    0.000    0.000    0.000    0.000    0.000    0.000 
#
# Total GULP energy -267355.763559 kJ/mol
# GULP energy per Si atom -5569.911741 kJ/mol
# Density = 2.206563 g / cm^3
# Si number density = 22.115963 Si / 1000 Ang^3
#
#
#
# Elastic Constant Matrix: (Units=GPa)
#
#
# Indices 1 2 3 4 5 6 
#
# 1 187.8929 44.0445 32.2711 0.0000 0.0000 0.0000
# 2 44.0445 158.6382 15.8448 0.0000 0.0000 0.0000
# 3 32.2711 15.8448 44.6253 0.0000 0.0000 0.0000
# 4 0.0000 0.0000 0.0000 -7.2380 0.0000 0.0000
# 5 0.0000 0.0000 0.0000 0.0000 25.5743 0.0000
# 6 0.0000 0.0000 0.0000 0.0000 0.0000 33.5115
#
#
#
# Elastic Compliance Matrix: (Units=1/GPa)
#
#
# Indices 1 2 3 4 5 6 
#
# 1 0.006345 -0.001351 -0.004108 0.000000 0.000000 0.000000
# 2 -0.001351 0.006823 -0.001446 0.000000 0.000000 0.000000
# 3 -0.004108 -0.001446 0.025893 0.000000 0.000000 0.000000
# 4 0.000000 0.000000 0.000000 -0.138159 0.000000 0.000000
# 5 0.000000 0.000000 0.000000 0.000000 0.039102 0.000000
# 6 0.000000 0.000000 0.000000 0.000000 0.000000 0.029841
#
#
# Mechanical properties :
#
#
# Convention : Reuss Voigt Hill
#
# Bulk Modulus (GPa) = 39.60297 63.94191 51.77244
# Shear Modulus (GPa) = -630.61347 30.30260 -300.15543
#
# Velocity S-wave (km/s) = -16.90439 3.70559 -11.66248
# Velocity P-wave (km/s) = 19.05428 6.87630 12.56547
#
# Compressibility (1/GPa) = 0.02525063
#
# Stress axis : x y z
#
# Youngs Moduli (GPa) = 157.61604 146.55940 38.62042
#
# Poissons Ratio (x) = 0.19803 0.15867
# Poissons Ratio (y) = 0.21297 0.05583
# Poissons Ratio (z) = 0.64754 0.21186
#
# Static dielectric constant tensor:
#      x y z
#    x 1.795670 0.000000 0.000000 
#    y 0.000000 2.098440 0.000000 
#    z 0.000000 0.000000 1.696520 
# 
# From -- ./inp_files/15970.got.cif
#   From: 2010.05.17/outbox.cif.g08.bks.cpg/sg53_8_cif.got.tgz:15970.got - 2010.06.03 12:45:16.
