data_PCOD9416386
_publ_section_title
;
Structure prediction by ZEFSAII (Michael W. Deem and Ramdas Pophale) SiO2 
 PCOD9416386
Probable space group: P M N A
;
_chemical_formula_sum "Si O2"
_cell_formula_units_Z 48
_cell_length_a 16.610748
_cell_length_b 28.034015
_cell_length_c 5.045672
_cell_angle_alpha 90.000000
_cell_angle_beta 90.000000
_cell_angle_gamma 90.000000
_cell_volume 2349.597689
_symmetry_space_group_name_H-M "P M N A"
_symmetry_group_IT_number 53
_symmetry_cell_setting 'orthorhombic'
loop_
_space_group_symop_operation_xyz
x,y,z
1/2-x,-y,1/2+z
x,-y,-z
1/2-x,y,1/2-z
-x,-y,-z
1/2+x,y,1/2-z
-x,y,z
1/2+x,-y,1/2+z
loop_
_atom_site_type_symbol
_atom_site_label
_atom_site_fract_x
_atom_site_fract_y
_atom_site_fract_z
Si Si1 0.690637 0.604107 0.499357
Si Si2 0.160426 0.746689 0.363851
Si Si3 0.193740 0.000000 0.000000
Si Si4 0.595429 0.842943 0.892571
Si Si5 0.309058 0.500000 0.500000
Si Si6 0.904951 0.904364 0.097467
Si Si7 0.093543 0.696591 0.870999
O O1 0.750000 0.605788 0.750000
O O2 0.649112 0.551620 0.493453
O O3 0.628213 0.646983 0.519454
O O4 0.750000 0.609374 0.250000
O O5 0.250000 0.742682 0.250000
O O6 0.142264 0.797918 0.492375
O O7 0.142408 0.711069 0.607310
O O8 0.105471 0.734663 0.108887
O O9 0.140605 0.953384 0.053170
O O10 0.250000 0.990641 0.750000
O O11 0.500000 0.830237 0.878596
O O12 0.604734 0.885227 0.105660
O O13 0.622136 0.863291 0.609046
O O14 0.250000 0.500280 0.750000
O O15 0.000000 0.911311 0.046272
O O16 0.000000 0.693692 0.801270
#
# Coordination Sequence:
#
# PCOD9416386 Si02
#       7
#     8   8   4   8   4   8   8
#     4  10  19  35  58  83 114 150 197 245 293 353
#     4  12  25  41  62  89 120 158 200 246 296 353
#     4  12  25  40  61  90 122 152 190 240 285 328
#     4  10  21  39  63  89 116 151 192 238 287 343
#     4   8  16  30  53  82 109 146 190 240 294 350
#     4  10  22  41  64  87 117 155 192 229 284 349
#     4  12  24  39  59  86 121 160 199 245 297 351
#
# _framework density 20.429029
#
# number of rings (size 3 to 8) (size 9 to 14) (size 15 to 20)
#    0.000    1.333    0.000    6.750    0.000    3.333 
#    0.000    3.750    0.000    0.000    0.000    9.333 
#    0.000    0.000    0.000    0.000    0.000    0.000 
#
# Total GULP energy -268394.647461 kJ/mol
# GULP energy per Si atom -5591.555155 kJ/mol
# Density = 2.038253 g / cm^3
# Si number density = 20.429029 Si / 1000 Ang^3
#
#
#
# Elastic Constant Matrix: (Units=GPa)
#
#
# Indices 1 2 3 4 5 6 
#
# 1 47.4114 25.8474 -4.7310 0.0000 0.0000 0.0000
# 2 25.8474 77.5896 -27.0796 0.0000 0.0000 0.0000
# 3 -4.7310 -27.0796 77.3424 0.0000 0.0000 0.0000
# 4 0.0000 0.0000 0.0000 28.4400 0.0000 0.0000
# 5 0.0000 0.0000 0.0000 0.0000 41.0671 0.0000
# 6 0.0000 0.0000 0.0000 0.0000 0.0000 -132.4671
#
#
#
# Elastic Compliance Matrix: (Units=1/GPa)
#
#
# Indices 1 2 3 4 5 6 
#
# 1 0.025954 -0.009218 -0.001640 0.000000 0.000000 0.000000
# 2 -0.009218 0.017957 0.005723 0.000000 0.000000 0.000000
# 3 -0.001640 0.005723 0.014833 0.000000 0.000000 0.000000
# 4 0.000000 0.000000 0.000000 0.035162 0.000000 0.000000
# 5 0.000000 0.000000 0.000000 0.000000 0.024350 0.000000
# 6 0.000000 0.000000 0.000000 0.000000 0.000000 -0.007549
#
#
# Mechanical properties :
#
#
# Convention : Reuss Voigt Hill
#
# Bulk Modulus (GPa) = 20.62991 21.15745 20.89368
# Shear Modulus (GPa) = 36.46045 1.29511 18.87778
#
# Velocity S-wave (km/s) = 4.22920 0.79708 3.04314
# Velocity P-wave (km/s) = 5.82824 3.35055 4.75366
#
# Compressibility (1/GPa) = 0.04847330
#
# Stress axis : x y z
#
# Youngs Moduli (GPa) = 38.52981 55.68951 67.41703
#
# Poissons Ratio (x) = 0.51337 0.11057
# Poissons Ratio (y) = 0.35518 -0.38584
# Poissons Ratio (z) = 0.06319 -0.31872
#
# Static dielectric constant tensor:
#      x y z
#    x 1.696130 0.000000 0.000000 
#    y 0.000000 1.758950 0.000000 
#    z 0.000000 0.000000 1.686180 
# 
# From -- ./inp_files/1441.got.cif
#   From: 2010.05.17/outbox.cif.g08.bks.cpg/sg53_1_cif.got.tgz:1441.got - 2010.06.03 12:45:16.
