data_PCOD9416794
_publ_section_title
;
Structure prediction by ZEFSAII (Michael W. Deem and Ramdas Pophale) SiO2 
 PCOD9416794
Probable space group: P M N A
;
_chemical_formula_sum "Si O2"
_cell_formula_units_Z 64
_cell_length_a 8.816639
_cell_length_b 15.034069
_cell_length_c 30.174754
_cell_angle_alpha 90.000000
_cell_angle_beta 90.000000
_cell_angle_gamma 90.000000
_cell_volume 3999.662408
_symmetry_space_group_name_H-M "P M N A"
_symmetry_group_IT_number 53
_symmetry_cell_setting 'orthorhombic'
loop_
_space_group_symop_operation_xyz
x,y,z
1/2-x,-y,1/2+z
x,-y,-z
1/2-x,y,1/2-z
-x,-y,-z
1/2+x,y,1/2-z
-x,y,z
1/2+x,-y,1/2+z
loop_
_atom_site_type_symbol
_atom_site_label
_atom_site_fract_x
_atom_site_fract_y
_atom_site_fract_z
Si Si1 0.319805 0.129293 0.059727
Si Si2 0.680093 0.828073 0.466860
Si Si3 0.680953 0.550335 0.932531
Si Si4 0.321489 0.290773 0.387818
Si Si5 0.681101 0.000982 0.203183
Si Si6 0.180943 0.037435 0.888154
Si Si7 0.319811 0.198011 0.295120
Si Si8 0.181430 0.365556 0.529726
O O1 0.500000 0.119613 0.061622
O O2 0.270401 0.223583 0.080616
O O3 0.241865 0.052174 0.088502
O O4 0.263078 0.128718 0.009154
O O5 0.500000 0.832062 0.474901
O O6 0.733495 0.726367 0.463003
O O7 0.713394 0.883106 0.422396
O O8 0.500000 0.554189 0.924985
O O9 0.768027 0.609443 0.897103
O O10 0.724299 0.447096 0.937961
O O11 0.709477 0.597273 0.980168
O O12 0.500000 0.281003 0.397640
O O13 0.295046 0.259034 0.337704
O O14 0.750000 0.968915 0.250000
O O15 0.500000 0.999708 0.205070
O O16 0.741572 0.951676 0.159566
O O17 0.739741 0.102739 0.197905
O O18 0.000000 0.029416 0.882243
O O19 0.250000 0.236066 0.250000
O O20 0.500000 0.182975 0.289996
O O21 0.000000 0.351075 0.533324
#
# Coordination Sequence:
#
# PCOD9416794 Si02
#       8
#     8   8   8   8   8   8   8   8
#     4  12  23  34  50  72 101 139 179 212 247 301
#     4  11  23  36  52  73 102 138 174 216 260 298
#     4   9  18  32  51  74 100 132 166 207 251 296
#     4  11  21  32  50  75 104 135 169 210 254 302
#     4  11  21  34  54  76 100 132 169 211 257 303
#     4  11  23  38  52  72 103 137 174 214 256 305
#     4  10  20  33  50  72 102 134 167 210 253 301
#     4   9  18  33  51  73 101 130 168 211 250 296
#
# _framework density 16.001349000000001
#
# number of rings (size 3 to 8) (size 9 to 14) (size 15 to 20)
#    0.000    1.500    2.500    5.625    0.000    5.500 
#    0.000    1.250    0.000    0.000    0.000    0.875 
#    0.000    4.000    0.000    0.000    0.000    0.000 
#
# Total GULP energy -357429.151953 kJ/mol
# GULP energy per Si atom -5584.830499 kJ/mol
# Density = 1.596493 g / cm^3
# Si number density = 16.001349 Si / 1000 Ang^3
#
#
#
# Elastic Constant Matrix: (Units=GPa)
#
#
# Indices 1 2 3 4 5 6 
#
# 1 81.7522 23.5134 61.8323 0.0000 0.0000 0.0000
# 2 23.5134 48.4464 29.2604 0.0000 0.0000 0.0000
# 3 61.8323 29.2604 111.9666 0.0000 0.0000 0.0000
# 4 0.0000 0.0000 0.0000 19.7383 0.0000 0.0000
# 5 0.0000 0.0000 0.0000 0.0000 28.2030 0.0000
# 6 0.0000 0.0000 0.0000 0.0000 0.0000 0.1716
#
#
#
# Elastic Compliance Matrix: (Units=1/GPa)
#
#
# Indices 1 2 3 4 5 6 
#
# 1 0.021607 -0.003895 -0.010915 0.000000 0.000000 0.000000
# 2 -0.003895 0.025212 -0.004438 0.000000 0.000000 0.000000
# 3 -0.010915 -0.004438 0.016118 0.000000 0.000000 0.000000
# 4 0.000000 0.000000 0.000000 0.050663 0.000000 0.000000
# 5 0.000000 0.000000 0.000000 0.000000 0.035457 0.000000
# 6 0.000000 0.000000 0.000000 0.000000 0.000000 5.825884
#
#
# Mechanical properties :
#
#
# Convention : Reuss Voigt Hill
#
# Bulk Modulus (GPa) = 40.91101 52.37526 46.64313
# Shear Modulus (GPa) = 0.83035 18.12652 9.47843
#
# Velocity S-wave (km/s) = 0.72114 3.36938 2.43647
# Velocity P-wave (km/s) = 5.12992 6.92386 6.09327
#
# Compressibility (1/GPa) = 0.02444330
#
# Stress axis : x y z
#
# Youngs Moduli (GPa) = 46.28030 39.66349 62.04087
#
# Poissons Ratio (x) = 0.15449 0.67715
# Poissons Ratio (y) = 0.18026 0.27532
# Poissons Ratio (z) = 0.50513 0.17602
#
# Static dielectric constant tensor:
#      x y z
#    x 1.536020 0.000000 0.000000 
#    y 0.000000 1.521560 0.000000 
#    z 0.000000 0.000000 1.543490 
# 
# From -- ./inp_files/38500.got.cif
#   From: 2010.05.17/outbox.cif.g08.bks.cpg/sg53_20_cif.got.tgz:38500.got - 2010.06.03 12:45:16.
