data_PCOD9416657
_publ_section_title
;
Structure prediction by ZEFSAII (Michael W. Deem and Ramdas Pophale) SiO2 
 PCOD9416657
Probable space group: P M N A
;
_chemical_formula_sum "Si O2"
_cell_formula_units_Z 40
_cell_length_a 8.580907
_cell_length_b 10.170259
_cell_length_c 23.126083
_cell_angle_alpha 90.000000
_cell_angle_beta 90.000000
_cell_angle_gamma 90.000000
_cell_volume 2018.214342
_symmetry_space_group_name_H-M "P M N A"
_symmetry_group_IT_number 53
_symmetry_cell_setting 'orthorhombic'
loop_
_space_group_symop_operation_xyz
x,y,z
1/2-x,-y,1/2+z
x,-y,-z
1/2-x,y,1/2-z
-x,-y,-z
1/2+x,y,1/2-z
-x,y,z
1/2+x,-y,1/2+z
loop_
_atom_site_type_symbol
_atom_site_label
_atom_site_fract_x
_atom_site_fract_y
_atom_site_fract_z
Si Si1 0.189208 0.269304 0.898927
Si Si2 0.186853 0.501008 0.186108
Si Si3 0.186580 0.955625 0.189928
Si Si4 0.311381 0.150965 0.482426
Si Si5 0.315133 0.223639 0.143313
O O1 0.242664 0.395504 0.862731
O O2 0.000000 0.274277 0.900282
O O3 0.231906 0.140291 0.862242
O O4 0.238357 0.245746 0.964824
O O5 0.250000 0.532197 0.250000
O O6 0.238659 0.355980 0.167387
O O7 0.000000 0.507532 0.188267
O O8 0.250000 0.900169 0.250000
O O9 0.257761 0.098398 0.179583
O O10 0.000000 0.964369 0.191413
O O11 0.500000 0.156508 0.476092
O O12 0.236692 0.194264 0.422404
O O13 0.273951 0.000000 0.500000
O O14 0.500000 0.235269 0.147232
#
# Coordination Sequence:
#
# PCOD9416657 Si02
#       5
#     8   8   8   8   8
#     4   9  20  38  64  92 120 158 202 247 306 366
#     4  11  23  42  64  89 123 162 204 251 305 365
#     4  11  21  38  61  90 120 156 203 254 306 364
#     4  10  19  39  67  92 122 160 203 252 302 363
#     4  12  25  40  59  89 124 163 205 251 305 358
#
# _framework density 19.819500999999999
#
# number of rings (size 3 to 8) (size 9 to 14) (size 15 to 20)
#    0.000    1.400    2.000    4.200    0.000    1.200 
#    0.000    9.000    0.000    0.000    0.000    0.000 
#    0.000    0.000    0.000    0.000    0.000    0.000 
#
# Total GULP energy -223611.545936 kJ/mol
# GULP energy per Si atom -5590.288648 kJ/mol
# Density = 1.977439 g / cm^3
# Si number density = 19.819501 Si / 1000 Ang^3
#
#
#
# Elastic Constant Matrix: (Units=GPa)
#
#
# Indices 1 2 3 4 5 6 
#
# 1 57.1207 7.0788 14.6472 0.0000 0.0000 0.0000
# 2 7.0788 57.1593 -13.7605 0.0000 0.0000 0.0000
# 3 14.6472 -13.7605 89.0201 0.0000 0.0000 0.0000
# 4 0.0000 0.0000 0.0000 34.3204 0.0000 0.0000
# 5 0.0000 0.0000 0.0000 0.0000 36.2325 0.0000
# 6 0.0000 0.0000 0.0000 0.0000 0.0000 230.6071
#
#
#
# Elastic Compliance Matrix: (Units=1/GPa)
#
#
# Indices 1 2 3 4 5 6 
#
# 1 0.018824 -0.003196 -0.003591 0.000000 0.000000 0.000000
# 2 -0.003196 0.018714 0.003419 0.000000 0.000000 0.000000
# 3 -0.003591 0.003419 0.012353 0.000000 0.000000 0.000000
# 4 0.000000 0.000000 0.000000 0.029137 0.000000 0.000000
# 5 0.000000 0.000000 0.000000 0.000000 0.027600 0.000000
# 6 0.000000 0.000000 0.000000 0.000000 0.000000 0.004336
#
#
# Mechanical properties :
#
#
# Convention : Reuss Voigt Hill
#
# Bulk Modulus (GPa) = 23.17318 24.35902 23.76610
# Shear Modulus (GPa) = 37.85453 73.25429 55.55441
#
# Velocity S-wave (km/s) = 4.37505 6.08613 5.30010
# Velocity P-wave (km/s) = 6.10237 7.85526 7.03363
#
# Compressibility (1/GPa) = 0.04315334
#
# Stress axis : x y z
#
# Youngs Moduli (GPa) = 53.12450 53.43673 80.95372
#
# Poissons Ratio (x) = 0.17077 0.29072
# Poissons Ratio (y) = 0.16977 -0.27674
# Poissons Ratio (z) = 0.19078 -0.18268
#
# Static dielectric constant tensor:
#      x y z
#    x 1.672890 0.000000 0.000000 
#    y 0.000000 1.678600 0.000000 
#    z 0.000000 0.000000 1.718930 
# 
# From -- ./inp_files/33630.got.cif
#   From: 2010.05.17/outbox.cif.g08.bks.cpg/sg53_17_cif.got.tgz:33630.got - 2010.06.03 12:45:16.
