data_PCOD9416302
_publ_section_title
;
Structure prediction by ZEFSAII (Michael W. Deem and Ramdas Pophale) SiO2 
 PCOD9416302
Probable space group: P M N A
;
_chemical_formula_sum "Si O2"
_cell_formula_units_Z 40
_cell_length_a 16.403704
_cell_length_b 11.599834
_cell_length_c 10.224365
_cell_angle_alpha 90.000000
_cell_angle_beta 90.000000
_cell_angle_gamma 90.000000
_cell_volume 1945.494661
_symmetry_space_group_name_H-M "P M N A"
_symmetry_group_IT_number 53
_symmetry_cell_setting 'orthorhombic'
loop_
_space_group_symop_operation_xyz
x,y,z
1/2-x,-y,1/2+z
x,-y,-z
1/2-x,y,1/2-z
-x,-y,-z
1/2+x,y,1/2-z
-x,y,z
1/2+x,-y,1/2+z
loop_
_atom_site_type_symbol
_atom_site_label
_atom_site_fract_x
_atom_site_fract_y
_atom_site_fract_z
Si Si1 0.905302 0.932605 0.364256
Si Si2 0.313481 0.691986 0.129083
Si Si3 0.168307 0.667632 0.949014
Si Si4 0.405437 0.537679 0.306385
Si Si5 0.097114 0.913266 0.879137
O O1 0.854371 0.816547 0.375347
O O2 0.000000 0.903068 0.334059
O O3 0.902676 0.000000 0.500000
O O4 0.876249 0.017685 0.249743
O O5 0.250000 0.692166 0.250000
O O6 0.379366 0.597718 0.172125
O O7 0.260505 0.664991 0.001478
O O8 0.149149 0.573234 0.839382
O O9 0.143537 0.794634 0.904640
O O10 0.113173 0.626859 0.073875
O O11 0.500000 0.506631 0.308609
O O12 0.000000 0.888181 0.867716
O O13 0.108644 0.000000 0.000000
#
# Coordination Sequence:
#
# PCOD9416302 Si02
#       5
#     8   8   8   8   8
#     4  10  22  40  60  86 124 164 202 249 311 382
#     4  10  21  36  57  87 121 158 201 256 321 374
#     4  10  20  35  57  88 119 152 206 269 314 363
#     4  10  19  36  62  87 119 163 211 259 314 379
#     4  10  19  34  60  89 116 152 203 256 306 372
#
# _framework density 20.560321999999999
#
# number of rings (size 3 to 8) (size 9 to 14) (size 15 to 20)
#    0.000    2.000    0.000    5.400    0.000    4.000 
#    0.000   12.000    0.000    0.000    0.000   46.200 
#    0.000    0.000    0.000    0.000    0.000    0.000 
#
# Total GULP energy -223621.765789 kJ/mol
# GULP energy per Si atom -5590.544145 kJ/mol
# Density = 2.051353 g / cm^3
# Si number density = 20.560322 Si / 1000 Ang^3
#
#
#
# Elastic Constant Matrix: (Units=GPa)
#
#
# Indices 1 2 3 4 5 6 
#
# 1 50.1432 49.5295 33.6890 0.0000 0.0000 0.0000
# 2 49.5295 135.5763 48.8840 0.0000 0.0000 0.0000
# 3 33.6890 48.8840 72.4325 0.0000 0.0000 0.0000
# 4 0.0000 0.0000 0.0000 18.4130 0.0000 0.0000
# 5 0.0000 0.0000 0.0000 0.0000 144.8218 0.0000
# 6 0.0000 0.0000 0.0000 0.0000 0.0000 45.6334
#
#
#
# Elastic Compliance Matrix: (Units=1/GPa)
#
#
# Indices 1 2 3 4 5 6 
#
# 1 0.036395 -0.009506 -0.010512 0.000000 0.000000 0.000000
# 2 -0.009506 0.012231 -0.003833 0.000000 0.000000 0.000000
# 3 -0.010512 -0.003833 0.021282 0.000000 0.000000 0.000000
# 4 0.000000 0.000000 0.000000 0.054309 0.000000 0.000000
# 5 0.000000 0.000000 0.000000 0.000000 0.006905 0.000000
# 6 0.000000 0.000000 0.000000 0.000000 0.000000 0.021914
#
#
# Mechanical properties :
#
#
# Convention : Reuss Voigt Hill
#
# Bulk Modulus (GPa) = 45.03371 58.03967 51.53669
# Shear Modulus (GPa) = 24.02221 50.17694 37.09957
#
# Velocity S-wave (km/s) = 3.42186 4.94548 4.25246
# Velocity P-wave (km/s) = 6.12886 7.80388 7.01653
#
# Compressibility (1/GPa) = 0.02220559
#
# Stress axis : x y z
#
# Youngs Moduli (GPa) = 27.47627 81.76148 46.98722
#
# Poissons Ratio (x) = 0.77720 0.49395
# Poissons Ratio (y) = 0.26118 0.18011
# Poissons Ratio (z) = 0.28884 0.31341
#
# Static dielectric constant tensor:
#      x y z
#    x 1.742200 0.000000 0.000000 
#    y 0.000000 1.691260 0.000000 
#    z 0.000000 0.000000 1.745760 
# 
# From -- ./inp_files/9660.got.cif
#   From: 2010.05.17/outbox.cif.g08.bks.cpg/sg53_5_cif.got.tgz:9660.got - 2010.06.03 12:45:16.
