data_PCOD9416813
_publ_section_title
;
Structure prediction by ZEFSAII (Michael W. Deem and Ramdas Pophale) SiO2 
 PCOD9416813
Probable space group: P M N A
;
_chemical_formula_sum "Si O2"
_cell_formula_units_Z 40
_cell_length_a 8.693741
_cell_length_b 26.930029
_cell_length_c 9.231281
_cell_angle_alpha 90.000000
_cell_angle_beta 90.000000
_cell_angle_gamma 90.000000
_cell_volume 2161.252407
_symmetry_space_group_name_H-M "P M N A"
_symmetry_group_IT_number 53
_symmetry_cell_setting 'orthorhombic'
loop_
_space_group_symop_operation_xyz
x,y,z
1/2-x,-y,1/2+z
x,-y,-z
1/2-x,y,1/2-z
-x,-y,-z
1/2+x,y,1/2-z
-x,y,z
1/2+x,-y,1/2+z
loop_
_atom_site_type_symbol
_atom_site_label
_atom_site_fract_x
_atom_site_fract_y
_atom_site_fract_z
Si Si1 0.684210 0.950919 0.087651
Si Si2 0.314951 0.642840 0.588554
Si Si3 0.815600 0.849308 0.086225
Si Si4 0.814698 0.739965 0.087410
Si Si5 0.315576 0.450070 0.911550
O O1 0.750000 0.954721 0.250000
O O2 0.500000 0.948128 0.094526
O O3 0.746912 0.899497 0.019769
O O4 0.729213 0.000000 0.000000
O O5 0.250000 0.639391 0.750000
O O6 0.500000 0.641397 0.592587
O O7 0.265456 0.694439 0.512827
O O8 0.253899 0.597192 0.493640
O O9 0.750000 0.848466 0.250000
O O10 0.772662 0.794782 0.027245
O O11 0.000000 0.853416 0.089951
O O12 0.750000 0.734458 0.250000
O O13 0.000000 0.738808 0.098034
O O14 0.250000 0.453103 0.750000
O O15 0.500000 0.445501 0.906086
O O16 0.276857 0.500000 0.000000
#
# Coordination Sequence:
#
# PCOD9416813 Si02
#       5
#     8   8   8   8   8
#     4  10  20  33  50  74 102 133 172 215 261 314
#     4  11  23  39  58  82 114 149 186 226 272 324
#     4   9  16  29  50  74 101 133 171 214 262 314
#     4   9  19  34  54  80 106 135 174 220 266 317
#     4  11  24  41  62  88 117 149 186 228 273 321
#
# _framework density 18.507788999999999
#
# number of rings (size 3 to 8) (size 9 to 14) (size 15 to 20)
#    0.000    2.000    0.000    4.800    0.000    8.800 
#    0.000    1.000    0.000    4.800    0.000    0.000 
#    0.000    0.000    0.000    0.000    0.000    0.000 
#
# Total GULP energy -223247.123743 kJ/mol
# GULP energy per Si atom -5581.178094 kJ/mol
# Density = 1.846566 g / cm^3
# Si number density = 18.507789 Si / 1000 Ang^3
#
#
#
# Elastic Constant Matrix: (Units=GPa)
#
#
# Indices 1 2 3 4 5 6 
#
# 1 49.9114 63.8835 34.2526 0.0000 0.0000 0.0000
# 2 63.8835 223.2851 91.4787 0.0000 0.0000 0.0000
# 3 34.2526 91.4787 108.8653 0.0000 0.0000 0.0000
# 4 0.0000 0.0000 0.0000 30.2007 0.0000 0.0000
# 5 0.0000 0.0000 0.0000 0.0000 22.1362 0.0000
# 6 0.0000 0.0000 0.0000 0.0000 0.0000 41.1672
#
#
#
# Elastic Compliance Matrix: (Units=1/GPa)
#
#
# Indices 1 2 3 4 5 6 
#
# 1 0.032553 -0.007804 -0.003684 0.000000 0.000000 0.000000
# 2 -0.007804 0.008701 -0.004856 0.000000 0.000000 0.000000
# 3 -0.003684 -0.004856 0.014425 0.000000 0.000000 0.000000
# 4 0.000000 0.000000 0.000000 0.033112 0.000000 0.000000
# 5 0.000000 0.000000 0.000000 0.000000 0.045175 0.000000
# 6 0.000000 0.000000 0.000000 0.000000 0.000000 0.024291
#
#
# Mechanical properties :
#
#
# Convention : Reuss Voigt Hill
#
# Bulk Modulus (GPa) = 43.49698 84.58793 64.04245
# Shear Modulus (GPa) = 25.17514 31.53061 28.35287
#
# Velocity S-wave (km/s) = 3.69215 4.13200 3.91825
# Velocity P-wave (km/s) = 6.45980 8.28056 7.42619
#
# Compressibility (1/GPa) = 0.02299010
#
# Stress axis : x y z
#
# Youngs Moduli (GPa) = 30.71935 114.93237 69.32323
#
# Poissons Ratio (x) = 0.89694 0.25542
# Poissons Ratio (y) = 0.23974 0.33662
# Poissons Ratio (z) = 0.11318 0.55809
#
# Static dielectric constant tensor:
#      x y z
#    x 1.623090 0.000000 0.000000 
#    y 0.000000 1.680910 0.000000 
#    z 0.000000 0.000000 1.597680 
# 
# From -- ./inp_files/6430.got.cif
#   From: 2010.05.17/outbox.cif.g08.bks.cpg/sg53_4_cif.got.tgz:6430.got - 2010.06.03 12:45:16.
