data_PCOD9416953
_publ_section_title
;
Structure prediction by ZEFSAII (Michael W. Deem and Ramdas Pophale) SiO2 
 PCOD9416953
Probable space group: P M N A
;
_chemical_formula_sum "Si O2"
_cell_formula_units_Z 64
_cell_length_a 14.375894
_cell_length_b 11.853555
_cell_length_c 18.379989
_cell_angle_alpha 90.000000
_cell_angle_beta 90.000000
_cell_angle_gamma 90.000000
_cell_volume 3132.050300
_symmetry_space_group_name_H-M "P M N A"
_symmetry_group_IT_number 53
_symmetry_cell_setting 'orthorhombic'
loop_
_space_group_symop_operation_xyz
x,y,z
1/2-x,-y,1/2+z
x,-y,-z
1/2-x,y,1/2-z
-x,-y,-z
1/2+x,y,1/2-z
-x,y,z
1/2+x,-y,1/2+z
loop_
_atom_site_type_symbol
_atom_site_label
_atom_site_fract_x
_atom_site_fract_y
_atom_site_fract_z
Si Si1 0.103924 0.243464 0.169231
Si Si2 0.349948 0.434886 0.434269
Si Si3 0.607722 0.367542 0.183824
Si Si4 0.736231 0.968178 0.664410
Si Si5 0.109063 0.100536 0.940195
Si Si6 0.262245 0.273940 0.971760
Si Si7 0.263441 0.416461 0.833659
Si Si8 0.608859 0.849399 0.921717
O O1 0.101044 0.331533 0.104207
O O2 0.136060 0.312580 0.239635
O O3 0.177170 0.146615 0.154782
O O4 0.000000 0.196883 0.182691
O O5 0.397556 0.500000 0.500000
O O6 0.258701 0.378704 0.473672
O O7 0.326125 0.525135 0.371503
O O8 0.500000 0.399499 0.189719
O O9 0.665283 0.478861 0.167715
O O10 0.614122 0.264430 0.127322
O O11 0.750000 0.986809 0.750000
O O12 0.831963 0.944765 0.620846
O O13 0.670819 0.061303 0.628120
O O14 0.163495 0.209911 0.967640
O O15 0.000000 0.118548 0.925063
O O16 0.115275 0.000000 0.000000
O O17 0.290048 0.321319 0.892576
O O18 0.336724 0.187573 0.005481
O O19 0.250000 0.379204 0.750000
O O20 0.500000 0.877398 0.931804
#
# Coordination Sequence:
#
# PCOD9416953 Si02
#       8
#     8   8   8   8   8   8   8   8
#     4  11  20  33  58  92 126 161 207 266 322 378
#     4  10  20  34  56  87 121 164 209 260 309 378
#     4  10  20  33  56  92 127 164 212 257 309 375
#     4  12  23  39  67  97 134 163 209 269 344 392
#     4  11  24  45  71  96 125 168 222 275 331 401
#     4  11  23  40  62  93 126 167 218 264 324 383
#     4  11  21  37  61  85 128 176 212 257 316 381
#     4  11  22  38  63  96 131 165 212 269 321 381
#
# _framework density 20.433900000000001
#
# number of rings (size 3 to 8) (size 9 to 14) (size 15 to 20)
#    0.000    1.125    6.250    0.375    0.000    3.250 
#    0.000    5.000    0.000    1.500    0.000    0.000 
#    0.000    0.000    0.000    0.000    0.000    0.000 
#
# Total GULP energy -357377.553406 kJ/mol
# GULP energy per Si atom -5584.024272 kJ/mol
# Density = 2.038739 g / cm^3
# Si number density = 20.433900 Si / 1000 Ang^3
#
#
#
# Elastic Constant Matrix: (Units=GPa)
#
#
# Indices 1 2 3 4 5 6 
#
# 1 117.3614 23.6796 39.2876 0.0000 0.0000 0.0000
# 2 23.6796 39.6219 27.9517 0.0000 0.0000 0.0000
# 3 39.2876 27.9517 128.2554 0.0000 0.0000 0.0000
# 4 0.0000 0.0000 0.0000 16.4212 0.0000 0.0000
# 5 0.0000 0.0000 0.0000 0.0000 21.1050 0.0000
# 6 0.0000 0.0000 0.0000 0.0000 0.0000 -7.9227
#
#
#
# Elastic Compliance Matrix: (Units=1/GPa)
#
#
# Indices 1 2 3 4 5 6 
#
# 1 0.010151 -0.004577 -0.002112 0.000000 0.000000 0.000000
# 2 -0.004577 0.031887 -0.005547 0.000000 0.000000 0.000000
# 3 -0.002112 -0.005547 0.009653 0.000000 0.000000 0.000000
# 4 0.000000 0.000000 0.000000 0.060897 0.000000 0.000000
# 5 0.000000 0.000000 0.000000 0.000000 0.047382 0.000000
# 6 0.000000 0.000000 0.000000 0.000000 0.000000 -0.126219
#
#
# Mechanical properties :
#
#
# Convention : Reuss Voigt Hill
#
# Bulk Modulus (GPa) = 36.73932 51.89739 44.31835
# Shear Modulus (GPa) = 74.29775 18.87536 46.58656
#
# Velocity S-wave (km/s) = 6.03647 3.04259 4.77997
# Velocity P-wave (km/s) = 8.16112 6.14784 7.22495
#
# Compressibility (1/GPa) = 0.02721880
#
# Stress axis : x y z
#
# Youngs Moduli (GPa) = 98.51087 31.36038 103.59546
#
# Poissons Ratio (x) = 0.14353 0.21880
# Poissons Ratio (y) = 0.45086 0.57470
# Poissons Ratio (z) = 0.20806 0.17397
#
# Static dielectric constant tensor:
#      x y z
#    x 1.719700 0.000000 0.000000 
#    y 0.000000 1.742250 0.000000 
#    z 0.000000 0.000000 1.814350 
# 
# From -- ./inp_files/28590.got.cif
#   From: 2010.05.17/outbox.cif.g08.bks.cpg/sg53_15_cif.got.tgz:28590.got - 2010.06.03 12:45:16.
