data_PCOD9416990
_publ_section_title
;
Structure prediction by ZEFSAII (Michael W. Deem and Ramdas Pophale) SiO2 
 PCOD9416990
Probable space group: P M N A
;
_chemical_formula_sum "Si O2"
_cell_formula_units_Z 52
_cell_length_a 25.267370
_cell_length_b 19.667889
_cell_length_c 5.490284
_cell_angle_alpha 90.000000
_cell_angle_beta 90.000000
_cell_angle_gamma 90.000000
_cell_volume 2728.428634
_symmetry_space_group_name_H-M "P M N A"
_symmetry_group_IT_number 53
_symmetry_cell_setting 'orthorhombic'
loop_
_space_group_symop_operation_xyz
x,y,z
1/2-x,-y,1/2+z
x,-y,-z
1/2-x,y,1/2-z
-x,-y,-z
1/2+x,y,1/2-z
-x,y,z
1/2+x,-y,1/2+z
loop_
_atom_site_type_symbol
_atom_site_label
_atom_site_fract_x
_atom_site_fract_y
_atom_site_fract_z
Si Si1 0.500000 0.843365 0.949569
Si Si2 0.309084 0.957020 0.746727
Si Si3 0.692972 0.353375 0.111809
Si Si4 0.387502 0.144406 0.078750
Si Si5 0.611638 0.722304 0.620616
Si Si6 0.690096 0.219428 0.768979
Si Si7 0.783159 0.500000 0.500000
Si Si8 0.000000 0.756950 0.053646
O O1 0.445144 0.883569 0.980614
O O2 0.500000 0.811831 0.672300
O O3 0.500000 0.790496 0.178252
O O4 0.250000 0.925342 0.750000
O O5 0.355585 0.902191 0.737829
O O6 0.311409 0.000000 0.500000
O O7 0.315031 0.000000 0.000000
O O8 0.750000 0.351105 0.250000
O O9 0.640321 0.343789 0.274582
O O10 0.693218 0.287300 0.937916
O O11 0.688434 0.426934 0.987749
O O12 0.398421 0.221064 0.172684
O O13 0.345939 0.158466 0.866675
O O14 0.659187 0.754951 0.465704
O O15 0.555624 0.716776 0.482234
O O16 0.750000 0.195422 0.750000
O O17 0.750000 0.502668 0.750000
#
# Coordination Sequence:
#
# PCOD9416990 Si02
#       8
#     4   8   8   8   8   8   4   4
#     4  10  20  38  58  85 112 146 193 236 276 353
#     4  10  24  41  58  81 114 152 192 232 282 355
#     4  10  20  34  51  85 120 150 191 238 289 349
#     4  10  23  36  58  83 113 150 189 236 294 336
#     4  10  21  35  56  84 118 149 188 241 287 345
#     4  11  20  30  55  87 117 144 184 244 296 348
#     4  10  22  36  56  79 118 169 192 228 290 358
#     4  10  20  38  54  82 117 155 192 224 294 343
#
# _framework density 19.058588
#
# number of rings (size 3 to 8) (size 9 to 14) (size 15 to 20)
#    0.000    1.846    3.077    0.462    6.462    0.615 
#    0.000    0.769    0.000    0.462    0.000    1.077 
#    0.000    0.000    0.000    0.000    0.000    0.000 
#
# Total GULP energy -289479.599105 kJ/mol
# GULP energy per Si atom -5566.915367 kJ/mol
# Density = 1.901521 g / cm^3
# Si number density = 19.058588 Si / 1000 Ang^3
#
#
#
# Elastic Constant Matrix: (Units=GPa)
#
#
# Indices 1 2 3 4 5 6 
#
# 1 157.9211 31.6591 17.8758 0.0000 0.0000 0.0000
# 2 31.6591 42.7535 4.9165 0.0000 0.0000 0.0000
# 3 17.8758 4.9165 70.0532 0.0000 0.0000 0.0000
# 4 0.0000 0.0000 0.0000 25.6831 0.0000 0.0000
# 5 0.0000 0.0000 0.0000 0.0000 21.0481 0.0000
# 6 0.0000 0.0000 0.0000 0.0000 0.0000 12.3238
#
#
#
# Elastic Compliance Matrix: (Units=1/GPa)
#
#
# Indices 1 2 3 4 5 6 
#
# 1 0.007601 -0.005450 -0.001557 0.000000 0.000000 0.000000
# 2 -0.005450 0.027487 -0.000539 0.000000 0.000000 0.000000
# 3 -0.001557 -0.000539 0.014710 0.000000 0.000000 0.000000
# 4 0.000000 0.000000 0.000000 0.038936 0.000000 0.000000
# 5 0.000000 0.000000 0.000000 0.000000 0.047510 0.000000
# 6 0.000000 0.000000 0.000000 0.000000 0.000000 0.081144
#
#
# Mechanical properties :
#
#
# Convention : Reuss Voigt Hill
#
# Bulk Modulus (GPa) = 28.81193 42.18117 35.49655
# Shear Modulus (GPa) = 20.48776 26.22943 23.35860
#
# Velocity S-wave (km/s) = 3.28226 3.71381 3.50468
# Velocity P-wave (km/s) = 5.43274 6.36948 5.91967
#
# Compressibility (1/GPa) = 0.03470785
#
# Stress axis : x y z
#
# Youngs Moduli (GPa) = 131.56125 36.38059 67.98094
#
# Poissons Ratio (x) = 0.19826 0.10585
# Poissons Ratio (y) = 0.71694 0.03661
# Poissons Ratio (z) = 0.20486 0.01959
#
# Static dielectric constant tensor:
#      x y z
#    x 1.855260 0.000000 0.000000 
#    y 0.000000 1.687810 0.000000 
#    z 0.000000 0.000000 1.644650 
# 
# From -- ./inp_files/4628.got.cif
#   From: 2010.05.17/outbox.cif.g08.bks.cpg/sg53_3_cif.got.tgz:4628.got - 2010.06.03 12:45:16.
