data_PCOD9416707
_publ_section_title
;
Structure prediction by ZEFSAII (Michael W. Deem and Ramdas Pophale) SiO2 
 PCOD9416707
Probable space group: P M N A
;
_chemical_formula_sum "Si O2"
_cell_formula_units_Z 64
_cell_length_a 9.079882
_cell_length_b 15.729417
_cell_length_c 24.249720
_cell_angle_alpha 90.000000
_cell_angle_beta 90.000000
_cell_angle_gamma 90.000000
_cell_volume 3463.375330
_symmetry_space_group_name_H-M "P M N A"
_symmetry_group_IT_number 53
_symmetry_cell_setting 'orthorhombic'
loop_
_space_group_symop_operation_xyz
x,y,z
1/2-x,-y,1/2+z
x,-y,-z
1/2-x,y,1/2-z
-x,-y,-z
1/2+x,y,1/2-z
-x,y,z
1/2+x,-y,1/2+z
loop_
_atom_site_type_symbol
_atom_site_label
_atom_site_fract_x
_atom_site_fract_y
_atom_site_fract_z
Si Si1 0.833389 0.190934 0.398741
Si Si2 0.176881 0.488664 0.689606
Si Si3 0.827725 0.840676 0.111693
Si Si4 0.322468 0.019243 0.435863
Si Si5 0.823897 0.296223 0.689962
Si Si6 0.838862 0.251224 0.524567
Si Si7 0.335903 0.599072 0.499915
Si Si8 0.331861 0.645218 0.629017
O O1 0.749081 0.102840 0.409412
O O2 0.846094 0.228484 0.460627
O O3 0.747677 0.263466 0.364462
O O4 0.000000 0.177809 0.377909
O O5 0.250000 0.493595 0.750000
O O6 0.210011 0.392362 0.668496
O O7 0.244073 0.566041 0.654726
O O8 0.000000 0.496831 0.693004
O O9 0.739030 0.779696 0.152705
O O10 0.790085 0.802449 0.051833
O O11 0.000000 0.835402 0.124390
O O12 0.785779 0.939024 0.103422
O O13 0.500000 0.028204 0.437561
O O14 0.275231 0.000000 0.500000
O O15 0.750000 0.289979 0.750000
O O16 0.000000 0.289536 0.694583
O O17 0.790042 0.348304 0.530078
O O18 0.000000 0.234405 0.549372
O O19 0.307433 0.500000 0.500000
O O20 0.500000 0.614727 0.476176
O O21 0.339428 0.628492 0.563374
O O22 0.500000 0.647134 0.650023
#
# Coordination Sequence:
#
# PCOD9416707 Si02
#       8
#     8   8   8   8   8   8   8   8
#     4  10  20  34  53  77 111 148 184 230 278 324
#     4  10  21  38  60  85 112 142 183 230 279 331
#     4  11  22  35  56  81 109 147 187 231 280 332
#     4  10  20  35  55  80 111 149 191 231 275 331
#     4  10  22  40  60  84 113 145 183 231 280 332
#     4  10  20  32  47  73 106 142 182 225 271 321
#     4   9  19  33  47  69 101 143 185 220 263 321
#     4  10  20  34  54  78 109 146 183 224 273 328
#
# _framework density 18.479084
#
# number of rings (size 3 to 8) (size 9 to 14) (size 15 to 20)
#    0.000    2.000    1.250    2.250    1.750    4.500 
#    0.000    0.000    0.000    0.750    0.000    1.750 
#    0.000    0.000    0.000    0.000    0.000    0.000 
#
# Total GULP energy -356771.511633 kJ/mol
# GULP energy per Si atom -5574.554869 kJ/mol
# Density = 1.843702 g / cm^3
# Si number density = 18.479084 Si / 1000 Ang^3
#
#
#
# Elastic Constant Matrix: (Units=GPa)
#
#
# Indices 1 2 3 4 5 6 
#
# 1 80.4124 84.2414 24.5206 0.0000 0.0000 0.0000
# 2 84.2414 164.5962 29.2315 0.0000 0.0000 0.0000
# 3 24.5206 29.2315 30.2061 0.0000 0.0000 0.0000
# 4 0.0000 0.0000 0.0000 20.6146 0.0000 0.0000
# 5 0.0000 0.0000 0.0000 0.0000 24.7454 0.0000
# 6 0.0000 0.0000 0.0000 0.0000 0.0000 23.4207
#
#
#
# Elastic Compliance Matrix: (Units=1/GPa)
#
#
# Indices 1 2 3 4 5 6 
#
# 1 0.029723 -0.013195 -0.011359 0.000000 0.000000 0.000000
# 2 -0.013195 0.013194 -0.002057 0.000000 0.000000 0.000000
# 3 -0.011359 -0.002057 0.044317 0.000000 0.000000 0.000000
# 4 0.000000 0.000000 0.000000 0.048509 0.000000 0.000000
# 5 0.000000 0.000000 0.000000 0.000000 0.040412 0.000000
# 6 0.000000 0.000000 0.000000 0.000000 0.000000 0.042697
#
#
# Mechanical properties :
#
#
# Convention : Reuss Voigt Hill
#
# Bulk Modulus (GPa) = 29.40108 61.24464 45.32286
# Shear Modulus (GPa) = 17.64211 22.90422 20.27317
#
# Velocity S-wave (km/s) = 3.09319 3.52443 3.31582
# Velocity P-wave (km/s) = 5.35743 7.05526 6.26414
#
# Compressibility (1/GPa) = 0.03401235
#
# Stress axis : x y z
#
# Youngs Moduli (GPa) = 33.64375 75.79115 22.56447
#
# Poissons Ratio (x) = 1.00008 0.25631
# Poissons Ratio (y) = 0.44394 0.04641
# Poissons Ratio (z) = 0.38216 0.15590
#
# Static dielectric constant tensor:
#      x y z
#    x 1.658020 0.000000 0.000000 
#    y 0.000000 1.652130 0.000000 
#    z 0.000000 0.000000 1.649150 
# 
# From -- ./inp_files/34185.got.cif
#   From: 2010.05.17/outbox.cif.g08.bks.cpg/sg53_18_cif.got.tgz:34185.got - 2010.06.03 12:45:16.
