data_PCOD9416285
_publ_section_title
;
Structure prediction by ZEFSAII (Michael W. Deem and Ramdas Pophale) SiO2 
 PCOD9416285
Probable space group: P M N A
;
_chemical_formula_sum "Si O2"
_cell_formula_units_Z 48
_cell_length_a 15.330945
_cell_length_b 14.624656
_cell_length_c 10.408993
_cell_angle_alpha 90.000000
_cell_angle_beta 90.000000
_cell_angle_gamma 90.000000
_cell_volume 2333.798205
_symmetry_space_group_name_H-M "P M N A"
_symmetry_group_IT_number 53
_symmetry_cell_setting 'orthorhombic'
loop_
_space_group_symop_operation_xyz
x,y,z
1/2-x,-y,1/2+z
x,-y,-z
1/2-x,y,1/2-z
-x,-y,-z
1/2+x,y,1/2-z
-x,y,z
1/2+x,-y,1/2+z
loop_
_atom_site_type_symbol
_atom_site_label
_atom_site_fract_x
_atom_site_fract_y
_atom_site_fract_z
Si Si1 0.898614 0.897941 0.492747
Si Si2 0.894606 0.607313 0.147410
Si Si3 0.896530 0.899288 0.972529
Si Si4 0.107195 0.782609 0.728839
Si Si5 0.649058 0.198634 0.734877
Si Si6 0.893620 0.597115 0.848674
O O1 0.861156 0.827341 0.596745
O O2 0.895365 0.853482 0.352729
O O3 0.000000 0.908622 0.530273
O O4 0.859840 0.000000 0.500000
O O5 0.863277 0.692185 0.231529
O O6 0.866014 0.505479 0.187899
O O7 0.000000 0.609943 0.150441
O O8 0.868776 0.617243 0.997041
O O9 0.884304 0.838709 0.099024
O O10 0.000000 0.910254 0.950172
O O11 0.863885 0.847305 0.846456
O O12 0.859613 0.000000 0.000000
O O13 0.135862 0.679314 0.757963
O O14 0.000000 0.779457 0.729080
O O15 0.750000 0.177107 0.750000
O O16 0.000000 0.596139 0.848390
#
# Coordination Sequence:
#
# PCOD9416285 Si02
#       6
#     8   8   8   8   8   8
#     4  10  21  38  59  82 111 145 180 226 283 329
#     4   9  16  31  57  82 105 137 186 238 280 318
#     4  10  19  34  59  84 103 135 191 242 270 313
#     4   9  16  30  55  84 107 130 176 236 283 322
#     4  12  24  36  53  79 118 155 182 218 273 340
#     4   8  14  27  56  88 104 128 176 241 290 313
#
# _framework density 20.567330999999999
#
# number of rings (size 3 to 8) (size 9 to 14) (size 15 to 20)
#    0.000    2.333    1.667    3.500    0.000    3.333 
#    0.000    1.667    7.333    4.000    0.000    0.000 
#    0.000    0.000    0.000    0.000    0.000    0.000 
#
# Total GULP energy -267831.907338 kJ/mol
# GULP energy per Si atom -5579.831403 kJ/mol
# Density = 2.052052 g / cm^3
# Si number density = 20.567331 Si / 1000 Ang^3
#
#
#
# Elastic Constant Matrix: (Units=GPa)
#
#
# Indices 1 2 3 4 5 6 
#
# 1 20.1482 -5.4493 -14.8386 0.0000 0.0000 0.0000
# 2 -5.4493 145.4794 24.7442 0.0000 0.0000 0.0000
# 3 -14.8386 24.7442 61.9824 0.0000 0.0000 0.0000
# 4 0.0000 0.0000 0.0000 52.5671 0.0000 0.0000
# 5 0.0000 0.0000 0.0000 0.0000 -33.4840 0.0000
# 6 0.0000 0.0000 0.0000 0.0000 0.0000 -85.5495
#
#
#
# Elastic Compliance Matrix: (Units=1/GPa)
#
#
# Indices 1 2 3 4 5 6 
#
# 1 0.060262 -0.000211 0.014511 0.000000 0.000000 0.000000
# 2 -0.000211 0.007375 -0.002995 0.000000 0.000000 0.000000
# 3 0.014511 -0.002995 0.020803 0.000000 0.000000 0.000000
# 4 0.000000 0.000000 0.000000 0.019023 0.000000 0.000000
# 5 0.000000 0.000000 0.000000 0.000000 -0.029865 0.000000
# 6 0.000000 0.000000 0.000000 0.000000 0.000000 -0.011689
#
#
# Mechanical properties :
#
#
# Convention : Reuss Voigt Hill
#
# Bulk Modulus (GPa) = 9.00485 26.28028 17.64256
# Shear Modulus (GPa) = 62.25393 1.58363 31.91878
#
# Velocity S-wave (km/s) = 5.50764 0.87843 3.94371
# Velocity P-wave (km/s) = 6.69576 3.71945 5.41606
#
# Compressibility (1/GPa) = 0.11105123
#
# Stress axis : x y z
#
# Youngs Moduli (GPa) = 16.59416 135.58760 48.06973
#
# Poissons Ratio (x) = 0.02859 -0.69754
# Poissons Ratio (y) = 0.00350 0.14396
# Poissons Ratio (z) = -0.24080 0.40606
#
# Static dielectric constant tensor:
#      x y z
#    x 1.590910 0.000000 0.000000 
#    y 0.000000 1.760230 0.000000 
#    z 0.000000 0.000000 1.714610 
# 
# From -- ./inp_files/9988.got.cif
#   From: 2010.05.17/outbox.cif.g08.bks.cpg/sg53_5_cif.got.tgz:9988.got - 2010.06.03 12:45:16.
