data_PCOD9416659
_publ_section_title
;
Structure prediction by ZEFSAII (Michael W. Deem and Ramdas Pophale) SiO2 
 PCOD9416659
Probable space group: P M N A
;
_chemical_formula_sum "Si O2"
_cell_formula_units_Z 56
_cell_length_a 24.946684
_cell_length_b 5.214060
_cell_length_c 20.241310
_cell_angle_alpha 90.000000
_cell_angle_beta 90.000000
_cell_angle_gamma 90.000000
_cell_volume 2632.858182
_symmetry_space_group_name_H-M "P M N A"
_symmetry_group_IT_number 53
_symmetry_cell_setting 'orthorhombic'
loop_
_space_group_symop_operation_xyz
x,y,z
1/2-x,-y,1/2+z
x,-y,-z
1/2-x,y,1/2-z
-x,-y,-z
1/2+x,y,1/2-z
-x,y,z
1/2+x,-y,1/2+z
loop_
_atom_site_type_symbol
_atom_site_label
_atom_site_fract_x
_atom_site_fract_y
_atom_site_fract_z
Si Si1 0.357995 0.863364 0.756380
Si Si2 0.369806 0.557746 0.878058
Si Si3 0.560746 0.432063 0.331334
Si Si4 0.156019 0.443989 0.922477
Si Si5 0.058122 0.244274 0.697955
Si Si6 0.680724 0.041344 0.927261
Si Si7 0.210253 0.054386 0.137776
O O1 0.345416 0.626682 0.804984
O O2 0.403149 0.788317 0.701985
O O3 0.309215 0.964290 0.713392
O O4 0.390369 0.062175 0.801484
O O5 0.428604 0.460798 0.856431
O O6 0.363184 0.815169 0.920232
O O7 0.340457 0.326615 0.915287
O O8 0.500000 0.356717 0.348757
O O9 0.596489 0.536093 0.391179
O O10 0.557253 0.632597 0.270862
O O11 0.191834 0.666121 0.888039
O O12 0.180232 0.168775 0.903302
O O13 0.155578 0.500000 0.000000
O O14 0.000000 0.122169 0.686410
O O15 0.727263 0.984872 0.874610
O O16 0.704888 0.000000 0.000000
#
# Coordination Sequence:
#
# PCOD9416659 Si02
#       7
#     8   8   8   8   8   8   8
#     4  10  20  40  63  96 129 158 206 269 318 375
#     4  11  24  43  65 101 125 162 210 264 317 380
#     4   9  19  33  56  88 123 166 209 259 322 376
#     4  11  21  37  58  85 125 170 222 266 299 366
#     4  10  19  39  68  94 128 163 204 260 332 391
#     4  12  25  45  67  90 129 176 215 257 313 383
#     4  11  24  41  64  91 125 169 217 261 316 372
#
# _framework density 21.269660999999999
#
# number of rings (size 3 to 8) (size 9 to 14) (size 15 to 20)
#    0.000    1.429    2.857    3.000    0.000    1.429 
#    2.571    0.000    0.000    5.143    0.000    0.000 
#    0.000    0.000    0.000    0.000    0.000    0.000 
#
# Total GULP energy -312503.725775 kJ/mol
# GULP energy per Si atom -5580.423675 kJ/mol
# Density = 2.122125 g / cm^3
# Si number density = 21.269661 Si / 1000 Ang^3
#
#
#
# Elastic Constant Matrix: (Units=GPa)
#
#
# Indices 1 2 3 4 5 6 
#
# 1 45.0211 22.3223 19.0688 0.0000 0.0000 0.0000
# 2 22.3223 86.2640 15.2447 0.0000 0.0000 0.0000
# 3 19.0688 15.2447 45.3047 0.0000 0.0000 0.0000
# 4 0.0000 0.0000 0.0000 33.2629 0.0000 0.0000
# 5 0.0000 0.0000 0.0000 0.0000 4.8596 0.0000
# 6 0.0000 0.0000 0.0000 0.0000 0.0000 19.1850
#
#
#
# Elastic Compliance Matrix: (Units=1/GPa)
#
#
# Indices 1 2 3 4 5 6 
#
# 1 0.029519 -0.005787 -0.010477 0.000000 0.000000 0.000000
# 2 -0.005787 0.013460 -0.002093 0.000000 0.000000 0.000000
# 3 -0.010477 -0.002093 0.027187 0.000000 0.000000 0.000000
# 4 0.000000 0.000000 0.000000 0.030064 0.000000 0.000000
# 5 0.000000 0.000000 0.000000 0.000000 0.205780 0.000000
# 6 0.000000 0.000000 0.000000 0.000000 0.000000 0.052124
#
#
# Mechanical properties :
#
#
# Convention : Reuss Voigt Hill
#
# Bulk Modulus (GPa) = 29.89494 32.20682 31.05088
# Shear Modulus (GPa) = 12.31534 19.45844 15.88689
#
# Velocity S-wave (km/s) = 2.40887 3.02792 2.73596
# Velocity P-wave (km/s) = 4.67147 5.23445 4.96095
#
# Compressibility (1/GPa) = 0.03345047
#
# Stress axis : x y z
#
# Youngs Moduli (GPa) = 33.87688 74.29573 36.78226
#
# Poissons Ratio (x) = 0.42994 0.38537
# Poissons Ratio (y) = 0.19604 0.07700
# Poissons Ratio (z) = 0.35493 0.15553
#
# Static dielectric constant tensor:
#      x y z
#    x 1.797230 0.000000 0.000000 
#    y 0.000000 1.832920 0.000000 
#    z 0.000000 0.000000 1.768970 
# 
# From -- ./inp_files/33191.got.cif
#   From: 2010.05.17/outbox.cif.g08.bks.cpg/sg53_17_cif.got.tgz:33191.got - 2010.06.03 12:45:16.
