data_PCOD9416108
_publ_section_title
;
Structure prediction by ZEFSAII (Michael W. Deem and Ramdas Pophale) SiO2 
 PCOD9416108
Probable space group: P M N A
;
_chemical_formula_sum "Si O2"
_cell_formula_units_Z 56
_cell_length_a 8.839221
_cell_length_b 20.017613
_cell_length_c 18.761802
_cell_angle_alpha 90.000000
_cell_angle_beta 90.000000
_cell_angle_gamma 90.000000
_cell_volume 3319.715220
_symmetry_space_group_name_H-M "P M N A"
_symmetry_group_IT_number 53
_symmetry_cell_setting 'orthorhombic'
loop_
_space_group_symop_operation_xyz
x,y,z
1/2-x,-y,1/2+z
x,-y,-z
1/2-x,y,1/2-z
-x,-y,-z
1/2+x,y,1/2-z
-x,y,z
1/2+x,-y,1/2+z
loop_
_atom_site_type_symbol
_atom_site_label
_atom_site_fract_x
_atom_site_fract_y
_atom_site_fract_z
Si Si1 0.680861 0.152700 0.529344
Si Si2 0.820518 0.296206 0.541348
Si Si3 0.816998 0.935790 0.169497
Si Si4 0.182347 0.573290 0.968711
Si Si5 0.680115 0.487139 0.326182
Si Si6 0.181199 0.639847 0.172508
Si Si7 0.173404 0.046323 0.429358
O O1 0.500000 0.154990 0.529072
O O2 0.749455 0.225926 0.519867
O O3 0.723634 0.119071 0.606926
O O4 0.737577 0.108882 0.462271
O O5 0.758948 0.361480 0.500394
O O6 0.762888 0.309342 0.621116
O O7 0.000000 0.293656 0.536873
O O8 0.750000 0.925160 0.250000
O O9 0.000000 0.937582 0.174451
O O10 0.754060 0.004516 0.133627
O O11 0.223155 0.565391 0.885916
O O12 0.000000 0.579551 0.978005
O O13 0.222800 0.500000 0.000000
O O14 0.750000 0.474491 0.250000
O O15 0.500000 0.486348 0.319777
O O16 0.717824 0.563163 0.349380
O O17 0.250000 0.647700 0.250000
O O18 0.000000 0.647824 0.170990
O O19 0.000000 0.062311 0.409256
O O20 0.167462 0.000000 0.500000
#
# Coordination Sequence:
#
# PCOD9416108 Si02
#       7
#     8   8   8   8   8   8   8
#     4  10  21  37  55  76 108 149 187 224 269 325
#     4  12  24  35  51  78 108 143 183 228 277 328
#     4  10  20  34  56  85 114 146 183 220 261 311
#     4  10  19  36  56  75 102 139 181 228 280 332
#     4   9  18  32  53  75  98 129 166 215 271 325
#     4  10  19  34  51  72 101 136 174 215 266 325
#     4   9  17  32  55  81 109 140 176 219 262 311
#
# _framework density 16.868917
#
# number of rings (size 3 to 8) (size 9 to 14) (size 15 to 20)
#    0.000    2.000    1.429    3.000    0.000    5.429 
#    0.000    1.429    0.000    0.857    0.000    4.000 
#    0.000    0.000    0.000    0.000    0.000    0.000 
#
# Total GULP energy -312060.935885 kJ/mol
# GULP energy per Si atom -5572.516712 kJ/mol
# Density = 1.683052 g / cm^3
# Si number density = 16.868917 Si / 1000 Ang^3
#
#
#
# Elastic Constant Matrix: (Units=GPa)
#
#
# Indices 1 2 3 4 5 6 
#
# 1 74.7916 53.3420 29.7435 0.0000 0.0000 0.0000
# 2 53.3420 118.9858 42.0931 0.0000 0.0000 0.0000
# 3 29.7435 42.0931 52.0867 0.0000 0.0000 0.0000
# 4 0.0000 0.0000 0.0000 20.6835 0.0000 0.0000
# 5 0.0000 0.0000 0.0000 0.0000 29.0289 0.0000
# 6 0.0000 0.0000 0.0000 0.0000 0.0000 127.6321
#
#
#
# Elastic Compliance Matrix: (Units=1/GPa)
#
#
# Indices 1 2 3 4 5 6 
#
# 1 0.020964 -0.007231 -0.006128 0.000000 0.000000 0.000000
# 2 -0.007231 0.014263 -0.007397 0.000000 0.000000 0.000000
# 3 -0.006128 -0.007397 0.028676 0.000000 0.000000 0.000000
# 4 0.000000 0.000000 0.000000 0.048348 0.000000 0.000000
# 5 0.000000 0.000000 0.000000 0.000000 0.034448 0.000000
# 6 0.000000 0.000000 0.000000 0.000000 0.000000 0.007835
#
#
# Mechanical properties :
#
#
# Convention : Reuss Voigt Hill
#
# Bulk Modulus (GPa) = 44.66030 55.13570 49.89800
# Shear Modulus (GPa) = 24.56872 43.51459 34.04166
#
# Velocity S-wave (km/s) = 3.82049 5.08446 4.49710
# Velocity P-wave (km/s) = 6.78188 8.19907 7.52391
#
# Compressibility (1/GPa) = 0.02239125
#
# Stress axis : x y z
#
# Youngs Moduli (GPa) = 47.69972 70.11260 34.87201
#
# Poissons Ratio (x) = 0.50695 0.21371
# Poissons Ratio (y) = 0.34489 0.25796
# Poissons Ratio (z) = 0.29232 0.51865
#
# Static dielectric constant tensor:
#      x y z
#    x 1.565350 0.000000 0.000000 
#    y 0.000000 1.579150 0.000000 
#    z 0.000000 0.000000 1.555670 
# 
# From -- ./inp_files/26693.got.cif
#   From: 2010.05.17/outbox.cif.g08.bks.cpg/sg53_14_cif.got.tgz:26693.got - 2010.06.03 12:45:16.
