data_PCOD9416483
_publ_section_title
;
Structure prediction by ZEFSAII (Michael W. Deem and Ramdas Pophale) SiO2 
 PCOD9416483
Probable space group: P M N A
;
_chemical_formula_sum "Si O2"
_cell_formula_units_Z 64
_cell_length_a 8.918898
_cell_length_b 20.286966
_cell_length_c 20.252934
_cell_angle_alpha 90.000000
_cell_angle_beta 90.000000
_cell_angle_gamma 90.000000
_cell_volume 3664.512825
_symmetry_space_group_name_H-M "P M N A"
_symmetry_group_IT_number 53
_symmetry_cell_setting 'orthorhombic'
loop_
_space_group_symop_operation_xyz
x,y,z
1/2-x,-y,1/2+z
x,-y,-z
1/2-x,y,1/2-z
-x,-y,-z
1/2+x,y,1/2-z
-x,y,z
1/2+x,-y,1/2+z
loop_
_atom_site_type_symbol
_atom_site_label
_atom_site_fract_x
_atom_site_fract_y
_atom_site_fract_z
Si Si1 0.177380 0.825462 0.453624
Si Si2 0.179478 0.973905 0.426034
Si Si3 0.179839 0.665950 0.914451
Si Si4 0.321997 0.805308 0.890577
Si Si5 0.679407 0.557788 0.821301
Si Si6 0.178394 0.312230 0.932332
Si Si7 0.321374 0.403193 0.820900
Si Si8 0.321354 0.928944 0.679470
O O1 0.217757 0.896481 0.424351
O O2 0.199463 0.827374 0.532972
O O3 0.267537 0.763285 0.426517
O O4 0.000000 0.814438 0.442757
O O5 0.000000 0.981207 0.414805
O O6 0.208899 0.000000 0.500000
O O7 0.267767 0.017261 0.373691
O O8 0.250256 0.733065 0.885379
O O9 0.248619 0.604141 0.876438
O O10 0.000000 0.667289 0.907831
O O11 0.216758 0.665749 0.992650
O O12 0.500000 0.803236 0.877703
O O13 0.242867 0.858689 0.844747
O O14 0.750000 0.574228 0.750000
O O15 0.500000 0.566475 0.819250
O O16 0.711821 0.480514 0.834043
O O17 0.256214 0.358014 0.878493
O O18 0.000000 0.315975 0.924929
O O19 0.250000 0.386459 0.750000
O O20 0.500000 0.395738 0.817114
O O21 0.250000 0.944893 0.750000
O O22 0.500000 0.926614 0.683464
#
# Coordination Sequence:
#
# PCOD9416483 Si02
#       8
#     8   8   8   8   8   8   8   8
#     4   9  18  34  59  85 112 145 183 227 275 332
#     4  10  19  37  62  87 113 147 188 229 281 339
#     4  10  21  36  55  84 118 151 187 232 280 332
#     4  10  19  36  58  81 110 147 187 229 278 333
#     4  10  21  37  57  81 109 147 190 235 281 339
#     4  10  21  36  56  84 118 149 185 233 282 332
#     4  10  21  38  60  83 110 145 190 235 285 342
#     4  12  25  39  56  82 116 152 191 237 285 336
#
# _framework density 17.464804000000001
#
# number of rings (size 3 to 8) (size 9 to 14) (size 15 to 20)
#    0.000    1.875    1.250    3.000    0.000    5.250 
#    0.000    5.625    0.000    3.000    0.000    0.000 
#    0.000    0.000    0.000    0.000    0.000    0.000 
#
# Total GULP energy -357483.084129 kJ/mol
# GULP energy per Si atom -5585.673190 kJ/mol
# Density = 1.742505 g / cm^3
# Si number density = 17.464804 Si / 1000 Ang^3
#
#
#
# Elastic Constant Matrix: (Units=GPa)
#
#
# Indices 1 2 3 4 5 6 
#
# 1 93.6569 70.4035 71.3217 0.0000 0.0000 0.0000
# 2 70.4035 115.8253 83.0757 0.0000 0.0000 0.0000
# 3 71.3217 83.0757 104.1171 0.0000 0.0000 0.0000
# 4 0.0000 0.0000 0.0000 19.3018 0.0000 0.0000
# 5 0.0000 0.0000 0.0000 0.0000 30.4594 0.0000
# 6 0.0000 0.0000 0.0000 0.0000 0.0000 31.4341
#
#
#
# Elastic Compliance Matrix: (Units=1/GPa)
#
#
# Indices 1 2 3 4 5 6 
#
# 1 0.024317 -0.006624 -0.011372 0.000000 0.000000 0.000000
# 2 -0.006624 0.021991 -0.013009 0.000000 0.000000 0.000000
# 3 -0.011372 -0.013009 0.027774 0.000000 0.000000 0.000000
# 4 0.000000 0.000000 0.000000 0.051809 0.000000 0.000000
# 5 0.000000 0.000000 0.000000 0.000000 0.032831 0.000000
# 6 0.000000 0.000000 0.000000 0.000000 0.000000 0.031813
#
#
# Mechanical properties :
#
#
# Convention : Reuss Voigt Hill
#
# Bulk Modulus (GPa) = 82.83667 84.80010 83.81839
# Shear Modulus (GPa) = 19.48805 22.15894 20.82349
#
# Velocity S-wave (km/s) = 3.34405 3.56585 3.45673
# Velocity P-wave (km/s) = 7.90214 8.10025 8.00181
#
# Compressibility (1/GPa) = 0.01207195
#
# Stress axis : x y z
#
# Youngs Moduli (GPa) = 41.12399 45.47340 36.00468
#
# Poissons Ratio (x) = 0.30123 0.40943
# Poissons Ratio (y) = 0.27242 0.46838
# Poissons Ratio (z) = 0.46765 0.59156
#
# Static dielectric constant tensor:
#      x y z
#    x 1.578200 0.000000 0.000000 
#    y 0.000000 1.577570 0.000000 
#    z 0.000000 0.000000 1.570540 
# 
# From -- ./inp_files/26968.got.cif
#   From: 2010.05.17/outbox.cif.g08.bks.cpg/sg53_14_cif.got.tgz:26968.got - 2010.06.03 12:45:16.
