data_PCOD9416218
_publ_section_title
;
Structure prediction by ZEFSAII (Michael W. Deem and Ramdas Pophale) SiO2 
 PCOD9416218
Probable space group: P M N A
;
_chemical_formula_sum "Si O2"
_cell_formula_units_Z 56
_cell_length_a 14.558668
_cell_length_b 16.986707
_cell_length_c 9.841417
_cell_angle_alpha 90.000000
_cell_angle_beta 90.000000
_cell_angle_gamma 90.000000
_cell_volume 2433.820093
_symmetry_space_group_name_H-M "P M N A"
_symmetry_group_IT_number 53
_symmetry_cell_setting 'orthorhombic'
loop_
_space_group_symop_operation_xyz
x,y,z
1/2-x,-y,1/2+z
x,-y,-z
1/2-x,y,1/2-z
-x,-y,-z
1/2+x,y,1/2-z
-x,y,z
1/2+x,-y,1/2+z
loop_
_atom_site_type_symbol
_atom_site_label
_atom_site_fract_x
_atom_site_fract_y
_atom_site_fract_z
Si Si1 0.847151 0.084300 0.009010
Si Si2 0.108814 0.172772 0.260570
Si Si3 0.859563 0.804568 0.220661
Si Si4 0.894129 0.630633 0.144878
Si Si5 0.887556 0.493519 0.343942
Si Si6 0.362699 0.913317 0.037845
Si Si7 0.387815 0.655103 0.662124
O O1 0.842117 0.110416 0.163533
O O2 0.746406 0.074216 0.944353
O O3 0.885493 0.157230 0.924014
O O4 0.894451 0.000000 0.000000
O O5 0.123873 0.146788 0.414154
O O6 0.140071 0.259952 0.220211
O O7 0.000000 0.167051 0.232573
O O8 0.750000 0.798251 0.250000
O O9 0.892664 0.715226 0.218304
O O10 0.896107 0.867288 0.330017
O O11 0.856557 0.565162 0.247228
O O12 0.000000 0.607065 0.121569
O O13 0.853812 0.639828 0.992438
O O14 0.855312 0.500000 0.500000
O O15 0.861584 0.413309 0.266930
O O16 0.000000 0.495488 0.349489
O O17 0.399659 0.000000 0.000000
O O18 0.500000 0.656176 0.657370
#
# Coordination Sequence:
#
# PCOD9416218 Si02
#       7
#     8   8   8   8   8   8   8
#     4  10  20  39  62  80 106 149 201 235 267 334
#     4  11  22  35  56  87 120 146 179 236 290 335
#     4  10  21  36  57  83 111 145 188 238 281 329
#     4  10  19  34  57  80 109 147 185 228 274 329
#     4   9  18  31  53  83 111 144 183 222 268 330
#     4  10  22  39  58  80 110 153 195 235 279 332
#     4   9  18  33  52  81 114 144 180 221 273 330
#
# _framework density 23.009097000000001
#
# number of rings (size 3 to 8) (size 9 to 14) (size 15 to 20)
#    0.000    2.143    1.429    1.714    2.000    5.143 
#    0.000    1.429    0.000    3.429    0.000    0.000 
#    0.000    0.000    0.000    0.000    0.000    0.000 
#
# Total GULP energy -312811.128569 kJ/mol
# GULP energy per Si atom -5585.913010 kJ/mol
# Density = 2.295673 g / cm^3
# Si number density = 23.009097 Si / 1000 Ang^3
#
#
#
# Elastic Constant Matrix: (Units=GPa)
#
#
# Indices 1 2 3 4 5 6 
#
# 1 62.2149 -6.6019 -7.1755 0.0000 0.0000 0.0000
# 2 -6.6019 165.1852 50.3136 0.0000 0.0000 0.0000
# 3 -7.1755 50.3136 125.8038 0.0000 0.0000 0.0000
# 4 0.0000 0.0000 0.0000 -21.3485 0.0000 0.0000
# 5 0.0000 0.0000 0.0000 0.0000 7.4166 0.0000
# 6 0.0000 0.0000 0.0000 0.0000 0.0000 2.3560
#
#
#
# Elastic Compliance Matrix: (Units=1/GPa)
#
#
# Indices 1 2 3 4 5 6 
#
# 1 0.016205 0.000417 0.000758 0.000000 0.000000 0.000000
# 2 0.000417 0.006904 -0.002738 0.000000 0.000000 0.000000
# 3 0.000758 -0.002738 0.009087 0.000000 0.000000 0.000000
# 4 0.000000 0.000000 0.000000 -0.046842 0.000000 0.000000
# 5 0.000000 0.000000 0.000000 0.000000 0.134833 0.000000
# 6 0.000000 0.000000 0.000000 0.000000 0.000000 0.424446
#
#
# Mechanical properties :
#
#
# Convention : Reuss Voigt Hill
#
# Bulk Modulus (GPa) = 34.39963 47.36402 40.88183
# Shear Modulus (GPa) = 8.96943 18.79599 13.88271
#
# Velocity S-wave (km/s) = 1.97653 2.86124 2.45900
# Velocity P-wave (km/s) = 4.49353 5.61651 5.08611
#
# Compressibility (1/GPa) = 0.02907008
#
# Stress axis : x y z
#
# Youngs Moduli (GPa) = 61.70956 144.83754 110.04822
#
# Poissons Ratio (x) = -0.06039 -0.08337
# Poissons Ratio (y) = -0.02573 0.30126
# Poissons Ratio (z) = -0.04675 0.39649
#
# Static dielectric constant tensor:
#      x y z
#    x 1.939550 0.000000 0.000000 
#    y 0.000000 1.878090 0.000000 
#    z 0.000000 0.000000 1.831630 
# 
# From -- ./inp_files/11046.got.cif
#   From: 2010.05.17/outbox.cif.g08.bks.cpg/sg53_6_cif.got.tgz:11046.got - 2010.06.03 12:45:16.
