data_PCOD9416301
_publ_section_title
;
Structure prediction by ZEFSAII (Michael W. Deem and Ramdas Pophale) SiO2 
 PCOD9416301
Probable space group: P M N A
;
_chemical_formula_sum "Si O2"
_cell_formula_units_Z 64
_cell_length_a 14.309505
_cell_length_b 15.959032
_cell_length_c 11.888515
_cell_angle_alpha 90.000000
_cell_angle_beta 90.000000
_cell_angle_gamma 90.000000
_cell_volume 2714.930812
_symmetry_space_group_name_H-M "P M N A"
_symmetry_group_IT_number 53
_symmetry_cell_setting 'orthorhombic'
loop_
_space_group_symop_operation_xyz
x,y,z
1/2-x,-y,1/2+z
x,-y,-z
1/2-x,y,1/2-z
-x,-y,-z
1/2+x,y,1/2-z
-x,y,z
1/2+x,-y,1/2+z
loop_
_atom_site_type_symbol
_atom_site_label
_atom_site_fract_x
_atom_site_fract_y
_atom_site_fract_z
Si Si1 0.113922 0.846959 0.982085
Si Si2 0.892751 0.576578 0.207165
Si Si3 0.386858 0.901491 0.769944
Si Si4 0.886858 0.598509 0.730056
Si Si5 0.347476 0.750000 0.185417
Si Si6 0.113922 0.653040 0.982085
Si Si7 0.385654 0.750000 0.927055
Si Si8 0.607249 0.923422 0.292836
O O1 0.150940 0.903238 0.085049
O O2 0.000000 0.849775 0.986839
O O3 0.138665 0.875314 0.857119
O O4 0.139138 0.749999 0.999931
O O5 0.855930 0.498171 0.278678
O O6 0.893322 0.663573 0.273530
O O7 0.000000 0.552672 0.182512
O O8 0.849060 0.596761 0.085049
O O9 0.500000 0.896951 0.779493
O O10 0.354318 0.832441 0.858644
O O11 0.355930 0.998170 0.778677
O O12 0.861334 0.624684 0.857119
O O13 0.854318 0.667559 0.641356
O O14 0.000000 0.603049 0.720508
O O15 0.250000 0.750000 0.250000
O O16 0.393321 0.836427 0.226469
O O17 0.347268 0.750000 0.052060
O O18 0.000000 0.650223 0.986837
O O19 0.500000 0.750000 0.933994
O O20 0.500000 0.947327 0.317488
#
# Coordination Sequence:
#
# PCOD9416301 Si02
#       8
#     8   8   8   8   8   8   8   8
#     4   9  14  25  51  87 122 148 176 229 292 343
#     4  10  19  34  60  89 114 148 195 243 292 349
#     4   9  17  30  57  95 124 144 180 239 301 352
#     4   9  17  30  57  95 124 144 180 239 301 352
#     4  12  26  41  56  72 112 159 203 246 299 352
#     4   9  14  25  51  87 122 148 176 229 292 343
#     4  10  20  37  62  91 122 155 192 243 302 360
#     4  10  19  34  60  89 114 148 195 243 292 349
#
# _framework density 23.573345
#
# number of rings (size 3 to 8) (size 9 to 14) (size 15 to 20)
#    0.000    2.250    2.500    1.875    0.000    4.000 
#    0.000    3.750   11.000    1.500    0.000    0.000 
#    0.000    0.000    0.000    0.000    0.000    0.000 
#
# Total GULP energy -357672.809383 kJ/mol
# GULP energy per Si atom -5588.637647 kJ/mol
# Density = 2.351969 g / cm^3
# Si number density = 23.573345 Si / 1000 Ang^3
#
#
#
# Elastic Constant Matrix: (Units=GPa)
#
#
# Indices 1 2 3 4 5 6 
#
# 1 64.9775 1.6059 -12.9356 0.0000 0.0000 0.0000
# 2 1.6059 137.9838 65.2823 0.0000 0.0000 0.0000
# 3 -12.9356 65.2823 164.1101 0.0000 0.0000 0.0000
# 4 0.0000 0.0000 0.0000 -7.9633 0.0000 0.0000
# 5 0.0000 0.0000 0.0000 0.0000 5.4421 0.0000
# 6 0.0000 0.0000 0.0000 0.0000 0.0000 -20.1844
#
#
#
# Elastic Compliance Matrix: (Units=1/GPa)
#
#
# Indices 1 2 3 4 5 6 
#
# 1 0.015735 -0.000948 0.001618 0.000000 0.000000 0.000000
# 2 -0.000948 0.008985 -0.003649 0.000000 0.000000 0.000000
# 3 0.001618 -0.003649 0.007672 0.000000 0.000000 0.000000
# 4 0.000000 0.000000 0.000000 -0.125576 0.000000 0.000000
# 5 0.000000 0.000000 0.000000 0.000000 0.183753 0.000000
# 6 0.000000 0.000000 0.000000 0.000000 0.000000 -0.049543
#
#
# Mechanical properties :
#
#
# Convention : Reuss Voigt Hill
#
# Bulk Modulus (GPa) = 37.83128 52.77519 45.30323
# Shear Modulus (GPa) = 89.61200 16.33347 52.97274
#
# Velocity S-wave (km/s) = 6.17225 2.63511 4.74555
# Velocity P-wave (km/s) = 8.17794 5.62980 7.02045
#
# Compressibility (1/GPa) = 0.02643315
#
# Stress axis : x y z
#
# Youngs Moduli (GPa) = 63.55093 111.30201 130.33661
#
# Poissons Ratio (x) = 0.10556 -0.21083
# Poissons Ratio (y) = 0.06027 0.47557
# Poissons Ratio (z) = -0.10280 0.40612
#
# Static dielectric constant tensor:
#      x y z
#    x 1.977430 0.000000 0.000000 
#    y 0.000000 1.923810 0.000000 
#    z 0.000000 0.000000 1.837370 
# 
# From -- ./inp_files/17079.got.cif
#   From: 2010.05.17/outbox.cif.g08.bks.cpg/sg53_9_cif.got.tgz:17079.got - 2010.06.03 12:45:16.
