data_PCOD9416234
_publ_section_title
;
Structure prediction by ZEFSAII (Michael W. Deem and Ramdas Pophale) SiO2 
 PCOD9416234
Probable space group: P M N A
;
_chemical_formula_sum "Si O2"
_cell_formula_units_Z 48
_cell_length_a 16.405789
_cell_length_b 15.902057
_cell_length_c 8.985060
_cell_angle_alpha 90.000000
_cell_angle_beta 90.000000
_cell_angle_gamma 90.000000
_cell_volume 2344.074493
_symmetry_space_group_name_H-M "P M N A"
_symmetry_group_IT_number 53
_symmetry_cell_setting 'orthorhombic'
loop_
_space_group_symop_operation_xyz
x,y,z
1/2-x,-y,1/2+z
x,-y,-z
1/2-x,y,1/2-z
-x,-y,-z
1/2+x,y,1/2-z
-x,y,z
1/2+x,-y,1/2+z
loop_
_atom_site_type_symbol
_atom_site_label
_atom_site_fract_x
_atom_site_fract_y
_atom_site_fract_z
Si Si1 0.754445 0.593067 0.427942
Si Si2 0.750280 0.092246 0.924576
Si Si3 0.338795 0.827130 0.827150
Si Si4 0.588335 0.095885 0.443701
Si Si5 0.092865 0.650209 0.608606
Si Si6 0.909211 0.406455 0.068390
O O1 0.756856 0.500000 0.500000
O O2 0.750000 0.590524 0.250000
O O3 0.837022 0.635176 0.487987
O O4 0.671163 0.633918 0.494273
O O5 0.750000 0.083628 0.750000
O O6 0.679367 0.143397 0.005606
O O7 0.836476 0.134581 0.967475
O O8 0.747855 0.000000 0.000000
O O9 0.250000 0.814224 0.750000
O O10 0.384797 0.896655 0.728027
O O11 0.391195 0.743126 0.826858
O O12 0.500000 0.135016 0.465297
O O13 0.583706 0.000000 0.500000
O O14 0.103795 0.590662 0.753381
O O15 0.000000 0.640834 0.554122
O O16 0.000000 0.368336 0.044942
O O17 0.912905 0.500000 0.000000
#
# Coordination Sequence:
#
# PCOD9416234 Si02
#       6
#     8   8   8   8   8   8
#     4  11  22  37  60  87 118 154 194 240 287 343
#     4  10  19  34  57  84 113 150 194 237 285 343
#     4  10  20  35  58  84 115 153 192 236 288 345
#     4   9  17  32  54  80 111 145 185 232 281 337
#     4  11  23  39  60  86 118 154 195 242 291 344
#     4   9  18  35  59  85 114 149 190 234 281 339
#
# _framework density 20.477164999999999
#
# number of rings (size 3 to 8) (size 9 to 14) (size 15 to 20)
#    0.000    2.000    0.000    6.500    0.000    1.667 
#    0.000    1.667    0.000    7.500    0.000    0.000 
#    0.000    0.000    0.000    0.000    0.000    0.000 
#
# Total GULP energy -267629.988869 kJ/mol
# GULP energy per Si atom -5575.624768 kJ/mol
# Density = 2.043056 g / cm^3
# Si number density = 20.477165 Si / 1000 Ang^3
#
#
#
# Elastic Constant Matrix: (Units=GPa)
#
#
# Indices 1 2 3 4 5 6 
#
# 1 158.8769 16.6902 62.9453 0.0000 0.0000 0.0000
# 2 16.6902 46.4699 27.0544 0.0000 0.0000 0.0000
# 3 62.9453 27.0544 166.4668 0.0000 0.0000 0.0000
# 4 0.0000 0.0000 0.0000 13.1030 0.0000 0.0000
# 5 0.0000 0.0000 0.0000 0.0000 5.2312 0.0000
# 6 0.0000 0.0000 0.0000 0.0000 0.0000 14.8361
#
#
#
# Elastic Compliance Matrix: (Units=1/GPa)
#
#
# Indices 1 2 3 4 5 6 
#
# 1 0.007458 -0.001145 -0.002634 0.000000 0.000000 0.000000
# 2 -0.001145 0.023944 -0.003458 0.000000 0.000000 0.000000
# 3 -0.002634 -0.003458 0.007565 0.000000 0.000000 0.000000
# 4 0.000000 0.000000 0.000000 0.076319 0.000000 0.000000
# 5 0.000000 0.000000 0.000000 0.000000 0.191161 0.000000
# 6 0.000000 0.000000 0.000000 0.000000 0.000000 0.067403
#
#
# Mechanical properties :
#
#
# Convention : Reuss Voigt Hill
#
# Bulk Modulus (GPa) = 40.82920 65.02146 52.92533
# Shear Modulus (GPa) = 12.61069 24.30898 18.45984
#
# Velocity S-wave (km/s) = 2.48431 3.44921 3.00573
# Velocity P-wave (km/s) = 5.31142 6.90542 6.16020
#
# Compressibility (1/GPa) = 0.02449228
#
# Stress axis : x y z
#
# Youngs Moduli (GPa) = 134.08374 41.76401 132.18370
#
# Poissons Ratio (x) = 0.04783 0.34817
# Poissons Ratio (y) = 0.15355 0.45714
# Poissons Ratio (z) = 0.35317 0.14444
#
# Static dielectric constant tensor:
#      x y z
#    x 1.797610 0.000000 0.000000 
#    y 0.000000 1.754910 0.000000 
#    z 0.000000 0.000000 1.719550 
# 
# From -- ./inp_files/9917.got.cif
#   From: 2010.05.17/outbox.cif.g08.bks.cpg/sg53_5_cif.got.tgz:9917.got - 2010.06.03 12:45:16.
