data_PCOD9416321
_publ_section_title
;
Structure prediction by ZEFSAII (Michael W. Deem and Ramdas Pophale) SiO2 
 PCOD9416321
Probable space group: P M N A
;
_chemical_formula_sum "Si O2"
_cell_formula_units_Z 64
_cell_length_a 8.611645
_cell_length_b 12.445228
_cell_length_c 32.065971
_cell_angle_alpha 90.000000
_cell_angle_beta 90.000000
_cell_angle_gamma 90.000000
_cell_volume 3436.634704
_symmetry_space_group_name_H-M "P M N A"
_symmetry_group_IT_number 53
_symmetry_cell_setting 'orthorhombic'
loop_
_space_group_symop_operation_xyz
x,y,z
1/2-x,-y,1/2+z
x,-y,-z
1/2-x,y,1/2-z
-x,-y,-z
1/2+x,y,1/2-z
-x,y,z
1/2+x,-y,1/2+z
loop_
_atom_site_type_symbol
_atom_site_label
_atom_site_fract_x
_atom_site_fract_y
_atom_site_fract_z
Si Si1 0.683484 0.620066 0.514099
Si Si2 0.684478 0.641013 0.612966
Si Si3 0.310621 0.986079 0.048151
Si Si4 0.687215 0.747114 0.294999
Si Si5 0.685285 0.127648 0.126355
Si Si6 0.687336 0.403829 0.630324
Si Si7 0.183256 0.255345 0.558530
Si Si8 0.686226 0.994989 0.295673
O O1 0.728899 0.500000 0.500000
O O2 0.500000 0.632764 0.504401
O O3 0.704551 0.632215 0.563156
O O4 0.779023 0.706730 0.488190
O O5 0.500000 0.650943 0.621392
O O6 0.767335 0.748121 0.628006
O O7 0.741694 0.527008 0.630888
O O8 0.500000 0.988461 0.047003
O O9 0.263034 0.867419 0.063788
O O10 0.259905 0.073739 0.082431
O O11 0.258395 0.000000 0.000000
O O12 0.750000 0.715171 0.250000
O O13 0.500000 0.745345 0.294444
O O14 0.742023 0.666939 0.330798
O O15 0.735530 0.870591 0.302832
O O16 0.500000 0.117315 0.127380
O O17 0.753778 0.065433 0.166042
O O18 0.500000 0.407656 0.630533
O O19 0.736571 0.340202 0.589001
O O20 0.000000 0.258712 0.565967
O O21 0.750000 0.027128 0.250000
O O22 0.500000 0.998931 0.294392
#
# Coordination Sequence:
#
# PCOD9416321 Si02
#       8
#     8   8   8   8   8   8   8   8
#     4  10  19  35  54  74 105 149 188 225 276 327
#     4  10  21  37  56  76 107 150 191 229 273 329
#     4   9  19  35  52  75 112 151 183 225 283 337
#     4   9  19  35  59  86 112 141 174 218 272 329
#     4  11  22  37  58  82 113 151 191 236 287 338
#     4  10  20  37  56  77 108 146 180 218 273 329
#     4  11  21  32  53  82 107 137 181 233 277 322
#     4  10  20  37  61  89 116 143 182 229 280 340
#
# _framework density 18.622869999999999
#
# number of rings (size 3 to 8) (size 9 to 14) (size 15 to 20)
#    0.000    2.000    1.250    2.625    0.000    3.250 
#    0.000    2.500    0.000    6.000    0.000    0.000 
#    0.000    0.000    0.000    0.000    0.000    0.000 
#
# Total GULP energy -357323.128979 kJ/mol
# GULP energy per Si atom -5583.173890 kJ/mol
# Density = 1.858048 g / cm^3
# Si number density = 18.622870 Si / 1000 Ang^3
#
#
#
# Elastic Constant Matrix: (Units=GPa)
#
#
# Indices 1 2 3 4 5 6 
#
# 1 16.0363 26.0845 28.7024 0.0000 0.0000 0.0000
# 2 26.0845 122.9430 63.1184 0.0000 0.0000 0.0000
# 3 28.7024 63.1184 104.3570 0.0000 0.0000 0.0000
# 4 0.0000 0.0000 0.0000 35.1091 0.0000 0.0000
# 5 0.0000 0.0000 0.0000 0.0000 28.2680 0.0000
# 6 0.0000 0.0000 0.0000 0.0000 0.0000 22.0087
#
#
#
# Elastic Compliance Matrix: (Units=1/GPa)
#
#
# Indices 1 2 3 4 5 6 
#
# 1 0.138044 -0.014208 -0.029374 0.000000 0.000000 0.000000
# 2 -0.014208 0.013259 -0.004112 0.000000 0.000000 0.000000
# 3 -0.029374 -0.004112 0.020149 0.000000 0.000000 0.000000
# 4 0.000000 0.000000 0.000000 0.028483 0.000000 0.000000
# 5 0.000000 0.000000 0.000000 0.000000 0.035376 0.000000
# 6 0.000000 0.000000 0.000000 0.000000 0.000000 0.045437
#
#
# Mechanical properties :
#
#
# Convention : Reuss Voigt Hill
#
# Bulk Modulus (GPa) = 13.14685 53.23856 33.19271
# Shear Modulus (GPa) = 12.45362 25.43923 18.94642
#
# Velocity S-wave (km/s) = 2.58878 3.69998 3.19309
# Velocity P-wave (km/s) = 4.00132 6.84857 5.60863
#
# Compressibility (1/GPa) = 0.07606383
#
# Stress axis : x y z
#
# Youngs Moduli (GPa) = 7.24407 75.41863 49.63104
#
# Poissons Ratio (x) = 1.07153 1.45788
# Poissons Ratio (y) = 0.10292 0.20408
# Poissons Ratio (z) = 0.21279 0.31012
#
# Static dielectric constant tensor:
#      x y z
#    x 1.639480 0.000000 0.000000 
#    y 0.000000 1.645060 0.000000 
#    z 0.000000 0.000000 1.637400 
# 
# From -- ./inp_files/38208.got.cif
#   From: 2010.05.17/outbox.cif.g08.bks.cpg/sg53_20_cif.got.tgz:38208.got - 2010.06.03 12:45:16.
