data_PCOD9416371
_publ_section_title
;
Structure prediction by ZEFSAII (Michael W. Deem and Ramdas Pophale) SiO2 
 PCOD9416371
Probable space group: P M N A
;
_chemical_formula_sum "Si O2"
_cell_formula_units_Z 40
_cell_length_a 8.280825
_cell_length_b 14.949507
_cell_length_c 15.955559
_cell_angle_alpha 90.000000
_cell_angle_beta 90.000000
_cell_angle_gamma 90.000000
_cell_volume 1975.206481
_symmetry_space_group_name_H-M "P M N A"
_symmetry_group_IT_number 53
_symmetry_cell_setting 'orthorhombic'
loop_
_space_group_symop_operation_xyz
x,y,z
1/2-x,-y,1/2+z
x,-y,-z
1/2-x,y,1/2-z
-x,-y,-z
1/2+x,y,1/2-z
-x,y,z
1/2+x,-y,1/2+z
loop_
_atom_site_type_symbol
_atom_site_label
_atom_site_fract_x
_atom_site_fract_y
_atom_site_fract_z
Si Si1 0.310275 0.409478 0.897816
Si Si2 0.811904 0.599351 0.914811
Si Si3 0.302720 0.102692 0.000201
Si Si4 0.694937 0.782611 0.159695
Si Si5 0.306554 0.219371 0.159613
O O1 0.500000 0.419594 0.880738
O O2 0.223931 0.502184 0.876016
O O3 0.247904 0.319593 0.854107
O O4 0.286075 0.395279 0.997855
O O5 0.762619 0.681879 0.857381
O O6 0.000000 0.604687 0.936094
O O7 0.500000 0.102630 0.999684
O O8 0.249546 0.156321 0.917586
O O9 0.252484 0.155755 0.083484
O O10 0.249291 0.000000 0.000000
O O11 0.750000 0.815875 0.250000
O O12 0.500000 0.780574 0.156887
O O13 0.250000 0.186465 0.250000
O O14 0.500000 0.224422 0.157885
#
# Coordination Sequence:
#
# PCOD9416371 Si02
#       5
#     8   8   8   8   8
#     4  10  19  35  57  83 118 160 201 240 290 349
#     4  11  21  34  56  87 119 156 199 243 292 345
#     4   9  19  39  64  86 114 153 194 239 297 358
#     4  10  21  37  59  88 117 154 193 235 289 343
#     4  11  22  39  61  88 120 156 198 243 294 353
#
# _framework density 20.251048000000001
#
# number of rings (size 3 to 8) (size 9 to 14) (size 15 to 20)
#    0.000    1.800    2.000    4.200    0.000    3.200 
#    0.000    2.000    0.000    4.200    0.000    0.000 
#    0.000    0.000    0.000    0.000    0.000    0.000 
#
# Total GULP energy -223520.110512 kJ/mol
# GULP energy per Si atom -5588.002763 kJ/mol
# Density = 2.020496 g / cm^3
# Si number density = 20.251048 Si / 1000 Ang^3
#
#
#
# Elastic Constant Matrix: (Units=GPa)
#
#
# Indices 1 2 3 4 5 6 
#
# 1 19.4233 11.6863 -0.0349 0.0000 0.0000 0.0000
# 2 11.6863 143.4432 83.8755 0.0000 0.0000 0.0000
# 3 -0.0349 83.8755 148.2542 0.0000 0.0000 0.0000
# 4 0.0000 0.0000 0.0000 -1.4103 0.0000 0.0000
# 5 0.0000 0.0000 0.0000 0.0000 19.7640 0.0000
# 6 0.0000 0.0000 0.0000 0.0000 0.0000 6.2194
#
#
#
# Elastic Compliance Matrix: (Units=1/GPa)
#
#
# Indices 1 2 3 4 5 6 
#
# 1 0.055569 -0.006777 0.003847 0.000000 0.000000 0.000000
# 2 -0.006777 0.011244 -0.006363 0.000000 0.000000 0.000000
# 3 0.003847 -0.006363 0.010346 0.000000 0.000000 0.000000
# 4 0.000000 0.000000 0.000000 -0.709057 0.000000 0.000000
# 5 0.000000 0.000000 0.000000 0.000000 0.050597 0.000000
# 6 0.000000 0.000000 0.000000 0.000000 0.000000 0.160787
#
#
# Mechanical properties :
#
#
# Convention : Reuss Voigt Hill
#
# Bulk Modulus (GPa) = 17.07252 55.79716 36.43484
# Shear Modulus (GPa) = -13.07517 19.28754 3.10619
#
# Velocity S-wave (km/s) = -2.54373 3.08948 1.23983
# Velocity P-wave (km/s) = 0.42269 6.35130 4.48109
#
# Compressibility (1/GPa) = 0.05857365
#
# Stress axis : x y z
#
# Youngs Moduli (GPa) = 17.99569 88.93528 96.65596
#
# Poissons Ratio (x) = 0.60268 -0.37183
# Poissons Ratio (y) = 0.12195 0.61502
# Poissons Ratio (z) = -0.06923 0.56590
#
# Static dielectric constant tensor:
#      x y z
#    x 1.691860 0.000000 0.000000 
#    y 0.000000 1.710530 0.000000 
#    z 0.000000 0.000000 1.712320 
# 
# From -- ./inp_files/19886.got.cif
#   From: 2010.05.17/outbox.cif.g08.bks.cpg/sg53_10_cif.got.tgz:19886.got - 2010.06.03 12:45:16.
