data_PCOD9416028
_publ_section_title
;
Structure prediction by ZEFSAII (Michael W. Deem and Ramdas Pophale) SiO2 
 PCOD9416028
Probable space group: P M N A
;
_chemical_formula_sum "Si O2"
_cell_formula_units_Z 64
_cell_length_a 8.671721
_cell_length_b 11.184535
_cell_length_c 34.630335
_cell_angle_alpha 90.000000
_cell_angle_beta 90.000000
_cell_angle_gamma 90.000000
_cell_volume 3358.767346
_symmetry_space_group_name_H-M "P M N A"
_symmetry_group_IT_number 53
_symmetry_cell_setting 'orthorhombic'
loop_
_space_group_symop_operation_xyz
x,y,z
1/2-x,-y,1/2+z
x,-y,-z
1/2-x,y,1/2-z
-x,-y,-z
1/2+x,y,1/2-z
-x,y,z
1/2+x,-y,1/2+z
loop_
_atom_site_type_symbol
_atom_site_label
_atom_site_fract_x
_atom_site_fract_y
_atom_site_fract_z
Si Si1 0.185480 0.466860 0.708422
Si Si2 0.683541 0.083221 0.596221
Si Si3 0.319271 0.314723 0.865117
Si Si4 0.685386 0.710889 0.943297
Si Si5 0.182631 0.204038 0.981431
Si Si6 0.816334 0.267494 0.208260
Si Si7 0.684105 0.155092 0.132632
Si Si8 0.318994 0.559312 0.055301
O O1 0.250000 0.429453 0.750000
O O2 0.229298 0.375089 0.674759
O O3 0.251006 0.599186 0.700573
O O4 0.000000 0.474589 0.709552
O O5 0.500000 0.061999 0.595750
O O6 0.721689 0.201906 0.620863
O O7 0.735426 0.113159 0.552195
O O8 0.769587 0.972813 0.615426
O O9 0.500000 0.278886 0.862425
O O10 0.310724 0.413195 0.899094
O O11 0.500000 0.710250 0.943975
O O12 0.733840 0.751315 0.900688
O O13 0.735717 0.575033 0.952053
O O14 0.743945 0.800127 0.976331
O O15 0.226256 0.335419 0.965188
O O16 0.000000 0.191728 0.984973
O O17 0.750000 0.229878 0.250000
O O18 0.762963 0.184346 0.173178
O O19 0.000000 0.272561 0.210600
O O20 0.500000 0.163423 0.137352
O O21 0.500000 0.569939 0.043783
#
# Coordination Sequence:
#
# PCOD9416028 Si02
#       8
#     8   8   8   8   8   8   8   8
#     4  10  19  33  55  85 118 147 179 219 268 326
#     4  10  22  39  56  77 107 144 187 233 281 330
#     4   9  18  34  56  78 104 142 184 226 273 326
#     4  10  21  35  54  80 109 143 182 226 273 326
#     4  10  21  35  52  77 110 144 179 225 278 330
#     4  11  22  38  61  88 118 149 180 218 270 326
#     4  11  23  40  60  82 109 143 189 236 276 323
#     4   9  17  32  53  76 104 138 178 223 273 330
#
# _framework density 19.054608000000002
#
# number of rings (size 3 to 8) (size 9 to 14) (size 15 to 20)
#    0.000    2.000    0.000    4.500    0.000    8.000 
#    0.000    5.625    0.000    1.500    0.000    0.000 
#    0.000    0.000    0.000    0.000    0.000    0.000 
#
# Total GULP energy -357457.499753 kJ/mol
# GULP energy per Si atom -5585.273434 kJ/mol
# Density = 1.901124 g / cm^3
# Si number density = 19.054608 Si / 1000 Ang^3
#
#
#
# Elastic Constant Matrix: (Units=GPa)
#
#
# Indices 1 2 3 4 5 6 
#
# 1 40.1060 2.2032 14.8428 0.0000 0.0000 0.0000
# 2 2.2032 29.5234 11.9261 0.0000 0.0000 0.0000
# 3 14.8428 11.9261 87.7461 0.0000 0.0000 0.0000
# 4 0.0000 0.0000 0.0000 20.2810 0.0000 0.0000
# 5 0.0000 0.0000 0.0000 0.0000 50.4099 0.0000
# 6 0.0000 0.0000 0.0000 0.0000 0.0000 -132.5307
#
#
#
# Elastic Compliance Matrix: (Units=1/GPa)
#
#
# Indices 1 2 3 4 5 6 
#
# 1 0.026600 -0.000177 -0.004475 0.000000 0.000000 0.000000
# 2 -0.000177 0.035840 -0.004841 0.000000 0.000000 0.000000
# 3 -0.004475 -0.004841 0.012812 0.000000 0.000000 0.000000
# 4 0.000000 0.000000 0.000000 0.049307 0.000000 0.000000
# 5 0.000000 0.000000 0.000000 0.000000 0.019837 0.000000
# 6 0.000000 0.000000 0.000000 0.000000 0.000000 -0.007545
#
#
# Mechanical properties :
#
#
# Convention : Reuss Voigt Hill
#
# Bulk Modulus (GPa) = 17.77335 23.92442 20.84888
# Shear Modulus (GPa) = 28.63791 -3.80775 12.41508
#
# Velocity S-wave (km/s) = 3.88098 -1.41516 2.55532
# Velocity P-wave (km/s) = 5.42499 3.14845 4.43527
#
# Compressibility (1/GPa) = 0.05626403
#
# Stress axis : x y z
#
# Youngs Moduli (GPa) = 37.59403 27.90149 78.05441
#
# Poissons Ratio (x) = 0.00494 0.34933
# Poissons Ratio (y) = 0.00666 0.37788
# Poissons Ratio (z) = 0.16825 0.13508
#
# Static dielectric constant tensor:
#      x y z
#    x 1.644320 0.000000 0.000000 
#    y 0.000000 1.648720 0.000000 
#    z 0.000000 0.000000 1.670100 
# 
# From -- ./inp_files/38241.got.cif
#   From: 2010.05.17/outbox.cif.g08.bks.cpg/sg53_20_cif.got.tgz:38241.got - 2010.06.03 12:45:16.
