data_PCOD9416859
_publ_section_title
;
Structure prediction by ZEFSAII (Michael W. Deem and Ramdas Pophale) SiO2 
 PCOD9416859
Probable space group: P M N A
;
_chemical_formula_sum "Si O2"
_cell_formula_units_Z 48
_cell_length_a 9.096834
_cell_length_b 11.148754
_cell_length_c 23.818706
_cell_angle_alpha 90.000000
_cell_angle_beta 90.000000
_cell_angle_gamma 90.000000
_cell_volume 2415.654206
_symmetry_space_group_name_H-M "P M N A"
_symmetry_group_IT_number 53
_symmetry_cell_setting 'orthorhombic'
loop_
_space_group_symop_operation_xyz
x,y,z
1/2-x,-y,1/2+z
x,-y,-z
1/2-x,y,1/2-z
-x,-y,-z
1/2+x,y,1/2-z
-x,y,z
1/2+x,-y,1/2+z
loop_
_atom_site_type_symbol
_atom_site_label
_atom_site_fract_x
_atom_site_fract_y
_atom_site_fract_z
Si Si1 0.677671 0.809185 0.084841
Si Si2 0.170480 0.549337 0.880189
Si Si3 0.169033 0.204450 0.191276
Si Si4 0.825410 0.317157 0.477550
Si Si5 0.324119 0.339442 0.810702
Si Si6 0.174407 0.074340 0.406060
O O1 0.500000 0.806645 0.078487
O O2 0.710843 0.772570 0.148506
O O3 0.725707 0.944744 0.072147
O O4 0.730245 0.709455 0.040403
O O5 0.175247 0.670415 0.842634
O O6 0.241136 0.586688 0.939741
O O7 0.262928 0.452160 0.845815
O O8 0.000000 0.513241 0.886046
O O9 0.250000 0.216918 0.250000
O O10 0.245340 0.107742 0.151298
O O11 0.000000 0.173362 0.200773
O O12 0.806833 0.186659 0.447723
O O13 0.000000 0.346343 0.477327
O O14 0.250000 0.332779 0.750000
O O15 0.500000 0.348961 0.804620
O O16 0.000000 0.065023 0.395774
#
# Coordination Sequence:
#
# PCOD9416859 Si02
#       6
#     8   8   8   8   8   8
#     4   9  19  35  56  82 110 143 181 219 261 316
#     4  10  21  37  56  80 109 139 177 224 274 323
#     4  10  20  33  51  76 105 137 176 224 273 320
#     4   9  17  33  59  86 110 139 177 220 267 317
#     4  11  23  39  57  77 106 143 183 223 265 316
#     4   9  17  32  55  81 109 141 178 219 264 316
#
# _framework density 19.870394000000001
#
# number of rings (size 3 to 8) (size 9 to 14) (size 15 to 20)
#    0.000    2.333    0.000    2.500    0.000    6.667 
#    0.000    9.167    0.000    4.000    0.000    0.000 
#    0.000    0.000    0.000    0.000    0.000    0.000 
#
# Total GULP energy -267950.077323 kJ/mol
# GULP energy per Si atom -5582.293278 kJ/mol
# Density = 1.982517 g / cm^3
# Si number density = 19.870394 Si / 1000 Ang^3
#
#
#
# Elastic Constant Matrix: (Units=GPa)
#
#
# Indices 1 2 3 4 5 6 
#
# 1 62.5644 23.1792 46.6234 0.0000 0.0000 0.0000
# 2 23.1792 56.1548 15.5442 0.0000 0.0000 0.0000
# 3 46.6234 15.5442 95.8198 0.0000 0.0000 0.0000
# 4 0.0000 0.0000 0.0000 18.2604 0.0000 0.0000
# 5 0.0000 0.0000 0.0000 0.0000 26.2691 0.0000
# 6 0.0000 0.0000 0.0000 0.0000 0.0000 14.6733
#
#
#
# Elastic Compliance Matrix: (Units=1/GPa)
#
#
# Indices 1 2 3 4 5 6 
#
# 1 0.028303 -0.008241 -0.012435 0.000000 0.000000 0.000000
# 2 -0.008241 0.021045 0.000596 0.000000 0.000000 0.000000
# 3 -0.012435 0.000596 0.016390 0.000000 0.000000 0.000000
# 4 0.000000 0.000000 0.000000 0.054763 0.000000 0.000000
# 5 0.000000 0.000000 0.000000 0.000000 0.038068 0.000000
# 6 0.000000 0.000000 0.000000 0.000000 0.000000 0.068151
#
#
# Mechanical properties :
#
#
# Convention : Reuss Voigt Hill
#
# Bulk Modulus (GPa) = 39.09552 42.80364 40.94958
# Shear Modulus (GPa) = 18.15512 20.45337 19.30425
#
# Velocity S-wave (km/s) = 3.02599 3.21181 3.12028
# Velocity P-wave (km/s) = 5.65038 5.94496 5.79954
#
# Compressibility (1/GPa) = 0.02557838
#
# Stress axis : x y z
#
# Youngs Moduli (GPa) = 35.33206 47.51833 61.01298
#
# Poissons Ratio (x) = 0.39158 0.75867
# Poissons Ratio (y) = 0.29116 -0.03635
# Poissons Ratio (z) = 0.43934 -0.02831
#
# Static dielectric constant tensor:
#      x y z
#    x 1.666430 0.000000 0.000000 
#    y 0.000000 1.719150 0.000000 
#    z 0.000000 0.000000 1.697290 
# 
# From -- ./inp_files/33890.got.cif
#   From: 2010.05.17/outbox.cif.g08.bks.cpg/sg53_17_cif.got.tgz:33890.got - 2010.06.03 12:45:16.
