data_PCOD9416171
_publ_section_title
;
Structure prediction by ZEFSAII (Michael W. Deem and Ramdas Pophale) SiO2 
 PCOD9416171
Probable space group: P M N A
;
_chemical_formula_sum "Si O2"
_cell_formula_units_Z 48
_cell_length_a 8.859346
_cell_length_b 9.863157
_cell_length_c 31.229275
_cell_angle_alpha 90.000000
_cell_angle_beta 90.000000
_cell_angle_gamma 90.000000
_cell_volume 2728.849042
_symmetry_space_group_name_H-M "P M N A"
_symmetry_group_IT_number 53
_symmetry_cell_setting 'orthorhombic'
loop_
_space_group_symop_operation_xyz
x,y,z
1/2-x,-y,1/2+z
x,-y,-z
1/2-x,y,1/2-z
-x,-y,-z
1/2+x,y,1/2-z
-x,y,z
1/2+x,-y,1/2+z
loop_
_atom_site_type_symbol
_atom_site_label
_atom_site_fract_x
_atom_site_fract_y
_atom_site_fract_z
Si Si1 0.181022 0.499629 0.367249
Si Si2 0.320350 0.692409 0.296824
Si Si3 0.180537 0.076426 0.863518
Si Si4 0.319266 0.272648 0.934522
Si Si5 0.680115 0.847098 0.516513
Si Si6 0.181155 0.805167 0.610075
O O1 0.257739 0.573721 0.327310
O O2 0.217167 0.587742 0.409757
O O3 0.223959 0.343727 0.373176
O O4 0.000000 0.507409 0.361733
O O5 0.250000 0.689054 0.250000
O O6 0.500000 0.680839 0.293902
O O7 0.285174 0.832474 0.321966
O O8 0.255664 0.154856 0.903513
O O9 0.000000 0.073108 0.869842
O O10 0.246652 0.926255 0.862568
O O11 0.500000 0.260509 0.938244
O O12 0.243373 0.253818 0.980425
O O13 0.500000 0.833853 0.520866
O O14 0.758671 0.822897 0.561824
O O15 0.712296 0.000000 0.500000
O O16 0.000000 0.816307 0.610348
#
# Coordination Sequence:
#
# PCOD9416171 Si02
#       6
#     8   8   8   8   8   8
#     4   9  21  39  57  82 114 146 183 228 278 331
#     4  10  21  38  63  88 111 141 178 221 270 330
#     4  10  20  35  55  82 112 141 179 225 272 322
#     4  10  19  34  56  78 105 145 190 232 272 321
#     4  11  22  34  51  77 112 149 189 236 277 321
#     4  11  22  36  56  81 111 148 186 227 276 326
#
# _framework density 17.589832000000001
#
# number of rings (size 3 to 8) (size 9 to 14) (size 15 to 20)
#    0.000    1.833    1.667    2.500    0.000    5.333 
#    0.000    4.167    0.000    2.000    0.000    0.000 
#    0.000    0.000    0.000    0.000    0.000    0.000 
#
# Total GULP energy -268096.766275 kJ/mol
# GULP energy per Si atom -5585.349297 kJ/mol
# Density = 1.754980 g / cm^3
# Si number density = 17.589832 Si / 1000 Ang^3
#
#
#
# Elastic Constant Matrix: (Units=GPa)
#
#
# Indices 1 2 3 4 5 6 
#
# 1 50.5839 56.2155 44.5584 0.0000 0.0000 0.0000
# 2 56.2155 157.6810 64.1750 0.0000 0.0000 0.0000
# 3 44.5584 64.1750 114.1047 0.0000 0.0000 0.0000
# 4 0.0000 0.0000 0.0000 13.6512 0.0000 0.0000
# 5 0.0000 0.0000 0.0000 0.0000 24.1574 0.0000
# 6 0.0000 0.0000 0.0000 0.0000 0.0000 51.2489
#
#
#
# Elastic Compliance Matrix: (Units=1/GPa)
#
#
# Indices 1 2 3 4 5 6 
#
# 1 0.039681 -0.010168 -0.009777 0.000000 0.000000 0.000000
# 2 -0.010168 0.010830 -0.002120 0.000000 0.000000 0.000000
# 3 -0.009777 -0.002120 0.013775 0.000000 0.000000 0.000000
# 4 0.000000 0.000000 0.000000 0.073254 0.000000 0.000000
# 5 0.000000 0.000000 0.000000 0.000000 0.041395 0.000000
# 6 0.000000 0.000000 0.000000 0.000000 0.000000 0.019513
#
#
# Mechanical properties :
#
#
# Convention : Reuss Voigt Hill
#
# Bulk Modulus (GPa) = 49.61534 72.47417 61.04475
# Shear Modulus (GPa) = 20.05644 28.30620 24.18132
#
# Velocity S-wave (km/s) = 3.38039 4.01588 3.71176
# Velocity P-wave (km/s) = 6.59577 7.92432 7.29037
#
# Compressibility (1/GPa) = 0.02015506
#
# Stress axis : x y z
#
# Youngs Moduli (GPa) = 25.20067 92.33740 72.59790
#
# Poissons Ratio (x) = 0.93886 0.70981
# Poissons Ratio (y) = 0.25623 0.15394
# Poissons Ratio (z) = 0.24639 0.19579
#
# Static dielectric constant tensor:
#      x y z
#    x 1.584740 0.000000 0.000000 
#    y 0.000000 1.603690 0.000000 
#    z 0.000000 0.000000 1.567510 
# 
# From -- ./inp_files/37683.got.cif
#   From: 2010.05.17/outbox.cif.g08.bks.cpg/sg53_19_cif.got.tgz:37683.got - 2010.06.03 12:45:16.
