data_PCOD9416097
_publ_section_title
;
Structure prediction by ZEFSAII (Michael W. Deem and Ramdas Pophale) SiO2 
 PCOD9416097
Probable space group: P M N A
;
_chemical_formula_sum "Si O2"
_cell_formula_units_Z 64
_cell_length_a 16.505385
_cell_length_b 14.856123
_cell_length_c 12.815039
_cell_angle_alpha 90.000000
_cell_angle_beta 90.000000
_cell_angle_gamma 90.000000
_cell_volume 3142.324834
_symmetry_space_group_name_H-M "P M N A"
_symmetry_group_IT_number 53
_symmetry_cell_setting 'orthorhombic'
loop_
_space_group_symop_operation_xyz
x,y,z
1/2-x,-y,1/2+z
x,-y,-z
1/2-x,y,1/2-z
-x,-y,-z
1/2+x,y,1/2-z
-x,y,z
1/2+x,-y,1/2+z
loop_
_atom_site_type_symbol
_atom_site_label
_atom_site_fract_x
_atom_site_fract_y
_atom_site_fract_z
Si Si1 0.845848 0.170802 0.638051
Si Si2 0.097092 0.810563 0.593737
Si Si3 0.400735 0.697866 0.710951
Si Si4 0.300070 0.051438 0.591526
Si Si5 0.592321 0.011700 0.227142
Si Si6 0.597323 0.687164 0.304256
Si Si7 0.598828 0.494382 0.378337
Si Si8 0.595702 0.803038 0.510192
O O1 0.863937 0.196970 0.519204
O O2 0.757245 0.127108 0.638825
O O3 0.902011 0.086449 0.673408
O O4 0.860520 0.253174 0.715911
O O5 0.124829 0.735571 0.677085
O O6 0.000000 0.802473 0.580776
O O7 0.111137 0.907873 0.647530
O O8 0.500000 0.699065 0.710476
O O9 0.375615 0.597895 0.677265
O O10 0.372760 0.765844 0.619860
O O11 0.341774 0.992945 0.680913
O O12 0.369156 0.103666 0.528590
O O13 0.252761 0.000000 0.500000
O O14 0.500000 0.025817 0.265719
O O15 0.500000 0.690920 0.285226
O O16 0.623120 0.583642 0.315366
O O17 0.611229 0.731807 0.417629
O O18 0.624439 0.500000 0.500000
O O19 0.500000 0.494285 0.380670
O O20 0.500000 0.811566 0.520240
#
# Coordination Sequence:
#
# PCOD9416097 Si02
#       8
#     8   8   8   8   8   8   8   8
#     4  12  24  39  55  81 120 163 204 234 279 352
#     4  10  21  37  58  83 117 161 199 234 280 347
#     4   9  17  32  56  89 122 147 187 244 297 348
#     4  12  25  38  56  86 119 156 198 249 297 345
#     4  11  22  38  60  84 114 152 199 250 295 345
#     4  10  19  33  58  90 119 151 192 243 296 347
#     4   9  15  28  55  93 125 145 182 244 306 353
#     4  10  19  34  58  90 120 147 189 248 308 348
#
# _framework density 20.367084999999999
#
# number of rings (size 3 to 8) (size 9 to 14) (size 15 to 20)
#    0.000    1.625    2.500    3.750    0.000    3.000 
#    0.000    2.500    0.000    3.000    9.750    0.000 
#    0.000    0.000    0.000    0.000    0.000    0.000 
#
# Total GULP energy -357595.237454 kJ/mol
# GULP energy per Si atom -5587.425585 kJ/mol
# Density = 2.032073 g / cm^3
# Si number density = 20.367085 Si / 1000 Ang^3
#
#
#
# Elastic Constant Matrix: (Units=GPa)
#
#
# Indices 1 2 3 4 5 6 
#
# 1 30.0313 6.3117 36.4238 0.0000 0.0000 0.0000
# 2 6.3117 109.1202 59.1474 0.0000 0.0000 0.0000
# 3 36.4238 59.1474 163.2740 0.0000 0.0000 0.0000
# 4 0.0000 0.0000 0.0000 26.4110 0.0000 0.0000
# 5 0.0000 0.0000 0.0000 0.0000 2.8984 0.0000
# 6 0.0000 0.0000 0.0000 0.0000 0.0000 -0.0387
#
#
#
# Elastic Compliance Matrix: (Units=1/GPa)
#
#
# Indices 1 2 3 4 5 6 
#
# 1 0.046804 0.003674 -0.011772 0.000000 0.000000 0.000000
# 2 0.003674 0.011692 -0.005055 0.000000 0.000000 0.000000
# 3 -0.011772 -0.005055 0.010582 0.000000 0.000000 0.000000
# 4 0.000000 0.000000 0.000000 0.037863 0.000000 0.000000
# 5 0.000000 0.000000 0.000000 0.000000 0.345016 0.000000
# 6 0.000000 0.000000 0.000000 0.000000 0.000000-25.861653
#
#
# Mechanical properties :
#
#
# Convention : Reuss Voigt Hill
#
# Bulk Modulus (GPa) = 23.38011 56.24345 39.81178
# Shear Modulus (GPa) = -0.19709 19.22367 9.51329
#
# Velocity S-wave (km/s) = -0.31141 3.07556 2.16357
# Velocity P-wave (km/s) = 3.37268 6.34720 5.08242
#
# Compressibility (1/GPa) = 0.04277140
#
# Stress axis : x y z
#
# Youngs Moduli (GPa) = 21.36551 85.53080 94.49971
#
# Poissons Ratio (x) = -0.31422 1.11246
# Poissons Ratio (y) = -0.07849 0.47769
# Poissons Ratio (z) = 0.25152 0.43235
#
# Static dielectric constant tensor:
#      x y z
#    x 1.753770 0.000000 0.000000 
#    y 0.000000 1.751860 0.000000 
#    z 0.000000 0.000000 1.734810 
# 
# From -- ./inp_files/17117.got.cif
#   From: 2010.05.17/outbox.cif.g08.bks.cpg/sg53_9_cif.got.tgz:17117.got - 2010.06.03 12:45:16.
