data_PCOD9416228
_publ_section_title
;
Structure prediction by ZEFSAII (Michael W. Deem and Ramdas Pophale) SiO2 
 PCOD9416228
Probable space group: P M N A
;
_chemical_formula_sum "Si O2"
_cell_formula_units_Z 34
_cell_length_a 9.937177
_cell_length_b 19.389914
_cell_length_c 7.122330
_cell_angle_alpha 90.000000
_cell_angle_beta 90.000000
_cell_angle_gamma 90.000000
_cell_volume 1372.337720
_symmetry_space_group_name_H-M "P M N A"
_symmetry_group_IT_number 53
_symmetry_cell_setting 'orthorhombic'
loop_
_space_group_symop_operation_xyz
x,y,z
1/2-x,-y,1/2+z
x,-y,-z
1/2-x,y,1/2-z
-x,-y,-z
1/2+x,y,1/2-z
-x,y,z
1/2+x,-y,1/2+z
loop_
_atom_site_type_symbol
_atom_site_label
_atom_site_fract_x
_atom_site_fract_y
_atom_site_fract_z
Si Si1 0.500000 0.279570 0.387430
Si Si2 0.500000 0.123048 0.460086
Si Si3 0.000000 0.500000 0.000000
Si Si4 0.000000 0.173433 0.607110
Si Si5 0.000000 0.668559 0.458821
Si Si6 0.720929 0.925100 0.029456
Si Si7 0.718573 0.380703 0.471836
O O1 0.500000 0.198330 0.370362
O O2 0.500000 0.314044 0.181796
O O3 0.634350 0.309355 0.484242
O O4 0.500000 0.141823 0.683105
O O5 0.637013 0.081837 0.422181
O O6 0.881880 0.440923 0.971816
O O7 0.872020 0.141304 0.500407
O O8 0.000000 0.255244 0.627187
O O9 0.138042 0.627234 0.425835
O O10 0.750000 0.923652 0.250000
O O11 0.657658 0.000000 0.000000
O O12 0.750000 0.392724 0.250000
#
# Coordination Sequence:
#
# PCOD9416228 Si02
#       7
#     4   4   2   4   4   8   8
#     4   9  18  34  56  79 106 143 184 225 274 329
#     4  10  20  35  53  76 107 142 179 225 279 331
#     4  10  20  38  60  80 114 154 176 220 290 330
#     4  10  21  35  52  77 110 138 171 229 285 318
#     4  10  19  34  57  83 108 141 185 231 271 327
#     4  10  21  35  51  73 104 141 180 225 275 327
#     4   9  19  36  57  82 112 144 185 230 272 326
#
# _framework density 24.77524
#
# number of rings (size 3 to 8) (size 9 to 14) (size 15 to 20)
#    0.000    2.353    0.000    2.824    0.000    2.353 
#    0.000    4.706    0.000    0.000    0.000    0.000 
#    0.000    0.000    0.000    0.000    0.000    0.000 
#
# Total GULP energy -189697.133021 kJ/mol
# GULP energy per Si atom -5579.327442 kJ/mol
# Density = 2.471885 g / cm^3
# Si number density = 24.775240 Si / 1000 Ang^3
#
#
#
# Elastic Constant Matrix: (Units=GPa)
#
#
# Indices 1 2 3 4 5 6 
#
# 1 202.9300 84.7749 24.4107 0.0000 0.0000 0.0000
# 2 84.7749 149.7905 15.1166 0.0000 0.0000 0.0000
# 3 24.4107 15.1166 55.0155 0.0000 0.0000 0.0000
# 4 0.0000 0.0000 0.0000 -15.6130 0.0000 0.0000
# 5 0.0000 0.0000 0.0000 0.0000 11.2022 0.0000
# 6 0.0000 0.0000 0.0000 0.0000 0.0000 27.7551
#
#
#
# Elastic Compliance Matrix: (Units=1/GPa)
#
#
# Indices 1 2 3 4 5 6 
#
# 1 0.006656 -0.003568 -0.001973 0.000000 0.000000 0.000000
# 2 -0.003568 0.008779 -0.000829 0.000000 0.000000 0.000000
# 3 -0.001973 -0.000829 0.019280 0.000000 0.000000 0.000000
# 4 0.000000 0.000000 0.000000 -0.064049 0.000000 0.000000
# 5 0.000000 0.000000 0.000000 0.000000 0.089268 0.000000
# 6 0.000000 0.000000 0.000000 0.000000 0.000000 0.036029
#
#
# Mechanical properties :
#
#
# Convention : Reuss Voigt Hill
#
# Bulk Modulus (GPa) = 45.50635 72.92671 59.21653
# Shear Modulus (GPa) = 43.09347 23.56444 33.32895
#
# Velocity S-wave (km/s) = 4.17511 3.08738 3.67175
# Velocity P-wave (km/s) = 6.45365 6.49680 6.47526
#
# Compressibility (1/GPa) = 0.02197496
#
# Stress axis : x y z
#
# Youngs Moduli (GPa) = 150.25132 113.91086 51.86753
#
# Poissons Ratio (x) = 0.40639 0.10232
# Poissons Ratio (y) = 0.53604 0.04301
# Poissons Ratio (z) = 0.29642 0.09445
#
# Static dielectric constant tensor:
#      x y z
#    x 1.983500 0.000000 0.000000 
#    y 0.000000 1.846140 0.000000 
#    z 0.000000 0.000000 2.048220 
# 
# From -- ./inp_files/6215.got.cif
#   From: 2010.05.17/outbox.cif.g08.bks.cpg/sg53_4_cif.got.tgz:6215.got - 2010.06.03 12:45:16.
