data_PCOD9416902
_publ_section_title
;
Structure prediction by ZEFSAII (Michael W. Deem and Ramdas Pophale) SiO2 
 PCOD9416902
Probable space group: P M N A
;
_chemical_formula_sum "Si O2"
_cell_formula_units_Z 56
_cell_length_a 9.575529
_cell_length_b 14.299853
_cell_length_c 21.410305
_cell_angle_alpha 90.000000
_cell_angle_beta 90.000000
_cell_angle_gamma 90.000000
_cell_volume 2931.684312
_symmetry_space_group_name_H-M "P M N A"
_symmetry_group_IT_number 53
_symmetry_cell_setting 'orthorhombic'
loop_
_space_group_symop_operation_xyz
x,y,z
1/2-x,-y,1/2+z
x,-y,-z
1/2-x,y,1/2-z
-x,-y,-z
1/2+x,y,1/2-z
-x,y,z
1/2+x,-y,1/2+z
loop_
_atom_site_type_symbol
_atom_site_label
_atom_site_fract_x
_atom_site_fract_y
_atom_site_fract_z
Si Si1 0.660191 0.177966 0.876181
Si Si2 0.659410 0.326260 0.989277
Si Si3 0.158200 0.681439 0.196523
Si Si4 0.665999 0.145414 0.313352
Si Si5 0.159328 0.467061 0.914425
Si Si6 0.333588 0.681012 0.607335
Si Si7 0.834540 0.004383 0.924508
O O1 0.500000 0.163561 0.856037
O O2 0.658056 0.250360 0.934154
O O3 0.756883 0.227475 0.824905
O O4 0.734836 0.084820 0.898700
O O5 0.500000 0.347389 0.006867
O O6 0.738648 0.417799 0.963661
O O7 0.746997 0.287115 0.047072
O O8 0.250000 0.636089 0.250000
O O9 0.155591 0.607504 0.141080
O O10 0.000000 0.702996 0.215257
O O11 0.750000 0.119823 0.250000
O O12 0.500000 0.138884 0.300150
O O13 0.700108 0.252024 0.334626
O O14 0.690079 0.082978 0.376602
O O15 0.197653 0.569963 0.889310
O O16 0.000000 0.472173 0.937878
O O17 0.500000 0.691140 0.596152
O O18 0.000000 0.027413 0.918296
O O19 0.809457 0.000000 0.000000
#
# Coordination Sequence:
#
# PCOD9416902 Si02
#       7
#     8   8   8   8   8   8   8
#     4  10  21  36  55  81 111 141 175 220 276 334
#     4  10  20  33  52  83 117 144 178 228 283 334
#     4  10  20  35  54  77 107 142 181 224 271 325
#     4  10  23  41  60  84 115 151 192 239 290 348
#     4   9  19  34  53  78 109 147 188 230 276 329
#     4  10  20  36  57  79 107 148 192 227 269 330
#     4  10  21  39  63  88 113 147 192 239 289 346
#
# _framework density 19.101648000000001
#
# number of rings (size 3 to 8) (size 9 to 14) (size 15 to 20)
#    0.000    2.143    0.000    2.571    0.000    8.286 
#    0.000    1.429    0.000    0.000    0.000    0.000 
#    0.000    0.000    0.000    0.000    0.000    0.000 
#
# Total GULP energy -312116.471813 kJ/mol
# GULP energy per Si atom -5573.508425 kJ/mol
# Density = 1.905817 g / cm^3
# Si number density = 19.101648 Si / 1000 Ang^3
#
#
#
# Elastic Constant Matrix: (Units=GPa)
#
#
# Indices 1 2 3 4 5 6 
#
# 1 75.4263 40.8325 44.7896 0.0000 0.0000 0.0000
# 2 40.8325 87.2407 28.4039 0.0000 0.0000 0.0000
# 3 44.7896 28.4039 97.3702 0.0000 0.0000 0.0000
# 4 0.0000 0.0000 0.0000 25.1687 0.0000 0.0000
# 5 0.0000 0.0000 0.0000 0.0000 24.8827 0.0000
# 6 0.0000 0.0000 0.0000 0.0000 0.0000 28.9750
#
#
#
# Elastic Compliance Matrix: (Units=1/GPa)
#
#
# Indices 1 2 3 4 5 6 
#
# 1 0.022193 -0.007805 -0.007932 0.000000 0.000000 0.000000
# 2 -0.007805 0.015410 -0.000905 0.000000 0.000000 0.000000
# 3 -0.007932 -0.000905 0.014183 0.000000 0.000000 0.000000
# 4 0.000000 0.000000 0.000000 0.039732 0.000000 0.000000
# 5 0.000000 0.000000 0.000000 0.000000 0.040189 0.000000
# 6 0.000000 0.000000 0.000000 0.000000 0.000000 0.034513
#
#
# Mechanical properties :
#
#
# Convention : Reuss Voigt Hill
#
# Bulk Modulus (GPa) = 54.04738 54.23213 54.13976
# Shear Modulus (GPa) = 24.31063 25.53935 24.92499
#
# Velocity S-wave (km/s) = 3.57136 3.66050 3.61620
# Velocity P-wave (km/s) = 6.73515 6.80578 6.77056
#
# Compressibility (1/GPa) = 0.01850228
#
# Stress axis : x y z
#
# Youngs Moduli (GPa) = 45.05831 64.89167 70.50795
#
# Poissons Ratio (x) = 0.50648 0.55927
# Poissons Ratio (y) = 0.35168 0.06382
# Poissons Ratio (z) = 0.35740 0.05873
#
# Static dielectric constant tensor:
#      x y z
#    x 1.652420 0.000000 0.000000 
#    y 0.000000 1.677880 0.000000 
#    z 0.000000 0.000000 1.741960 
# 
# From -- ./inp_files/30786.got.cif
#   From: 2010.05.17/outbox.cif.g08.bks.cpg/sg53_16_cif.got.tgz:30786.got - 2010.06.03 12:45:16.
