data_PCOD9416137
_publ_section_title
;
Structure prediction by ZEFSAII (Michael W. Deem and Ramdas Pophale) SiO2 
 PCOD9416137
Probable space group: P M N A
;
_chemical_formula_sum "Si O2"
_cell_formula_units_Z 56
_cell_length_a 7.890910
_cell_length_b 20.263826
_cell_length_c 16.409196
_cell_angle_alpha 90.000000
_cell_angle_beta 90.000000
_cell_angle_gamma 90.000000
_cell_volume 2623.830887
_symmetry_space_group_name_H-M "P M N A"
_symmetry_group_IT_number 53
_symmetry_cell_setting 'orthorhombic'
loop_
_space_group_symop_operation_xyz
x,y,z
1/2-x,-y,1/2+z
x,-y,-z
1/2-x,y,1/2-z
-x,-y,-z
1/2+x,y,1/2-z
-x,y,z
1/2+x,-y,1/2+z
loop_
_atom_site_type_symbol
_atom_site_label
_atom_site_fract_x
_atom_site_fract_y
_atom_site_fract_z
Si Si1 0.707323 0.787252 0.407706
Si Si2 0.296181 0.789131 0.590886
Si Si3 0.795715 0.927883 0.154784
Si Si4 0.299491 0.653390 0.839546
Si Si5 0.701652 0.652262 0.339054
Si Si6 0.796352 0.425047 0.497507
Si Si7 0.295461 0.928770 0.654726
O O1 0.500000 0.788805 0.404889
O O2 0.759515 0.771078 0.499793
O O3 0.767665 0.860492 0.385292
O O4 0.766188 0.727707 0.350425
O O5 0.500000 0.792890 0.590405
O O6 0.248028 0.730215 0.650495
O O7 0.230981 0.861827 0.613793
O O8 0.750000 0.925040 0.250000
O O9 0.000000 0.927872 0.146717
O O10 0.735019 0.999524 0.123267
O O11 0.250000 0.628677 0.750000
O O12 0.500000 0.649167 0.844338
O O13 0.228333 0.614119 0.918084
O O14 0.750000 0.626332 0.250000
O O15 0.500000 0.654293 0.342876
O O16 0.760081 0.611044 0.417254
O O17 0.731614 0.500000 0.500000
O O18 0.000000 0.427744 0.489272
O O19 0.250000 0.925557 0.750000
O O20 0.500000 0.928771 0.647056
#
# Coordination Sequence:
#
# PCOD9416137 Si02
#       7
#     8   8   8   8   8   8   8
#     4   9  18  32  53  79 110 146 190 241 287 338
#     4  10  19  34  54  79 111 146 190 241 289 341
#     4   9  17  31  48  71 102 141 187 234 287 338
#     4  11  23  39  62  89 118 154 193 237 288 345
#     4  11  22  38  62  91 123 160 199 242 291 347
#     4  10  23  44  66  91 123 154 191 240 290 347
#     4   9  18  30  48  71 101 141 185 236 285 338
#
# _framework density 21.342838
#
# number of rings (size 3 to 8) (size 9 to 14) (size 15 to 20)
#    0.000    2.143    1.429    1.714    0.000    3.714 
#    0.000    5.714    0.000    0.000    0.000    5.000 
#    0.000    0.000    0.000    0.000    0.000    0.000 
#
# Total GULP energy -312557.517252 kJ/mol
# GULP energy per Si atom -5581.384237 kJ/mol
# Density = 2.129426 g / cm^3
# Si number density = 21.342838 Si / 1000 Ang^3
#
#
#
# Elastic Constant Matrix: (Units=GPa)
#
#
# Indices 1 2 3 4 5 6 
#
# 1 19.4747 10.6077 -3.1509 0.0000 0.0000 0.0000
# 2 10.6077 145.8087 67.9685 0.0000 0.0000 0.0000
# 3 -3.1509 67.9685 129.7328 0.0000 0.0000 0.0000
# 4 0.0000 0.0000 0.0000 21.0184 0.0000 0.0000
# 5 0.0000 0.0000 0.0000 0.0000 19.7250 0.0000
# 6 0.0000 0.0000 0.0000 0.0000 0.0000 15.3538
#
#
#
# Elastic Compliance Matrix: (Units=1/GPa)
#
#
# Indices 1 2 3 4 5 6 
#
# 1 0.055449 -0.006168 0.004578 0.000000 0.000000 0.000000
# 2 -0.006168 0.009761 -0.005264 0.000000 0.000000 0.000000
# 3 0.004578 -0.005264 0.010577 0.000000 0.000000 0.000000
# 4 0.000000 0.000000 0.000000 0.047577 0.000000 0.000000
# 5 0.000000 0.000000 0.000000 0.000000 0.050697 0.000000
# 6 0.000000 0.000000 0.000000 0.000000 0.000000 0.065130
#
#
# Mechanical properties :
#
#
# Convention : Reuss Voigt Hill
#
# Bulk Modulus (GPa) = 16.10824 49.54076 32.82450
# Shear Modulus (GPa) = 18.27541 25.85884 22.06712
#
# Velocity S-wave (km/s) = 2.92940 3.48457 3.21898
# Velocity P-wave (km/s) = 4.35954 6.28108 5.40636
#
# Compressibility (1/GPa) = 0.06208003
#
# Stress axis : x y z
#
# Youngs Moduli (GPa) = 18.03452 102.45261 94.54516
#
# Poissons Ratio (x) = 0.63194 -0.43285
# Poissons Ratio (y) = 0.11124 0.49764
# Poissons Ratio (z) = -0.08257 0.53926
#
# Static dielectric constant tensor:
#      x y z
#    x 1.773490 0.000000 0.000000 
#    y 0.000000 1.798030 0.000000 
#    z 0.000000 0.000000 1.778900 
# 
# From -- ./inp_files/20535.got.cif
#   From: 2010.05.17/outbox.cif.g08.bks.cpg/sg53_11_cif.got.tgz:20535.got - 2010.06.03 12:45:16.
