data_PCOD9416142
_publ_section_title
;
Structure prediction by ZEFSAII (Michael W. Deem and Ramdas Pophale) SiO2 
 PCOD9416142
Probable space group: P M N A
;
_chemical_formula_sum "Si O2"
_cell_formula_units_Z 32
_cell_length_a 17.944309
_cell_length_b 4.992032
_cell_length_c 19.077574
_cell_angle_alpha 90.000000
_cell_angle_beta 90.000000
_cell_angle_gamma 90.000000
_cell_volume 1708.941698
_symmetry_space_group_name_H-M "P M N A"
_symmetry_group_IT_number 53
_symmetry_cell_setting 'orthorhombic'
loop_
_space_group_symop_operation_xyz
x,y,z
1/2-x,-y,1/2+z
x,-y,-z
1/2-x,y,1/2-z
-x,-y,-z
1/2+x,y,1/2-z
-x,y,z
1/2+x,-y,1/2+z
loop_
_atom_site_type_symbol
_atom_site_label
_atom_site_fract_x
_atom_site_fract_y
_atom_site_fract_z
Si Si1 0.266121 0.048963 0.077849
Si Si2 0.162984 0.450782 0.921990
Si Si3 0.832179 0.131773 0.719455
Si Si4 0.587605 0.621759 0.718967
O O1 0.320393 0.969897 0.140512
O O2 0.195103 0.848260 0.082635
O O3 0.233900 0.348015 0.084837
O O4 0.297515 0.000000 0.000000
O O5 0.108418 0.519307 0.858821
O O6 0.131814 0.500000 0.000000
O O7 0.750000 0.194127 0.750000
O O8 0.868021 0.892191 0.764069
O O9 0.882204 0.393150 0.728746
O O10 0.500000 0.663541 0.725971
#
# Coordination Sequence:
#
# PCOD9416142 Si02
#       4
#     8   8   8   8
#     4  10  20  34  58  86 109 139 190 240 277 321
#     4  10  19  34  54  83 116 148 181 221 279 342
#     4  12  21  38  63  82 111 153 194 235 275 328
#     4  12  24  37  56  87 120 151 185 232 285 335
#
# _framework density 18.725038999999999
#
# number of rings (size 3 to 8) (size 9 to 14) (size 15 to 20)
#    0.000    1.000    5.000    3.000    0.000    0.500 
#    0.000    0.000    0.000   12.000    0.000    0.000 
#    0.000    0.000    0.000    0.000    0.000    0.000 
#
# Total GULP energy -178864.733251 kJ/mol
# GULP energy per Si atom -5589.522914 kJ/mol
# Density = 1.868242 g / cm^3
# Si number density = 18.725039 Si / 1000 Ang^3
#
#
#
# Elastic Constant Matrix: (Units=GPa)
#
#
# Indices 1 2 3 4 5 6 
#
# 1 51.8755 -13.2144 23.4600 0.0000 0.0000 0.0000
# 2 -13.2144 49.9223 -19.7179 0.0000 0.0000 0.0000
# 3 23.4600 -19.7179 100.2136 0.0000 0.0000 0.0000
# 4 0.0000 0.0000 0.0000 23.7180 0.0000 0.0000
# 5 0.0000 0.0000 0.0000 0.0000 21.0598 0.0000
# 6 0.0000 0.0000 0.0000 0.0000 0.0000 5.3782
#
#
#
# Elastic Compliance Matrix: (Units=1/GPa)
#
#
# Indices 1 2 3 4 5 6 
#
# 1 0.022333 0.004171 -0.004407 0.000000 0.000000 0.000000
# 2 0.004171 0.022498 0.003450 0.000000 0.000000 0.000000
# 3 -0.004407 0.003450 0.011689 0.000000 0.000000 0.000000
# 4 0.000000 0.000000 0.000000 0.042162 0.000000 0.000000
# 5 0.000000 0.000000 0.000000 0.000000 0.047484 0.000000
# 6 0.000000 0.000000 0.000000 0.000000 0.000000 0.185938
#
#
# Mechanical properties :
#
#
# Convention : Reuss Voigt Hill
#
# Bulk Modulus (GPa) = 15.88644 20.34075 18.11359
# Shear Modulus (GPa) = 14.42342 24.13011 19.27677
#
# Velocity S-wave (km/s) = 2.77839 3.59368 3.21201
# Velocity P-wave (km/s) = 4.33533 5.30149 4.84257
#
# Compressibility (1/GPa) = 0.06294675
#
# Stress axis : x y z
#
# Youngs Moduli (GPa) = 44.77770 44.44861 85.54796
#
# Poissons Ratio (x) = -0.18538 0.37705
# Poissons Ratio (y) = -0.18675 -0.29517
# Poissons Ratio (z) = 0.19736 -0.15336
#
# Static dielectric constant tensor:
#      x y z
#    x 1.599040 0.000000 0.000000 
#    y 0.000000 1.647040 0.000000 
#    z 0.000000 0.000000 1.692060 
# 
# From -- ./inp_files/27830.got.cif
#   From: 2010.05.17/outbox.cif.g08.bks.cpg/sg53_14_cif.got.tgz:27830.got - 2010.06.03 12:45:16.
