data_PCOD9416474
_publ_section_title
;
Structure prediction by ZEFSAII (Michael W. Deem and Ramdas Pophale) SiO2 
 PCOD9416474
Probable space group: P M N A
;
_chemical_formula_sum "Si O2"
_cell_formula_units_Z 52
_cell_length_a 8.234081
_cell_length_b 21.653515
_cell_length_c 14.225627
_cell_angle_alpha 90.000000
_cell_angle_beta 90.000000
_cell_angle_gamma 90.000000
_cell_volume 2536.383722
_symmetry_space_group_name_H-M "P M N A"
_symmetry_group_IT_number 53
_symmetry_cell_setting 'orthorhombic'
loop_
_space_group_symop_operation_xyz
x,y,z
1/2-x,-y,1/2+z
x,-y,-z
1/2-x,y,1/2-z
-x,-y,-z
1/2+x,y,1/2-z
-x,y,z
1/2+x,-y,1/2+z
loop_
_atom_site_type_symbol
_atom_site_label
_atom_site_fract_x
_atom_site_fract_y
_atom_site_fract_z
Si Si1 0.694220 0.837417 0.843262
Si Si2 0.750000 0.955621 0.750000
Si Si3 0.307085 0.037824 0.595775
Si Si4 0.687881 0.518244 0.854269
Si Si5 0.190701 0.700145 0.354828
Si Si6 0.306032 0.179580 0.549070
Si Si7 0.313585 0.591920 0.480460
O O1 0.750000 0.800236 0.750000
O O2 0.500000 0.850535 0.839674
O O3 0.796368 0.901597 0.826363
O O4 0.738398 0.810785 0.943701
O O5 0.693876 0.005509 0.826883
O O6 0.500000 0.031728 0.625407
O O7 0.269726 0.109342 0.579315
O O8 0.290634 0.000000 0.500000
O O9 0.750000 0.531515 0.750000
O O10 0.500000 0.500766 0.849732
O O11 0.710443 0.574163 0.927807
O O12 0.780930 0.461038 0.902535
O O13 0.250000 0.685630 0.250000
O O14 0.231726 0.770448 0.381142
O O15 0.273632 0.656216 0.431471
O O16 0.000000 0.689506 0.359457
O O17 0.500000 0.186521 0.547516
O O18 0.500000 0.589583 0.509311
#
# Coordination Sequence:
#
# PCOD9416474 Si02
#       7
#     8   4   8   8   8   8   8
#     4  10  20  36  59  84 113 148 190 240 298 366
#     4  10  20  32  58  86 112 146 192 242 302 372
#     4  10  19  36  57  82 114 151 188 241 306 368
#     4  11  21  37  63 100 139 176 214 259 309 357
#     4  12  26  46  66  89 122 163 210 253 303 363
#     4  11  23  40  62  86 118 156 199 249 305 364
#     4  11  22  40  65  96 131 172 216 260 310 361
#
# _framework density 20.501629999999999
#
# number of rings (size 3 to 8) (size 9 to 14) (size 15 to 20)
#    0.462    0.769    1.538    6.923    1.077    0.000 
#    0.000    3.846    0.000    0.000    0.000    0.000 
#    0.000    0.000    0.000    0.000    0.000    0.000 
#
# Total GULP energy -289716.394681 kJ/mol
# GULP energy per Si atom -5571.469128 kJ/mol
# Density = 2.045497 g / cm^3
# Si number density = 20.501630 Si / 1000 Ang^3
#
#
#
# Elastic Constant Matrix: (Units=GPa)
#
#
# Indices 1 2 3 4 5 6 
#
# 1 59.9113 -11.7467 -3.1166 0.0000 0.0000 0.0000
# 2 -11.7467 53.7620 5.1647 0.0000 0.0000 0.0000
# 3 -3.1166 5.1647 95.8030 0.0000 0.0000 0.0000
# 4 0.0000 0.0000 0.0000 67.4594 0.0000 0.0000
# 5 0.0000 0.0000 0.0000 0.0000 28.4753 0.0000
# 6 0.0000 0.0000 0.0000 0.0000 0.0000 110.3805
#
#
#
# Elastic Compliance Matrix: (Units=1/GPa)
#
#
# Indices 1 2 3 4 5 6 
#
# 1 0.017451 0.003778 0.000364 0.000000 0.000000 0.000000
# 2 0.003778 0.019515 -0.000929 0.000000 0.000000 0.000000
# 3 0.000364 -0.000929 0.010500 0.000000 0.000000 0.000000
# 4 0.000000 0.000000 0.000000 0.014824 0.000000 0.000000
# 5 0.000000 0.000000 0.000000 0.000000 0.035118 0.000000
# 6 0.000000 0.000000 0.000000 0.000000 0.000000 0.009060
#
#
# Mechanical properties :
#
#
# Convention : Reuss Voigt Hill
#
# Bulk Modulus (GPa) = 18.55566 21.11992 19.83779
# Shear Modulus (GPa) = 42.37073 55.87471 49.12272
#
# Velocity S-wave (km/s) = 4.55103 5.22618 4.90025
# Velocity P-wave (km/s) = 6.05692 6.83675 6.45862
#
# Compressibility (1/GPa) = 0.05389192
#
# Stress axis : x y z
#
# Youngs Moduli (GPa) = 57.30327 51.24206 95.23787
#
# Poissons Ratio (x) = -0.19359 -0.03467
# Poissons Ratio (y) = -0.21649 0.08849
# Poissons Ratio (z) = -0.02086 0.04761
#
# Static dielectric constant tensor:
#      x y z
#    x 1.788250 0.000000 0.000000 
#    y 0.000000 1.728370 0.000000 
#    z 0.000000 0.000000 1.727050 
# 
# From -- ./inp_files/20407.got.cif
#   From: 2010.05.17/outbox.cif.g08.bks.cpg/sg53_11_cif.got.tgz:20407.got - 2010.06.03 12:45:16.
