data_PCOD9416199
_publ_section_title
;
Structure prediction by ZEFSAII (Michael W. Deem and Ramdas Pophale) SiO2 
 PCOD9416199
Probable space group: P M N A
;
_chemical_formula_sum "Si O2"
_cell_formula_units_Z 56
_cell_length_a 8.439030
_cell_length_b 14.977526
_cell_length_c 23.149113
_cell_angle_alpha 90.000000
_cell_angle_beta 90.000000
_cell_angle_gamma 90.000000
_cell_volume 2925.950454
_symmetry_space_group_name_H-M "P M N A"
_symmetry_group_IT_number 53
_symmetry_cell_setting 'orthorhombic'
loop_
_space_group_symop_operation_xyz
x,y,z
1/2-x,-y,1/2+z
x,-y,-z
1/2-x,y,1/2-z
-x,-y,-z
1/2+x,y,1/2-z
-x,y,z
1/2+x,-y,1/2+z
loop_
_atom_site_type_symbol
_atom_site_label
_atom_site_fract_x
_atom_site_fract_y
_atom_site_fract_z
Si Si1 0.692717 0.598334 0.980558
Si Si2 0.807729 0.622944 0.651257
Si Si3 0.812292 0.187089 0.187734
Si Si4 0.685809 0.090932 0.072533
Si Si5 0.814177 0.103183 0.946275
Si Si6 0.692001 0.714044 0.089032
Si Si7 0.309239 0.424847 0.812307
O O1 0.500000 0.595290 0.980264
O O2 0.740330 0.623124 0.916090
O O3 0.746710 0.500000 0.000000
O O4 0.739975 0.669222 0.028457
O O5 0.736129 0.708969 0.681665
O O6 0.756595 0.526674 0.675649
O O7 0.000000 0.628429 0.654725
O O8 0.750000 0.154146 0.250000
O O9 0.743148 0.136735 0.131528
O O10 0.000000 0.178480 0.186627
O O11 0.500000 0.109032 0.065508
O O12 0.719537 0.984872 0.073054
O O13 0.771101 0.122275 0.013491
O O14 0.766417 0.188558 0.908830
O O15 0.000000 0.083970 0.942163
O O16 0.500000 0.721428 0.090077
O O17 0.741367 0.644885 0.138713
O O18 0.250000 0.396369 0.750000
O O19 0.500000 0.426722 0.813849
#
# Coordination Sequence:
#
# PCOD9416199 Si02
#       7
#     8   8   8   8   8   8   8
#     4   9  15  28  53  82 110 143 188 239 287 336
#     4  10  19  34  57  85 115 153 197 240 292 350
#     4  12  25  41  60  87 122 159 200 246 297 354
#     4  11  22  41  66  91 118 153 194 238 291 353
#     4  11  22  38  62  93 124 152 186 237 298 356
#     4  10  19  34  56  83 113 150 196 242 288 346
#     4  10  21  35  53  76 109 152 200 244 285 336
#
# _framework density 19.13908
#
# number of rings (size 3 to 8) (size 9 to 14) (size 15 to 20)
#    0.000    1.571    1.429    6.000    0.000    3.429 
#    0.000    0.714    0.000    2.571    0.000    0.000 
#    0.000    0.000    0.000    0.000    0.000    0.000 
#
# Total GULP energy -312907.802025 kJ/mol
# GULP energy per Si atom -5587.639322 kJ/mol
# Density = 1.909552 g / cm^3
# Si number density = 19.139080 Si / 1000 Ang^3
#
#
#
# Elastic Constant Matrix: (Units=GPa)
#
#
# Indices 1 2 3 4 5 6 
#
# 1 33.8776 -3.9065 2.3463 0.0000 0.0000 0.0000
# 2 -3.9065 83.6978 29.9312 0.0000 0.0000 0.0000
# 3 2.3463 29.9312 96.0866 0.0000 0.0000 0.0000
# 4 0.0000 0.0000 0.0000 20.2349 0.0000 0.0000
# 5 0.0000 0.0000 0.0000 0.0000 28.4704 0.0000
# 6 0.0000 0.0000 0.0000 0.0000 0.0000 59.3318
#
#
#
# Elastic Compliance Matrix: (Units=1/GPa)
#
#
# Indices 1 2 3 4 5 6 
#
# 1 0.029823 0.001860 -0.001307 0.000000 0.000000 0.000000
# 2 0.001860 0.013561 -0.004270 0.000000 0.000000 0.000000
# 3 -0.001307 -0.004270 0.011769 0.000000 0.000000 0.000000
# 4 0.000000 0.000000 0.000000 0.049419 0.000000 0.000000
# 5 0.000000 0.000000 0.000000 0.000000 0.035124 0.000000
# 6 0.000000 0.000000 0.000000 0.000000 0.000000 0.016854
#
#
# Mechanical properties :
#
#
# Convention : Reuss Voigt Hill
#
# Bulk Modulus (GPa) = 20.95640 30.04490 25.50065
# Shear Modulus (GPa) = 27.79424 33.96016 30.87720
#
# Velocity S-wave (km/s) = 3.81494 4.21692 4.02096
# Velocity P-wave (km/s) = 5.51165 6.28030 5.90849
#
# Compressibility (1/GPa) = 0.04771813
#
# Stress axis : x y z
#
# Youngs Moduli (GPa) = 33.53120 73.73828 84.96704
#
# Poissons Ratio (x) = -0.13712 0.11109
# Poissons Ratio (y) = -0.06235 0.36280
# Poissons Ratio (z) = 0.04384 0.31485
#
# Static dielectric constant tensor:
#      x y z
#    x 1.658050 0.000000 0.000000 
#    y 0.000000 1.665950 0.000000 
#    z 0.000000 0.000000 1.672660 
# 
# From -- ./inp_files/30844.got.cif
#   From: 2010.05.17/outbox.cif.g08.bks.cpg/sg53_16_cif.got.tgz:30844.got - 2010.06.03 12:45:16.
