data_PCOD9416641
_publ_section_title
;
Structure prediction by ZEFSAII (Michael W. Deem and Ramdas Pophale) SiO2 
 PCOD9416641
Probable space group: P M N A
;
_chemical_formula_sum "Si O2"
_cell_formula_units_Z 64
_cell_length_a 8.564041
_cell_length_b 24.425252
_cell_length_c 15.909655
_cell_angle_alpha 90.000000
_cell_angle_beta 90.000000
_cell_angle_gamma 90.000000
_cell_volume 3327.963489
_symmetry_space_group_name_H-M "P M N A"
_symmetry_group_IT_number 53
_symmetry_cell_setting 'orthorhombic'
loop_
_space_group_symop_operation_xyz
x,y,z
1/2-x,-y,1/2+z
x,-y,-z
1/2-x,y,1/2-z
-x,-y,-z
1/2+x,y,1/2-z
-x,y,z
1/2+x,-y,1/2+z
loop_
_atom_site_type_symbol
_atom_site_label
_atom_site_fract_x
_atom_site_fract_y
_atom_site_fract_z
Si Si1 0.811484 0.619063 0.159861
Si Si2 0.812142 0.002385 0.400348
Si Si3 0.810996 0.309568 0.000777
Si Si4 0.688307 0.117540 0.840431
Si Si5 0.311515 0.382412 0.339910
Si Si6 0.814989 0.882297 0.840987
Si Si7 0.187249 0.813295 0.502627
Si Si8 0.309744 0.499393 0.597941
O O1 0.750000 0.637295 0.250000
O O2 0.757459 0.556833 0.140957
O O3 0.000000 0.618649 0.161073
O O4 0.762146 0.657753 0.082981
O O5 0.733804 0.055065 0.359527
O O6 0.000000 0.007936 0.391696
O O7 0.778038 0.000000 0.500000
O O8 0.762587 0.945085 0.359158
O O9 0.762314 0.343959 0.082939
O O10 0.746004 0.248646 0.002460
O O11 0.000000 0.307576 0.000921
O O12 0.750000 0.135420 0.750000
O O13 0.500000 0.118134 0.839279
O O14 0.740520 0.155241 0.918048
O O15 0.250000 0.363740 0.250000
O O16 0.500000 0.382817 0.338678
O O17 0.257436 0.444696 0.358101
O O18 0.750000 0.866016 0.750000
O O19 0.747009 0.845596 0.915930
O O20 0.000000 0.877636 0.840623
O O21 0.000000 0.814508 0.503562
O O22 0.263775 0.500000 0.500000
O O23 0.500000 0.499330 0.599138
#
# Coordination Sequence:
#
# PCOD9416641 Si02
#       8
#     8   8   8   8   8   8   8   8
#     4  10  20  35  58  85 116 151 193 239 290 350
#     4  10  19  38  64  91 127 162 194 241 297 353
#     4  10  22  40  59  82 112 153 198 242 289 351
#     4  10  22  39  62  89 120 157 195 240 295 349
#     4  10  20  35  58  85 115 148 189 234 288 347
#     4  12  25  41  64  94 125 159 200 245 297 358
#     4  11  24  44  64  85 116 158 202 251 303 349
#     4   9  15  30  57  84 111 151 191 230 282 350
#
# _framework density 19.230979000000001
#
# number of rings (size 3 to 8) (size 9 to 14) (size 15 to 20)
#    0.000    1.750    2.500    2.250    0.000    4.750 
#    0.000    3.750    0.000    0.750    0.000    0.000 
#    0.000    0.000    0.000    0.000    0.000    0.000 
#
# Total GULP energy -357638.711050 kJ/mol
# GULP energy per Si atom -5588.104860 kJ/mol
# Density = 1.918721 g / cm^3
# Si number density = 19.230979 Si / 1000 Ang^3
#
#
#
# Elastic Constant Matrix: (Units=GPa)
#
#
# Indices 1 2 3 4 5 6 
#
# 1 22.6495 33.7750 35.8367 0.0000 0.0000 0.0000
# 2 33.7750 157.5414 94.5811 0.0000 0.0000 0.0000
# 3 35.8367 94.5811 200.6027 0.0000 0.0000 0.0000
# 4 0.0000 0.0000 0.0000 -1.7153 0.0000 0.0000
# 5 0.0000 0.0000 0.0000 0.0000 29.7277 0.0000
# 6 0.0000 0.0000 0.0000 0.0000 0.0000 13.1842
#
#
#
# Elastic Compliance Matrix: (Units=1/GPa)
#
#
# Indices 1 2 3 4 5 6 
#
# 1 0.072859 -0.010888 -0.007882 0.000000 0.000000 0.000000
# 2 -0.010888 0.010481 -0.002996 0.000000 0.000000 0.000000
# 3 -0.007882 -0.002996 0.007806 0.000000 0.000000 0.000000
# 4 0.000000 0.000000 0.000000 -0.582976 0.000000 0.000000
# 5 0.000000 0.000000 0.000000 0.000000 0.033639 0.000000
# 6 0.000000 0.000000 0.000000 0.000000 0.000000 0.075848
#
#
# Mechanical properties :
#
#
# Convention : Reuss Voigt Hill
#
# Bulk Modulus (GPa) = 21.00309 78.79769 49.90039
# Shear Modulus (GPa) = -15.48278 22.67937 3.59829
#
# Velocity S-wave (km/s) = -2.84050 3.43784 1.36936
# Velocity P-wave (km/s) = 0.43276 7.53801 5.33896
#
# Compressibility (1/GPa) = 0.04761204
#
# Stress axis : x y z
#
# Youngs Moduli (GPa) = 13.72518 95.41366 128.10812
#
# Poissons Ratio (x) = 1.03884 1.00980
# Poissons Ratio (y) = 0.14944 0.38387
# Poissons Ratio (z) = 0.10819 0.28590
#
# Static dielectric constant tensor:
#      x y z
#    x 1.656830 0.000000 0.000000 
#    y 0.000000 1.649660 0.000000 
#    z 0.000000 0.000000 1.663690 
# 
# From -- ./inp_files/20995.got.cif
#   From: 2010.05.17/outbox.cif.g08.bks.cpg/sg53_11_cif.got.tgz:20995.got - 2010.06.03 12:45:16.
