data_PCOD9416795
_publ_section_title
;
Structure prediction by ZEFSAII (Michael W. Deem and Ramdas Pophale) SiO2 
 PCOD9416795
Probable space group: P M N A
;
_chemical_formula_sum "Si O2"
_cell_formula_units_Z 48
_cell_length_a 8.648797
_cell_length_b 32.162807
_cell_length_c 9.594979
_cell_angle_alpha 90.000000
_cell_angle_beta 90.000000
_cell_angle_gamma 90.000000
_cell_volume 2669.031362
_symmetry_space_group_name_H-M "P M N A"
_symmetry_group_IT_number 53
_symmetry_cell_setting 'orthorhombic'
loop_
_space_group_symop_operation_xyz
x,y,z
1/2-x,-y,1/2+z
x,-y,-z
1/2-x,y,1/2-z
-x,-y,-z
1/2+x,y,1/2-z
-x,y,z
1/2+x,-y,1/2+z
loop_
_atom_site_type_symbol
_atom_site_label
_atom_site_fract_x
_atom_site_fract_y
_atom_site_fract_z
Si Si1 0.814763 0.539323 0.406958
Si Si2 0.185820 0.886910 0.905858
Si Si3 0.685364 0.625329 0.407945
Si Si4 0.186420 0.207769 0.096047
Si Si5 0.313378 0.283578 0.593839
Si Si6 0.185513 0.960270 0.406160
O O1 0.767868 0.500000 0.500000
O O2 0.750000 0.535166 0.250000
O O3 0.754400 0.583047 0.469361
O O4 0.000000 0.540907 0.399525
O O5 0.250000 0.895097 0.750000
O O6 0.230189 0.839406 0.944479
O O7 0.000000 0.889838 0.902098
O O8 0.252205 0.919595 0.015130
O O9 0.750000 0.626229 0.250000
O O10 0.500000 0.621956 0.404840
O O11 0.728414 0.670772 0.467146
O O12 0.250000 0.215019 0.250000
O O13 0.000000 0.209043 0.099710
O O14 0.241501 0.244309 0.994958
O O15 0.250000 0.280845 0.750000
O O16 0.500000 0.282395 0.600014
O O17 0.250000 0.963634 0.250000
O O18 0.000000 0.958826 0.400175
O O19 0.231380 0.000000 0.500000
#
# Coordination Sequence:
#
# PCOD9416795 Si02
#       6
#     8   8   8   8   8   8
#     4  10  20  33  50  72  97 126 162 203 247 298
#     4  10  20  36  58  81 108 142 179 219 261 309
#     4   9  16  28  48  70  95 128 163 202 247 295
#     4   9  19  35  53  76 106 139 173 209 253 304
#     4   9  18  32  50  74 101 129 166 208 249 296
#     4  11  24  40  59  83 111 143 178 218 264 312
#
# _framework density 17.984052999999999
#
# number of rings (size 3 to 8) (size 9 to 14) (size 15 to 20)
#    0.000    2.333    0.000    3.500    0.000    6.667 
#    0.000    2.500    0.000    4.000    0.000    0.000 
#    0.000    0.000    0.000    0.000    0.000    0.000 
#
# Total GULP energy -267684.193761 kJ/mol
# GULP energy per Si atom -5576.754037 kJ/mol
# Density = 1.794312 g / cm^3
# Si number density = 17.984053 Si / 1000 Ang^3
#
#
#
# Elastic Constant Matrix: (Units=GPa)
#
#
# Indices 1 2 3 4 5 6 
#
# 1 35.7002 47.0333 29.0994 0.0000 0.0000 0.0000
# 2 47.0333 199.2645 104.8654 0.0000 0.0000 0.0000
# 3 29.0994 104.8654 91.3230 0.0000 0.0000 0.0000
# 4 0.0000 0.0000 0.0000 34.6619 0.0000 0.0000
# 5 0.0000 0.0000 0.0000 0.0000 23.4628 0.0000
# 6 0.0000 0.0000 0.0000 0.0000 0.0000 36.1304
#
#
#
# Elastic Compliance Matrix: (Units=1/GPa)
#
#
# Indices 1 2 3 4 5 6 
#
# 1 0.041536 -0.007174 -0.004997 0.000000 0.000000 0.000000
# 2 -0.007174 0.013922 -0.013700 0.000000 0.000000 0.000000
# 3 -0.004997 -0.013700 0.028274 0.000000 0.000000 0.000000
# 4 0.000000 0.000000 0.000000 0.028850 0.000000 0.000000
# 5 0.000000 0.000000 0.000000 0.000000 0.042621 0.000000
# 6 0.000000 0.000000 0.000000 0.000000 0.000000 0.027678
#
#
# Mechanical properties :
#
#
# Convention : Reuss Voigt Hill
#
# Bulk Modulus (GPa) = 31.26091 76.47600 53.86846
# Shear Modulus (GPa) = 20.38440 28.53698 24.46069
#
# Velocity S-wave (km/s) = 3.37036 3.98778 3.69200
# Velocity P-wave (km/s) = 5.70667 7.98873 6.94211
#
# Compressibility (1/GPa) = 0.03198883
#
# Stress axis : x y z
#
# Youngs Moduli (GPa) = 24.07569 71.83051 35.36786
#
# Poissons Ratio (x) = 0.51531 0.17674
# Poissons Ratio (y) = 0.17272 0.48455
# Poissons Ratio (z) = 0.12031 0.98409
#
# Static dielectric constant tensor:
#      x y z
#    x 1.604940 0.000000 0.000000 
#    y 0.000000 1.662210 0.000000 
#    z 0.000000 0.000000 1.578600 
# 
# From -- ./inp_files/6726.got.cif
#   From: 2010.05.17/outbox.cif.g08.bks.cpg/sg53_4_cif.got.tgz:6726.got - 2010.06.03 12:45:16.
