data_PCOD9416666
_publ_section_title
;
Structure prediction by ZEFSAII (Michael W. Deem and Ramdas Pophale) SiO2 
 PCOD9416666
Probable space group: P M N A
;
_chemical_formula_sum "Si O2"
_cell_formula_units_Z 44
_cell_length_a 14.399285
_cell_length_b 8.223705
_cell_length_c 18.247859
_cell_angle_alpha 90.000000
_cell_angle_beta 90.000000
_cell_angle_gamma 90.000000
_cell_volume 2160.828837
_symmetry_space_group_name_H-M "P M N A"
_symmetry_group_IT_number 53
_symmetry_cell_setting 'orthorhombic'
loop_
_space_group_symop_operation_xyz
x,y,z
1/2-x,-y,1/2+z
x,-y,-z
1/2-x,y,1/2-z
-x,-y,-z
1/2+x,y,1/2-z
-x,y,z
1/2+x,-y,1/2+z
loop_
_atom_site_type_symbol
_atom_site_label
_atom_site_fract_x
_atom_site_fract_y
_atom_site_fract_z
Si Si1 0.500000 0.881720 0.860003
Si Si2 0.103980 0.359513 0.939955
Si Si3 0.660595 0.057806 0.792357
Si Si4 0.142739 0.604132 0.228154
Si Si5 0.000000 0.523250 0.661424
Si Si6 0.794176 0.833635 0.456484
Si Si7 0.500000 0.778343 0.049390
O O1 0.500000 0.693609 0.881270
O O2 0.589125 0.918324 0.810887
O O3 0.500000 0.033537 0.918196
O O4 0.121464 0.423447 0.856994
O O5 0.197084 0.260765 0.961310
O O6 0.000000 0.279651 0.939849
O O7 0.099388 0.500000 0.000000
O O8 0.750000 0.996720 0.750000
O O9 0.617663 0.207119 0.746433
O O10 0.691243 0.133905 0.870065
O O11 0.250000 0.590544 0.250000
O O12 0.086451 0.492442 0.283724
O O13 0.000000 0.364647 0.609972
O O14 0.894766 0.762557 0.483015
O O15 0.783422 0.000000 0.500000
#
# Coordination Sequence:
#
# PCOD9416666 Si02
#       7
#     4   8   8   8   4   8   4
#     4  10  22  35  61 104 131 155 223 290 337 412
#     4  11  24  43  66  97 145 187 233 294 353 428
#     4  10  19  40  66  90 124 175 225 280 341 409
#     4  11  19  40  72  91 123 188 235 278 348 417
#     4  12  20  37  68  98 132 174 224 285 355 408
#     4  11  22  42  67  95 132 183 230 284 355 418
#     4  10  21  46  67  93 144 182 223 289 360 431
#
# _framework density 20.362556000000001
#
# number of rings (size 3 to 8) (size 9 to 14) (size 15 to 20)
#    0.000    1.273    8.182    0.273    0.000    1.091 
#   16.364    0.455    0.000    0.000    0.000    0.000 
#    0.000    0.000    0.000    0.000    0.000    0.000 
#
# Total GULP energy -245276.364467 kJ/mol
# GULP energy per Si atom -5574.462829 kJ/mol
# Density = 2.031621 g / cm^3
# Si number density = 20.362556 Si / 1000 Ang^3
#
#
#
# Elastic Constant Matrix: (Units=GPa)
#
#
# Indices 1 2 3 4 5 6 
#
# 1 203.5475 51.6756 36.6114 0.0000 0.0000 0.0000
# 2 51.6756 81.7523 41.8146 0.0000 0.0000 0.0000
# 3 36.6114 41.8146 106.3824 0.0000 0.0000 0.0000
# 4 0.0000 0.0000 0.0000 20.0299 0.0000 0.0000
# 5 0.0000 0.0000 0.0000 0.0000 48.7750 0.0000
# 6 0.0000 0.0000 0.0000 0.0000 0.0000 105.6467
#
#
#
# Elastic Compliance Matrix: (Units=1/GPa)
#
#
# Indices 1 2 3 4 5 6 
#
# 1 0.005894 -0.003365 -0.000706 0.000000 0.000000 0.000000
# 2 -0.003365 0.017231 -0.005615 0.000000 0.000000 0.000000
# 3 -0.000706 -0.005615 0.011850 0.000000 0.000000 0.000000
# 4 0.000000 0.000000 0.000000 0.049925 0.000000 0.000000
# 5 0.000000 0.000000 0.000000 0.000000 0.020502 0.000000
# 6 0.000000 0.000000 0.000000 0.000000 0.000000 0.009466
#
#
# Mechanical properties :
#
#
# Convention : Reuss Voigt Hill
#
# Bulk Modulus (GPa) = 64.08576 72.43170 68.25873
# Shear Modulus (GPa) = 35.85781 52.32902 44.09342
#
# Velocity S-wave (km/s) = 4.20094 5.07488 4.65845
# Velocity P-wave (km/s) = 7.42100 8.36585 7.90755
#
# Compressibility (1/GPa) = 0.01560409
#
# Stress axis : x y z
#
# Youngs Moduli (GPa) = 169.66402 58.03625 84.38859
#
# Poissons Ratio (x) = 0.19526 0.05958
# Poissons Ratio (y) = 0.57084 0.47382
# Poissons Ratio (z) = 0.11978 0.32586
#
# Static dielectric constant tensor:
#      x y z
#    x 1.806720 0.000000 0.000000 
#    y 0.000000 1.716970 0.000000 
#    z 0.000000 0.000000 1.772690 
# 
# From -- ./inp_files/28193.got.cif
#   From: 2010.05.17/outbox.cif.g08.bks.cpg/sg53_15_cif.got.tgz:28193.got - 2010.06.03 12:45:16.
