data_PCOD9416715
_publ_section_title
;
Structure prediction by ZEFSAII (Michael W. Deem and Ramdas Pophale) SiO2 
 PCOD9416715
Probable space group: P M N A
;
_chemical_formula_sum "Si O2"
_cell_formula_units_Z 40
_cell_length_a 8.693549
_cell_length_b 27.242794
_cell_length_c 9.148343
_cell_angle_alpha 90.000000
_cell_angle_beta 90.000000
_cell_angle_gamma 90.000000
_cell_volume 2166.662127
_symmetry_space_group_name_H-M "P M N A"
_symmetry_group_IT_number 53
_symmetry_cell_setting 'orthorhombic'
loop_
_space_group_symop_operation_xyz
x,y,z
1/2-x,-y,1/2+z
x,-y,-z
1/2-x,y,1/2-z
-x,-y,-z
1/2+x,y,1/2-z
-x,y,z
1/2+x,-y,1/2+z
loop_
_atom_site_type_symbol
_atom_site_label
_atom_site_fract_x
_atom_site_fract_y
_atom_site_fract_z
Si Si1 0.684224 0.649325 0.084415
Si Si2 0.683593 0.857740 0.414772
Si Si3 0.815784 0.451053 0.913704
Si Si4 0.684373 0.049730 0.087568
Si Si5 0.815349 0.756535 0.415561
O O1 0.750000 0.650209 0.250000
O O2 0.500000 0.645401 0.091156
O O3 0.752550 0.599658 0.017493
O O4 0.722939 0.702910 0.018517
O O5 0.750000 0.861882 0.250000
O O6 0.500000 0.857262 0.407711
O O7 0.743620 0.903520 0.506781
O O8 0.743283 0.805918 0.480179
O O9 0.750000 0.454551 0.750000
O O10 0.000000 0.448156 0.907385
O O11 0.770834 0.500000 0.000000
O O12 0.750000 0.046133 0.250000
O O13 0.500000 0.054885 0.091236
O O14 0.722080 0.000000 0.000000
O O15 0.750000 0.755191 0.250000
O O16 0.000000 0.761226 0.410413
#
# Coordination Sequence:
#
# PCOD9416715 Si02
#       5
#     8   8   8   8   8
#     4   9  16  26  44  69  97 130 166 209 256 302
#     4  11  21  34  55  82 112 144 177 216 262 310
#     4  10  20  32  48  71  98 130 168 210 256 308
#     4  11  24  41  61  84 111 143 179 219 262 310
#     4   9  16  27  45  72 103 133 169 211 256 306
#
# _framework density 18.461576999999998
#
# number of rings (size 3 to 8) (size 9 to 14) (size 15 to 20)
#    0.000    2.000    0.000    7.200    0.000    7.200 
#    0.000    0.000    0.000    1.200    0.000    2.800 
#    0.000    0.000    0.000    0.000    0.000    0.000 
#
# Total GULP energy -223104.843018 kJ/mol
# GULP energy per Si atom -5577.621075 kJ/mol
# Density = 1.841956 g / cm^3
# Si number density = 18.461577 Si / 1000 Ang^3
#
#
#
# Elastic Constant Matrix: (Units=GPa)
#
#
# Indices 1 2 3 4 5 6 
#
# 1 99.8671 88.3786 30.3111 0.0000 0.0000 0.0000
# 2 88.3786 240.4096 62.1087 0.0000 0.0000 0.0000
# 3 30.3111 62.1087 51.7606 0.0000 0.0000 0.0000
# 4 0.0000 0.0000 0.0000 27.2879 0.0000 0.0000
# 5 0.0000 0.0000 0.0000 0.0000 18.9723 0.0000
# 6 0.0000 0.0000 0.0000 0.0000 0.0000 42.9383
#
#
#
# Elastic Compliance Matrix: (Units=1/GPa)
#
#
# Indices 1 2 3 4 5 6 
#
# 1 0.015195 -0.004764 -0.003182 0.000000 0.000000 0.000000
# 2 -0.004764 0.007522 -0.006236 0.000000 0.000000 0.000000
# 3 -0.003182 -0.006236 0.028666 0.000000 0.000000 0.000000
# 4 0.000000 0.000000 0.000000 0.036646 0.000000 0.000000
# 5 0.000000 0.000000 0.000000 0.000000 0.052709 0.000000
# 6 0.000000 0.000000 0.000000 0.000000 0.000000 0.023289
#
#
# Mechanical properties :
#
#
# Convention : Reuss Voigt Hill
#
# Bulk Modulus (GPa) = 43.44226 83.73712 63.58969
# Shear Modulus (GPa) = 24.99214 31.92228 28.45721
#
# Velocity S-wave (km/s) = 3.68331 4.16278 3.93036
# Velocity P-wave (km/s) = 6.45533 8.28015 7.42402
#
# Compressibility (1/GPa) = 0.02301906
#
# Stress axis : x y z
#
# Youngs Moduli (GPa) = 65.81148 132.94561 34.88498
#
# Poissons Ratio (x) = 0.63334 0.11100
# Poissons Ratio (y) = 0.31352 0.21754
# Poissons Ratio (z) = 0.20940 0.82904
#
# Static dielectric constant tensor:
#      x y z
#    x 1.614120 0.000000 0.000000 
#    y 0.000000 1.704210 0.000000 
#    z 0.000000 0.000000 1.599170 
# 
# From -- ./inp_files/6499.got.cif
#   From: 2010.05.17/outbox.cif.g08.bks.cpg/sg53_4_cif.got.tgz:6499.got - 2010.06.03 12:45:16.
