data_PCOD9416630
_publ_section_title
;
Structure prediction by ZEFSAII (Michael W. Deem and Ramdas Pophale) SiO2 
 PCOD9416630
Probable space group: P M N A
;
_chemical_formula_sum "Si O2"
_cell_formula_units_Z 64
_cell_length_a 7.860470
_cell_length_b 20.769724
_cell_length_c 19.250118
_cell_angle_alpha 90.000000
_cell_angle_beta 90.000000
_cell_angle_gamma 90.000000
_cell_volume 3142.770269
_symmetry_space_group_name_H-M "P M N A"
_symmetry_group_IT_number 53
_symmetry_cell_setting 'orthorhombic'
loop_
_space_group_symop_operation_xyz
x,y,z
1/2-x,-y,1/2+z
x,-y,-z
1/2-x,y,1/2-z
-x,-y,-z
1/2+x,y,1/2-z
-x,y,z
1/2+x,-y,1/2+z
loop_
_atom_site_type_symbol
_atom_site_label
_atom_site_fract_x
_atom_site_fract_y
_atom_site_fract_z
Si Si1 0.197505 0.783904 0.426698
Si Si2 0.194901 0.839233 0.929528
Si Si3 0.205539 0.102878 0.669509
Si Si4 0.291390 0.638102 0.063982
Si Si5 0.292087 0.402683 0.089021
Si Si6 0.204802 0.530235 0.330834
Si Si7 0.203318 0.725759 0.669583
Si Si8 0.294704 0.016700 0.078090
O O1 0.203269 0.816907 0.502358
O O2 0.271976 0.834362 0.371610
O O3 0.270152 0.711825 0.431114
O O4 0.000000 0.775239 0.407317
O O5 0.222655 0.787487 0.869310
O O6 0.242185 0.910690 0.905594
O O7 0.000000 0.838882 0.951542
O O8 0.250000 0.103784 0.750000
O O9 0.000000 0.103047 0.663066
O O10 0.266572 0.038015 0.631019
O O11 0.500000 0.639335 0.062581
O O12 0.236843 0.593873 0.128221
O O13 0.239219 0.606030 0.990886
O O14 0.500000 0.404096 0.089261
O O15 0.233133 0.467057 0.127724
O O16 0.238333 0.339395 0.131414
O O17 0.250000 0.528832 0.250000
O O18 0.000000 0.529472 0.335148
O O19 0.250000 0.724118 0.750000
O O20 0.000000 0.728954 0.662384
O O21 0.500000 0.014951 0.077658
O O22 0.236220 0.000000 0.000000
#
# Coordination Sequence:
#
# PCOD9416630 Si02
#       8
#     8   8   8   8   8   8   8   8
#     4  10  19  38  62  84 112 155 201 239 285 346
#     4  12  24  37  58  89 119 150 188 240 294 347
#     4  10  22  38  60  87 117 152 192 238 289 343
#     4   9  17  32  59  86 108 144 198 243 278 335
#     4   9  17  32  58  85 109 146 193 241 285 338
#     4  10  20  34  54  83 116 150 190 236 290 347
#     4  11  22  38  59  84 116 153 191 235 288 348
#     4  10  20  39  64  85 111 154 198 236 282 344
#
# _framework density 20.364198999999999
#
# number of rings (size 3 to 8) (size 9 to 14) (size 15 to 20)
#    0.000    1.875    2.500    2.250    0.000    3.750 
#    0.000    2.500    0.000    0.750    0.000    0.000 
#    0.000    0.000    0.000    0.000    0.000    0.000 
#
# Total GULP energy -357523.896223 kJ/mol
# GULP energy per Si atom -5586.310878 kJ/mol
# Density = 2.031785 g / cm^3
# Si number density = 20.364199 Si / 1000 Ang^3
#
#
#
# Elastic Constant Matrix: (Units=GPa)
#
#
# Indices 1 2 3 4 5 6 
#
# 1 21.3417 6.3081 0.2968 0.0000 0.0000 0.0000
# 2 6.3081 185.7911 105.8299 0.0000 0.0000 0.0000
# 3 0.2968 105.8299 145.2708 0.0000 0.0000 0.0000
# 4 0.0000 0.0000 0.0000 36.6311 0.0000 0.0000
# 5 0.0000 0.0000 0.0000 0.0000 25.2864 0.0000
# 6 0.0000 0.0000 0.0000 0.0000 0.0000 -11.3920
#
#
#
# Elastic Compliance Matrix: (Units=1/GPa)
#
#
# Indices 1 2 3 4 5 6 
#
# 1 0.047620 -0.002669 0.001847 0.000000 0.000000 0.000000
# 2 -0.002669 0.009350 -0.006806 0.000000 0.000000 0.000000
# 3 0.001847 -0.006806 0.011838 0.000000 0.000000 0.000000
# 4 0.000000 0.000000 0.000000 0.027299 0.000000 0.000000
# 5 0.000000 0.000000 0.000000 0.000000 0.039547 0.000000
# 6 0.000000 0.000000 0.000000 0.000000 0.000000 -0.087781
#
#
# Mechanical properties :
#
#
# Convention : Reuss Voigt Hill
#
# Bulk Modulus (GPa) = 18.67346 64.14147 41.40746
# Shear Modulus (GPa) = 61.74434 26.10302 43.92368
#
# Velocity S-wave (km/s) = 5.51234 3.58412 4.64929
# Velocity P-wave (km/s) = 7.05012 6.97807 7.01419
#
# Compressibility (1/GPa) = 0.05355195
#
# Stress axis : x y z
#
# Youngs Moduli (GPa) = 20.99971 106.95497 84.47388
#
# Poissons Ratio (x) = 0.28545 -0.15602
# Poissons Ratio (y) = 0.05605 0.57492
# Poissons Ratio (z) = -0.03879 0.72792
#
# Static dielectric constant tensor:
#      x y z
#    x 1.752680 0.000000 0.000000 
#    y 0.000000 1.717460 0.000000 
#    z 0.000000 0.000000 1.666860 
# 
# From -- ./inp_files/26836.got.cif
#   From: 2010.05.17/outbox.cif.g08.bks.cpg/sg53_14_cif.got.tgz:26836.got - 2010.06.03 12:45:16.
