data_PCOD9416182
_publ_section_title
;
Structure prediction by ZEFSAII (Michael W. Deem and Ramdas Pophale) SiO2 
 PCOD9416182
Probable space group: P M N A
;
_chemical_formula_sum "Si O2"
_cell_formula_units_Z 64
_cell_length_a 17.675221
_cell_length_b 9.005125
_cell_length_c 22.476433
_cell_angle_alpha 90.000000
_cell_angle_beta 90.000000
_cell_angle_gamma 90.000000
_cell_volume 3577.519324
_symmetry_space_group_name_H-M "P M N A"
_symmetry_group_IT_number 53
_symmetry_cell_setting 'orthorhombic'
loop_
_space_group_symop_operation_xyz
x,y,z
1/2-x,-y,1/2+z
x,-y,-z
1/2-x,y,1/2-z
-x,-y,-z
1/2+x,y,1/2-z
-x,y,z
1/2+x,-y,1/2+z
loop_
_atom_site_type_symbol
_atom_site_label
_atom_site_fract_x
_atom_site_fract_y
_atom_site_fract_z
Si Si1 0.410322 0.661084 0.302185
Si Si2 0.757958 0.324301 0.490448
Si Si3 0.293764 0.169758 0.372962
Si Si4 0.822754 0.153402 0.708649
Si Si5 0.794761 0.180821 0.889571
Si Si6 0.375023 0.846618 0.830479
Si Si7 0.414433 0.688954 0.712523
Si Si8 0.914877 0.839417 0.531721
O O1 0.500000 0.692198 0.305324
O O2 0.371910 0.726510 0.242885
O O3 0.363462 0.739257 0.355221
O O4 0.399636 0.484233 0.299827
O O5 0.757541 0.500000 0.500000
O O6 0.714452 0.272590 0.430914
O O7 0.717786 0.245521 0.545732
O O8 0.844305 0.263567 0.486217
O O9 0.213486 0.185485 0.340197
O O10 0.357732 0.216926 0.327316
O O11 0.303621 0.997323 0.390593
O O12 0.750000 0.111476 0.750000
O O13 0.782239 0.207574 0.648589
O O14 0.874947 0.011730 0.696650
O O15 0.406301 0.732865 0.781908
O O16 0.410577 0.849938 0.896260
O O17 0.500000 0.722055 0.694461
O O18 0.000000 0.788580 0.515429
O O19 0.903479 0.000000 0.500000
#
# Coordination Sequence:
#
# PCOD9416182 Si02
#       8
#     8   8   8   8   8   8   8   8
#     4  10  22  36  52  80 116 146 176 225 283 334
#     4  11  22  37  59  83 109 143 182 228 281 334
#     4  10  21  37  59  81 106 142 186 232 273 328
#     4   9  18  32  53  78 104 138 180 224 267 318
#     4  10  20  38  59  80 106 142 188 229 271 330
#     4  10  19  34  56  80 107 144 189 228 272 328
#     4  11  22  35  52  80 115 145 178 226 283 336
#     4  10  21  37  56  81 115 153 192 234 275 320
#
# _framework density 17.889491
#
# number of rings (size 3 to 8) (size 9 to 14) (size 15 to 20)
#    0.000    1.875    0.000    6.375    0.000    7.750 
#    0.000    1.250    0.000    3.750    0.000    0.000 
#    0.000    0.000    0.000    0.000    0.000    0.000 
#
# Total GULP energy -357178.772610 kJ/mol
# GULP energy per Si atom -5580.918322 kJ/mol
# Density = 1.784877 g / cm^3
# Si number density = 17.889491 Si / 1000 Ang^3
#
#
#
# Elastic Constant Matrix: (Units=GPa)
#
#
# Indices 1 2 3 4 5 6 
#
# 1 75.5023 63.6562 33.8335 0.0000 0.0000 0.0000
# 2 63.6562 83.9321 49.1079 0.0000 0.0000 0.0000
# 3 33.8335 49.1079 93.5754 0.0000 0.0000 0.0000
# 4 0.0000 0.0000 0.0000 23.4453 0.0000 0.0000
# 5 0.0000 0.0000 0.0000 0.0000 6.1777 0.0000
# 6 0.0000 0.0000 0.0000 0.0000 0.0000 23.2921
#
#
#
# Elastic Compliance Matrix: (Units=1/GPa)
#
#
# Indices 1 2 3 4 5 6 
#
# 1 0.036976 -0.029182 0.001945 0.000000 0.000000 0.000000
# 2 -0.029182 0.040224 -0.010558 0.000000 0.000000 0.000000
# 3 0.001945 -0.010558 0.015524 0.000000 0.000000 0.000000
# 4 0.000000 0.000000 0.000000 0.042652 0.000000 0.000000
# 5 0.000000 0.000000 0.000000 0.000000 0.161871 0.000000
# 6 0.000000 0.000000 0.000000 0.000000 0.000000 0.042933
#
#
# Mechanical properties :
#
#
# Convention : Reuss Voigt Hill
#
# Bulk Modulus (GPa) = 58.36108 60.68944 59.52526
# Shear Modulus (GPa) = 11.86287 17.67717 14.77002
#
# Velocity S-wave (km/s) = 2.57790 3.14687 2.87649
# Velocity P-wave (km/s) = 6.44630 6.87037 6.66171
#
# Compressibility (1/GPa) = 0.01713471
#
# Stress axis : x y z
#
# Youngs Moduli (GPa) = 27.04442 24.86065 64.41538
#
# Poissons Ratio (x) = 0.72548 -0.12530
# Poissons Ratio (y) = 0.78920 0.68012
# Poissons Ratio (z) = -0.05261 0.26249
#
# Static dielectric constant tensor:
#      x y z
#    x 1.601210 0.000000 0.000000 
#    y 0.000000 1.601380 0.000000 
#    z 0.000000 0.000000 1.626590 
# 
# From -- ./inp_files/32826.got.cif
#   From: 2010.05.17/outbox.cif.g08.bks.cpg/sg53_17_cif.got.tgz:32826.got - 2010.06.03 12:45:16.
