data_PCOD9416334
_publ_section_title
;
Structure prediction by ZEFSAII (Michael W. Deem and Ramdas Pophale) SiO2 
 PCOD9416334
Probable space group: P M N A
;
_chemical_formula_sum "Si O2"
_cell_formula_units_Z 64
_cell_length_a 8.475784
_cell_length_b 17.037369
_cell_length_c 23.920724
_cell_angle_alpha 90.000000
_cell_angle_beta 90.000000
_cell_angle_gamma 90.000000
_cell_volume 3454.273574
_symmetry_space_group_name_H-M "P M N A"
_symmetry_group_IT_number 53
_symmetry_cell_setting 'orthorhombic'
loop_
_space_group_symop_operation_xyz
x,y,z
1/2-x,-y,1/2+z
x,-y,-z
1/2-x,y,1/2-z
-x,-y,-z
1/2+x,y,1/2-z
-x,y,z
1/2+x,-y,1/2+z
loop_
_atom_site_type_symbol
_atom_site_label
_atom_site_fract_x
_atom_site_fract_y
_atom_site_fract_z
Si Si1 0.307429 0.040418 0.418578
Si Si2 0.686985 0.386317 0.686179
Si Si3 0.689645 0.128529 0.312901
Si Si4 0.177248 0.588451 0.978854
Si Si5 0.307259 0.706653 0.422536
Si Si6 0.818955 0.453171 0.362571
Si Si7 0.187714 0.702007 0.811375
Si Si8 0.192166 0.124927 0.969857
O O1 0.500000 0.040991 0.418731
O O2 0.252723 0.065425 0.357511
O O3 0.259705 0.102736 0.466698
O O4 0.259952 0.952530 0.435339
O O5 0.750000 0.380824 0.750000
O O6 0.500000 0.376550 0.690178
O O7 0.746187 0.324268 0.638644
O O8 0.721503 0.471920 0.659010
O O9 0.750000 0.117378 0.250000
O O10 0.500000 0.125824 0.309292
O O11 0.726014 0.214563 0.339624
O O12 0.283621 0.577021 0.924902
O O13 0.000000 0.616428 0.962059
O O14 0.161817 0.500000 0.000000
O O15 0.235570 0.644048 0.028803
O O16 0.500000 0.706341 0.420805
O O17 0.254616 0.792928 0.442892
O O18 0.774638 0.376383 0.328258
O O19 0.000000 0.475190 0.355957
O O20 0.250000 0.718553 0.750000
O O21 0.000000 0.689294 0.813981
O O22 0.000000 0.128117 0.969876
#
# Coordination Sequence:
#
# PCOD9416334 Si02
#       8
#     8   8   8   8   8   8   8   8
#     4   8  14  26  46  77 109 132 165 211 261 305
#     4  11  22  39  57  77 102 139 182 223 266 312
#     4   9  18  31  49  74 104 138 172 210 256 311
#     4  10  19  35  55  77 104 137 172 215 260 310
#     4   9  18  32  53  77 105 138 176 215 263 312
#     4  12  24  36  52  77 106 138 174 217 264 313
#     4  10  20  34  51  72 102 138 175 215 254 305
#     4   8  14  26  48  77 106 133 165 216 263 306
#
# _framework density 18.527773
#
# number of rings (size 3 to 8) (size 9 to 14) (size 15 to 20)
#    0.000    2.375    1.250    3.000    1.750    0.750 
#    0.000    0.625    0.000    0.000    0.000    3.500 
#    0.000    0.000    0.000    0.000    0.000    0.000 
#
# Total GULP energy -356323.479261 kJ/mol
# GULP energy per Si atom -5567.554363 kJ/mol
# Density = 1.848560 g / cm^3
# Si number density = 18.527773 Si / 1000 Ang^3
#
#
#
# Elastic Constant Matrix: (Units=GPa)
#
#
# Indices 1 2 3 4 5 6 
#
# 1 10.2993 4.8320 7.6775 0.0000 0.0000 0.0000
# 2 4.8320 120.1136 81.6275 0.0000 0.0000 0.0000
# 3 7.6775 81.6275 121.3206 0.0000 0.0000 0.0000
# 4 0.0000 0.0000 0.0000 30.7300 0.0000 0.0000
# 5 0.0000 0.0000 0.0000 0.0000 23.6242 0.0000
# 6 0.0000 0.0000 0.0000 0.0000 0.0000 -350.0824
#
#
#
# Elastic Compliance Matrix: (Units=1/GPa)
#
#
# Indices 1 2 3 4 5 6 
#
# 1 0.101919 0.000522 -0.006801 0.000000 0.000000 0.000000
# 2 0.000522 0.015342 -0.010355 0.000000 0.000000 0.000000
# 3 -0.006801 -0.010355 0.015640 0.000000 0.000000 0.000000
# 4 0.000000 0.000000 0.000000 0.032542 0.000000 0.000000
# 5 0.000000 0.000000 0.000000 0.000000 0.042329 0.000000
# 6 0.000000 0.000000 0.000000 0.000000 0.000000 -0.002856
#
#
# Mechanical properties :
#
#
# Convention : Reuss Voigt Hill
#
# Bulk Modulus (GPa) = 10.03691 48.88972 29.46332
# Shear Modulus (GPa) = 18.42331 -48.63920 -15.10794
#
# Velocity S-wave (km/s) = 3.15677 -5.12923 -2.85866
# Velocity P-wave (km/s) = 4.32619 2.93840 2.24519
#
# Compressibility (1/GPa) = 0.09963226
#
# Stress axis : x y z
#
# Youngs Moduli (GPa) = 9.81171 65.18135 63.93734
#
# Poissons Ratio (x) = -0.03400 0.43481
# Poissons Ratio (y) = -0.00512 0.66209
# Poissons Ratio (z) = 0.06673 0.67498
#
# Static dielectric constant tensor:
#      x y z
#    x 1.665850 0.000000 0.000000 
#    y 0.000000 1.886990 0.000000 
#    z 0.000000 0.000000 1.616100 
# 
# From -- ./inp_files/34311.got.cif
#   From: 2010.05.17/outbox.cif.g08.bks.cpg/sg53_18_cif.got.tgz:34311.got - 2010.06.03 12:45:16.
