data_PCOD9416429
_publ_section_title
;
Structure prediction by ZEFSAII (Michael W. Deem and Ramdas Pophale) SiO2 
 PCOD9416429
Probable space group: P M N A
;
_chemical_formula_sum "Si O2"
_cell_formula_units_Z 48
_cell_length_a 15.105206
_cell_length_b 29.127293
_cell_length_c 5.206324
_cell_angle_alpha 90.000000
_cell_angle_beta 90.000000
_cell_angle_gamma 90.000000
_cell_volume 2290.645951
_symmetry_space_group_name_H-M "P M N A"
_symmetry_group_IT_number 53
_symmetry_cell_setting 'orthorhombic'
loop_
_space_group_symop_operation_xyz
x,y,z
1/2-x,-y,1/2+z
x,-y,-z
1/2-x,y,1/2-z
-x,-y,-z
1/2+x,y,1/2-z
-x,y,z
1/2+x,-y,1/2+z
loop_
_atom_site_type_symbol
_atom_site_label
_atom_site_fract_x
_atom_site_fract_y
_atom_site_fract_z
Si Si1 0.500000 0.242379 0.613490
Si Si2 0.250000 0.384895 0.750000
Si Si3 0.852639 0.166983 0.787384
Si Si4 0.904525 0.371699 0.083976
Si Si5 0.250000 0.030564 0.250000
Si Si6 0.103708 0.107070 0.286867
Si Si7 0.842162 0.544186 0.623891
Si Si8 0.000000 0.696193 0.607985
O O1 0.585274 0.210364 0.657000
O O2 0.500000 0.265269 0.332545
O O3 0.500000 0.280560 0.835039
O O4 0.317469 0.358126 0.569363
O O5 0.187945 0.418754 0.585937
O O6 0.750000 0.179176 0.750000
O O7 0.883772 0.140263 0.531871
O O8 0.864674 0.133506 0.031062
O O9 0.892616 0.424381 0.172001
O O10 0.918175 0.337754 0.325676
O O11 0.000000 0.368554 0.945892
O O12 0.166580 0.063108 0.314142
O O13 0.269398 0.000000 0.500000
O O14 0.000000 0.095609 0.262504
O O15 0.887210 0.500000 0.500000
O O16 0.750000 0.527232 0.750000
#
# Coordination Sequence:
#
# PCOD9416429 Si02
#       8
#     4   4   8   8   4   8   8   4
#     4  12  24  46  74 102 140 166 222 306 350 416
#     4  10  20  38  66  86 125 171 218 260 326 400
#     4  12  23  43  73 107 132 179 236 288 370 416
#     4   9  23  40  62  92 127 178 211 266 337 415
#     4  12  26  42  66 102 153 197 246 292 340 410
#     4  12  23  43  72 101 144 191 235 297 352 412
#     4  10  19  35  59  92 125 165 222 276 327 381
#     4  10  26  46  67  95 143 171 216 282 350 412
#
# _framework density 20.954788000000001
#
# number of rings (size 3 to 8) (size 9 to 14) (size 15 to 20)
#    0.500    0.667    4.167    2.000    2.333    1.667 
#    1.500    0.833    0.000    0.000    0.000    0.000 
#    0.000    0.000    0.000    0.000    0.000    0.000 
#
# Total GULP energy -268159.759511 kJ/mol
# GULP energy per Si atom -5586.661656 kJ/mol
# Density = 2.090709 g / cm^3
# Si number density = 20.954788 Si / 1000 Ang^3
#
#
#
# Elastic Constant Matrix: (Units=GPa)
#
#
# Indices 1 2 3 4 5 6 
#
# 1 116.9725 47.4229 10.0886 0.0000 0.0000 0.0000
# 2 47.4229 86.1583 14.0456 0.0000 0.0000 0.0000
# 3 10.0886 14.0456 79.3892 0.0000 0.0000 0.0000
# 4 0.0000 0.0000 0.0000 50.8338 0.0000 0.0000
# 5 0.0000 0.0000 0.0000 0.0000 21.8328 0.0000
# 6 0.0000 0.0000 0.0000 0.0000 0.0000 35.5234
#
#
#
# Elastic Compliance Matrix: (Units=1/GPa)
#
#
# Indices 1 2 3 4 5 6 
#
# 1 0.011013 -0.006007 -0.000337 0.000000 0.000000 0.000000
# 2 -0.006007 0.015228 -0.001931 0.000000 0.000000 0.000000
# 3 -0.000337 -0.001931 0.012981 0.000000 0.000000 0.000000
# 4 0.000000 0.000000 0.000000 0.019672 0.000000 0.000000
# 5 0.000000 0.000000 0.000000 0.000000 0.045803 0.000000
# 6 0.000000 0.000000 0.000000 0.000000 0.000000 0.028150
#
#
# Mechanical properties :
#
#
# Convention : Reuss Voigt Hill
#
# Bulk Modulus (GPa) = 44.10629 47.29269 45.69949
# Shear Modulus (GPa) = 31.85661 35.70222 33.77941
#
# Velocity S-wave (km/s) = 3.90327 4.13216 4.01935
# Velocity P-wave (km/s) = 6.43491 6.73678 6.58757
#
# Compressibility (1/GPa) = 0.02267250
#
# Stress axis : x y z
#
# Youngs Moduli (GPa) = 90.79819 65.66996 77.03832
#
# Poissons Ratio (x) = 0.39448 0.02595
# Poissons Ratio (y) = 0.54543 0.14874
# Poissons Ratio (z) = 0.03058 0.12679
#
# Static dielectric constant tensor:
#      x y z
#    x 1.777060 0.000000 0.000000 
#    y 0.000000 1.724420 0.000000 
#    z 0.000000 0.000000 1.803000 
# 
# From -- ./inp_files/1465.got.cif
#   From: 2010.05.17/outbox.cif.g08.bks.cpg/sg53_1_cif.got.tgz:1465.got - 2010.06.03 12:45:16.
