data_PCOD9416632
_publ_section_title
;
Structure prediction by ZEFSAII (Michael W. Deem and Ramdas Pophale) SiO2 
 PCOD9416632
Probable space group: P M N A
;
_chemical_formula_sum "Si O2"
_cell_formula_units_Z 64
_cell_length_a 14.744373
_cell_length_b 19.754738
_cell_length_c 9.819428
_cell_angle_alpha 90.000000
_cell_angle_beta 90.000000
_cell_angle_gamma 90.000000
_cell_volume 2860.116828
_symmetry_space_group_name_H-M "P M N A"
_symmetry_group_IT_number 53
_symmetry_cell_setting 'orthorhombic'
loop_
_space_group_symop_operation_xyz
x,y,z
1/2-x,-y,1/2+z
x,-y,-z
1/2-x,y,1/2-z
-x,-y,-z
1/2+x,y,1/2-z
-x,y,z
1/2+x,-y,1/2+z
loop_
_atom_site_type_symbol
_atom_site_label
_atom_site_fract_x
_atom_site_fract_y
_atom_site_fract_z
Si Si1 0.889402 0.797751 0.141431
Si Si2 0.639802 0.333789 0.275867
Si Si3 0.389172 0.086310 0.852854
Si Si4 0.654623 0.572949 0.489851
Si Si5 0.606866 0.348945 0.758257
Si Si6 0.863506 0.425087 0.466766
Si Si7 0.605953 0.066021 0.155187
Si Si8 0.154494 0.188289 0.171943
O O1 0.860724 0.858091 0.242913
O O2 0.866219 0.726642 0.214937
O O3 0.000000 0.799798 0.124267
O O4 0.846072 0.804085 0.991279
O O5 0.750000 0.329775 0.250000
O O6 0.616104 0.365631 0.421787
O O7 0.607519 0.256614 0.271079
O O8 0.603701 0.387515 0.167572
O O9 0.500000 0.090088 0.849353
O O10 0.358565 0.009650 0.818354
O O11 0.358958 0.096273 0.010801
O O12 0.608934 0.500000 0.500000
O O13 0.657571 0.597305 0.336100
O O14 0.755565 0.564913 0.549023
O O15 0.500000 0.355626 0.729452
O O16 0.621959 0.371773 0.912125
O O17 0.900004 0.500000 0.500000
O O18 0.500000 0.055514 0.129436
O O19 0.613449 0.117657 0.278957
O O20 0.250000 0.186846 0.250000
#
# Coordination Sequence:
#
# PCOD9416632 Si02
#       8
#     8   8   8   8   8   8   8   8
#     4  10  21  39  60  87 120 157 199 238 286 352
#     4   9  19  35  55  80 111 144 187 240 285 334
#     4   8  17  36  61  87 115 148 194 239 280 345
#     4  10  19  38  63  82 106 149 200 238 282 345
#     4  11  23  37  55  88 125 150 185 243 298 347
#     4  10  21  38  61  85 108 148 201 245 285 349
#     4   9  18  36  62  87 112 150 194 239 287 338
#     4  11  22  37  55  82 120 155 192 243 290 345
#
# _framework density 22.376709000000002
#
# number of rings (size 3 to 8) (size 9 to 14) (size 15 to 20)
#    0.000    2.250    1.250    2.250    1.750    3.000 
#    0.000    6.250    0.000    0.000    0.000    0.000 
#    0.000    0.000    0.000    0.000    0.000    0.000 
#
# Total GULP energy -357122.397471 kJ/mol
# GULP energy per Si atom -5580.037460 kJ/mol
# Density = 2.232578 g / cm^3
# Si number density = 22.376709 Si / 1000 Ang^3
#
#
#
# Elastic Constant Matrix: (Units=GPa)
#
#
# Indices 1 2 3 4 5 6 
#
# 1 46.0237 2.0594 -5.9131 0.0000 0.0000 0.0000
# 2 2.0594 151.0882 53.4149 0.0000 0.0000 0.0000
# 3 -5.9131 53.4149 100.1846 0.0000 0.0000 0.0000
# 4 0.0000 0.0000 0.0000 75.5362 0.0000 0.0000
# 5 0.0000 0.0000 0.0000 0.0000 -0.5358 0.0000
# 6 0.0000 0.0000 0.0000 0.0000 0.0000 -4.2138
#
#
#
# Elastic Compliance Matrix: (Units=1/GPa)
#
#
# Indices 1 2 3 4 5 6 
#
# 1 0.022001 -0.000935 0.001797 0.000000 0.000000 0.000000
# 2 -0.000935 0.008196 -0.004425 0.000000 0.000000 0.000000
# 3 0.001797 -0.004425 0.012447 0.000000 0.000000 0.000000
# 4 0.000000 0.000000 0.000000 0.013239 0.000000 0.000000
# 5 0.000000 0.000000 0.000000 0.000000 -1.866540 0.000000
# 6 0.000000 0.000000 0.000000 0.000000 0.000000 -0.237313
#
#
# Mechanical properties :
#
#
# Convention : Reuss Voigt Hill
#
# Bulk Modulus (GPa) = 28.15527 44.04655 36.10091
# Shear Modulus (GPa) = -2.46426 30.67300 14.10437
#
# Velocity S-wave (km/s) = -1.05055 3.70639 2.51333
# Velocity P-wave (km/s) = 3.33739 6.16792 4.95890
#
# Compressibility (1/GPa) = 0.03551733
#
# Stress axis : x y z
#
# Youngs Moduli (GPa) = 45.45315 122.01444 80.34166
#
# Poissons Ratio (x) = 0.11411 -0.14439
# Poissons Ratio (y) = 0.04251 0.35550
# Poissons Ratio (z) = -0.08169 0.53990
#
# Static dielectric constant tensor:
#      x y z
#    x 1.919270 0.000000 0.000000 
#    y 0.000000 1.833790 0.000000 
#    z 0.000000 0.000000 1.790290 
# 
# From -- ./inp_files/10221.got.cif
#   From: 2010.05.17/outbox.cif.g08.bks.cpg/sg53_6_cif.got.tgz:10221.got - 2010.06.03 12:45:16.
