data_PCOD9416863
_publ_section_title
;
Structure prediction by ZEFSAII (Michael W. Deem and Ramdas Pophale) SiO2 
 PCOD9416863
Probable space group: P M N A
;
_chemical_formula_sum "Si O2"
_cell_formula_units_Z 40
_cell_length_a 9.086712
_cell_length_b 9.648795
_cell_length_c 25.385986
_cell_angle_alpha 90.000000
_cell_angle_beta 90.000000
_cell_angle_gamma 90.000000
_cell_volume 2225.737172
_symmetry_space_group_name_H-M "P M N A"
_symmetry_group_IT_number 53
_symmetry_cell_setting 'orthorhombic'
loop_
_space_group_symop_operation_xyz
x,y,z
1/2-x,-y,1/2+z
x,-y,-z
1/2-x,y,1/2-z
-x,-y,-z
1/2+x,y,1/2-z
-x,y,z
1/2+x,-y,1/2+z
loop_
_atom_site_type_symbol
_atom_site_label
_atom_site_fract_x
_atom_site_fract_y
_atom_site_fract_z
Si Si1 0.326053 0.960304 0.406640
Si Si2 0.674688 0.226378 0.695272
Si Si3 0.173246 0.462260 0.630408
Si Si4 0.175126 0.283741 0.082227
Si Si5 0.827579 0.730497 0.472365
O O1 0.500000 0.943383 0.419358
O O2 0.299680 0.887928 0.350273
O O3 0.232702 0.875288 0.449273
O O4 0.292820 0.122665 0.405788
O O5 0.750000 0.187686 0.750000
O O6 0.500000 0.242264 0.701827
O O7 0.745495 0.368276 0.673460
O O8 0.245805 0.611101 0.621718
O O9 0.190083 0.379416 0.574976
O O10 0.000000 0.471945 0.641824
O O11 0.000000 0.304652 0.083833
O O12 0.236462 0.310198 0.023648
O O13 0.000000 0.739220 0.485600
#
# Coordination Sequence:
#
# PCOD9416863 Si02
#       5
#     8   8   8   8   8
#     4   9  20  36  53  76 106 139 175 214 258 312
#     4  10  20  38  61  80 100 130 170 215 263 313
#     4  10  21  36  53  77 107 139 177 217 258 307
#     4  11  21  33  51  77 110 144 176 214 261 310
#     4  10  20  33  51  76 107 143 181 217 255 306
#
# _framework density 17.971574
#
# number of rings (size 3 to 8) (size 9 to 14) (size 15 to 20)
#    0.000    2.000    0.000    3.600    0.000    9.600 
#    0.000    1.000    0.000    2.400    0.000    0.000 
#    0.000    0.000    0.000    0.000    0.000    0.000 
#
# Total GULP energy -223469.734675 kJ/mol
# GULP energy per Si atom -5586.743367 kJ/mol
# Density = 1.793067 g / cm^3
# Si number density = 17.971574 Si / 1000 Ang^3
#
#
#
# Elastic Constant Matrix: (Units=GPa)
#
#
# Indices 1 2 3 4 5 6 
#
# 1 66.6322 31.8014 21.4028 0.0000 0.0000 0.0000
# 2 31.8014 62.3109 -11.0497 0.0000 0.0000 0.0000
# 3 21.4028 -11.0497 37.4968 0.0000 0.0000 0.0000
# 4 0.0000 0.0000 0.0000 9.9355 0.0000 0.0000
# 5 0.0000 0.0000 0.0000 0.0000 29.8877 0.0000
# 6 0.0000 0.0000 0.0000 0.0000 0.0000 18.5826
#
#
#
# Elastic Compliance Matrix: (Units=1/GPa)
#
#
# Indices 1 2 3 4 5 6 
#
# 1 0.033530 -0.021637 -0.025515 0.000000 0.000000 0.000000
# 2 -0.021637 0.030896 0.021455 0.000000 0.000000 0.000000
# 3 -0.025515 0.021455 0.047555 0.000000 0.000000 0.000000
# 4 0.000000 0.000000 0.000000 0.100649 0.000000 0.000000
# 5 0.000000 0.000000 0.000000 0.000000 0.033459 0.000000
# 6 0.000000 0.000000 0.000000 0.000000 0.000000 0.053814
#
#
# Mechanical properties :
#
#
# Convention : Reuss Voigt Hill
#
# Bulk Modulus (GPa) = 16.50519 27.86097 22.18308
# Shear Modulus (GPa) = 13.45921 19.96685 16.71303
#
# Velocity S-wave (km/s) = 2.73960 3.33682 3.05285
# Velocity P-wave (km/s) = 4.38306 5.51201 4.97963
#
# Compressibility (1/GPa) = 0.06058700
#
# Stress axis : x y z
#
# Youngs Moduli (GPa) = 29.82397 32.36656 21.02828
#
# Poissons Ratio (x) = 0.70032 0.53653
# Poissons Ratio (y) = 0.64531 -0.45116
# Poissons Ratio (z) = 0.76095 -0.69442
#
# Static dielectric constant tensor:
#      x y z
#    x 1.595730 0.000000 0.000000 
#    y 0.000000 1.612400 0.000000 
#    z 0.000000 0.000000 1.597890 
# 
# From -- ./inp_files/33604.got.cif
#   From: 2010.05.17/outbox.cif.g08.bks.cpg/sg53_17_cif.got.tgz:33604.got - 2010.06.03 12:45:16.
