data_PCOD9416685
_publ_section_title
;
Structure prediction by ZEFSAII (Michael W. Deem and Ramdas Pophale) SiO2 
 PCOD9416685
Probable space group: P M N A
;
_chemical_formula_sum "Si O2"
_cell_formula_units_Z 64
_cell_length_a 25.828187
_cell_length_b 9.484543
_cell_length_c 15.725004
_cell_angle_alpha 90.000000
_cell_angle_beta 90.000000
_cell_angle_gamma 90.000000
_cell_volume 3852.131432
_symmetry_space_group_name_H-M "P M N A"
_symmetry_group_IT_number 53
_symmetry_cell_setting 'orthorhombic'
loop_
_space_group_symop_operation_xyz
x,y,z
1/2-x,-y,1/2+z
x,-y,-z
1/2-x,y,1/2-z
-x,-y,-z
1/2+x,y,1/2-z
-x,y,z
1/2+x,-y,1/2+z
loop_
_atom_site_type_symbol
_atom_site_label
_atom_site_fract_x
_atom_site_fract_y
_atom_site_fract_z
Si Si1 0.778872 0.989252 0.831728
Si Si2 0.774327 0.354677 0.547625
Si Si3 0.648163 0.778169 0.755331
Si Si4 0.941607 0.794277 0.060067
Si Si5 0.690841 0.531549 0.225092
Si Si6 0.681039 0.108878 0.065819
Si Si7 0.333714 0.737923 0.376993
Si Si8 0.941738 0.106774 0.134891
O O1 0.750000 0.056496 0.750000
O O2 0.803989 0.844738 0.798441
O O3 0.735019 0.960691 0.901120
O O4 0.823280 0.096218 0.860143
O O5 0.768576 0.500000 0.500000
O O6 0.804442 0.390854 0.634549
O O7 0.804189 0.246134 0.487848
O O8 0.716493 0.301009 0.567335
O O9 0.657689 0.612019 0.769643
O O10 0.650689 0.851531 0.848278
O O11 0.598814 0.826347 0.700377
O O12 0.890010 0.710596 0.084328
O O13 0.000000 0.735682 0.073380
O O14 0.938595 0.938935 0.115456
O O15 0.936447 0.829760 0.960151
O O16 0.750000 0.492383 0.250000
O O17 0.671223 0.645424 0.292550
O O18 0.655589 0.000000 0.000000
O O19 0.000000 0.135999 0.165150
#
# Coordination Sequence:
#
# PCOD9416685 Si02
#       8
#     8   8   8   8   8   8   8   8
#     4  10  20  31  48  76 107 136 179 224 258 312
#     4  11  22  35  50  75 117 147 180 214 270 330
#     4  11  21  35  55  76 108 144 181 222 275 321
#     4   9  19  35  54  83 110 138 183 232 274 315
#     4  10  22  36  50  76 115 153 180 214 267 336
#     4  11  22  33  52  82 107 139 183 229 264 320
#     4  11  21  33  54  77 108 152 180 220 271 320
#     4   9  19  35  58  81 108 139 180 232 279 321
#
# _framework density 16.614177999999999
#
# number of rings (size 3 to 8) (size 9 to 14) (size 15 to 20)
#    0.000    1.750    3.750    3.000    5.250    0.000 
#    0.000    0.625    0.000    2.250    0.000    2.625 
#    0.000    0.000    0.000    0.000    0.000    0.000 
#
# Total GULP energy -356741.991005 kJ/mol
# GULP energy per Si atom -5574.093609 kJ/mol
# Density = 1.657636 g / cm^3
# Si number density = 16.614178 Si / 1000 Ang^3
#
#
#
# Elastic Constant Matrix: (Units=GPa)
#
#
# Indices 1 2 3 4 5 6 
#
# 1 95.7803 19.6280 42.4990 0.0000 0.0000 0.0000
# 2 19.6280 61.2130 24.9347 0.0000 0.0000 0.0000
# 3 42.4990 24.9347 82.5105 0.0000 0.0000 0.0000
# 4 0.0000 0.0000 0.0000 18.5024 0.0000 0.0000
# 5 0.0000 0.0000 0.0000 0.0000 29.0186 0.0000
# 6 0.0000 0.0000 0.0000 0.0000 0.0000 17.4179
#
#
#
# Elastic Compliance Matrix: (Units=1/GPa)
#
#
# Indices 1 2 3 4 5 6 
#
# 1 0.013693 -0.001731 -0.006530 0.000000 0.000000 0.000000
# 2 -0.001731 0.018848 -0.004805 0.000000 0.000000 0.000000
# 3 -0.006530 -0.004805 0.016935 0.000000 0.000000 0.000000
# 4 0.000000 0.000000 0.000000 0.054047 0.000000 0.000000
# 5 0.000000 0.000000 0.000000 0.000000 0.034461 0.000000
# 6 0.000000 0.000000 0.000000 0.000000 0.000000 0.057412
#
#
# Mechanical properties :
#
#
# Convention : Reuss Voigt Hill
#
# Bulk Modulus (GPa) = 42.83387 45.95857 44.39622
# Shear Modulus (GPa) = 21.80478 23.15059 22.47768
#
# Velocity S-wave (km/s) = 3.62666 3.73691 3.68220
# Velocity P-wave (km/s) = 6.58593 6.80747 6.69761
#
# Compressibility (1/GPa) = 0.02334601
#
# Stress axis : x y z
#
# Youngs Moduli (GPa) = 73.03266 53.05471 59.04987
#
# Poissons Ratio (x) = 0.09182 0.38557
# Poissons Ratio (y) = 0.12640 0.28371
# Poissons Ratio (z) = 0.47688 0.25491
#
# Static dielectric constant tensor:
#      x y z
#    x 1.565780 0.000000 0.000000 
#    y 0.000000 1.552450 0.000000 
#    z 0.000000 0.000000 1.549990 
# 
# From -- ./inp_files/24734.got.cif
#   From: 2010.05.17/outbox.cif.g08.bks.cpg/sg53_13_cif.got.tgz:24734.got - 2010.06.03 12:45:16.
