data_PCOD9416484
_publ_section_title
;
Structure prediction by ZEFSAII (Michael W. Deem and Ramdas Pophale) SiO2 
 PCOD9416484
Probable space group: P M N A
;
_chemical_formula_sum "Si O2"
_cell_formula_units_Z 48
_cell_length_a 8.550626
_cell_length_b 10.194026
_cell_length_c 29.598549
_cell_angle_alpha 90.000000
_cell_angle_beta 90.000000
_cell_angle_gamma 90.000000
_cell_volume 2579.966514
_symmetry_space_group_name_H-M "P M N A"
_symmetry_group_IT_number 53
_symmetry_cell_setting 'orthorhombic'
loop_
_space_group_symop_operation_xyz
x,y,z
1/2-x,-y,1/2+z
x,-y,-z
1/2-x,y,1/2-z
-x,-y,-z
1/2+x,y,1/2-z
-x,y,z
1/2+x,-y,1/2+z
loop_
_atom_site_type_symbol
_atom_site_label
_atom_site_fract_x
_atom_site_fract_y
_atom_site_fract_z
Si Si1 0.190934 0.637668 0.521242
Si Si2 0.811224 0.782442 0.199920
Si Si3 0.685322 0.002920 0.627816
Si Si4 0.687166 0.290200 0.122670
Si Si5 0.312452 0.483418 0.300499
Si Si6 0.682262 0.885095 0.036925
O O1 0.240643 0.500000 0.500000
O O2 0.242329 0.663314 0.572741
O O3 0.239921 0.754831 0.488108
O O4 0.000000 0.640209 0.522044
O O5 0.750000 0.808811 0.250000
O O6 0.762514 0.633306 0.187735
O O7 0.000000 0.783524 0.200105
O O8 0.757443 0.894755 0.165714
O O9 0.500000 0.984235 0.633346
O O10 0.764641 0.860835 0.629505
O O11 0.721214 0.069932 0.579927
O O12 0.500000 0.298983 0.123200
O O13 0.752893 0.382122 0.162167
O O14 0.250000 0.454717 0.250000
O O15 0.500000 0.479435 0.299198
O O16 0.500000 0.866730 0.050486
O O17 0.685521 0.000000 0.000000
#
# Coordination Sequence:
#
# PCOD9416484 Si02
#       6
#     8   8   8   8   8   8
#     4   9  19  35  55  82 114 148 190 238 284 337
#     4   9  21  40  61  85 115 147 188 235 284 342
#     4  11  23  38  57  85 119 154 191 238 291 344
#     4  11  22  38  59  86 117 152 194 238 286 340
#     4  10  21  40  62  86 115 148 187 234 287 343
#     4  10  19  36  58  81 112 150 193 237 280 336
#
# _framework density 18.604890999999999
#
# number of rings (size 3 to 8) (size 9 to 14) (size 15 to 20)
#    0.000    2.000    1.667    1.500    2.333    3.000 
#    0.000    1.667    0.000    2.500    0.000    0.000 
#    0.000    0.000    0.000    0.000    0.000    0.000 
#
# Total GULP energy -267990.647687 kJ/mol
# GULP energy per Si atom -5583.138493 kJ/mol
# Density = 1.856255 g / cm^3
# Si number density = 18.604891 Si / 1000 Ang^3
#
#
#
# Elastic Constant Matrix: (Units=GPa)
#
#
# Indices 1 2 3 4 5 6 
#
# 1 28.2263 28.1035 25.8298 0.0000 0.0000 0.0000
# 2 28.1035 174.4501 110.5722 0.0000 0.0000 0.0000
# 3 25.8298 110.5722 136.6360 0.0000 0.0000 0.0000
# 4 0.0000 0.0000 0.0000 40.1832 0.0000 0.0000
# 5 0.0000 0.0000 0.0000 0.0000 25.5399 0.0000
# 6 0.0000 0.0000 0.0000 0.0000 0.0000 19.8711
#
#
#
# Elastic Compliance Matrix: (Units=1/GPa)
#
#
# Indices 1 2 3 4 5 6 
#
# 1 0.043989 -0.003728 -0.005299 0.000000 0.000000 0.000000
# 2 -0.003728 0.012085 -0.009075 0.000000 0.000000 0.000000
# 3 -0.005299 -0.009075 0.015664 0.000000 0.000000 0.000000
# 4 0.000000 0.000000 0.000000 0.024886 0.000000 0.000000
# 5 0.000000 0.000000 0.000000 0.000000 0.039154 0.000000
# 6 0.000000 0.000000 0.000000 0.000000 0.000000 0.050324
#
#
# Mechanical properties :
#
#
# Convention : Reuss Voigt Hill
#
# Bulk Modulus (GPa) = 28.14179 74.25816 51.19997
# Shear Modulus (GPa) = 21.35379 28.77261 25.06320
#
# Velocity S-wave (km/s) = 3.39152 3.93683 3.67431
# Velocity P-wave (km/s) = 5.52227 7.78876 6.75130
#
# Compressibility (1/GPa) = 0.03553435
#
# Stress axis : x y z
#
# Youngs Moduli (GPa) = 22.73321 82.74861 63.83972
#
# Poissons Ratio (x) = 0.30847 0.33828
# Poissons Ratio (y) = 0.08475 0.57934
# Poissons Ratio (z) = 0.12046 0.75093
#
# Static dielectric constant tensor:
#      x y z
#    x 1.648470 0.000000 0.000000 
#    y 0.000000 1.640010 0.000000 
#    z 0.000000 0.000000 1.586580 
# 
# From -- ./inp_files/37670.got.cif
#   From: 2010.05.17/outbox.cif.g08.bks.cpg/sg53_19_cif.got.tgz:37670.got - 2010.06.03 12:45:16.
