data_PCOD9416945
_publ_section_title
;
Structure prediction by ZEFSAII (Michael W. Deem and Ramdas Pophale) SiO2 
 PCOD9416945
Probable space group: P M N A
;
_chemical_formula_sum "Si O2"
_cell_formula_units_Z 52
_cell_length_a 26.976700
_cell_length_b 5.661601
_cell_length_c 14.096530
_cell_angle_alpha 90.000000
_cell_angle_beta 90.000000
_cell_angle_gamma 90.000000
_cell_volume 2152.981517
_symmetry_space_group_name_H-M "P M N A"
_symmetry_group_IT_number 53
_symmetry_cell_setting 'orthorhombic'
loop_
_space_group_symop_operation_xyz
x,y,z
1/2-x,-y,1/2+z
x,-y,-z
1/2-x,y,1/2-z
-x,-y,-z
1/2+x,y,1/2-z
-x,y,z
1/2+x,-y,1/2+z
loop_
_atom_site_type_symbol
_atom_site_label
_atom_site_fract_x
_atom_site_fract_y
_atom_site_fract_z
Si Si1 0.698413 0.901898 0.607715
Si Si2 0.094502 0.903106 0.145599
Si Si3 0.941385 0.403086 0.137861
Si Si4 0.726365 0.500000 0.500000
Si Si5 0.904889 0.861855 0.358339
Si Si6 0.704632 0.124453 0.902331
Si Si7 0.441452 0.636469 0.864729
O O1 0.693843 0.628426 0.580819
O O2 0.699102 0.000000 0.500000
O O3 0.652443 0.028155 0.654172
O O4 0.753548 0.957559 0.644962
O O5 0.084709 0.644318 0.102434
O O6 0.072645 0.880521 0.252007
O O7 0.072512 0.142117 0.099557
O O8 0.929516 0.382064 0.251227
O O9 0.000000 0.438174 0.126512
O O10 0.763961 0.652478 0.436213
O O11 0.845924 0.822835 0.350422
O O12 0.926316 0.622177 0.403463
O O13 0.915402 0.122688 0.399904
O O14 0.688701 0.000000 0.000000
O O15 0.500000 0.667441 0.875970
#
# Coordination Sequence:
#
# PCOD9416945 Si02
#       7
#     8   8   8   4   8   8   8
#     4   9  20  35  55  76 105 142 181 216 260 326
#     4  10  20  33  56  83 107 136 176 221 269 306
#     4   9  18  33  53  79 109 140 175 215 262 320
#     4   8  18  36  56  76  98 152 190 210 262 328
#     4  10  20  33  56  83 107 136 176 221 269 306
#     4   9  20  35  55  76 105 142 181 216 260 326
#     4   9  18  33  53  79 109 140 175 215 262 320
#
# _framework density 24.152552
#
# number of rings (size 3 to 8) (size 9 to 14) (size 15 to 20)
#    0.000    3.077    0.000    0.923    8.615    4.308 
#    0.000    0.000    0.000    5.538    0.000    0.000 
#    0.000    0.000    0.000    0.000    0.000    0.000 
#
# Total GULP energy -289766.713860 kJ/mol
# GULP energy per Si atom -5572.436805 kJ/mol
# Density = 2.409758 g / cm^3
# Si number density = 24.152552 Si / 1000 Ang^3
#
#
#
# Elastic Constant Matrix: (Units=GPa)
#
#
# Indices 1 2 3 4 5 6 
#
# 1 101.6262 69.1910 -4.4159 0.0000 0.0000 0.0000
# 2 69.1910 227.4639 22.6393 0.0000 0.0000 0.0000
# 3 -4.4159 22.6393 60.2770 0.0000 0.0000 0.0000
# 4 0.0000 0.0000 0.0000 20.0881 0.0000 0.0000
# 5 0.0000 0.0000 0.0000 0.0000 26.1250 0.0000
# 6 0.0000 0.0000 0.0000 0.0000 0.0000 37.7384
#
#
#
# Elastic Compliance Matrix: (Units=1/GPa)
#
#
# Indices 1 2 3 4 5 6 
#
# 1 0.012759 -0.004128 0.002485 0.000000 0.000000 0.000000
# 2 -0.004128 0.005903 -0.002519 0.000000 0.000000 0.000000
# 3 0.002485 -0.002519 0.017718 0.000000 0.000000 0.000000
# 4 0.000000 0.000000 0.000000 0.049781 0.000000 0.000000
# 5 0.000000 0.000000 0.000000 0.000000 0.038278 0.000000
# 6 0.000000 0.000000 0.000000 0.000000 0.000000 0.026498
#
#
# Mechanical properties :
#
#
# Convention : Reuss Voigt Hill
#
# Bulk Modulus (GPa) = 35.64449 62.68844 49.16647
# Shear Modulus (GPa) = 29.65364 36.92046 33.28705
#
# Velocity S-wave (km/s) = 3.50775 3.91402 3.71644
# Velocity P-wave (km/s) = 5.58532 6.81451 6.23031
#
# Compressibility (1/GPa) = 0.02805483
#
# Stress axis : x y z
#
# Youngs Moduli (GPa) = 78.37776 169.40975 56.43845
#
# Poissons Ratio (x) = 0.69939 -0.14026
# Poissons Ratio (y) = 0.32357 0.14220
# Poissons Ratio (z) = -0.19479 0.42682
#
# Static dielectric constant tensor:
#      x y z
#    x 1.877140 0.000000 0.000000 
#    y 0.000000 2.225170 0.000000 
#    z 0.000000 0.000000 1.982710 
# 
# From -- ./inp_files/33004.got.cif
#   From: 2010.05.17/outbox.cif.g08.bks.cpg/sg53_17_cif.got.tgz:33004.got - 2010.06.03 12:45:16.
