data_PCOD9416018
_publ_section_title
;
Structure prediction by ZEFSAII (Michael W. Deem and Ramdas Pophale) SiO2 
 PCOD9416018
Probable space group: P M N A
;
_chemical_formula_sum "Si O2"
_cell_formula_units_Z 64
_cell_length_a 8.648222
_cell_length_b 21.410776
_cell_length_c 19.182634
_cell_angle_alpha 90.000000
_cell_angle_beta 90.000000
_cell_angle_gamma 90.000000
_cell_volume 3551.955188
_symmetry_space_group_name_H-M "P M N A"
_symmetry_group_IT_number 53
_symmetry_cell_setting 'orthorhombic'
loop_
_space_group_symop_operation_xyz
x,y,z
1/2-x,-y,1/2+z
x,-y,-z
1/2-x,y,1/2-z
-x,-y,-z
1/2+x,y,1/2-z
-x,y,z
1/2+x,-y,1/2+z
loop_
_atom_site_type_symbol
_atom_site_label
_atom_site_fract_x
_atom_site_fract_y
_atom_site_fract_z
Si Si1 0.687455 0.117132 0.828087
Si Si2 0.684728 0.108780 0.324675
Si Si3 0.313282 0.997745 0.919933
Si Si4 0.185624 0.565568 0.035338
Si Si5 0.314316 0.310611 0.035186
Si Si6 0.812465 0.248098 0.606013
Si Si7 0.685800 0.620449 0.173680
Si Si8 0.685067 0.253902 0.324934
O O1 0.750000 0.110743 0.750000
O O2 0.500000 0.117840 0.825762
O O3 0.735362 0.058795 0.876147
O O4 0.740961 0.182824 0.861807
O O5 0.750000 0.087731 0.250000
O O6 0.500000 0.105799 0.323301
O O7 0.731596 0.181062 0.334332
O O8 0.750366 0.063903 0.383256
O O9 0.500000 0.996008 0.918786
O O10 0.262668 0.000000 0.000000
O O11 0.250851 0.575336 0.113210
O O12 0.000000 0.570015 0.037443
O O13 0.228486 0.500000 0.000000
O O14 0.253019 0.622593 0.990282
O O15 0.500000 0.311690 0.037073
O O16 0.249326 0.291713 0.109796
O O17 0.265943 0.261981 0.973858
O O18 0.765833 0.308937 0.650882
O O19 0.000000 0.246739 0.606703
O O20 0.750000 0.606316 0.250000
O O21 0.500000 0.618269 0.173724
O O22 0.750000 0.274598 0.250000
O O23 0.500000 0.257186 0.323543
#
# Coordination Sequence:
#
# PCOD9416018 Si02
#       8
#     8   8   8   8   8   8   8   8
#     4  10  20  35  52  74 104 137 176 218 267 325
#     4  10  21  37  57  78 104 139 181 230 280 335
#     4  10  22  36  53  76 103 141 184 228 278 330
#     4  10  21  38  59  83 115 154 191 228 272 324
#     4  10  20  35  59  86 113 146 180 226 277 324
#     4   8  17  32  52  79 108 140 177 218 268 325
#     4  10  19  33  55  83 114 147 187 231 278 329
#     4  10  21  37  57  83 111 143 184 231 283 337
#
# _framework density 18.018245
#
# number of rings (size 3 to 8) (size 9 to 14) (size 15 to 20)
#    0.000    2.250    0.000    3.375    1.750    4.250 
#    0.000    3.750    0.000    3.000    0.000    0.000 
#    0.000    0.000    0.000    0.000    0.000    0.000 
#
# Total GULP energy -357287.428938 kJ/mol
# GULP energy per Si atom -5582.616077 kJ/mol
# Density = 1.797723 g / cm^3
# Si number density = 18.018245 Si / 1000 Ang^3
#
#
#
# Elastic Constant Matrix: (Units=GPa)
#
#
# Indices 1 2 3 4 5 6 
#
# 1 36.1159 29.9522 46.4860 0.0000 0.0000 0.0000
# 2 29.9522 82.7412 90.3829 0.0000 0.0000 0.0000
# 3 46.4860 90.3829 203.7293 0.0000 0.0000 0.0000
# 4 0.0000 0.0000 0.0000 25.9530 0.0000 0.0000
# 5 0.0000 0.0000 0.0000 0.0000 30.9647 0.0000
# 6 0.0000 0.0000 0.0000 0.0000 0.0000 25.7482
#
#
#
# Elastic Compliance Matrix: (Units=1/GPa)
#
#
# Indices 1 2 3 4 5 6 
#
# 1 0.042611 -0.009322 -0.005587 0.000000 0.000000 0.000000
# 2 -0.009322 0.025490 -0.009181 0.000000 0.000000 0.000000
# 3 -0.005587 -0.009181 0.010256 0.000000 0.000000 0.000000
# 4 0.000000 0.000000 0.000000 0.038531 0.000000 0.000000
# 5 0.000000 0.000000 0.000000 0.000000 0.032295 0.000000
# 6 0.000000 0.000000 0.000000 0.000000 0.000000 0.038838
#
#
# Mechanical properties :
#
#
# Convention : Reuss Voigt Hill
#
# Bulk Modulus (GPa) = 33.13837 72.91429 53.02633
# Shear Modulus (GPa) = 20.30371 26.91755 23.61063
#
# Velocity S-wave (km/s) = 3.36049 3.86930 3.62384
# Velocity P-wave (km/s) = 5.78694 7.77925 6.85585
#
# Compressibility (1/GPa) = 0.03017650
#
# Stress axis : x y z
#
# Youngs Moduli (GPa) = 23.46800 39.23177 97.49923
#
# Poissons Ratio (x) = 0.36572 0.54475
# Poissons Ratio (y) = 0.21877 0.89516
# Poissons Ratio (z) = 0.13112 0.36019
#
# Static dielectric constant tensor:
#      x y z
#    x 1.611710 0.000000 0.000000 
#    y 0.000000 1.605280 0.000000 
#    z 0.000000 0.000000 1.761020 
# 
# From -- ./inp_files/26999.got.cif
#   From: 2010.05.17/outbox.cif.g08.bks.cpg/sg53_14_cif.got.tgz:26999.got - 2010.06.03 12:45:16.
