data_PCOD9416985
_publ_section_title
;
Structure prediction by ZEFSAII (Michael W. Deem and Ramdas Pophale) SiO2 
 PCOD9416985
Probable space group: P M N A
;
_chemical_formula_sum "Si O2"
_cell_formula_units_Z 64
_cell_length_a 8.643578
_cell_length_b 19.986445
_cell_length_c 21.056240
_cell_angle_alpha 90.000000
_cell_angle_beta 90.000000
_cell_angle_gamma 90.000000
_cell_volume 3637.558030
_symmetry_space_group_name_H-M "P M N A"
_symmetry_group_IT_number 53
_symmetry_cell_setting 'orthorhombic'
loop_
_space_group_symop_operation_xyz
x,y,z
1/2-x,-y,1/2+z
x,-y,-z
1/2-x,y,1/2-z
-x,-y,-z
1/2+x,y,1/2-z
-x,y,z
1/2+x,-y,1/2+z
loop_
_atom_site_type_symbol
_atom_site_label
_atom_site_fract_x
_atom_site_fract_y
_atom_site_fract_z
Si Si1 0.813694 0.673505 0.431541
Si Si2 0.314602 0.078833 0.181118
Si Si3 0.686327 0.425954 0.318893
Si Si4 0.814631 0.172003 0.070658
Si Si5 0.186347 0.673224 0.931219
Si Si6 0.186352 0.425104 0.681090
Si Si7 0.313486 0.076184 0.818619
Si Si8 0.812891 0.171839 0.567115
O O1 0.750088 0.652318 0.500130
O O2 0.764285 0.625402 0.374433
O O3 0.766784 0.750880 0.420972
O O4 0.000000 0.671922 0.434001
O O5 0.250000 0.099198 0.250000
O O6 0.500000 0.081615 0.182329
O O7 0.251850 0.125465 0.125549
O O8 0.267251 0.001207 0.170650
O O9 0.750000 0.404944 0.250000
O O10 0.500000 0.428290 0.316358
O O11 0.735249 0.375341 0.374380
O O12 0.750167 0.500389 0.331277
O O13 0.765821 0.249657 0.080097
O O14 0.000000 0.169346 0.071659
O O15 0.754227 0.151541 0.001099
O O16 0.000000 0.671995 0.933934
O O17 0.250000 0.404179 0.750000
O O18 0.000000 0.427294 0.683581
O O19 0.250000 0.097199 0.750000
O O20 0.500000 0.078298 0.816301
O O21 0.261961 0.123843 0.875824
O O22 0.000000 0.169418 0.563560
#
# Coordination Sequence:
#
# PCOD9416985 Si02
#       8
#     8   8   8   8   8   8   8   8
#     4   9  19  34  53  75 101 132 168 205 245 293
#     4  10  20  35  53  75 102 134 168 207 251 298
#     4  10  20  35  53  74  99 130 165 204 247 295
#     4  10  20  35  53  76 103 132 167 209 251 298
#     4   9  20  36  53  74 101 130 166 207 249 295
#     4  10  20  34  51  75 103 132 166 205 246 294
#     4   9  19  34  53  75 102 133 169 209 250 296
#     4   9  18  35  54  74 101 135 170 206 248 297
#
# _framework density 17.594221000000001
#
# number of rings (size 3 to 8) (size 9 to 14) (size 15 to 20)
#    0.000    2.500    0.000    2.250    0.000    5.500 
#    0.000    6.250    0.000    0.000    0.000    0.000 
#    0.000    0.000    0.000    0.000    0.000    0.000 
#
# Total GULP energy -357083.286995 kJ/mol
# GULP energy per Si atom -5579.426359 kJ/mol
# Density = 1.755418 g / cm^3
# Si number density = 17.594221 Si / 1000 Ang^3
#
#
#
# Elastic Constant Matrix: (Units=GPa)
#
#
# Indices 1 2 3 4 5 6 
#
# 1 30.5246 28.8477 42.8387 0.0000 0.0000 0.0000
# 2 28.8477 88.9786 123.0965 0.0000 0.0000 0.0000
# 3 42.8387 123.0965 211.8153 0.0000 0.0000 0.0000
# 4 0.0000 0.0000 0.0000 44.3840 0.0000 0.0000
# 5 0.0000 0.0000 0.0000 0.0000 34.0617 0.0000
# 6 0.0000 0.0000 0.0000 0.0000 0.0000 22.0950
#
#
#
# Elastic Compliance Matrix: (Units=1/GPa)
#
#
# Indices 1 2 3 4 5 6 
#
# 1 0.047698 -0.010808 -0.003366 0.000000 0.000000 0.000000
# 2 -0.010808 0.059785 -0.032558 0.000000 0.000000 0.000000
# 3 -0.003366 -0.032558 0.024323 0.000000 0.000000 0.000000
# 4 0.000000 0.000000 0.000000 0.022531 0.000000 0.000000
# 5 0.000000 0.000000 0.000000 0.000000 0.029359 0.000000
# 6 0.000000 0.000000 0.000000 0.000000 0.000000 0.045259
#
#
# Mechanical properties :
#
#
# Convention : Reuss Voigt Hill
#
# Bulk Modulus (GPa) = 26.08077 80.09826 53.08952
# Shear Modulus (GPa) = 14.91651 29.21050 22.06351
#
# Velocity S-wave (km/s) = 2.91487 4.07902 3.54506
# Velocity P-wave (km/s) = 5.11706 8.23460 6.85540
#
# Compressibility (1/GPa) = 0.03834242
#
# Stress axis : x y z
#
# Youngs Moduli (GPa) = 20.96524 16.72658 41.11326
#
# Poissons Ratio (x) = 0.18078 0.13838
# Poissons Ratio (y) = 0.22659 1.33858
# Poissons Ratio (z) = 0.07056 0.54459
#
# Static dielectric constant tensor:
#      x y z
#    x 1.597290 0.000000 0.000000 
#    y 0.000000 1.594510 0.000000 
#    z 0.000000 0.000000 1.569470 
# 
# From -- ./inp_files/31261.got.cif
#   From: 2010.05.17/outbox.cif.g08.bks.cpg/sg53_16_cif.got.tgz:31261.got - 2010.06.03 12:45:16.
