data_PCOD9416037
_publ_section_title
;
Structure prediction by ZEFSAII (Michael W. Deem and Ramdas Pophale) SiO2 
 PCOD9416037
Probable space group: P M N A
;
_chemical_formula_sum "Si O2"
_cell_formula_units_Z 64
_cell_length_a 16.273598
_cell_length_b 9.613468
_cell_length_c 19.174621
_cell_angle_alpha 90.000000
_cell_angle_beta 90.000000
_cell_angle_gamma 90.000000
_cell_volume 2999.787266
_symmetry_space_group_name_H-M "P M N A"
_symmetry_group_IT_number 53
_symmetry_cell_setting 'orthorhombic'
loop_
_space_group_symop_operation_xyz
x,y,z
1/2-x,-y,1/2+z
x,-y,-z
1/2-x,y,1/2-z
-x,-y,-z
1/2+x,y,1/2-z
-x,y,z
1/2+x,-y,1/2+z
loop_
_atom_site_type_symbol
_atom_site_label
_atom_site_fract_x
_atom_site_fract_y
_atom_site_fract_z
Si Si1 0.408169 0.705442 0.148596
Si Si2 0.316749 0.570279 0.809833
Si Si3 0.656982 0.858619 0.780104
Si Si4 0.091411 0.333014 0.881477
Si Si5 0.600729 0.025996 0.918527
Si Si6 0.407471 0.844420 0.522362
Si Si7 0.154819 0.869977 0.225839
Si Si8 0.808701 0.591072 0.928761
O O1 0.500000 0.672337 0.126769
O O2 0.363034 0.567391 0.169253
O O3 0.371704 0.813785 0.093374
O O4 0.402990 0.798380 0.217633
O O5 0.250000 0.537543 0.750000
O O6 0.372293 0.700458 0.785883
O O7 0.269599 0.611098 0.880310
O O8 0.750000 0.838663 0.750000
O O9 0.642900 0.932782 0.856570
O O10 0.623910 0.971050 0.724306
O O11 0.149391 0.229689 0.839291
O O12 0.128222 0.485942 0.890173
O O13 0.000000 0.340499 0.850582
O O14 0.084498 0.255093 0.954951
O O15 0.500000 0.016224 0.908911
O O16 0.618279 0.000000 0.000000
O O17 0.500000 0.860833 0.552375
O O18 0.347165 0.745237 0.565340
O O19 0.379673 0.000000 0.500000
O O20 0.250000 0.872851 0.250000
O O21 0.791529 0.500000 0.000000
#
# Coordination Sequence:
#
# PCOD9416037 Si02
#       8
#     8   8   8   8   8   8   8   8
#     4  10  20  35  57  83 111 145 191 244 300 359
#     4  11  23  39  56  82 120 158 198 248 300 357
#     4   9  21  38  56  81 118 156 196 244 299 364
#     4  10  19  33  56  82 109 145 187 231 282 340
#     4   9  19  38  64  91 118 153 200 256 315 375
#     4   9  19  35  55  82 115 147 184 233 287 348
#     4  10  19  34  55  80 109 145 190 236 283 344
#     4  10  21  37  58  84 114 151 194 240 295 357
#
# _framework density 21.334845999999999
#
# number of rings (size 3 to 8) (size 9 to 14) (size 15 to 20)
#    0.000    2.250    0.000    2.625    0.000    7.000 
#    0.000    5.000    0.000    4.125    0.000    0.000 
#    0.000    0.500    0.000    0.000    0.000    0.000 
#
# Total GULP energy -356305.306145 kJ/mol
# GULP energy per Si atom -5567.270409 kJ/mol
# Density = 2.128629 g / cm^3
# Si number density = 21.334846 Si / 1000 Ang^3
#
#
#
# Elastic Constant Matrix: (Units=GPa)
#
#
# Indices 1 2 3 4 5 6 
#
# 1 27.3752 26.8479 7.3808 0.0000 0.0000 0.0000
# 2 26.8479 182.0848 11.7260 0.0000 0.0000 0.0000
# 3 7.3808 11.7260 45.6981 0.0000 0.0000 0.0000
# 4 0.0000 0.0000 0.0000 23.3063 0.0000 0.0000
# 5 0.0000 0.0000 0.0000 0.0000 22.0358 0.0000
# 6 0.0000 0.0000 0.0000 0.0000 0.0000-1328.3816
#
#
#
# Elastic Compliance Matrix: (Units=1/GPa)
#
#
# Indices 1 2 3 4 5 6 
#
# 1 0.044042 -0.006137 -0.005538 0.000000 0.000000 0.000000
# 2 -0.006137 0.006439 -0.000661 0.000000 0.000000 0.000000
# 3 -0.005538 -0.000661 0.022947 0.000000 0.000000 0.000000
# 4 0.000000 0.000000 0.000000 0.042907 0.000000 0.000000
# 5 0.000000 0.000000 0.000000 0.000000 0.045381 0.000000
# 6 0.000000 0.000000 0.000000 0.000000 0.000000 -0.000753
#
#
# Mechanical properties :
#
#
# Convention : Reuss Voigt Hill
#
# Bulk Modulus (GPa) = 20.51095 38.56308 29.53701
# Shear Modulus (GPa) = 24.76626 -242.66099 -108.94737
#
# Velocity S-wave (km/s) = 3.41080 -10.67643 -7.15376
# Velocity P-wave (km/s) = 5.01459 11.57010 7.37296
#
# Compressibility (1/GPa) = 0.04875445
#
# Stress axis : x y z
#
# Youngs Moduli (GPa) = 22.70580 155.29335 43.57883
#
# Poissons Ratio (x) = 0.95306 0.24136
# Poissons Ratio (y) = 0.13935 0.02881
# Poissons Ratio (z) = 0.12576 0.10267
#
# Static dielectric constant tensor:
#      x y z
#    x 1.806750 0.000000 0.000000 
#    y 0.000000 1.861120 0.000000 
#    z 0.000000 0.000000 1.873030 
# 
# From -- ./inp_files/32820.got.cif
#   From: 2010.05.17/outbox.cif.g08.bks.cpg/sg53_17_cif.got.tgz:32820.got - 2010.06.03 12:45:16.
