data_PCOD9416875
_publ_section_title
;
Structure prediction by ZEFSAII (Michael W. Deem and Ramdas Pophale) SiO2 
 PCOD9416875
Probable space group: P M N A
;
_chemical_formula_sum "Si O2"
_cell_formula_units_Z 64
_cell_length_a 8.031691
_cell_length_b 14.555240
_cell_length_c 26.051965
_cell_angle_alpha 90.000000
_cell_angle_beta 90.000000
_cell_angle_gamma 90.000000
_cell_volume 3045.557817
_symmetry_space_group_name_H-M "P M N A"
_symmetry_group_IT_number 53
_symmetry_cell_setting 'orthorhombic'
loop_
_space_group_symop_operation_xyz
x,y,z
1/2-x,-y,1/2+z
x,-y,-z
1/2-x,y,1/2-z
-x,-y,-z
1/2+x,y,1/2-z
-x,y,z
1/2+x,-y,1/2+z
loop_
_atom_site_type_symbol
_atom_site_label
_atom_site_fract_x
_atom_site_fract_y
_atom_site_fract_z
Si Si1 0.300895 0.781635 0.807785
Si Si2 0.799340 0.208787 0.021495
Si Si3 0.306065 0.537249 0.054989
Si Si4 0.197420 0.736931 0.088303
Si Si5 0.803737 0.359061 0.102862
Si Si6 0.798567 0.987693 0.664507
Si Si7 0.802100 0.184214 0.804442
Si Si8 0.692229 0.023064 0.054063
O O1 0.250000 0.755750 0.750000
O O2 0.500000 0.783856 0.811066
O O3 0.239516 0.708576 0.850058
O O4 0.238915 0.886945 0.817792
O O5 0.739596 0.209999 0.962611
O O6 0.000000 0.192856 0.023727
O O7 0.767421 0.303887 0.050227
O O8 0.703289 0.132851 0.054044
O O9 0.500000 0.558614 0.046901
O O10 0.223439 0.629930 0.075649
O O11 0.286966 0.455846 0.096480
O O12 0.237956 0.500000 0.000000
O O13 0.266518 0.768895 0.143325
O O14 0.000000 0.754144 0.089020
O O15 0.000000 0.377400 0.104951
O O16 0.731614 0.008345 0.607113
O O17 0.000000 0.982577 0.662345
O O18 0.750746 0.077492 0.695437
O O19 0.750000 0.226570 0.750000
O O20 0.000000 0.188490 0.806655
O O21 0.500000 0.992100 0.052385
O O22 0.776155 0.000000 0.000000
#
# Coordination Sequence:
#
# PCOD9416875 Si02
#       8
#     8   8   8   8   8   8   8   8
#     4  11  23  40  61  87 122 160 206 254 299 356
#     4  10  20  34  56  85 118 154 193 238 294 356
#     4  11  23  38  62  95 125 156 195 243 300 362
#     4  10  22  41  62  89 121 158 200 245 300 362
#     4  11  22  38  62  89 121 159 196 243 300 357
#     4  10  21  37  58  86 120 159 203 249 295 348
#     4  11  24  41  63  87 118 158 204 253 298 348
#     4  10  20  33  51  80 119 160 197 239 296 354
#
# _framework density 21.014212000000001
#
# number of rings (size 3 to 8) (size 9 to 14) (size 15 to 20)
#    0.000    1.500    2.500    2.625    0.000    5.250 
#    0.000    0.625    0.000    1.500    0.000    0.000 
#    0.000    0.000    0.000    0.000    0.000    0.000 
#
# Total GULP energy -357348.917934 kJ/mol
# GULP energy per Si atom -5583.576843 kJ/mol
# Density = 2.096638 g / cm^3
# Si number density = 21.014212 Si / 1000 Ang^3
#
#
#
# Elastic Constant Matrix: (Units=GPa)
#
#
# Indices 1 2 3 4 5 6 
#
# 1 20.0364 -7.4947 6.4457 0.0000 0.0000 0.0000
# 2 -7.4947 61.2406 34.4901 0.0000 0.0000 0.0000
# 3 6.4457 34.4901 167.4251 0.0000 0.0000 0.0000
# 4 0.0000 0.0000 0.0000 19.2933 0.0000 0.0000
# 5 0.0000 0.0000 0.0000 0.0000 19.8034 0.0000
# 6 0.0000 0.0000 0.0000 0.0000 0.0000 24.5171
#
#
#
# Elastic Compliance Matrix: (Units=1/GPa)
#
#
# Indices 1 2 3 4 5 6 
#
# 1 0.054495 0.008881 -0.003928 0.000000 0.000000 0.000000
# 2 0.008881 0.019920 -0.004445 0.000000 0.000000 0.000000
# 3 -0.003928 -0.004445 0.007040 0.000000 0.000000 0.000000
# 4 0.000000 0.000000 0.000000 0.051831 0.000000 0.000000
# 5 0.000000 0.000000 0.000000 0.000000 0.050496 0.000000
# 6 0.000000 0.000000 0.000000 0.000000 0.000000 0.040788
#
#
# Mechanical properties :
#
#
# Convention : Reuss Voigt Hill
#
# Bulk Modulus (GPa) = 12.12559 35.06492 23.59526
# Shear Modulus (GPa) = 19.91687 27.07349 23.49518
#
# Velocity S-wave (km/s) = 3.08195 3.59324 3.34737
# Velocity P-wave (km/s) = 4.29502 5.82561 5.11786
#
# Compressibility (1/GPa) = 0.08247020
#
# Stress axis : x y z
#
# Youngs Moduli (GPa) = 18.35044 50.20202 142.04961
#
# Poissons Ratio (x) = -0.44585 0.55790
# Poissons Ratio (y) = -0.16297 0.63147
# Poissons Ratio (z) = 0.07207 0.22317
#
# Static dielectric constant tensor:
#      x y z
#    x 1.743750 0.000000 0.000000 
#    y 0.000000 1.781760 0.000000 
#    z 0.000000 0.000000 1.798040 
# 
# From -- ./inp_files/34252.got.cif
#   From: 2010.05.17/outbox.cif.g08.bks.cpg/sg53_18_cif.got.tgz:34252.got - 2010.06.03 12:45:16.
