data_PCOD9416625
_publ_section_title
;
Structure prediction by ZEFSAII (Michael W. Deem and Ramdas Pophale) SiO2 
 PCOD9416625
Probable space group: P M N A
;
_chemical_formula_sum "Si O2"
_cell_formula_units_Z 52
_cell_length_a 7.777542
_cell_length_b 12.430482
_cell_length_c 25.925350
_cell_angle_alpha 90.000000
_cell_angle_beta 90.000000
_cell_angle_gamma 90.000000
_cell_volume 2506.426435
_symmetry_space_group_name_H-M "P M N A"
_symmetry_group_IT_number 53
_symmetry_cell_setting 'orthorhombic'
loop_
_space_group_symop_operation_xyz
x,y,z
1/2-x,-y,1/2+z
x,-y,-z
1/2-x,y,1/2-z
-x,-y,-z
1/2+x,y,1/2-z
-x,y,z
1/2+x,-y,1/2+z
loop_
_atom_site_type_symbol
_atom_site_label
_atom_site_fract_x
_atom_site_fract_y
_atom_site_fract_z
Si Si1 0.250000 0.238435 0.250000
Si Si2 0.202916 0.605103 0.663599
Si Si3 0.708741 0.883165 0.478718
Si Si4 0.205050 0.238444 0.076390
Si Si5 0.796819 0.148755 0.640226
Si Si6 0.706437 0.631437 0.189692
Si Si7 0.199295 0.083573 0.168845
O O1 0.194741 0.324543 0.205999
O O2 0.315590 0.149019 0.208827
O O3 0.219970 0.662074 0.608299
O O4 0.262817 0.482278 0.665600
O O5 0.000000 0.610618 0.679041
O O6 0.500000 0.884221 0.478739
O O7 0.767206 0.792629 0.519613
O O8 0.766634 0.861429 0.420827
O O9 0.764343 0.000000 0.500000
O O10 0.000000 0.255079 0.073978
O O11 0.233965 0.133530 0.112536
O O12 0.726564 0.261044 0.662236
O O13 0.720129 0.043321 0.667239
O O14 0.000000 0.144914 0.650018
O O15 0.750000 0.632145 0.250000
O O16 0.500000 0.632897 0.184344
O O17 0.000000 0.110069 0.181842
#
# Coordination Sequence:
#
# PCOD9416625 Si02
#       7
#     4   8   8   8   8   8   8
#     4  10  20  34  56  84 112 144 188 236 280 338
#     4  10  20  37  60  84 111 146 189 235 283 331
#     4  10  19  38  61  82 112 152 189 228 281 340
#     4   9  19  35  58  86 113 142 183 231 279 336
#     4  11  24  38  55  84 117 149 191 234 278 338
#     4  10  23  42  60  82 113 153 195 234 276 331
#     4  10  20  35  54  80 115 150 182 227 284 337
#
# _framework density 20.746668
#
# number of rings (size 3 to 8) (size 9 to 14) (size 15 to 20)
#    0.000    2.000    2.308    0.923    1.077    6.462 
#    0.000    0.769    0.000    4.615    0.000    0.000 
#    0.000    0.000    0.000    0.000    0.000    0.000 
#
# Total GULP energy -289793.396184 kJ/mol
# GULP energy per Si atom -5572.949927 kJ/mol
# Density = 2.069945 g / cm^3
# Si number density = 20.746668 Si / 1000 Ang^3
#
#
#
# Elastic Constant Matrix: (Units=GPa)
#
#
# Indices 1 2 3 4 5 6 
#
# 1 53.2059 16.9567 -0.6058 0.0000 0.0000 0.0000
# 2 16.9567 199.1066 46.7286 0.0000 0.0000 0.0000
# 3 -0.6058 46.7286 27.5922 0.0000 0.0000 0.0000
# 4 0.0000 0.0000 0.0000 29.2973 0.0000 0.0000
# 5 0.0000 0.0000 0.0000 0.0000 11.8193 0.0000
# 6 0.0000 0.0000 0.0000 0.0000 0.0000 23.6879
#
#
#
# Elastic Compliance Matrix: (Units=1/GPa)
#
#
# Indices 1 2 3 4 5 6 
#
# 1 0.019803 -0.002968 0.005462 0.000000 0.000000 0.000000
# 2 -0.002968 0.008780 -0.014935 0.000000 0.000000 0.000000
# 3 0.005462 -0.014935 0.061656 0.000000 0.000000 0.000000
# 4 0.000000 0.000000 0.000000 0.034133 0.000000 0.000000
# 5 0.000000 0.000000 0.000000 0.000000 0.084607 0.000000
# 6 0.000000 0.000000 0.000000 0.000000 0.000000 0.042216
#
#
# Mechanical properties :
#
#
# Convention : Reuss Voigt Hill
#
# Bulk Modulus (GPa) = 15.30088 45.11819 30.20954
# Shear Modulus (GPa) = 16.78623 27.41591 22.10107
#
# Velocity S-wave (km/s) = 2.84756 3.63913 3.26741
# Velocity P-wave (km/s) = 4.26645 6.28109 5.36911
#
# Compressibility (1/GPa) = 0.06535570
#
# Stress axis : x y z
#
# Youngs Moduli (GPa) = 50.49712 113.89008 16.21913
#
# Poissons Ratio (x) = 0.33807 -0.08859
# Poissons Ratio (y) = 0.14989 0.24224
# Poissons Ratio (z) = -0.27581 1.70097
#
# Static dielectric constant tensor:
#      x y z
#    x 1.868000 0.000000 0.000000 
#    y 0.000000 1.741090 0.000000 
#    z 0.000000 0.000000 1.716450 
# 
# From -- ./inp_files/36245.got.cif
#   From: 2010.05.17/outbox.cif.g08.bks.cpg/sg53_19_cif.got.tgz:36245.got - 2010.06.03 12:45:16.
