data_PCOD9416322
_publ_section_title
;
Structure prediction by ZEFSAII (Michael W. Deem and Ramdas Pophale) SiO2 
 PCOD9416322
Probable space group: P M N A
;
_chemical_formula_sum "Si O2"
_cell_formula_units_Z 48
_cell_length_a 32.661278
_cell_length_b 15.991248
_cell_length_c 5.113551
_cell_angle_alpha 90.000000
_cell_angle_beta 90.000000
_cell_angle_gamma 90.000000
_cell_volume 2670.780056
_symmetry_space_group_name_H-M "P M N A"
_symmetry_group_IT_number 53
_symmetry_cell_setting 'orthorhombic'
loop_
_space_group_symop_operation_xyz
x,y,z
1/2-x,-y,1/2+z
x,-y,-z
1/2-x,y,1/2-z
-x,-y,-z
1/2+x,y,1/2-z
-x,y,z
1/2+x,-y,1/2+z
loop_
_atom_site_type_symbol
_atom_site_label
_atom_site_fract_x
_atom_site_fract_y
_atom_site_fract_z
Si Si1 0.500000 0.077118 0.314209
Si Si2 0.796317 0.559864 0.248815
Si Si3 0.928654 0.500000 0.500000
Si Si4 0.119764 0.352863 0.770000
Si Si5 0.500000 0.577097 0.685746
Si Si6 0.407857 0.751173 0.777550
Si Si7 0.090796 0.944107 0.735441
Si Si8 0.500000 0.250075 0.353865
O O1 0.457283 0.072200 0.166096
O O2 0.500000 0.161227 0.492559
O O3 0.500000 0.000000 0.500000
O O4 0.801824 0.500000 0.500000
O O5 0.750000 0.594531 0.250000
O O6 0.832134 0.626992 0.228666
O O7 0.799863 0.500000 0.000000
O O8 0.902083 0.558108 0.304778
O O9 0.959360 0.435408 0.357252
O O10 0.110110 0.288297 0.538663
O O11 0.104464 0.309401 0.036318
O O12 0.500000 0.500000 0.500000
O O13 0.500000 0.660489 0.512090
O O14 0.394058 0.848039 0.733236
O O15 0.457417 0.750330 0.801003
O O16 0.108603 0.000000 0.500000
O O17 0.093274 0.000000 0.000000
#
# Coordination Sequence:
#
# PCOD9416322 Si02
#       8
#     4   8   4   8   4   8   8   4
#     4   8  17  30  51  72  93 133 179 232 291 335
#     4  10  21  38  61  85 110 144 184 228 281 339
#     4  11  24  32  54  72 108 154 196 236 268 309
#     4  12  23  38  55  82 113 145 191 230 280 328
#     4  11  21  36  48  70 104 152 208 233 265 308
#     4  11  24  36  56  81 111 149 190 237 278 326
#     4  10  19  35  54  75 104 138 180 229 285 336
#     4  10  19  36  49  72 110 144 193 240 272 317
#
# _framework density 17.972276999999998
#
# number of rings (size 3 to 8) (size 9 to 14) (size 15 to 20)
#    0.000    1.500    2.500    3.250    0.000    1.333 
#    0.000    5.000    0.000    0.000    0.000    0.000 
#    0.000   13.333    0.000    0.000    0.000    0.000 
#
# Total GULP energy -267525.726233 kJ/mol
# GULP energy per Si atom -5573.452630 kJ/mol
# Density = 1.793137 g / cm^3
# Si number density = 17.972277 Si / 1000 Ang^3
#
#
#
# Elastic Constant Matrix: (Units=GPa)
#
#
# Indices 1 2 3 4 5 6 
#
# 1 109.9486 29.3099 28.5328 0.0000 0.0000 0.0000
# 2 29.3099 133.9811 20.4670 0.0000 0.0000 0.0000
# 3 28.5328 20.4670 89.5478 0.0000 0.0000 0.0000
# 4 0.0000 0.0000 0.0000 29.1452 0.0000 0.0000
# 5 0.0000 0.0000 0.0000 0.0000 11.5739 0.0000
# 6 0.0000 0.0000 0.0000 0.0000 0.0000 -6.4257
#
#
#
# Elastic Compliance Matrix: (Units=1/GPa)
#
#
# Indices 1 2 3 4 5 6 
#
# 1 0.010326 -0.001820 -0.002874 0.000000 0.000000 0.000000
# 2 -0.001820 0.008055 -0.001261 0.000000 0.000000 0.000000
# 3 -0.002874 -0.001261 0.012371 0.000000 0.000000 0.000000
# 4 0.000000 0.000000 0.000000 0.034311 0.000000 0.000000
# 5 0.000000 0.000000 0.000000 0.000000 0.086401 0.000000
# 6 0.000000 0.000000 0.000000 0.000000 0.000000 -0.155625
#
#
# Mechanical properties :
#
#
# Convention : Reuss Voigt Hill
#
# Bulk Modulus (GPa) = 53.07438 54.45523 53.76481
# Shear Modulus (GPa) = 356.36703 23.86987 190.11845
#
# Velocity S-wave (km/s) = 14.09672 3.64833 10.29631
# Velocity P-wave (km/s) = 17.16252 6.93631 13.08940
#
# Compressibility (1/GPa) = 0.01884148
#
# Stress axis : x y z
#
# Youngs Moduli (GPa) = 96.84092 124.15417 80.83233
#
# Poissons Ratio (x) = 0.22595 0.23234
# Poissons Ratio (y) = 0.17624 0.10193
# Poissons Ratio (z) = 0.27835 0.15657
#
# Static dielectric constant tensor:
#      x y z
#    x 1.651680 0.000000 0.000000 
#    y 0.000000 1.637820 0.000000 
#    z 0.000000 0.000000 1.764440 
# 
# From -- ./inp_files/5313.got.cif
#   From: 2010.05.17/outbox.cif.g08.bks.cpg/sg53_3_cif.got.tgz:5313.got - 2010.06.03 12:45:16.
