data_PCOD9416722
_publ_section_title
;
Structure prediction by ZEFSAII (Michael W. Deem and Ramdas Pophale) SiO2 
 PCOD9416722
Probable space group: P M N A
;
_chemical_formula_sum "Si O2"
_cell_formula_units_Z 64
_cell_length_a 8.971119
_cell_length_b 14.669378
_cell_length_c 28.980353
_cell_angle_alpha 90.000000
_cell_angle_beta 90.000000
_cell_angle_gamma 90.000000
_cell_volume 3813.835775
_symmetry_space_group_name_H-M "P M N A"
_symmetry_group_IT_number 53
_symmetry_cell_setting 'orthorhombic'
loop_
_space_group_symop_operation_xyz
x,y,z
1/2-x,-y,1/2+z
x,-y,-z
1/2-x,y,1/2-z
-x,-y,-z
1/2+x,y,1/2-z
-x,y,z
1/2+x,-y,1/2+z
loop_
_atom_site_type_symbol
_atom_site_label
_atom_site_fract_x
_atom_site_fract_y
_atom_site_fract_z
Si Si1 0.320850 0.966902 0.889462
Si Si2 0.820727 0.857865 0.701004
Si Si3 0.677685 0.157205 0.929334
Si Si4 0.674803 0.855920 0.527555
Si Si5 0.821897 0.472799 0.387046
Si Si6 0.321651 0.647601 0.425097
Si Si7 0.174173 0.360899 0.031897
Si Si8 0.179396 0.353342 0.299128
O O1 0.500000 0.955110 0.894065
O O2 0.274616 0.922501 0.841040
O O3 0.242725 0.913921 0.931181
O O4 0.288998 0.074018 0.894930
O O5 0.750000 0.882798 0.750000
O O6 0.779381 0.752270 0.690852
O O7 0.000000 0.861632 0.704843
O O8 0.500000 0.169865 0.931881
O O9 0.754777 0.252420 0.916806
O O10 0.738842 0.128794 0.979716
O O11 0.500000 0.876116 0.521033
O O12 0.687946 0.748000 0.538443
O O13 0.745997 0.570877 0.392430
O O14 0.771733 0.413907 0.431263
O O15 0.774957 0.418513 0.341027
O O16 0.000000 0.482175 0.386662
O O17 0.500000 0.651246 0.421962
O O18 0.285029 0.621532 0.478485
O O19 0.000000 0.386461 0.038085
O O20 0.250000 0.378274 0.250000
O O21 0.000000 0.356844 0.295447
#
# Coordination Sequence:
#
# PCOD9416722 Si02
#       8
#     8   8   8   8   8   8   8   8
#     4  10  20  33  51  74 101 133 168 207 250 297
#     4   9  18  34  53  75 103 131 160 198 246 297
#     4  10  20  34  51  71  98 134 173 211 251 293
#     4  10  20  32  48  73 105 137 169 206 246 293
#     4  11  21  32  51  77 100 128 167 206 246 296
#     4  10  21  36  51  70 100 135 170 209 249 291
#     4   9  19  33  47  69 102 136 167 201 243 290
#     4   9  19  34  52  75 102 129 158 195 241 295
#
# _framework density 16.781006000000001
#
# number of rings (size 3 to 8) (size 9 to 14) (size 15 to 20)
#    0.000    2.250    0.000    3.750    0.000    9.500 
#    0.000    2.500    0.000    0.750    0.000    1.750 
#    0.000    0.000    0.000    0.000    0.000    0.000 
#
# Total GULP energy -357279.018381 kJ/mol
# GULP energy per Si atom -5582.484662 kJ/mol
# Density = 1.674281 g / cm^3
# Si number density = 16.781006 Si / 1000 Ang^3
#
#
#
# Elastic Constant Matrix: (Units=GPa)
#
#
# Indices 1 2 3 4 5 6 
#
# 1 44.7979 51.6808 49.1909 0.0000 0.0000 0.0000
# 2 51.6808 107.3386 98.6383 0.0000 0.0000 0.0000
# 3 49.1909 98.6383 112.8891 0.0000 0.0000 0.0000
# 4 0.0000 0.0000 0.0000 30.1314 0.0000 0.0000
# 5 0.0000 0.0000 0.0000 0.0000 27.1257 0.0000
# 6 0.0000 0.0000 0.0000 0.0000 0.0000 110.3572
#
#
#
# Elastic Compliance Matrix: (Units=1/GPa)
#
#
# Indices 1 2 3 4 5 6 
#
# 1 0.050543 -0.020788 -0.003860 0.000000 0.000000 0.000000
# 2 -0.020788 0.055826 -0.039721 0.000000 0.000000 0.000000
# 3 -0.003860 -0.039721 0.045247 0.000000 0.000000 0.000000
# 4 0.000000 0.000000 0.000000 0.033188 0.000000 0.000000
# 5 0.000000 0.000000 0.000000 0.000000 0.036865 0.000000
# 6 0.000000 0.000000 0.000000 0.000000 0.000000 0.009061
#
#
# Mechanical properties :
#
#
# Convention : Reuss Voigt Hill
#
# Bulk Modulus (GPa) = 43.70918 73.78286 58.74602
# Shear Modulus (GPa) = 13.62046 37.89055 25.75551
#
# Velocity S-wave (km/s) = 2.85205 4.75694 3.92190
# Velocity P-wave (km/s) = 6.07857 8.61596 7.45600
#
# Compressibility (1/GPa) = 0.02287849
#
# Stress axis : x y z
#
# Youngs Moduli (GPa) = 19.78518 17.91272 22.10094
#
# Poissons Ratio (x) = 0.37236 0.08532
# Poissons Ratio (y) = 0.41129 0.87787
# Poissons Ratio (z) = 0.07638 0.71151
#
# Static dielectric constant tensor:
#      x y z
#    x 1.558620 0.000000 0.000000 
#    y 0.000000 1.574510 0.000000 
#    z 0.000000 0.000000 1.535990 
# 
# From -- ./inp_files/34257.got.cif
#   From: 2010.05.17/outbox.cif.g08.bks.cpg/sg53_18_cif.got.tgz:34257.got - 2010.06.03 12:45:16.
