data_PCOD9416783
_publ_section_title
;
Structure prediction by ZEFSAII (Michael W. Deem and Ramdas Pophale) SiO2 
 PCOD9416783
Probable space group: P M N A
;
_chemical_formula_sum "Si O2"
_cell_formula_units_Z 64
_cell_length_a 8.463287
_cell_length_b 15.572320
_cell_length_c 25.363346
_cell_angle_alpha 90.000000
_cell_angle_beta 90.000000
_cell_angle_gamma 90.000000
_cell_volume 3342.711800
_symmetry_space_group_name_H-M "P M N A"
_symmetry_group_IT_number 53
_symmetry_cell_setting 'orthorhombic'
loop_
_space_group_symop_operation_xyz
x,y,z
1/2-x,-y,1/2+z
x,-y,-z
1/2-x,y,1/2-z
-x,-y,-z
1/2+x,y,1/2-z
-x,y,z
1/2+x,-y,1/2+z
loop_
_atom_site_type_symbol
_atom_site_label
_atom_site_fract_x
_atom_site_fract_y
_atom_site_fract_z
Si Si1 0.812065 0.718499 0.614807
Si Si2 0.808123 0.429913 0.306441
Si Si3 0.179168 0.442323 0.952232
Si Si4 0.310350 0.865695 0.691225
Si Si5 0.809416 0.062065 0.808590
Si Si6 0.318447 0.606210 0.152108
Si Si7 0.308795 0.212183 0.614105
Si Si8 0.177244 0.748073 0.001375
O O1 0.754242 0.631845 0.645327
O O2 0.758637 0.797919 0.650656
O O3 0.756741 0.737092 0.555252
O O4 0.000000 0.712527 0.614025
O O5 0.750000 0.395556 0.250000
O O6 0.751820 0.529286 0.311879
O O7 0.000000 0.431653 0.307039
O O8 0.300365 0.438837 0.904871
O O9 0.000000 0.468759 0.935526
O O10 0.233285 0.500000 0.000000
O O11 0.165348 0.347561 0.975444
O O12 0.250000 0.846480 0.750000
O O13 0.500000 0.861354 0.690398
O O14 0.261301 0.964129 0.678979
O O15 0.750000 0.082951 0.750000
O O16 0.754851 0.132397 0.850660
O O17 0.000000 0.064074 0.807958
O O18 0.500000 0.622343 0.166018
O O19 0.236308 0.698222 0.143136
O O20 0.500000 0.211730 0.610558
O O21 0.249208 0.206061 0.553290
O O22 0.000000 0.782921 0.992355
#
# Coordination Sequence:
#
# PCOD9416783 Si02
#       8
#     8   8   8   8   8   8   8   8
#     4  11  22  36  54  77 106 141 180 222 269 318
#     4  10  23  38  51  72 103 139 178 219 265 317
#     4   9  17  30  49  72  97 130 173 215 255 303
#     4  10  20  36  58  83 108 136 173 218 269 321
#     4   9  19  36  59  84 109 137 171 215 265 319
#     4  10  20  33  49  73 103 134 170 212 258 304
#     4   9  19  37  57  79 109 144 180 216 259 315
#     4   9  18  32  51  75 103 137 178 219 259 310
#
# _framework density 19.146131
#
# number of rings (size 3 to 8) (size 9 to 14) (size 15 to 20)
#    0.000    2.375    0.000    3.000    0.000    6.750 
#    0.000    3.125    0.000    3.750    0.000    0.000 
#    0.000    0.000    0.000    0.000    0.000    0.000 
#
# Total GULP energy -356563.974037 kJ/mol
# GULP energy per Si atom -5571.312094 kJ/mol
# Density = 1.910255 g / cm^3
# Si number density = 19.146131 Si / 1000 Ang^3
#
#
#
# Elastic Constant Matrix: (Units=GPa)
#
#
# Indices 1 2 3 4 5 6 
#
# 1 15.9419 12.0196 19.1074 0.0000 0.0000 0.0000
# 2 12.0196 77.6762 65.9064 0.0000 0.0000 0.0000
# 3 19.1074 65.9064 118.4998 0.0000 0.0000 0.0000
# 4 0.0000 0.0000 0.0000 35.6590 0.0000 0.0000
# 5 0.0000 0.0000 0.0000 0.0000 3.2187 0.0000
# 6 0.0000 0.0000 0.0000 0.0000 0.0000 22.7218
#
#
#
# Elastic Compliance Matrix: (Units=1/GPa)
#
#
# Indices 1 2 3 4 5 6 
#
# 1 0.078041 -0.002649 -0.011110 0.000000 0.000000 0.000000
# 2 -0.002649 0.024468 -0.013181 0.000000 0.000000 0.000000
# 3 -0.011110 -0.013181 0.017561 0.000000 0.000000 0.000000
# 4 0.000000 0.000000 0.000000 0.028043 0.000000 0.000000
# 5 0.000000 0.000000 0.000000 0.000000 0.310681 0.000000
# 6 0.000000 0.000000 0.000000 0.000000 0.000000 0.044011
#
#
# Mechanical properties :
#
#
# Convention : Reuss Voigt Hill
#
# Bulk Modulus (GPa) = 15.10822 45.13162 30.11992
# Shear Modulus (GPa) = 8.63931 19.99222 14.31576
#
# Velocity S-wave (km/s) = 2.12652 3.23490 2.73740
# Velocity P-wave (km/s) = 3.73331 6.12994 5.07512
#
# Compressibility (1/GPa) = 0.06618915
#
# Stress axis : x y z
#
# Youngs Moduli (GPa) = 12.81370 40.87001 56.94337
#
# Poissons Ratio (x) = 0.10828 0.63265
# Poissons Ratio (y) = 0.03395 0.75058
# Poissons Ratio (z) = 0.14236 0.53871
#
# Static dielectric constant tensor:
#      x y z
#    x 1.691900 0.000000 0.000000 
#    y 0.000000 1.745030 0.000000 
#    z 0.000000 0.000000 1.711740 
# 
# From -- ./inp_files/34307.got.cif
#   From: 2010.05.17/outbox.cif.g08.bks.cpg/sg53_18_cif.got.tgz:34307.got - 2010.06.03 12:45:16.
