data_PCOD9416631
_publ_section_title
;
Structure prediction by ZEFSAII (Michael W. Deem and Ramdas Pophale) SiO2 
 PCOD9416631
Probable space group: P M N A
;
_chemical_formula_sum "Si O2"
_cell_formula_units_Z 64
_cell_length_a 8.711724
_cell_length_b 26.682688
_cell_length_c 15.003382
_cell_angle_alpha 90.000000
_cell_angle_beta 90.000000
_cell_angle_gamma 90.000000
_cell_volume 3487.569355
_symmetry_space_group_name_H-M "P M N A"
_symmetry_group_IT_number 53
_symmetry_cell_setting 'orthorhombic'
loop_
_space_group_symop_operation_xyz
x,y,z
1/2-x,-y,1/2+z
x,-y,-z
1/2-x,y,1/2-z
-x,-y,-z
1/2+x,y,1/2-z
-x,y,z
1/2+x,-y,1/2+z
loop_
_atom_site_type_symbol
_atom_site_label
_atom_site_fract_x
_atom_site_fract_y
_atom_site_fract_z
Si Si1 0.818359 0.109827 0.154380
Si Si2 0.183949 0.820965 0.502153
Si Si3 0.815204 0.106333 0.657308
Si Si4 0.184269 0.634806 0.350385
Si Si5 0.683913 0.290067 0.505765
Si Si6 0.315955 0.367064 0.350358
Si Si7 0.822718 0.995697 0.606651
Si Si8 0.685121 0.441982 0.005913
O O1 0.750000 0.121427 0.250000
O O2 0.737118 0.146915 0.086049
O O3 0.000000 0.116202 0.151061
O O4 0.774859 0.052223 0.133365
O O5 0.232371 0.855569 0.419142
O O6 0.258700 0.766557 0.499375
O O7 0.000000 0.815946 0.501218
O O8 0.750000 0.124343 0.750000
O O9 0.762895 0.049053 0.641262
O O10 0.000000 0.104427 0.657416
O O11 0.250000 0.632367 0.250000
O O12 0.244788 0.681856 0.408411
O O13 0.226943 0.587817 0.414935
O O14 0.000000 0.636957 0.344656
O O15 0.500000 0.292065 0.513044
O O16 0.727683 0.320278 0.415140
O O17 0.250000 0.364743 0.250000
O O18 0.500000 0.368614 0.344250
O O19 0.257154 0.414355 0.408473
O O20 0.000000 0.988085 0.637034
O O21 0.826059 0.000000 0.500000
O O22 0.500000 0.439104 0.014388
O O23 0.730064 0.500000 0.000000
#
# Coordination Sequence:
#
# PCOD9416631 Si02
#       8
#     8   8   8   8   8   8   8   8
#     4  12  25  40  60  87 116 150 191 234 285 344
#     4  11  23  42  62  84 115 152 189 235 293 345
#     4  10  22  38  59  84 113 148 184 226 279 337
#     4  10  20  36  59  85 115 155 198 242 292 344
#     4  10  22  40  60  85 114 147 191 244 293 344
#     4  10  21  37  59  85 116 153 195 239 288 343
#     4  10  19  38  62  84 115 150 184 229 283 339
#     4   9  19  36  57  85 122 159 197 241 289 340
#
# _framework density 18.35089
#
# number of rings (size 3 to 8) (size 9 to 14) (size 15 to 20)
#    0.000    1.750    1.250    3.000    0.000    6.500 
#    0.000    3.750    0.000    0.000    0.000    0.000 
#    0.000    0.000    0.000    0.000    0.000    0.000 
#
# Total GULP energy -357394.395058 kJ/mol
# GULP energy per Si atom -5584.287423 kJ/mol
# Density = 1.830912 g / cm^3
# Si number density = 18.350890 Si / 1000 Ang^3
#
#
#
# Elastic Constant Matrix: (Units=GPa)
#
#
# Indices 1 2 3 4 5 6 
#
# 1 34.7737 29.5971 37.5732 0.0000 0.0000 0.0000
# 2 29.5971 152.5189 82.0454 0.0000 0.0000 0.0000
# 3 37.5732 82.0454 179.4568 0.0000 0.0000 0.0000
# 4 0.0000 0.0000 0.0000 24.0019 0.0000 0.0000
# 5 0.0000 0.0000 0.0000 0.0000 29.3961 0.0000
# 6 0.0000 0.0000 0.0000 0.0000 0.0000 25.5607
#
#
#
# Elastic Compliance Matrix: (Units=1/GPa)
#
#
# Indices 1 2 3 4 5 6 
#
# 1 0.039115 -0.004224 -0.006258 0.000000 0.000000 0.000000
# 2 -0.004224 0.009151 -0.003299 0.000000 0.000000 0.000000
# 3 -0.006258 -0.003299 0.008391 0.000000 0.000000 0.000000
# 4 0.000000 0.000000 0.000000 0.041663 0.000000 0.000000
# 5 0.000000 0.000000 0.000000 0.000000 0.034018 0.000000
# 6 0.000000 0.000000 0.000000 0.000000 0.000000 0.039123
#
#
# Mechanical properties :
#
#
# Convention : Reuss Voigt Hill
#
# Bulk Modulus (GPa) = 34.37179 73.90898 54.14038
# Shear Modulus (GPa) = 23.95529 30.29398 27.12463
#
# Velocity S-wave (km/s) = 3.61695 4.06743 3.84879
# Velocity P-wave (km/s) = 6.01782 7.90073 7.02267
#
# Compressibility (1/GPa) = 0.02909363
#
# Stress axis : x y z
#
# Youngs Moduli (GPa) = 25.56586 109.27665 119.17285
#
# Poissons Ratio (x) = 0.46156 0.74584
# Poissons Ratio (y) = 0.10798 0.39320
# Poissons Ratio (z) = 0.16000 0.36055
#
# Static dielectric constant tensor:
#      x y z
#    x 1.619990 0.000000 0.000000 
#    y 0.000000 1.603110 0.000000 
#    z 0.000000 0.000000 1.622860 
# 
# From -- ./inp_files/20829.got.cif
#   From: 2010.05.17/outbox.cif.g08.bks.cpg/sg53_11_cif.got.tgz:20829.got - 2010.06.03 12:45:16.
