data_PCOD9416215
_publ_section_title
;
Structure prediction by ZEFSAII (Michael W. Deem and Ramdas Pophale) SiO2 
 PCOD9416215
Probable space group: P M N A
;
_chemical_formula_sum "Si O2"
_cell_formula_units_Z 64
_cell_length_a 18.240194
_cell_length_b 16.040837
_cell_length_c 12.351290
_cell_angle_alpha 90.000000
_cell_angle_beta 90.000000
_cell_angle_gamma 90.000000
_cell_volume 3613.838977
_symmetry_space_group_name_H-M "P M N A"
_symmetry_group_IT_number 53
_symmetry_cell_setting 'orthorhombic'
loop_
_space_group_symop_operation_xyz
x,y,z
1/2-x,-y,1/2+z
x,-y,-z
1/2-x,y,1/2-z
-x,-y,-z
1/2+x,y,1/2-z
-x,y,z
1/2+x,-y,1/2+z
loop_
_atom_site_type_symbol
_atom_site_label
_atom_site_fract_x
_atom_site_fract_y
_atom_site_fract_z
Si Si1 0.911649 0.598252 0.473717
Si Si2 0.336306 0.117859 0.274611
Si Si3 0.163795 0.571729 0.257778
Si Si4 0.585962 0.414161 0.304119
Si Si5 0.413984 0.737205 0.844889
Si Si6 0.584598 0.375324 0.542161
Si Si7 0.413799 0.181185 0.490719
Si Si8 0.085357 0.967216 0.124902
O O1 0.894922 0.500000 0.500000
O O2 0.870660 0.616160 0.361645
O O3 0.891926 0.670869 0.560773
O O4 0.000000 0.601575 0.462084
O O5 0.250000 0.115783 0.250000
O O6 0.372259 0.177005 0.181889
O O7 0.361597 0.158368 0.389969
O O8 0.368134 0.024112 0.293444
O O9 0.250000 0.577012 0.250000
O O10 0.136402 0.476135 0.262049
O O11 0.130704 0.604717 0.146432
O O12 0.500000 0.436130 0.287553
O O13 0.593236 0.320440 0.261988
O O14 0.605235 0.419700 0.429981
O O15 0.500000 0.755975 0.860791
O O16 0.500000 0.397020 0.564078
O O17 0.589090 0.277814 0.516551
O O18 0.500000 0.161370 0.461671
O O19 0.395602 0.128821 0.599756
O O20 0.000000 0.973532 0.156071
O O21 0.092303 0.000000 0.000000
#
# Coordination Sequence:
#
# PCOD9416215 Si02
#       8
#     8   8   8   8   8   8   8   8
#     4  10  20  37  56  70  94 141 193 225 254 318
#     4  11  20  29  48  84 120 144 165 209 276 338
#     4  12  25  36  49  74 110 147 184 226 279 337
#     4  10  19  36  58  77 100 135 182 234 280 318
#     4  10  19  34  57  78 102 141 185 226 268 318
#     4  10  20  36  60  83 104 133 183 242 286 324
#     4   9  17  34  59  84 107 138 179 229 278 325
#     4   8  15  30  54  78 104 136 176 218 258 313
#
# _framework density 17.709697999999999
#
# number of rings (size 3 to 8) (size 9 to 14) (size 15 to 20)
#    0.000    2.000    2.500    3.375    0.000    3.500 
#    0.000    0.625    0.000    1.500    0.000    0.000 
#    0.000   36.500    0.000    0.000    0.000    0.000 
#
# Total GULP energy -356479.989226 kJ/mol
# GULP energy per Si atom -5569.999832 kJ/mol
# Density = 1.766939 g / cm^3
# Si number density = 17.709698 Si / 1000 Ang^3
#
#
#
# Elastic Constant Matrix: (Units=GPa)
#
#
# Indices 1 2 3 4 5 6 
#
# 1 73.6316 38.2073 67.3116 0.0000 0.0000 0.0000
# 2 38.2073 72.0261 35.3216 0.0000 0.0000 0.0000
# 3 67.3116 35.3216 101.7094 0.0000 0.0000 0.0000
# 4 0.0000 0.0000 0.0000 26.9700 0.0000 0.0000
# 5 0.0000 0.0000 0.0000 0.0000 13.7623 0.0000
# 6 0.0000 0.0000 0.0000 0.0000 0.0000 3.7868
#
#
#
# Elastic Compliance Matrix: (Units=1/GPa)
#
#
# Indices 1 2 3 4 5 6 
#
# 1 0.039364 -0.009770 -0.022659 0.000000 0.000000 0.000000
# 2 -0.009770 0.019158 -0.000188 0.000000 0.000000 0.000000
# 3 -0.022659 -0.000188 0.024893 0.000000 0.000000 0.000000
# 4 0.000000 0.000000 0.000000 0.037078 0.000000 0.000000
# 5 0.000000 0.000000 0.000000 0.000000 0.072662 0.000000
# 6 0.000000 0.000000 0.000000 0.000000 0.000000 0.264073
#
#
# Mechanical properties :
#
#
# Convention : Reuss Voigt Hill
#
# Bulk Modulus (GPa) = 54.99525 58.78312 56.88918
# Shear Modulus (GPa) = 9.46033 16.00559 12.73296
#
# Velocity S-wave (km/s) = 2.31376 3.00955 2.68429
# Velocity P-wave (km/s) = 6.18540 6.73359 6.46530
#
# Compressibility (1/GPa) = 0.01818339
#
# Stress axis : x y z
#
# Youngs Moduli (GPa) = 25.40371 52.19654 40.17242
#
# Poissons Ratio (x) = 0.50994 0.91025
# Poissons Ratio (y) = 0.24818 0.00754
# Poissons Ratio (z) = 0.57561 0.00980
#
# Static dielectric constant tensor:
#      x y z
#    x 1.611820 0.000000 0.000000 
#    y 0.000000 1.672320 0.000000 
#    z 0.000000 0.000000 1.632500 
# 
# From -- ./inp_files/16222.got.cif
#   From: 2010.05.17/outbox.cif.g08.bks.cpg/sg53_9_cif.got.tgz:16222.got - 2010.06.03 12:45:16.
