data_PCOD9416355
_publ_section_title
;
Structure prediction by ZEFSAII (Michael W. Deem and Ramdas Pophale) SiO2 
 PCOD9416355
Probable space group: P M N A
;
_chemical_formula_sum "Si O2"
_cell_formula_units_Z 64
_cell_length_a 23.246205
_cell_length_b 5.863103
_cell_length_c 22.990658
_cell_angle_alpha 90.000000
_cell_angle_beta 90.000000
_cell_angle_gamma 90.000000
_cell_volume 3133.509301
_symmetry_space_group_name_H-M "P M N A"
_symmetry_group_IT_number 53
_symmetry_cell_setting 'orthorhombic'
loop_
_space_group_symop_operation_xyz
x,y,z
1/2-x,-y,1/2+z
x,-y,-z
1/2-x,y,1/2-z
-x,-y,-z
1/2+x,y,1/2-z
-x,y,z
1/2+x,-y,1/2+z
loop_
_atom_site_type_symbol
_atom_site_label
_atom_site_fract_x
_atom_site_fract_y
_atom_site_fract_z
Si Si1 0.833694 0.706955 0.172197
Si Si2 0.561790 0.752710 0.172586
Si Si3 0.848077 0.940789 0.725764
Si Si4 0.816780 0.325713 0.553248
Si Si5 0.706871 0.009641 0.565050
Si Si6 0.933477 0.579566 0.782166
Si Si7 0.938977 0.298805 0.546421
Si Si8 0.734144 0.361908 0.145901
O O1 0.829477 0.854906 0.113446
O O2 0.893764 0.569044 0.174530
O O3 0.781445 0.526978 0.174209
O O4 0.826418 0.873866 0.227574
O O5 0.500000 0.879063 0.175863
O O6 0.563987 0.581302 0.225661
O O7 0.561343 0.615141 0.112712
O O8 0.614337 0.925438 0.177788
O O9 0.894223 0.791179 0.762182
O O10 0.799406 0.795467 0.692426
O O11 0.811037 0.500000 0.500000
O O12 0.763967 0.157704 0.555142
O O13 0.876296 0.190787 0.544167
O O14 0.811288 0.479808 0.611373
O O15 0.680243 0.000000 0.500000
O O16 0.730200 0.782794 0.597408
O O17 0.000000 0.630617 0.799259
O O18 0.939006 0.500000 0.500000
O O19 0.000000 0.173286 0.541012
#
# Coordination Sequence:
#
# PCOD9416355 Si02
#       8
#     8   8   8   8   8   8   8   8
#     4  10  25  41  61  93 128 158 200 260 309 369
#     4   9  18  34  55  83 118 156 206 260 301 352
#     4  11  22  38  61  91 123 163 203 250 308 373
#     4  10  19  35  56  82 115 153 203 259 306 362
#     4  11  22  39  63  89 118 160 204 249 316 385
#     4  10  21  39  63  89 121 163 203 247 308 373
#     4   9  17  30  51  75 108 156 204 252 303 344
#     4  11  23  38  60  89 124 165 203 256 314 372
#
# _framework density 20.424385000000001
#
# number of rings (size 3 to 8) (size 9 to 14) (size 15 to 20)
#    0.000    1.875    1.250    2.625    0.000    6.500 
#    0.000    0.625    0.000    1.500    0.000    3.500 
#    0.000    0.000    0.000    0.000    0.000    0.000 
#
# Total GULP energy -356983.065824 kJ/mol
# GULP energy per Si atom -5577.860404 kJ/mol
# Density = 2.037790 g / cm^3
# Si number density = 20.424385 Si / 1000 Ang^3
#
#
#
# Elastic Constant Matrix: (Units=GPa)
#
#
# Indices 1 2 3 4 5 6 
#
# 1 115.3295 49.3384 64.0319 0.0000 0.0000 0.0000
# 2 49.3384 77.8076 47.6915 0.0000 0.0000 0.0000
# 3 64.0319 47.6915 121.0412 0.0000 0.0000 0.0000
# 4 0.0000 0.0000 0.0000 33.2381 0.0000 0.0000
# 5 0.0000 0.0000 0.0000 0.0000 143.1589 0.0000
# 6 0.0000 0.0000 0.0000 0.0000 0.0000 1.9553
#
#
#
# Elastic Compliance Matrix: (Units=1/GPa)
#
#
# Indices 1 2 3 4 5 6 
#
# 1 0.013965 -0.005705 -0.005140 0.000000 0.000000 0.000000
# 2 -0.005705 0.019275 -0.004577 0.000000 0.000000 0.000000
# 3 -0.005140 -0.004577 0.012784 0.000000 0.000000 0.000000
# 4 0.000000 0.000000 0.000000 0.030086 0.000000 0.000000
# 5 0.000000 0.000000 0.000000 0.000000 0.006985 0.000000
# 6 0.000000 0.000000 0.000000 0.000000 0.000000 0.511418
#
#
# Mechanical properties :
#
#
# Convention : Reuss Voigt Hill
#
# Bulk Modulus (GPa) = 65.87092 70.70020 68.28556
# Shear Modulus (GPa) = 7.93127 45.87823 26.90475
#
# Velocity S-wave (km/s) = 1.97273 4.74460 3.63338
# Velocity P-wave (km/s) = 6.12454 8.04399 7.14898
#
# Compressibility (1/GPa) = 0.01518121
#
# Stress axis : x y z
#
# Youngs Moduli (GPa) = 71.60708 51.88090 78.22343
#
# Poissons Ratio (x) = 0.29598 0.40206
# Poissons Ratio (y) = 0.40851 0.35799
# Poissons Ratio (z) = 0.36805 0.23744
#
# Static dielectric constant tensor:
#      x y z
#    x 1.776180 0.000000 0.000000 
#    y 0.000000 1.593390 0.000000 
#    z 0.000000 0.000000 1.747020 
# 
# From -- ./inp_files/35739.got.cif
#   From: 2010.05.17/outbox.cif.g08.bks.cpg/sg53_18_cif.got.tgz:35739.got - 2010.06.03 12:45:16.
