data_PCOD9416243
_publ_section_title
;
Structure prediction by ZEFSAII (Michael W. Deem and Ramdas Pophale) SiO2 
 PCOD9416243
Probable space group: P M N A
;
_chemical_formula_sum "Si O2"
_cell_formula_units_Z 64
_cell_length_a 7.992197
_cell_length_b 22.637044
_cell_length_c 16.807669
_cell_angle_alpha 90.000000
_cell_angle_beta 90.000000
_cell_angle_gamma 90.000000
_cell_volume 3040.838688
_symmetry_space_group_name_H-M "P M N A"
_symmetry_group_IT_number 53
_symmetry_cell_setting 'orthorhombic'
loop_
_space_group_symop_operation_xyz
x,y,z
1/2-x,-y,1/2+z
x,-y,-z
1/2-x,y,1/2-z
-x,-y,-z
1/2+x,y,1/2-z
-x,y,z
1/2+x,-y,1/2+z
loop_
_atom_site_type_symbol
_atom_site_label
_atom_site_fract_x
_atom_site_fract_y
_atom_site_fract_z
Si Si1 0.701724 0.375409 0.340279
Si Si2 0.795671 0.931439 0.000230
Si Si3 0.699658 0.497792 0.410993
Si Si4 0.701697 0.134886 0.662041
Si Si5 0.701502 0.254346 0.590746
Si Si6 0.303667 0.378268 0.839997
Si Si7 0.701502 0.865813 0.661832
Si Si8 0.204128 0.253547 0.088699
O O1 0.750000 0.365049 0.250000
O O2 0.500000 0.376166 0.346617
O O3 0.766557 0.439523 0.367228
O O4 0.762894 0.319237 0.390304
O O5 0.740622 0.901309 0.917008
O O6 0.000000 0.927871 0.000291
O O7 0.740931 0.900777 0.083209
O O8 0.748172 0.000000 0.000000
O O9 0.769397 0.500000 0.500000
O O10 0.500000 0.489643 0.416439
O O11 0.726674 0.560248 0.369179
O O12 0.750000 0.113088 0.750000
O O13 0.500000 0.134549 0.659380
O O14 0.761336 0.202734 0.649499
O O15 0.500000 0.254215 0.593258
O O16 0.755847 0.320434 0.610490
O O17 0.752690 0.238073 0.501183
O O18 0.250000 0.366744 0.750000
O O19 0.500000 0.386264 0.843606
O O20 0.750000 0.887071 0.750000
O O21 0.500000 0.866519 0.659222
O O22 0.759606 0.798060 0.648002
O O23 0.000000 0.254345 0.090813
#
# Coordination Sequence:
#
# PCOD9416243 Si02
#       8
#     8   8   8   8   8   8   8   8
#     4  10  20  33  52  77 104 136 176 224 274 330
#     4   9  18  35  58  84 116 156 199 236 278 345
#     4  10  21  39  60  80 104 141 187 231 284 345
#     4  10  20  35  58  86 114 151 194 242 293 345
#     4  10  19  36  60  82 108 144 191 239 288 344
#     4  12  25  39  56  81 112 147 187 234 290 345
#     4  10  19  34  57  85 116 153 195 238 285 340
#     4   9  17  33  57  81 107 144 188 228 274 338
#
# _framework density 21.046824000000001
#
# number of rings (size 3 to 8) (size 9 to 14) (size 15 to 20)
#    0.000    2.000    1.250    3.000    0.000    5.750 
#    0.000    3.125    0.000    0.750    0.000    0.000 
#    0.000    0.000    0.000    0.000    0.000    0.000 
#
# Total GULP energy -357255.306741 kJ/mol
# GULP energy per Si atom -5582.114168 kJ/mol
# Density = 2.099892 g / cm^3
# Si number density = 21.046824 Si / 1000 Ang^3
#
#
#
# Elastic Constant Matrix: (Units=GPa)
#
#
# Indices 1 2 3 4 5 6 
#
# 1 11.7877 2.5216 1.1921 0.0000 0.0000 0.0000
# 2 2.5216 121.3528 51.3383 0.0000 0.0000 0.0000
# 3 1.1921 51.3383 139.7263 0.0000 0.0000 0.0000
# 4 0.0000 0.0000 0.0000 24.6962 0.0000 0.0000
# 5 0.0000 0.0000 0.0000 0.0000 25.7391 0.0000
# 6 0.0000 0.0000 0.0000 0.0000 0.0000 2.2745
#
#
#
# Elastic Compliance Matrix: (Units=1/GPa)
#
#
# Indices 1 2 3 4 5 6 
#
# 1 0.085214 -0.001732 -0.000090 0.000000 0.000000 0.000000
# 2 -0.001732 0.009792 -0.003583 0.000000 0.000000 0.000000
# 3 -0.000090 -0.003583 0.008474 0.000000 0.000000 0.000000
# 4 0.000000 0.000000 0.000000 0.040492 0.000000 0.000000
# 5 0.000000 0.000000 0.000000 0.000000 0.038851 0.000000
# 6 0.000000 0.000000 0.000000 0.000000 0.000000 0.439660
#
#
# Mechanical properties :
#
#
# Convention : Reuss Voigt Hill
#
# Bulk Modulus (GPa) = 10.79115 42.55229 26.67172
# Shear Modulus (GPa) = 7.52802 25.06293 16.29547
#
# Velocity S-wave (km/s) = 1.89329 3.45457 2.78555
# Velocity P-wave (km/s) = 3.14925 6.01447 4.80060
#
# Compressibility (1/GPa) = 0.09266857
#
# Stress axis : x y z
#
# Youngs Moduli (GPa) = 11.73515 102.12142 118.00627
#
# Poissons Ratio (x) = 0.17691 0.01068
# Poissons Ratio (y) = 0.02033 0.42283
# Poissons Ratio (z) = 0.00106 0.36591
#
# Static dielectric constant tensor:
#      x y z
#    x 1.759250 0.000000 0.000000 
#    y 0.000000 1.802360 0.000000 
#    z 0.000000 0.000000 1.748620 
# 
# From -- ./inp_files/20946.got.cif
#   From: 2010.05.17/outbox.cif.g08.bks.cpg/sg53_11_cif.got.tgz:20946.got - 2010.06.03 12:45:16.
