data_PCOD9416874
_publ_section_title
;
Structure prediction by ZEFSAII (Michael W. Deem and Ramdas Pophale) SiO2 
 PCOD9416874
Probable space group: P M N A
;
_chemical_formula_sum "Si O2"
_cell_formula_units_Z 40
_cell_length_a 27.693692
_cell_length_b 8.253342
_cell_length_c 9.631545
_cell_angle_alpha 90.000000
_cell_angle_beta 90.000000
_cell_angle_gamma 90.000000
_cell_volume 2201.439008
_symmetry_space_group_name_H-M "P M N A"
_symmetry_group_IT_number 53
_symmetry_cell_setting 'orthorhombic'
loop_
_space_group_symop_operation_xyz
x,y,z
1/2-x,-y,1/2+z
x,-y,-z
1/2-x,y,1/2-z
-x,-y,-z
1/2+x,y,1/2-z
-x,y,z
1/2+x,-y,1/2+z
loop_
_atom_site_type_symbol
_atom_site_label
_atom_site_fract_x
_atom_site_fract_y
_atom_site_fract_z
Si Si1 0.109350 0.867747 0.294774
Si Si2 0.130573 0.328559 0.431475
Si Si3 0.055546 0.196005 0.240509
Si Si4 0.443782 0.320506 0.560197
Si Si5 0.796724 0.935369 0.655029
O O1 0.110480 0.784203 0.444493
O O2 0.091934 0.741693 0.178690
O O3 0.073362 0.020225 0.288840
O O4 0.162790 0.945163 0.278647
O O5 0.141621 0.500000 0.500000
O O6 0.089423 0.328368 0.314259
O O7 0.176502 0.236520 0.366966
O O8 0.000000 0.224879 0.275463
O O9 0.060560 0.206225 0.074654
O O10 0.434556 0.500000 0.500000
O O11 0.500000 0.316363 0.608527
O O12 0.750000 0.926026 0.750000
O O13 0.785444 0.000000 0.500000
#
# Coordination Sequence:
#
# PCOD9416874 Si02
#       5
#     8   8   8   8   8
#     4  10  20  35  55  77 106 142 180 222 264 316
#     4  10  21  37  55  79 111 140 174 221 270 318
#     4  10  20  33  52  79 109 146 187 219 255 311
#     4  10  20  33  51  80 115 147 181 220 263 311
#     4   9  20  38  59  80 101 132 176 223 271 325
#
# _framework density 18.169934000000001
#
# number of rings (size 3 to 8) (size 9 to 14) (size 15 to 20)
#    0.000    2.200    0.000    4.200    0.000    7.600 
#    0.000    4.000    0.000    6.000    0.000    0.000 
#    0.000    0.000    0.000    0.000    0.000    0.000 
#
# Total GULP energy -223215.213430 kJ/mol
# GULP energy per Si atom -5580.380336 kJ/mol
# Density = 1.812858 g / cm^3
# Si number density = 18.169934 Si / 1000 Ang^3
#
#
#
# Elastic Constant Matrix: (Units=GPa)
#
#
# Indices 1 2 3 4 5 6 
#
# 1 121.5568 28.4349 77.7793 0.0000 0.0000 0.0000
# 2 28.4349 70.7730 32.2347 0.0000 0.0000 0.0000
# 3 77.7793 32.2347 81.1691 0.0000 0.0000 0.0000
# 4 0.0000 0.0000 0.0000 30.0620 0.0000 0.0000
# 5 0.0000 0.0000 0.0000 0.0000 37.0564 0.0000
# 6 0.0000 0.0000 0.0000 0.0000 0.0000 456.7263
#
#
#
# Elastic Compliance Matrix: (Units=1/GPa)
#
#
# Indices 1 2 3 4 5 6 
#
# 1 0.021312 0.000902 -0.020780 0.000000 0.000000 0.000000
# 2 0.000902 0.017288 -0.007730 0.000000 0.000000 0.000000
# 3 -0.020780 -0.007730 0.035302 0.000000 0.000000 0.000000
# 4 0.000000 0.000000 0.000000 0.033265 0.000000 0.000000
# 5 0.000000 0.000000 0.000000 0.000000 0.026986 0.000000
# 6 0.000000 0.000000 0.000000 0.000000 0.000000 0.002189
#
#
# Mechanical properties :
#
#
# Convention : Reuss Voigt Hill
#
# Bulk Modulus (GPa) = 53.51626 61.15517 57.33571
# Shear Modulus (GPa) = 25.27974 113.77230 69.52602
#
# Velocity S-wave (km/s) = 3.73405 7.92159 6.19253
# Velocity P-wave (km/s) = 6.93599 10.83509 9.09690
#
# Compressibility (1/GPa) = 0.01868591
#
# Stress axis : x y z
#
# Youngs Moduli (GPa) = 46.92193 57.84359 28.32694
#
# Poissons Ratio (x) = -0.05218 0.58864
# Poissons Ratio (y) = -0.04232 0.21897
# Poissons Ratio (z) = 0.97505 0.44713
#
# Static dielectric constant tensor:
#      x y z
#    x 1.597950 0.000000 0.000000 
#    y 0.000000 1.661820 0.000000 
#    z 0.000000 0.000000 1.619880 
# 
# From -- ./inp_files/11543.got.cif
#   From: 2010.05.17/outbox.cif.g08.bks.cpg/sg53_6_cif.got.tgz:11543.got - 2010.06.03 12:45:16.
