data_PCOD9416043
_publ_section_title
;
Structure prediction by ZEFSAII (Michael W. Deem and Ramdas Pophale) SiO2 
 PCOD9416043
Probable space group: P M N A
;
_chemical_formula_sum "Si O2"
_cell_formula_units_Z 48
_cell_length_a 8.542417
_cell_length_b 32.379507
_cell_length_c 9.252062
_cell_angle_alpha 90.000000
_cell_angle_beta 90.000000
_cell_angle_gamma 90.000000
_cell_volume 2559.113420
_symmetry_space_group_name_H-M "P M N A"
_symmetry_group_IT_number 53
_symmetry_cell_setting 'orthorhombic'
loop_
_space_group_symop_operation_xyz
x,y,z
1/2-x,-y,1/2+z
x,-y,-z
1/2-x,y,1/2-z
-x,-y,-z
1/2+x,y,1/2-z
-x,y,z
1/2+x,-y,1/2+z
loop_
_atom_site_type_symbol
_atom_site_label
_atom_site_fract_x
_atom_site_fract_y
_atom_site_fract_z
Si Si1 0.688084 0.119783 0.912502
Si Si2 0.810621 0.799339 0.585708
Si Si3 0.187922 0.958857 0.912878
Si Si4 0.188631 0.709250 0.585785
Si Si5 0.312341 0.540634 0.412186
Si Si6 0.688333 0.381043 0.085478
O O1 0.750000 0.116926 0.750000
O O2 0.500000 0.119255 0.910639
O O3 0.741461 0.162432 0.988165
O O4 0.747758 0.081279 0.005767
O O5 0.750000 0.803766 0.750000
O O6 0.761067 0.754004 0.526364
O O7 0.000000 0.800029 0.591061
O O8 0.250000 0.960487 0.750000
O O9 0.000000 0.957043 0.910570
O O10 0.235640 0.000000 0.000000
O O11 0.250000 0.709318 0.750000
O O12 0.237396 0.664473 0.526015
O O13 0.000000 0.709202 0.586840
O O14 0.259936 0.500000 0.500000
O O15 0.250000 0.538776 0.250000
O O16 0.500000 0.541044 0.410263
O O17 0.252935 0.581671 0.491383
O O18 0.750000 0.384617 0.250000
O O19 0.500000 0.382903 0.088305
#
# Coordination Sequence:
#
# PCOD9416043 Si02
#       6
#     8   8   8   8   8   8
#     4  11  23  38  57  81 112 149 188 231 277 326
#     4   9  18  33  54  80 109 142 182 226 271 321
#     4  11  24  41  62  87 115 147 183 225 273 326
#     4   8  15  29  50  77 108 141 178 220 266 317
#     4  11  24  40  58  80 107 140 178 221 270 324
#     4  10  19  33  56  83 112 145 181 223 269 320
#
# _framework density 18.756495999999999
#
# number of rings (size 3 to 8) (size 9 to 14) (size 15 to 20)
#    0.000    2.000    0.000    3.500    0.000    8.667 
#    0.000    0.833    0.000    2.000    0.000    0.000 
#    0.000    0.000    0.000    0.000    0.000    0.000 
#
# Total GULP energy -267883.588041 kJ/mol
# GULP energy per Si atom -5580.908084 kJ/mol
# Density = 1.871381 g / cm^3
# Si number density = 18.756496 Si / 1000 Ang^3
#
#
#
# Elastic Constant Matrix: (Units=GPa)
#
#
# Indices 1 2 3 4 5 6 
#
# 1 35.7517 46.2391 29.8441 0.0000 0.0000 0.0000
# 2 46.2391 238.3298 108.8145 0.0000 0.0000 0.0000
# 3 29.8441 108.8145 133.3279 0.0000 0.0000 0.0000
# 4 0.0000 0.0000 0.0000 36.5025 0.0000 0.0000
# 5 0.0000 0.0000 0.0000 0.0000 31.1038 0.0000
# 6 0.0000 0.0000 0.0000 0.0000 0.0000 29.6291
#
#
#
# Elastic Compliance Matrix: (Units=1/GPa)
#
#
# Indices 1 2 3 4 5 6 
#
# 1 0.038656 -0.005657 -0.004036 0.000000 0.000000 0.000000
# 2 -0.005657 0.007516 -0.004868 0.000000 0.000000 0.000000
# 3 -0.004036 -0.004868 0.012376 0.000000 0.000000 0.000000
# 4 0.000000 0.000000 0.000000 0.027395 0.000000 0.000000
# 5 0.000000 0.000000 0.000000 0.000000 0.032150 0.000000
# 6 0.000000 0.000000 0.000000 0.000000 0.000000 0.033751
#
#
# Mechanical properties :
#
#
# Convention : Reuss Voigt Hill
#
# Bulk Modulus (GPa) = 33.98208 86.35607 60.16907
# Shear Modulus (GPa) = 26.20882 34.28120 30.24501
#
# Velocity S-wave (km/s) = 3.74213 4.27980 4.01996
# Velocity P-wave (km/s) = 6.06862 8.40017 7.32772
#
# Compressibility (1/GPa) = 0.02942728
#
# Stress axis : x y z
#
# Youngs Moduli (GPa) = 25.86900 133.05106 80.79888
#
# Poissons Ratio (x) = 0.75270 0.32608
# Poissons Ratio (y) = 0.14635 0.39331
# Poissons Ratio (z) = 0.10440 0.64766
#
# Static dielectric constant tensor:
#      x y z
#    x 1.636340 0.000000 0.000000 
#    y 0.000000 1.688290 0.000000 
#    z 0.000000 0.000000 1.596070 
# 
# From -- ./inp_files/6598.got.cif
#   From: 2010.05.17/outbox.cif.g08.bks.cpg/sg53_4_cif.got.tgz:6598.got - 2010.06.03 12:45:16.
