data_PCOD9416788
_publ_section_title
;
Structure prediction by ZEFSAII (Michael W. Deem and Ramdas Pophale) SiO2 
 PCOD9416788
Probable space group: P M N A
;
_chemical_formula_sum "Si O2"
_cell_formula_units_Z 64
_cell_length_a 25.528944
_cell_length_b 8.885068
_cell_length_c 15.838150
_cell_angle_alpha 90.000000
_cell_angle_beta 90.000000
_cell_angle_gamma 90.000000
_cell_volume 3592.510601
_symmetry_space_group_name_H-M "P M N A"
_symmetry_group_IT_number 53
_symmetry_cell_setting 'orthorhombic'
loop_
_space_group_symop_operation_xyz
x,y,z
1/2-x,-y,1/2+z
x,-y,-z
1/2-x,y,1/2-z
-x,-y,-z
1/2+x,y,1/2-z
-x,y,z
1/2+x,-y,1/2+z
loop_
_atom_site_type_symbol
_atom_site_label
_atom_site_fract_x
_atom_site_fract_y
_atom_site_fract_z
Si Si1 0.442132 0.329168 0.702936
Si Si2 0.560101 0.404576 0.418944
Si Si3 0.757048 0.379275 0.877935
Si Si4 0.140051 0.163748 0.144333
Si Si5 0.243170 0.724259 0.929578
Si Si6 0.442705 0.949492 0.403476
Si Si7 0.304760 0.897716 0.800855
Si Si8 0.169602 0.753497 0.266109
O O1 0.500000 0.306842 0.742638
O O2 0.438591 0.494711 0.665159
O O3 0.442371 0.225736 0.618190
O O4 0.391566 0.285682 0.756998
O O5 0.577299 0.500000 0.500000
O O6 0.500000 0.356731 0.434220
O O7 0.599487 0.272690 0.400429
O O8 0.765694 0.560003 0.885107
O O9 0.801149 0.291802 0.822424
O O10 0.701987 0.348757 0.831797
O O11 0.754134 0.311371 0.971708
O O12 0.192885 0.172899 0.090869
O O13 0.155102 0.193349 0.241238
O O14 0.108761 0.008690 0.142408
O O15 0.292025 0.814112 0.888427
O O16 0.500000 0.005068 0.371657
O O17 0.439498 0.000000 0.500000
O O18 0.250000 0.891235 0.750000
O O19 0.320838 0.073788 0.796446
#
# Coordination Sequence:
#
# PCOD9416788 Si02
#       8
#     8   8   8   8   8   8   8   8
#     4  10  21  35  52  77 108 141 183 225 269 320
#     4  10  21  34  49  76 110 146 189 225 260 315
#     4  10  23  39  59  82 112 144 188 225 282 329
#     4  11  21  32  55  74 110 147 180 223 268 321
#     4  10  24  38  55  85 108 144 184 233 275 336
#     4  10  20  33  49  74 108 148 189 223 260 314
#     4  10  21  38  51  80 110 139 186 224 275 321
#     4  11  21  38  58  82 111 148 180 226 275 332
#
# _framework density 17.81484
#
# number of rings (size 3 to 8) (size 9 to 14) (size 15 to 20)
#    0.000    1.750    2.500    1.875   12.250    2.500 
#    0.000    0.000    0.000    0.000    0.000    5.250 
#    0.000    0.000    0.000    0.000    0.000    0.000 
#
# Total GULP energy -356667.243375 kJ/mol
# GULP energy per Si atom -5572.925678 kJ/mol
# Density = 1.777429 g / cm^3
# Si number density = 17.814840 Si / 1000 Ang^3
#
#
#
# Elastic Constant Matrix: (Units=GPa)
#
#
# Indices 1 2 3 4 5 6 
#
# 1 95.5437 25.3378 31.3939 0.0000 0.0000 0.0000
# 2 25.3378 46.9908 21.3842 0.0000 0.0000 0.0000
# 3 31.3939 21.3842 62.0626 0.0000 0.0000 0.0000
# 4 0.0000 0.0000 0.0000 22.2505 0.0000 0.0000
# 5 0.0000 0.0000 0.0000 0.0000 96.4400 0.0000
# 6 0.0000 0.0000 0.0000 0.0000 0.0000 25.2055
#
#
#
# Elastic Compliance Matrix: (Units=1/GPa)
#
#
# Indices 1 2 3 4 5 6 
#
# 1 0.013451 -0.004930 -0.005106 0.000000 0.000000 0.000000
# 2 -0.004930 0.027045 -0.006825 0.000000 0.000000 0.000000
# 3 -0.005106 -0.006825 0.021047 0.000000 0.000000 0.000000
# 4 0.000000 0.000000 0.000000 0.044943 0.000000 0.000000
# 5 0.000000 0.000000 0.000000 0.000000 0.010369 0.000000
# 6 0.000000 0.000000 0.000000 0.000000 0.000000 0.039674
#
#
# Mechanical properties :
#
#
# Convention : Reuss Voigt Hill
#
# Bulk Modulus (GPa) = 35.94197 40.09212 38.01704
# Shear Modulus (GPa) = 25.05970 37.21128 31.13549
#
# Velocity S-wave (km/s) = 3.75464 4.57528 4.18512
# Velocity P-wave (km/s) = 6.24624 7.10385 6.68880
#
# Compressibility (1/GPa) = 0.02782263
#
# Stress axis : x y z
#
# Youngs Moduli (GPa) = 74.34181 36.97585 47.51262
#
# Poissons Ratio (x) = 0.18228 0.24259
# Poissons Ratio (y) = 0.36648 0.32427
# Poissons Ratio (z) = 0.37957 0.25236
#
# Static dielectric constant tensor:
#      x y z
#    x 1.631620 0.000000 0.000000 
#    y 0.000000 1.689390 0.000000 
#    z 0.000000 0.000000 1.606980 
# 
# From -- ./inp_files/29599.got.cif
#   From: 2010.05.17/outbox.cif.g08.bks.cpg/sg53_15_cif.got.tgz:29599.got - 2010.06.03 12:45:16.
