data_PCOD9416873
_publ_section_title
;
Structure prediction by ZEFSAII (Michael W. Deem and Ramdas Pophale) SiO2 
 PCOD9416873
Probable space group: P M N A
;
_chemical_formula_sum "Si O2"
_cell_formula_units_Z 48
_cell_length_a 8.679139
_cell_length_b 9.854780
_cell_length_c 31.264325
_cell_angle_alpha 90.000000
_cell_angle_beta 90.000000
_cell_angle_gamma 90.000000
_cell_volume 2674.069151
_symmetry_space_group_name_H-M "P M N A"
_symmetry_group_IT_number 53
_symmetry_cell_setting 'orthorhombic'
loop_
_space_group_symop_operation_xyz
x,y,z
1/2-x,-y,1/2+z
x,-y,-z
1/2-x,y,1/2-z
-x,-y,-z
1/2+x,y,1/2-z
-x,y,z
1/2+x,-y,1/2+z
loop_
_atom_site_type_symbol
_atom_site_label
_atom_site_fract_x
_atom_site_fract_y
_atom_site_fract_z
Si Si1 0.815844 0.308946 0.797491
Si Si2 0.314717 0.804569 0.612629
Si Si3 0.684432 0.710004 0.065420
Si Si4 0.684895 0.085058 0.858136
Si Si5 0.185353 0.850300 0.985392
Si Si6 0.314562 0.486810 0.132413
O O1 0.750000 0.321481 0.750000
O O2 0.757250 0.169967 0.819428
O O3 0.751183 0.428219 0.827847
O O4 0.000000 0.312403 0.797101
O O5 0.500000 0.806162 0.614338
O O6 0.265244 0.819346 0.562891
O O7 0.250843 0.663629 0.630303
O O8 0.248727 0.934309 0.637378
O O9 0.500000 0.709733 0.060830
O O10 0.725825 0.830969 0.098607
O O11 0.729902 0.571736 0.089621
O O12 0.758058 0.741798 0.019993
O O13 0.500000 0.085824 0.854401
O O14 0.000000 0.852373 0.985973
O O15 0.240479 0.000000 0.000000
O O16 0.500000 0.486331 0.134809
#
# Coordination Sequence:
#
# PCOD9416873 Si02
#       6
#     8   8   8   8   8   8
#     4  11  22  40  66  92 116 146 184 228 278 343
#     4  11  22  36  55  83 116 155 197 239 291 341
#     4   9  19  34  54  78 107 149 197 238 281 334
#     4  10  20  36  58  85 115 149 188 234 283 335
#     4  10  20  33  51  78 113 152 196 244 288 335
#     4  10  22  40  58  83 117 153 192 237 291 346
#
# _framework density 17.950171000000001
#
# number of rings (size 3 to 8) (size 9 to 14) (size 15 to 20)
#    0.000    1.833    1.667    4.000    0.000    5.667 
#    0.000    4.167    0.000    0.000    0.000    0.000 
#    0.000    0.000    0.000    0.000    0.000    0.000 
#
# Total GULP energy -268118.843323 kJ/mol
# GULP energy per Si atom -5585.809236 kJ/mol
# Density = 1.790932 g / cm^3
# Si number density = 17.950171 Si / 1000 Ang^3
#
#
#
# Elastic Constant Matrix: (Units=GPa)
#
#
# Indices 1 2 3 4 5 6 
#
# 1 72.9660 48.8703 39.5895 0.0000 0.0000 0.0000
# 2 48.8703 156.2683 59.1895 0.0000 0.0000 0.0000
# 3 39.5895 59.1895 113.7840 0.0000 0.0000 0.0000
# 4 0.0000 0.0000 0.0000 15.5851 0.0000 0.0000
# 5 0.0000 0.0000 0.0000 0.0000 29.8700 0.0000
# 6 0.0000 0.0000 0.0000 0.0000 0.0000 12.8581
#
#
#
# Elastic Compliance Matrix: (Units=1/GPa)
#
#
# Indices 1 2 3 4 5 6 
#
# 1 0.018932 -0.004266 -0.004368 0.000000 0.000000 0.000000
# 2 -0.004266 0.008931 -0.003161 0.000000 0.000000 0.000000
# 3 -0.004368 -0.003161 0.011953 0.000000 0.000000 0.000000
# 4 0.000000 0.000000 0.000000 0.064164 0.000000 0.000000
# 5 0.000000 0.000000 0.000000 0.000000 0.033478 0.000000
# 6 0.000000 0.000000 0.000000 0.000000 0.000000 0.077772
#
#
# Mechanical properties :
#
#
# Convention : Reuss Voigt Hill
#
# Bulk Modulus (GPa) = 61.63382 70.92410 66.27896
# Shear Modulus (GPa) = 20.47254 24.68725 22.57989
#
# Velocity S-wave (km/s) = 3.38082 3.71256 3.55057
# Velocity P-wave (km/s) = 7.04632 7.61412 7.33571
#
# Compressibility (1/GPa) = 0.01622486
#
# Stress axis : x y z
#
# Youngs Moduli (GPa) = 52.81946 111.97066 83.66197
#
# Poissons Ratio (x) = 0.47771 0.36543
# Poissons Ratio (y) = 0.22535 0.26449
# Poissons Ratio (z) = 0.23071 0.35398
#
# Static dielectric constant tensor:
#      x y z
#    x 1.599710 0.000000 0.000000 
#    y 0.000000 1.602810 0.000000 
#    z 0.000000 0.000000 1.594070 
# 
# From -- ./inp_files/37661.got.cif
#   From: 2010.05.17/outbox.cif.g08.bks.cpg/sg53_19_cif.got.tgz:37661.got - 2010.06.03 12:45:16.
