data_PCOD9416955
_publ_section_title
;
Structure prediction by ZEFSAII (Michael W. Deem and Ramdas Pophale) SiO2 
 PCOD9416955
Probable space group: P M N A
;
_chemical_formula_sum "Si O2"
_cell_formula_units_Z 64
_cell_length_a 19.096512
_cell_length_b 12.364734
_cell_length_c 15.006197
_cell_angle_alpha 90.000000
_cell_angle_beta 90.000000
_cell_angle_gamma 90.000000
_cell_volume 3543.312624
_symmetry_space_group_name_H-M "P M N A"
_symmetry_group_IT_number 53
_symmetry_cell_setting 'orthorhombic'
loop_
_space_group_symop_operation_xyz
x,y,z
1/2-x,-y,1/2+z
x,-y,-z
1/2-x,y,1/2-z
-x,-y,-z
1/2+x,y,1/2-z
-x,y,z
1/2+x,-y,1/2+z
loop_
_atom_site_type_symbol
_atom_site_label
_atom_site_fract_x
_atom_site_fract_y
_atom_site_fract_z
Si Si1 0.796548 0.958527 0.332916
Si Si2 0.170541 0.416752 0.425333
Si Si3 0.920167 0.500946 0.106606
Si Si4 0.083451 0.904591 0.758543
Si Si5 0.222741 0.428911 0.848911
Si Si6 0.677466 0.091389 0.427563
Si Si7 0.918625 0.654213 0.736073
Si Si8 0.773956 0.232868 0.534596
O O1 0.750000 0.913032 0.250000
O O2 0.804050 0.869501 0.410893
O O3 0.868194 0.010969 0.296345
O O4 0.746218 0.051838 0.372783
O O5 0.141693 0.500000 0.500000
O O6 0.246920 0.466098 0.400960
O O7 0.127423 0.411279 0.334399
O O8 0.176541 0.297093 0.466204
O O9 0.860319 0.576840 0.145162
O O10 0.908978 0.389878 0.162845
O O11 0.000000 0.534957 0.124211
O O12 0.911392 0.500000 0.000000
O O13 0.114091 0.902148 0.858907
O O14 0.096115 0.781359 0.727136
O O15 0.000000 0.926729 0.754941
O O16 0.250000 0.437241 0.750000
O O17 0.254667 0.324278 0.894739
O O18 0.704696 0.194838 0.481496
O O19 0.661495 0.000000 0.500000
O O20 0.000000 0.637472 0.714617
#
# Coordination Sequence:
#
# PCOD9416955 Si02
#       8
#     8   8   8   8   8   8   8   8
#     4   9  18  37  57  79 108 148 189 238 293 345
#     4  10  21  35  54  84 112 150 198 243 290 336
#     4  10  21  37  57  83 121 158 191 235 291 349
#     4  10  21  35  57  85 113 147 188 239 295 351
#     4  11  21  35  56  86 117 154 195 243 287 340
#     4   9  19  34  55  82 107 145 186 231 290 344
#     4  10  21  37  56  82 117 153 191 237 290 348
#     4  10  20  33  57  82 113 144 196 245 283 343
#
# _framework density 18.062193000000001
#
# number of rings (size 3 to 8) (size 9 to 14) (size 15 to 20)
#    0.000    2.125    1.250    2.250    3.500    0.500 
#    0.000    0.625    0.000   13.875    0.000    0.000 
#    0.000    0.000    0.000    0.000    0.000    0.000 
#
# Total GULP energy -356566.053979 kJ/mol
# GULP energy per Si atom -5571.344593 kJ/mol
# Density = 1.802108 g / cm^3
# Si number density = 18.062193 Si / 1000 Ang^3
#
#
#
# Elastic Constant Matrix: (Units=GPa)
#
#
# Indices 1 2 3 4 5 6 
#
# 1 90.8772 30.8503 52.0479 0.0000 0.0000 0.0000
# 2 30.8503 54.1655 31.5433 0.0000 0.0000 0.0000
# 3 52.0479 31.5433 106.3576 0.0000 0.0000 0.0000
# 4 0.0000 0.0000 0.0000 24.3103 0.0000 0.0000
# 5 0.0000 0.0000 0.0000 0.0000 24.8333 0.0000
# 6 0.0000 0.0000 0.0000 0.0000 0.0000 11.8203
#
#
#
# Elastic Compliance Matrix: (Units=1/GPa)
#
#
# Indices 1 2 3 4 5 6 
#
# 1 0.016638 -0.005723 -0.006445 0.000000 0.000000 0.000000
# 2 -0.005723 0.024285 -0.004402 0.000000 0.000000 0.000000
# 3 -0.006445 -0.004402 0.013861 0.000000 0.000000 0.000000
# 4 0.000000 0.000000 0.000000 0.041135 0.000000 0.000000
# 5 0.000000 0.000000 0.000000 0.000000 0.040269 0.000000
# 6 0.000000 0.000000 0.000000 0.000000 0.000000 0.084600
#
#
# Mechanical properties :
#
#
# Convention : Reuss Voigt Hill
#
# Bulk Modulus (GPa) = 46.19937 53.36482 49.78209
# Shear Modulus (GPa) = 19.14674 21.32338 20.23506
#
# Velocity S-wave (km/s) = 3.25937 3.43965 3.35072
# Velocity P-wave (km/s) = 6.30857 6.73677 6.52618
#
# Compressibility (1/GPa) = 0.02164532
#
# Stress axis : x y z
#
# Youngs Moduli (GPa) = 60.10455 41.17788 72.14256
#
# Poissons Ratio (x) = 0.23566 0.46493
# Poissons Ratio (y) = 0.34398 0.31755
# Poissons Ratio (z) = 0.38735 0.18125
#
# Static dielectric constant tensor:
#      x y z
#    x 1.609810 0.000000 0.000000 
#    y 0.000000 1.628440 0.000000 
#    z 0.000000 0.000000 1.654190 
# 
# From -- ./inp_files/23884.got.cif
#   From: 2010.05.17/outbox.cif.g08.bks.cpg/sg53_12_cif.got.tgz:23884.got - 2010.06.03 12:45:16.
