data_PCOD9416981
_publ_section_title
;
Structure prediction by ZEFSAII (Michael W. Deem and Ramdas Pophale) SiO2 
 PCOD9416981
Probable space group: P M N A
;
_chemical_formula_sum "Si O2"
_cell_formula_units_Z 48
_cell_length_a 8.054714
_cell_length_b 21.643733
_cell_length_c 14.390609
_cell_angle_alpha 90.000000
_cell_angle_beta 90.000000
_cell_angle_gamma 90.000000
_cell_volume 2508.773569
_symmetry_space_group_name_H-M "P M N A"
_symmetry_group_IT_number 53
_symmetry_cell_setting 'orthorhombic'
loop_
_space_group_symop_operation_xyz
x,y,z
1/2-x,-y,1/2+z
x,-y,-z
1/2-x,y,1/2-z
-x,-y,-z
1/2+x,y,1/2-z
-x,y,z
1/2+x,-y,1/2+z
loop_
_atom_site_type_symbol
_atom_site_label
_atom_site_fract_x
_atom_site_fract_y
_atom_site_fract_z
Si Si1 0.802803 0.782592 0.357214
Si Si2 0.199585 0.967931 0.644278
Si Si3 0.299254 0.658648 0.461538
Si Si4 0.299887 0.536020 0.356709
Si Si5 0.703144 0.093737 0.956250
Si Si6 0.300097 0.602480 0.644523
O O1 0.750000 0.782614 0.250000
O O2 0.756148 0.719147 0.407823
O O3 0.735976 0.842127 0.413162
O O4 0.000000 0.787534 0.358196
O O5 0.250000 0.955126 0.750000
O O6 0.255742 0.921382 0.562167
O O7 0.000000 0.967822 0.642206
O O8 0.253804 0.036055 0.609034
O O9 0.500000 0.658422 0.459091
O O10 0.239843 0.595374 0.412709
O O11 0.244094 0.651961 0.568480
O O12 0.250000 0.544407 0.250000
O O13 0.500000 0.535336 0.365290
O O14 0.241728 0.466967 0.382956
O O15 0.500000 0.094341 0.956672
O O16 0.250000 0.614762 0.750000
O O17 0.500000 0.600711 0.641948
#
# Coordination Sequence:
#
# PCOD9416981 Si02
#       6
#     8   8   8   8   8   8
#     4  11  22  36  53  74 101 133 166 200 242 293
#     4   9  16  31  54  78 102 130 165 204 245 286
#     4  10  20  34  51  72  99 131 166 203 245 294
#     4   9  17  30  49  72  97 125 158 200 250 297
#     4   8  17  33  52  73 102 137 166 196 242 295
#     4   9  18  33  52  72  95 125 163 207 252 296
#
# _framework density 19.132854999999999
#
# number of rings (size 3 to 8) (size 9 to 14) (size 15 to 20)
#    0.000    2.667    0.000    3.000    0.000    4.667 
#    0.000    5.000    0.000    9.000    0.000    0.000 
#    0.000    0.000    0.000    0.000    0.000    0.000 
#
# Total GULP energy -267653.060914 kJ/mol
# GULP energy per Si atom -5576.105436 kJ/mol
# Density = 1.908931 g / cm^3
# Si number density = 19.132855 Si / 1000 Ang^3
#
#
#
# Elastic Constant Matrix: (Units=GPa)
#
#
# Indices 1 2 3 4 5 6 
#
# 1 13.6781 14.9259 14.5359 0.0000 0.0000 0.0000
# 2 14.9259 117.0418 119.8562 0.0000 0.0000 0.0000
# 3 14.5359 119.8562 181.8118 0.0000 0.0000 0.0000
# 4 0.0000 0.0000 0.0000 26.3270 0.0000 0.0000
# 5 0.0000 0.0000 0.0000 0.0000 24.5247 0.0000
# 6 0.0000 0.0000 0.0000 0.0000 0.0000 18.0987
#
#
#
# Elastic Compliance Matrix: (Units=1/GPa)
#
#
# Indices 1 2 3 4 5 6 
#
# 1 0.084997 -0.011943 0.001078 0.000000 0.000000 0.000000
# 2 -0.011943 0.027974 -0.017487 0.000000 0.000000 0.000000
# 3 0.001078 -0.017487 0.016942 0.000000 0.000000 0.000000
# 4 0.000000 0.000000 0.000000 0.037984 0.000000 0.000000
# 5 0.000000 0.000000 0.000000 0.000000 0.040775 0.000000
# 6 0.000000 0.000000 0.000000 0.000000 0.000000 0.055253
#
#
# Mechanical properties :
#
#
# Convention : Reuss Voigt Hill
#
# Bulk Modulus (GPa) = 13.65951 67.90751 40.78351
# Shear Modulus (GPa) = 14.49145 24.67099 19.58122
#
# Velocity S-wave (km/s) = 2.75510 3.59480 3.20259
# Velocity P-wave (km/s) = 4.15639 7.26634 5.91926
#
# Compressibility (1/GPa) = 0.07320905
#
# Stress axis : x y z
#
# Youngs Moduli (GPa) = 11.76514 35.74742 59.02575
#
# Poissons Ratio (x) = 0.42692 -0.06360
# Poissons Ratio (y) = 0.14051 1.03216
# Poissons Ratio (z) = -0.01268 0.62510
#
# Static dielectric constant tensor:
#      x y z
#    x 1.690860 0.000000 0.000000 
#    y 0.000000 1.667330 0.000000 
#    z 0.000000 0.000000 1.689230 
# 
# From -- ./inp_files/20215.got.cif
#   From: 2010.05.17/outbox.cif.g08.bks.cpg/sg53_11_cif.got.tgz:20215.got - 2010.06.03 12:45:16.
