data_PCOD9416339
_publ_section_title
;
Structure prediction by ZEFSAII (Michael W. Deem and Ramdas Pophale) SiO2 
 PCOD9416339
Probable space group: P M N A
;
_chemical_formula_sum "Si O2"
_cell_formula_units_Z 52
_cell_length_a 21.309465
_cell_length_b 9.328746
_cell_length_c 13.547237
_cell_angle_alpha 90.000000
_cell_angle_beta 90.000000
_cell_angle_gamma 90.000000
_cell_volume 2693.063187
_symmetry_space_group_name_H-M "P M N A"
_symmetry_group_IT_number 53
_symmetry_cell_setting 'orthorhombic'
loop_
_space_group_symop_operation_xyz
x,y,z
1/2-x,-y,1/2+z
x,-y,-z
1/2-x,y,1/2-z
-x,-y,-z
1/2+x,y,1/2-z
-x,y,z
1/2+x,-y,1/2+z
loop_
_atom_site_type_symbol
_atom_site_label
_atom_site_fract_x
_atom_site_fract_y
_atom_site_fract_z
Si Si1 0.159976 0.246039 0.121993
Si Si2 0.905577 0.000000 0.000000
Si Si3 0.429927 0.170870 0.694111
Si Si4 0.152425 0.556535 0.188064
Si Si5 0.790320 0.596989 0.402437
Si Si6 0.277130 0.854298 0.974514
Si Si7 0.178639 0.986658 0.714518
O O1 0.134024 0.401232 0.146238
O O2 0.231454 0.254105 0.082760
O O3 0.125693 0.145398 0.043849
O O4 0.164852 0.152833 0.220085
O O5 0.934795 0.068766 0.901637
O O6 0.500000 0.182113 0.737548
O O7 0.400847 0.326078 0.669574
O O8 0.375052 0.099186 0.759825
O O9 0.217286 0.595390 0.131253
O O10 0.170508 0.552923 0.305005
O O11 0.802388 0.500000 0.500000
O O12 0.802877 0.761775 0.435897
O O13 0.323009 0.927467 0.896488
O O14 0.238408 0.000000 0.000000
O O15 0.250000 0.033078 0.750000
#
# Coordination Sequence:
#
# PCOD9416339 Si02
#       7
#     8   4   8   8   8   8   8
#     4  10  19  35  55  87 122 157 202 247 307 371
#     4  10  21  38  64  84 118 166 207 248 305 380
#     4  11  24  42  61  89 127 168 211 256 311 379
#     4  11  24  36  58  91 128 168 199 257 319 374
#     4  11  22  35  60  91 130 158 203 257 317 376
#     4  11  19  31  54  87 118 153 197 255 307 361
#     4   9  21  36  61  87 120 158 205 259 310 361
#
# _framework density 19.308868
#
# number of rings (size 3 to 8) (size 9 to 14) (size 15 to 20)
#    0.000    1.538    2.308    3.000   10.769    0.000 
#    0.000    4.615    0.000    4.615    0.000    0.000 
#    0.000    0.000    0.000    0.000    0.000    0.000 
#
# Total GULP energy -289637.509637 kJ/mol
# GULP energy per Si atom -5569.952108 kJ/mol
# Density = 1.926492 g / cm^3
# Si number density = 19.308868 Si / 1000 Ang^3
#
#
#
# Elastic Constant Matrix: (Units=GPa)
#
#
# Indices 1 2 3 4 5 6 
#
# 1 90.4477 54.3295 28.2992 0.0000 0.0000 0.0000
# 2 54.3295 142.2593 41.1754 0.0000 0.0000 0.0000
# 3 28.2992 41.1754 106.6435 0.0000 0.0000 0.0000
# 4 0.0000 0.0000 0.0000 31.3477 0.0000 0.0000
# 5 0.0000 0.0000 0.0000 0.0000 -14.4574 0.0000
# 6 0.0000 0.0000 0.0000 0.0000 0.0000 4.7147
#
#
#
# Elastic Compliance Matrix: (Units=1/GPa)
#
#
# Indices 1 2 3 4 5 6 
#
# 1 0.014699 -0.005049 -0.001951 0.000000 0.000000 0.000000
# 2 -0.005049 0.009648 -0.002385 0.000000 0.000000 0.000000
# 3 -0.001951 -0.002385 0.010816 0.000000 0.000000 0.000000
# 4 0.000000 0.000000 0.000000 0.031900 0.000000 0.000000
# 5 0.000000 0.000000 0.000000 0.000000 -0.069169 0.000000
# 6 0.000000 0.000000 0.000000 0.000000 0.000000 0.212103
#
#
# Mechanical properties :
#
#
# Convention : Reuss Voigt Hill
#
# Bulk Modulus (GPa) = 61.00487 65.21763 63.11125
# Shear Modulus (GPa) = 21.34631 18.69076 20.01854
#
# Velocity S-wave (km/s) = 3.32854 3.11463 3.22336
# Velocity P-wave (km/s) = 6.81433 6.83987 6.82711
#
# Compressibility (1/GPa) = 0.01639213
#
# Stress axis : x y z
#
# Youngs Moduli (GPa) = 68.02991 103.64769 92.45729
#
# Poissons Ratio (x) = 0.52332 0.18041
# Poissons Ratio (y) = 0.34348 0.22054
# Poissons Ratio (z) = 0.13274 0.24723
#
# Static dielectric constant tensor:
#      x y z
#    x 1.677890 0.000000 0.000000 
#    y 0.000000 1.744970 0.000000 
#    z 0.000000 0.000000 1.757380 
# 
# From -- ./inp_files/24255.got.cif
#   From: 2010.05.17/outbox.cif.g08.bks.cpg/sg53_13_cif.got.tgz:24255.got - 2010.06.03 12:45:16.
