data_PCOD9416167
_publ_section_title
;
Structure prediction by ZEFSAII (Michael W. Deem and Ramdas Pophale) SiO2 
 PCOD9416167
Probable space group: P M N A
;
_chemical_formula_sum "Si O2"
_cell_formula_units_Z 52
_cell_length_a 16.841940
_cell_length_b 17.676247
_cell_length_c 8.166155
_cell_angle_alpha 90.000000
_cell_angle_beta 90.000000
_cell_angle_gamma 90.000000
_cell_volume 2431.083055
_symmetry_space_group_name_H-M "P M N A"
_symmetry_group_IT_number 53
_symmetry_cell_setting 'orthorhombic'
loop_
_space_group_symop_operation_xyz
x,y,z
1/2-x,-y,1/2+z
x,-y,-z
1/2-x,y,1/2-z
-x,-y,-z
1/2+x,y,1/2-z
-x,y,z
1/2+x,-y,1/2+z
loop_
_atom_site_type_symbol
_atom_site_label
_atom_site_fract_x
_atom_site_fract_y
_atom_site_fract_z
Si Si1 0.250519 0.417136 0.554839
Si Si2 0.906856 0.186567 0.913940
Si Si3 0.310013 0.842824 0.122326
Si Si4 0.750000 0.015315 0.750000
Si Si5 0.672758 0.718147 0.861607
Si Si6 0.091169 0.941027 0.849201
Si Si7 0.592239 0.656721 0.555282
O O1 0.222802 0.500000 0.500000
O O2 0.250000 0.412579 0.750000
O O3 0.195240 0.351752 0.479319
O O4 0.339229 0.404064 0.479840
O O5 0.882612 0.146672 0.745899
O O6 0.000000 0.184671 0.921235
O O7 0.882656 0.138882 0.072480
O O8 0.885329 0.273954 0.933582
O O9 0.250000 0.799779 0.250000
O O10 0.264475 0.922567 0.102485
O O11 0.335441 0.793286 0.970411
O O12 0.668081 0.970000 0.747297
O O13 0.750000 0.730343 0.750000
O O14 0.604377 0.691829 0.737117
O O15 0.000000 0.936143 0.779335
O O16 0.084702 0.000000 0.000000
O O17 0.500000 0.634751 0.531903
#
# Coordination Sequence:
#
# PCOD9416167 Si02
#       7
#     8   8   8   4   8   8   8
#     4  11  22  40  66  92 123 162 205 248 302 365
#     4  10  20  37  60  82 113 161 205 251 311 375
#     4  10  19  34  55  87 116 147 204 264 302 360
#     4  10  22  34  58  96 118 154 218 272 316 388
#     4  10  20  36  59  87 124 162 198 250 301 367
#     4  10  19  37  58  82 121 164 207 259 321 382
#     4  10  22  39  59  90 125 162 205 250 308 368
#
# _framework density 21.389643
#
# number of rings (size 3 to 8) (size 9 to 14) (size 15 to 20)
#    0.462    1.385    1.538    4.615    0.000    0.923 
#    9.692    0.769    0.000    2.308    0.000    0.000 
#    0.000    0.000    0.000    0.000    0.000    0.000 
#
# Total GULP energy -289840.749671 kJ/mol
# GULP energy per Si atom -5573.860571 kJ/mol
# Density = 2.134096 g / cm^3
# Si number density = 21.389643 Si / 1000 Ang^3
#
#
#
# Elastic Constant Matrix: (Units=GPa)
#
#
# Indices 1 2 3 4 5 6 
#
# 1 61.8870 11.1079 10.6950 0.0000 0.0000 0.0000
# 2 11.1079 73.9723 15.5679 0.0000 0.0000 0.0000
# 3 10.6950 15.5679 79.2938 0.0000 0.0000 0.0000
# 4 0.0000 0.0000 0.0000 32.9962 0.0000 0.0000
# 5 0.0000 0.0000 0.0000 0.0000 26.2619 0.0000
# 6 0.0000 0.0000 0.0000 0.0000 0.0000 11.1876
#
#
#
# Elastic Compliance Matrix: (Units=1/GPa)
#
#
# Indices 1 2 3 4 5 6 
#
# 1 0.016863 -0.002142 -0.001854 0.000000 0.000000 0.000000
# 2 -0.002142 0.014373 -0.002533 0.000000 0.000000 0.000000
# 3 -0.001854 -0.002533 0.013359 0.000000 0.000000 0.000000
# 4 0.000000 0.000000 0.000000 0.030307 0.000000 0.000000
# 5 0.000000 0.000000 0.000000 0.000000 0.038078 0.000000
# 6 0.000000 0.000000 0.000000 0.000000 0.000000 0.089385
#
#
# Mechanical properties :
#
#
# Convention : Reuss Voigt Hill
#
# Bulk Modulus (GPa) = 31.70850 32.21053 31.95952
# Shear Modulus (GPa) = 22.13021 25.94127 24.03574
#
# Velocity S-wave (km/s) = 3.22004 3.48630 3.35581
# Velocity P-wave (km/s) = 5.35550 5.59440 5.47625
#
# Compressibility (1/GPa) = 0.03153728
#
# Stress axis : x y z
#
# Youngs Moduli (GPa) = 59.30017 69.57332 74.85756
#
# Poissons Ratio (x) = 0.14903 0.13878
# Poissons Ratio (y) = 0.12703 0.18962
# Poissons Ratio (z) = 0.10994 0.17623
#
# Static dielectric constant tensor:
#      x y z
#    x 1.857560 0.000000 0.000000 
#    y 0.000000 1.874120 0.000000 
#    z 0.000000 0.000000 1.975260 
# 
# From -- ./inp_files/10127.got.cif
#   From: 2010.05.17/outbox.cif.g08.bks.cpg/sg53_6_cif.got.tgz:10127.got - 2010.06.03 12:45:16.
