data_PCOD9416477
_publ_section_title
;
Structure prediction by ZEFSAII (Michael W. Deem and Ramdas Pophale) SiO2 
 PCOD9416477
Probable space group: P M N A
;
_chemical_formula_sum "Si O2"
_cell_formula_units_Z 48
_cell_length_a 22.503478
_cell_length_b 9.780681
_cell_length_c 10.749473
_cell_angle_alpha 90.000000
_cell_angle_beta 90.000000
_cell_angle_gamma 90.000000
_cell_volume 2365.951910
_symmetry_space_group_name_H-M "P M N A"
_symmetry_group_IT_number 53
_symmetry_cell_setting 'orthorhombic'
loop_
_space_group_symop_operation_xyz
x,y,z
1/2-x,-y,1/2+z
x,-y,-z
1/2-x,y,1/2-z
-x,-y,-z
1/2+x,y,1/2-z
-x,y,z
1/2+x,-y,1/2+z
loop_
_atom_site_type_symbol
_atom_site_label
_atom_site_fract_x
_atom_site_fract_y
_atom_site_fract_z
Si Si1 0.428047 0.560928 0.871284
Si Si2 0.428335 0.826771 0.730988
Si Si3 0.098642 0.907813 0.380654
Si Si4 0.065816 0.316655 0.783227
Si Si5 0.234234 0.115584 0.605948
Si Si6 0.643557 0.166467 0.512748
O O1 0.500000 0.548915 0.873344
O O2 0.415349 0.717629 0.839952
O O3 0.408531 0.461759 0.759092
O O4 0.404708 0.500000 0.000000
O O5 0.500000 0.825314 0.705058
O O6 0.387300 0.786064 0.614685
O O7 0.409154 0.977463 0.773817
O O8 0.061511 0.776659 0.341047
O O9 0.165154 0.846615 0.388646
O O10 0.082760 0.000000 0.500000
O O11 0.104208 0.230889 0.878833
O O12 0.000000 0.336424 0.835825
O O13 0.250000 0.076609 0.750000
O O14 0.288771 0.204767 0.551808
O O15 0.232326 0.000000 0.500000
O O16 0.641445 0.000000 0.500000
#
# Coordination Sequence:
#
# PCOD9416477 Si02
#       6
#     8   8   8   8   8   8
#     4   9  20  38  57  83 126 169 203 247 307 382
#     4  11  22  37  59  91 131 166 205 259 322 381
#     4  11  21  33  57  91 113 159 204 262 305 367
#     4  11  21  34  56  87 121 159 198 244 311 372
#     4  10  19  36  57  85 117 157 209 255 309 365
#     4  11  21  36  57  88 121 163 201 262 312 368
#
# _framework density 20.287818000000001
#
# number of rings (size 3 to 8) (size 9 to 14) (size 15 to 20)
#    0.000    1.500    3.333    3.000    0.000    4.000 
#    0.000    2.500    0.000    0.000   52.000    0.000 
#    0.000    0.000    0.000    0.000    0.000    0.000 
#
# Total GULP energy -267237.955808 kJ/mol
# GULP energy per Si atom -5567.457413 kJ/mol
# Density = 2.024164 g / cm^3
# Si number density = 20.287818 Si / 1000 Ang^3
#
#
#
# Elastic Constant Matrix: (Units=GPa)
#
#
# Indices 1 2 3 4 5 6 
#
# 1 110.7829 6.7704 24.2821 0.0000 0.0000 0.0000
# 2 6.7704 72.5557 -3.7922 0.0000 0.0000 0.0000
# 3 24.2821 -3.7922 75.8786 0.0000 0.0000 0.0000
# 4 0.0000 0.0000 0.0000 27.4679 0.0000 0.0000
# 5 0.0000 0.0000 0.0000 0.0000 20.2224 0.0000
# 6 0.0000 0.0000 0.0000 0.0000 0.0000 16.4323
#
#
#
# Elastic Compliance Matrix: (Units=1/GPa)
#
#
# Indices 1 2 3 4 5 6 
#
# 1 0.009791 -0.001080 -0.003187 0.000000 0.000000 0.000000
# 2 -0.001080 0.013938 0.001042 0.000000 0.000000 0.000000
# 3 -0.003187 0.001042 0.014251 0.000000 0.000000 0.000000
# 4 0.000000 0.000000 0.000000 0.036406 0.000000 0.000000
# 5 0.000000 0.000000 0.000000 0.000000 0.049450 0.000000
# 6 0.000000 0.000000 0.000000 0.000000 0.000000 0.060856
#
#
# Mechanical properties :
#
#
# Convention : Reuss Voigt Hill
#
# Bulk Modulus (GPa) = 31.71632 34.85975 33.28803
# Shear Modulus (GPa) = 24.79512 28.28831 26.54172
#
# Velocity S-wave (km/s) = 3.49974 3.73815 3.62091
# Velocity P-wave (km/s) = 5.65668 5.98762 5.82450
#
# Compressibility (1/GPa) = 0.03152951
#
# Stress axis : x y z
#
# Youngs Moduli (GPa) = 102.13150 71.74735 70.17041
#
# Poissons Ratio (x) = 0.07750 0.22366
# Poissons Ratio (y) = 0.11033 -0.07314
# Poissons Ratio (z) = 0.32553 -0.07478
#
# Static dielectric constant tensor:
#      x y z
#    x 1.775240 0.000000 0.000000 
#    y 0.000000 1.711130 0.000000 
#    z 0.000000 0.000000 1.727220 
# 
# From -- ./inp_files/18278.got.cif
#   From: 2010.05.17/outbox.cif.g08.bks.cpg/sg53_10_cif.got.tgz:18278.got - 2010.06.03 12:45:16.
