data_PCOD9416260
_publ_section_title
;
Structure prediction by ZEFSAII (Michael W. Deem and Ramdas Pophale) SiO2 
 PCOD9416260
Probable space group: P M N A
;
_chemical_formula_sum "Si O2"
_cell_formula_units_Z 64
_cell_length_a 13.102833
_cell_length_b 9.881981
_cell_length_c 23.184754
_cell_angle_alpha 90.000000
_cell_angle_beta 90.000000
_cell_angle_gamma 90.000000
_cell_volume 3002.007083
_symmetry_space_group_name_H-M "P M N A"
_symmetry_group_IT_number 53
_symmetry_cell_setting 'orthorhombic'
loop_
_space_group_symop_operation_xyz
x,y,z
1/2-x,-y,1/2+z
x,-y,-z
1/2-x,y,1/2-z
-x,-y,-z
1/2+x,y,1/2-z
-x,y,z
1/2+x,-y,1/2+z
loop_
_atom_site_type_symbol
_atom_site_label
_atom_site_fract_x
_atom_site_fract_y
_atom_site_fract_z
Si Si1 0.332474 0.853351 0.605776
Si Si2 0.615566 0.544371 0.909499
Si Si3 0.382043 0.231609 0.719037
Si Si4 0.690868 0.277100 0.847918
Si Si5 0.808774 0.357163 0.018679
Si Si6 0.119157 0.926536 0.772222
Si Si7 0.758663 0.093573 0.945562
Si Si8 0.117511 0.185846 0.350109
O O1 0.365255 0.725797 0.568857
O O2 0.368368 0.840214 0.670633
O O3 0.207755 0.858276 0.607316
O O4 0.352082 0.000498 0.578361
O O5 0.500000 0.544005 0.932352
O O6 0.646728 0.399836 0.884954
O O7 0.698539 0.598511 0.954829
O O8 0.617007 0.652392 0.857004
O O9 0.500000 0.245727 0.702894
O O10 0.305300 0.307914 0.676044
O O11 0.369339 0.261923 0.787318
O O12 0.343283 0.076567 0.714011
O O13 0.692583 0.145933 0.890233
O O14 0.855988 0.500000 0.000000
O O15 0.793069 0.238895 0.971654
O O16 0.154338 0.862655 0.712548
O O17 0.000000 0.946769 0.761777
O O18 0.719037 0.000000 0.000000
O O19 0.000000 0.141316 0.362018
#
# Coordination Sequence:
#
# PCOD9416260 Si02
#       8
#     8   8   8   8   8   8   8   8
#     4  10  19  34  59  82 114 152 189 239 293 353
#     4  10  21  38  57  83 117 159 200 235 290 366
#     4  10  22  37  59  90 120 153 197 245 301 365
#     4  11  20  37  62  83 122 162 195 241 310 352
#     4  10  20  37  56  83 108 154 197 243 293 350
#     4  10  19  34  58  84 113 147 187 240 295 348
#     4  10  20  35  59  87 116 154 204 251 295 359
#     4   9  19  34  55  84 117 147 185 232 281 350
#
# _framework density 21.319071000000001
#
# number of rings (size 3 to 8) (size 9 to 14) (size 15 to 20)
#    0.000    2.000    2.500    1.500    1.750    0.250 
#    9.000    1.250    0.000   13.125    0.000    0.000 
#    0.000    0.000    0.000    0.000    0.000    0.000 
#
# Total GULP energy -356357.327745 kJ/mol
# GULP energy per Si atom -5568.083246 kJ/mol
# Density = 2.127055 g / cm^3
# Si number density = 21.319071 Si / 1000 Ang^3
#
#
#
# Elastic Constant Matrix: (Units=GPa)
#
#
# Indices 1 2 3 4 5 6 
#
# 1 36.1079 -9.0674 -9.7439 0.0000 0.0000 0.0000
# 2 -9.0674 109.5227 21.3656 0.0000 0.0000 0.0000
# 3 -9.7439 21.3656 81.0349 0.0000 0.0000 0.0000
# 4 0.0000 0.0000 0.0000 22.0247 0.0000 0.0000
# 5 0.0000 0.0000 0.0000 0.0000 10.3162 0.0000
# 6 0.0000 0.0000 0.0000 0.0000 0.0000 9.1131
#
#
#
# Elastic Compliance Matrix: (Units=1/GPa)
#
#
# Indices 1 2 3 4 5 6 
#
# 1 0.028961 0.001811 0.003005 0.000000 0.000000 0.000000
# 2 0.001811 0.009739 -0.002350 0.000000 0.000000 0.000000
# 3 0.003005 -0.002350 0.013321 0.000000 0.000000 0.000000
# 4 0.000000 0.000000 0.000000 0.045404 0.000000 0.000000
# 5 0.000000 0.000000 0.000000 0.000000 0.096935 0.000000
# 6 0.000000 0.000000 0.000000 0.000000 0.000000 0.109732
#
#
# Mechanical properties :
#
#
# Convention : Reuss Voigt Hill
#
# Bulk Modulus (GPa) = 17.55830 25.75269 21.65549
# Shear Modulus (GPa) = 15.71617 23.23153 19.47385
#
# Velocity S-wave (km/s) = 2.71807 3.30465 3.02561
# Velocity P-wave (km/s) = 4.25492 5.16399 4.73134
#
# Compressibility (1/GPa) = 0.05695313
#
# Stress axis : x y z
#
# Youngs Moduli (GPa) = 34.52978 102.68074 75.06811
#
# Poissons Ratio (x) = -0.18601 -0.22556
# Poissons Ratio (y) = -0.06255 0.17641
# Poissons Ratio (z) = -0.10375 0.24129
#
# Static dielectric constant tensor:
#      x y z
#    x 1.804830 0.000000 0.000000 
#    y 0.000000 1.829190 0.000000 
#    z 0.000000 0.000000 1.827660 
# 
# From -- ./inp_files/35367.got.cif
#   From: 2010.05.17/outbox.cif.g08.bks.cpg/sg53_18_cif.got.tgz:35367.got - 2010.06.03 12:45:16.
