data_PCOD9416048
_publ_section_title
;
Structure prediction by ZEFSAII (Michael W. Deem and Ramdas Pophale) SiO2 
 PCOD9416048
Probable space group: P M N A
;
_chemical_formula_sum "Si O2"
_cell_formula_units_Z 48
_cell_length_a 8.613157
_cell_length_b 15.221307
_cell_length_c 19.297537
_cell_angle_alpha 90.000000
_cell_angle_beta 90.000000
_cell_angle_gamma 90.000000
_cell_volume 2529.974776
_symmetry_space_group_name_H-M "P M N A"
_symmetry_group_IT_number 53
_symmetry_cell_setting 'orthorhombic'
loop_
_space_group_symop_operation_xyz
x,y,z
1/2-x,-y,1/2+z
x,-y,-z
1/2-x,y,1/2-z
-x,-y,-z
1/2+x,y,1/2-z
-x,y,z
1/2+x,-y,1/2+z
loop_
_atom_site_type_symbol
_atom_site_label
_atom_site_fract_x
_atom_site_fract_y
_atom_site_fract_z
Si Si1 0.313985 0.469795 0.827187
Si Si2 0.185964 0.122138 0.547329
Si Si3 0.186978 0.677852 0.429664
Si Si4 0.313460 0.218724 0.324128
Si Si5 0.685916 0.050288 0.401995
Si Si6 0.813693 0.375770 0.076036
O O1 0.250000 0.481135 0.750000
O O2 0.500000 0.474946 0.824848
O O3 0.267325 0.376816 0.861759
O O4 0.252144 0.544262 0.879218
O O5 0.234413 0.219959 0.569239
O O6 0.266073 0.095197 0.474960
O O7 0.000000 0.120086 0.538096
O O8 0.235541 0.044862 0.599621
O O9 0.252613 0.630506 0.498011
O O10 0.000000 0.675727 0.434135
O O11 0.250000 0.246327 0.250000
O O12 0.500000 0.219898 0.322076
O O13 0.263840 0.120201 0.344108
O O14 0.265138 0.286706 0.383721
O O15 0.500000 0.040544 0.400561
O O16 0.000000 0.380699 0.075043
#
# Coordination Sequence:
#
# PCOD9416048 Si02
#       6
#     8   8   8   8   8   8
#     4  11  24  42  60  83 115 153 193 237 291 345
#     4  10  19  33  56  84 109 144 187 230 279 333
#     4  10  22  39  60  86 117 150 190 240 288 340
#     4  10  22  36  53  80 115 152 189 232 286 342
#     4  10  19  34  53  79 113 147 183 232 282 333
#     4  11  22  38  60  88 116 149 192 238 289 347
#
# _framework density 18.972522000000001
#
# number of rings (size 3 to 8) (size 9 to 14) (size 15 to 20)
#    0.000    1.667    1.667    4.000    0.000    8.000 
#    0.000    0.833    0.000    4.000    0.000    0.000 
#    0.000    0.000    0.000    0.000    0.000    0.000 
#
# Total GULP energy -268094.360596 kJ/mol
# GULP energy per Si atom -5585.299179 kJ/mol
# Density = 1.892934 g / cm^3
# Si number density = 18.972522 Si / 1000 Ang^3
#
#
#
# Elastic Constant Matrix: (Units=GPa)
#
#
# Indices 1 2 3 4 5 6 
#
# 1 15.9779 21.9422 9.6248 0.0000 0.0000 0.0000
# 2 21.9422 123.1865 25.9268 0.0000 0.0000 0.0000
# 3 9.6248 25.9268 43.4100 0.0000 0.0000 0.0000
# 4 0.0000 0.0000 0.0000 21.4210 0.0000 0.0000
# 5 0.0000 0.0000 0.0000 0.0000 24.0406 0.0000
# 6 0.0000 0.0000 0.0000 0.0000 0.0000 25.9225
#
#
#
# Elastic Compliance Matrix: (Units=1/GPa)
#
#
# Indices 1 2 3 4 5 6 
#
# 1 0.087650 -0.013179 -0.011562 0.000000 0.000000 0.000000
# 2 -0.013179 0.011266 -0.003807 0.000000 0.000000 0.000000
# 3 -0.011562 -0.003807 0.027873 0.000000 0.000000 0.000000
# 4 0.000000 0.000000 0.000000 0.046683 0.000000 0.000000
# 5 0.000000 0.000000 0.000000 0.000000 0.041596 0.000000
# 6 0.000000 0.000000 0.000000 0.000000 0.000000 0.038576
#
#
# Mechanical properties :
#
#
# Convention : Reuss Voigt Hill
#
# Bulk Modulus (GPa) = 14.34860 33.06244 23.70552
# Shear Modulus (GPa) = 14.97128 22.61554 18.79341
#
# Velocity S-wave (km/s) = 2.81215 3.45630 3.15073
# Velocity P-wave (km/s) = 4.25717 5.77861 5.07523
#
# Compressibility (1/GPa) = 0.06969321
#
# Stress axis : x y z
#
# Youngs Moduli (GPa) = 11.40906 88.75904 35.87645
#
# Poissons Ratio (x) = 1.16974 0.41482
# Poissons Ratio (y) = 0.15036 0.13658
# Poissons Ratio (z) = 0.13192 0.33790
#
# Static dielectric constant tensor:
#      x y z
#    x 1.639120 0.000000 0.000000 
#    y 0.000000 1.693550 0.000000 
#    z 0.000000 0.000000 1.623640 
# 
# From -- ./inp_files/30537.got.cif
#   From: 2010.05.17/outbox.cif.g08.bks.cpg/sg53_16_cif.got.tgz:30537.got - 2010.06.03 12:45:16.
