data_PCOD9416718
_publ_section_title
;
Structure prediction by ZEFSAII (Michael W. Deem and Ramdas Pophale) SiO2 
 PCOD9416718
Probable space group: P M N A
;
_chemical_formula_sum "Si O2"
_cell_formula_units_Z 56
_cell_length_a 8.477855
_cell_length_b 19.672048
_cell_length_c 18.659064
_cell_angle_alpha 90.000000
_cell_angle_beta 90.000000
_cell_angle_gamma 90.000000
_cell_volume 3111.898434
_symmetry_space_group_name_H-M "P M N A"
_symmetry_group_IT_number 53
_symmetry_cell_setting 'orthorhombic'
loop_
_space_group_symop_operation_xyz
x,y,z
1/2-x,-y,1/2+z
x,-y,-z
1/2-x,y,1/2-z
-x,-y,-z
1/2+x,y,1/2-z
-x,y,z
1/2+x,-y,1/2+z
loop_
_atom_site_type_symbol
_atom_site_label
_atom_site_fract_x
_atom_site_fract_y
_atom_site_fract_z
Si Si1 0.186726 0.403064 0.924254
Si Si2 0.311937 0.217759 0.478974
Si Si3 0.810391 0.468994 0.169831
Si Si4 0.187184 0.349051 0.423521
Si Si5 0.310424 0.073061 0.525519
Si Si6 0.184934 0.730061 0.371914
Si Si7 0.311375 0.126787 0.823742
O O1 0.240969 0.471820 0.885759
O O2 0.222935 0.340483 0.870487
O O3 0.000000 0.407311 0.937474
O O4 0.265346 0.384701 0.000418
O O5 0.500000 0.223911 0.493947
O O6 0.266550 0.274266 0.420852
O O7 0.274967 0.137569 0.473592
O O8 0.211829 0.242757 0.547321
O O9 0.750000 0.481974 0.250000
O O10 0.746879 0.398217 0.138886
O O11 0.000000 0.468518 0.170194
O O12 0.000000 0.341868 0.421374
O O13 0.500000 0.069421 0.529773
O O14 0.248469 0.090981 0.604465
O O15 0.249963 0.000000 0.500000
O O16 0.245052 0.794412 0.327377
O O17 0.000000 0.718255 0.358562
O O18 0.250000 0.095660 0.750000
O O19 0.500000 0.127802 0.824697
#
# Coordination Sequence:
#
# PCOD9416718 Si02
#       7
#     8   8   8   8   8   8   8
#     4  10  20  34  53  76 102 133 170 212 257 306
#     4   9  16  29  51  76 101 128 160 200 245 293
#     4  11  24  39  53  72 100 133 171 216 267 315
#     4  11  21  34  55  78 101 132 172 214 254 302
#     4   9  18  33  54  80 108 137 169 208 254 302
#     4   9  17  29  46  70  99 129 164 203 243 293
#     4  10  20  32  48  72 103 140 176 209 249 301
#
# _framework density 17.995445
#
# number of rings (size 3 to 8) (size 9 to 14) (size 15 to 20)
#    0.000    2.143    0.000    5.571    0.000    7.143 
#    0.000    2.857    0.000    0.857    0.000    4.000 
#    0.000    0.000    0.000    0.000    0.000    0.000 
#
# Total GULP energy -312165.098540 kJ/mol
# GULP energy per Si atom -5574.376760 kJ/mol
# Density = 1.795449 g / cm^3
# Si number density = 17.995445 Si / 1000 Ang^3
#
#
#
# Elastic Constant Matrix: (Units=GPa)
#
#
# Indices 1 2 3 4 5 6 
#
# 1 32.4661 14.5200 6.2857 0.0000 0.0000 0.0000
# 2 14.5200 109.6585 14.5067 0.0000 0.0000 0.0000
# 3 6.2857 14.5067 29.7350 0.0000 0.0000 0.0000
# 4 0.0000 0.0000 0.0000 13.5620 0.0000 0.0000
# 5 0.0000 0.0000 0.0000 0.0000 18.4422 0.0000
# 6 0.0000 0.0000 0.0000 0.0000 0.0000 21.6889
#
#
#
# Elastic Compliance Matrix: (Units=1/GPa)
#
#
# Indices 1 2 3 4 5 6 
#
# 1 0.033491 -0.003739 -0.005255 0.000000 0.000000 0.000000
# 2 -0.003739 0.010166 -0.004169 0.000000 0.000000 0.000000
# 3 -0.005255 -0.004169 0.036775 0.000000 0.000000 0.000000
# 4 0.000000 0.000000 0.000000 0.073735 0.000000 0.000000
# 5 0.000000 0.000000 0.000000 0.000000 0.054224 0.000000
# 6 0.000000 0.000000 0.000000 0.000000 0.000000 0.046107
#
#
# Mechanical properties :
#
#
# Convention : Reuss Voigt Hill
#
# Bulk Modulus (GPa) = 18.48271 26.94272 22.71271
# Shear Modulus (GPa) = 16.73022 19.84177 18.28599
#
# Velocity S-wave (km/s) = 3.05239 3.32414 3.19116
# Velocity P-wave (km/s) = 4.76612 5.45323 5.12121
#
# Compressibility (1/GPa) = 0.05410463
#
# Stress axis : x y z
#
# Youngs Moduli (GPa) = 29.85861 98.36819 27.19215
#
# Poissons Ratio (x) = 0.36784 0.14290
# Poissons Ratio (y) = 0.11165 0.11337
# Poissons Ratio (z) = 0.15692 0.41011
#
# Static dielectric constant tensor:
#      x y z
#    x 1.604630 0.000000 0.000000 
#    y 0.000000 1.662950 0.000000 
#    z 0.000000 0.000000 1.626640 
# 
# From -- ./inp_files/26652.got.cif
#   From: 2010.05.17/outbox.cif.g08.bks.cpg/sg53_14_cif.got.tgz:26652.got - 2010.06.03 12:45:16.
