data_PCOD9416583
_publ_section_title
;
Structure prediction by ZEFSAII (Michael W. Deem and Ramdas Pophale) SiO2 
 PCOD9416583
Probable space group: P M N A
;
_chemical_formula_sum "Si O2"
_cell_formula_units_Z 64
_cell_length_a 18.567411
_cell_length_b 9.021192
_cell_length_c 21.234752
_cell_angle_alpha 90.000000
_cell_angle_beta 90.000000
_cell_angle_gamma 90.000000
_cell_volume 3556.824773
_symmetry_space_group_name_H-M "P M N A"
_symmetry_group_IT_number 53
_symmetry_cell_setting 'orthorhombic'
loop_
_space_group_symop_operation_xyz
x,y,z
1/2-x,-y,1/2+z
x,-y,-z
1/2-x,y,1/2-z
-x,-y,-z
1/2+x,y,1/2-z
-x,y,z
1/2+x,-y,1/2+z
loop_
_atom_site_type_symbol
_atom_site_label
_atom_site_fract_x
_atom_site_fract_y
_atom_site_fract_z
Si Si1 0.683480 0.649174 0.099684
Si Si2 0.413987 0.620643 0.894781
Si Si3 0.322720 0.844166 0.978255
Si Si4 0.723292 0.114145 0.366919
Si Si5 0.816270 0.125255 0.708337
Si Si6 0.917305 0.037061 0.196844
Si Si7 0.918825 0.374693 0.247214
Si Si8 0.214556 0.548862 0.818640
O O1 0.621231 0.532688 0.082811
O O2 0.660185 0.759405 0.155538
O O3 0.750380 0.557728 0.129451
O O4 0.698507 0.745493 0.038127
O O5 0.500000 0.626126 0.901227
O O6 0.375874 0.752144 0.932909
O O7 0.395022 0.624276 0.820167
O O8 0.252940 0.884001 0.937080
O O9 0.356135 0.000000 0.000000
O O10 0.643354 0.048095 0.357524
O O11 0.724507 0.281977 0.341559
O O12 0.778522 0.015670 0.325590
O O13 0.750000 0.188860 0.750000
O O14 0.881550 0.071773 0.751785
O O15 0.917873 0.202747 0.226359
O O16 0.000000 0.000003 0.180528
O O17 0.869163 0.466090 0.199498
O O18 0.000000 0.430561 0.245482
O O19 0.250000 0.533035 0.750000
#
# Coordination Sequence:
#
# PCOD9416583 Si02
#       8
#     8   8   8   8   8   8   8   8
#     4  12  24  34  58  83 117 155 193 238 288 338
#     4  11  24  41  58  84 119 151 190 236 289 346
#     4  12  24  41  59  80 109 156 207 239 274 337
#     4  10  19  37  60  84 114 153 198 241 278 333
#     4  10  20  34  55  87 117 151 190 241 286 336
#     4   9  18  33  60  91 118 148 188 237 294 346
#     4   9  18  34  60  88 116 149 183 230 292 356
#     4  11  18  33  60  86 114 144 186 237 292 344
#
# _framework density 17.993576999999998
#
# number of rings (size 3 to 8) (size 9 to 14) (size 15 to 20)
#    0.000    1.500    3.750    3.375    0.000    1.750 
#    0.000    0.000    0.000    1.125    0.000    3.500 
#    0.000    0.000    0.000    0.000    0.000    0.000 
#
# Total GULP energy -357121.214866 kJ/mol
# GULP energy per Si atom -5580.018982 kJ/mol
# Density = 1.795262 g / cm^3
# Si number density = 17.993577 Si / 1000 Ang^3
#
#
#
# Elastic Constant Matrix: (Units=GPa)
#
#
# Indices 1 2 3 4 5 6 
#
# 1 123.5816 41.7148 48.3963 0.0000 0.0000 0.0000
# 2 41.7148 73.2463 36.5165 0.0000 0.0000 0.0000
# 3 48.3963 36.5165 83.7340 0.0000 0.0000 0.0000
# 4 0.0000 0.0000 0.0000 35.8853 0.0000 0.0000
# 5 0.0000 0.0000 0.0000 0.0000 20.3061 0.0000
# 6 0.0000 0.0000 0.0000 0.0000 0.0000 6.2618
#
#
#
# Elastic Compliance Matrix: (Units=1/GPa)
#
#
# Indices 1 2 3 4 5 6 
#
# 1 0.011338 -0.004076 -0.004775 0.000000 0.000000 0.000000
# 2 -0.004076 0.018911 -0.005891 0.000000 0.000000 0.000000
# 3 -0.004775 -0.005891 0.017272 0.000000 0.000000 0.000000
# 4 0.000000 0.000000 0.000000 0.027867 0.000000 0.000000
# 5 0.000000 0.000000 0.000000 0.000000 0.049246 0.000000
# 6 0.000000 0.000000 0.000000 0.000000 0.000000 0.159698
#
#
# Mechanical properties :
#
#
# Convention : Reuss Voigt Hill
#
# Bulk Modulus (GPa) = 55.44744 59.31303 57.38023
# Shear Modulus (GPa) = 15.63337 22.75294 19.19316
#
# Velocity S-wave (km/s) = 2.95079 3.55984 3.26953
# Velocity P-wave (km/s) = 6.51856 7.06623 6.79791
#
# Compressibility (1/GPa) = 0.01803510
#
# Stress axis : x y z
#
# Youngs Moduli (GPa) = 88.19997 52.87906 57.89813
#
# Poissons Ratio (x) = 0.21555 0.27648
# Poissons Ratio (y) = 0.35954 0.34108
# Poissons Ratio (z) = 0.42118 0.31152
#
# Static dielectric constant tensor:
#      x y z
#    x 1.637860 0.000000 0.000000 
#    y 0.000000 1.645550 0.000000 
#    z 0.000000 0.000000 1.616030 
# 
# From -- ./inp_files/32862.got.cif
#   From: 2010.05.17/outbox.cif.g08.bks.cpg/sg53_17_cif.got.tgz:32862.got - 2010.06.03 12:45:16.
