data_PCOD9416463
_publ_section_title
;
Structure prediction by ZEFSAII (Michael W. Deem and Ramdas Pophale) SiO2 
 PCOD9416463
Probable space group: P M N A
;
_chemical_formula_sum "Si O2"
_cell_formula_units_Z 32
_cell_length_a 13.126842
_cell_length_b 8.054075
_cell_length_c 11.837523
_cell_angle_alpha 90.000000
_cell_angle_beta 90.000000
_cell_angle_gamma 90.000000
_cell_volume 1251.517029
_symmetry_space_group_name_H-M "P M N A"
_symmetry_group_IT_number 53
_symmetry_cell_setting 'orthorhombic'
loop_
_space_group_symop_operation_xyz
x,y,z
1/2-x,-y,1/2+z
x,-y,-z
1/2-x,y,1/2-z
-x,-y,-z
1/2+x,y,1/2-z
-x,y,z
1/2+x,-y,1/2+z
loop_
_atom_site_type_symbol
_atom_site_label
_atom_site_fract_x
_atom_site_fract_y
_atom_site_fract_z
Si Si1 0.109432 0.330412 0.341651
Si Si2 0.667754 0.145137 0.585629
Si Si3 0.305954 0.488340 0.640812
Si Si4 0.389118 0.065259 0.840558
O O1 0.121329 0.387655 0.209977
O O2 0.208845 0.406258 0.399694
O O3 0.113947 0.133508 0.348902
O O4 0.000000 0.390619 0.382517
O O5 0.645239 0.341716 0.567534
O O6 0.634781 0.000000 0.500000
O O7 0.790775 0.132151 0.595194
O O8 0.621847 0.103752 0.708015
O O9 0.250000 0.398253 0.750000
O O10 0.500000 0.125734 0.881365
#
# Coordination Sequence:
#
# PCOD9416463 Si02
#       4
#     8   8   8   8
#     4   8  15  30  55  73  94 134 173 209 256 301
#     4  11  21  34  53  80 108 138 172 212 259 310
#     4   8  16  29  50  72  94 131 169 203 253 298
#     4  10  19  36  55  75 104 138 173 217 260 305
#
# _framework density 25.568967000000001
#
# number of rings (size 3 to 8) (size 9 to 14) (size 15 to 20)
#    1.500    1.000    2.500    3.000    0.000    5.000 
#    0.000    5.000    0.000    6.000    0.000    0.000 
#    0.000    0.000    0.000    0.000    0.000    0.000 
#
# Total GULP energy -178565.975213 kJ/mol
# GULP energy per Si atom -5580.186725 kJ/mol
# Density = 2.551077 g / cm^3
# Si number density = 25.568967 Si / 1000 Ang^3
#
#
#
# Elastic Constant Matrix: (Units=GPa)
#
#
# Indices 1 2 3 4 5 6 
#
# 1 84.7906 27.8050 18.0169 0.0000 0.0000 0.0000
# 2 27.8050 107.6930 12.7509 0.0000 0.0000 0.0000
# 3 18.0169 12.7509 73.2526 0.0000 0.0000 0.0000
# 4 0.0000 0.0000 0.0000 39.9628 0.0000 0.0000
# 5 0.0000 0.0000 0.0000 0.0000 -15.1115 0.0000
# 6 0.0000 0.0000 0.0000 0.0000 0.0000 -19.7725
#
#
#
# Elastic Compliance Matrix: (Units=1/GPa)
#
#
# Indices 1 2 3 4 5 6 
#
# 1 0.013407 -0.003136 -0.002752 0.000000 0.000000 0.000000
# 2 -0.003136 0.010214 -0.001007 0.000000 0.000000 0.000000
# 3 -0.002752 -0.001007 0.014503 0.000000 0.000000 0.000000
# 4 0.000000 0.000000 0.000000 0.025023 0.000000 0.000000
# 5 0.000000 0.000000 0.000000 0.000000 -0.066175 0.000000
# 6 0.000000 0.000000 0.000000 0.000000 0.000000 -0.050575
#
#
# Mechanical properties :
#
#
# Convention : Reuss Voigt Hill
#
# Bulk Modulus (GPa) = 41.09064 42.54242 41.81653
# Shear Modulus (GPa) = -157.71821 14.82665 -71.44578
#
# Velocity S-wave (km/s) = -7.86240 2.41066 -5.29179
# Velocity P-wave (km/s) = 8.14357 4.94194 4.57684
#
# Compressibility (1/GPa) = 0.02433645
#
# Stress axis : x y z
#
# Youngs Moduli (GPa) = 74.58955 97.90060 68.94920
#
# Poissons Ratio (x) = 0.30698 0.18972
# Poissons Ratio (y) = 0.23389 0.06942
# Poissons Ratio (z) = 0.20524 0.09856
#
# Static dielectric constant tensor:
#      x y z
#    x 2.051110 0.000000 0.000000 
#    y 0.000000 2.007770 0.000000 
#    z 0.000000 0.000000 2.201800 
# 
# From -- ./inp_files/22206.got.cif
#   From: 2010.05.17/outbox.cif.g08.bks.cpg/sg53_12_cif.got.tgz:22206.got - 2010.06.03 12:45:16.
