data_PCOD9416982
_publ_section_title
;
Structure prediction by ZEFSAII (Michael W. Deem and Ramdas Pophale) SiO2 
 PCOD9416982
Probable space group: P M N A
;
_chemical_formula_sum "Si O2"
_cell_formula_units_Z 64
_cell_length_a 9.201001
_cell_length_b 17.029415
_cell_length_c 20.542693
_cell_angle_alpha 90.000000
_cell_angle_beta 90.000000
_cell_angle_gamma 90.000000
_cell_volume 3218.786588
_symmetry_space_group_name_H-M "P M N A"
_symmetry_group_IT_number 53
_symmetry_cell_setting 'orthorhombic'
loop_
_space_group_symop_operation_xyz
x,y,z
1/2-x,-y,1/2+z
x,-y,-z
1/2-x,y,1/2-z
-x,-y,-z
1/2+x,y,1/2-z
-x,y,z
1/2+x,-y,1/2+z
loop_
_atom_site_type_symbol
_atom_site_label
_atom_site_fract_x
_atom_site_fract_y
_atom_site_fract_z
Si Si1 0.838414 0.108933 0.476047
Si Si2 0.672433 0.599560 0.316543
Si Si3 0.670750 0.785376 0.315787
Si Si4 0.835248 0.919035 0.376162
Si Si5 0.328643 0.419217 0.538974
Si Si6 0.674467 0.753106 0.683219
Si Si7 0.169472 0.291051 0.450698
Si Si8 0.668431 0.068153 0.354087
O O1 0.837054 0.068976 0.546098
O O2 0.827468 0.203454 0.481157
O O3 0.708343 0.083966 0.429488
O O4 0.000000 0.094367 0.445406
O O5 0.750000 0.573597 0.250000
O O6 0.500000 0.586782 0.308642
O O7 0.698784 0.693129 0.324675
O O8 0.720081 0.566265 0.386377
O O9 0.750000 0.809854 0.250000
O O10 0.500000 0.796508 0.311179
O O11 0.738817 0.841879 0.368467
O O12 0.000000 0.904970 0.354679
O O13 0.766706 0.992853 0.338501
O O14 0.317028 0.500000 0.500000
O O15 0.500000 0.396229 0.542136
O O16 0.242176 0.352284 0.500235
O O17 0.750000 0.725365 0.750000
O O18 0.500000 0.740934 0.683845
O O19 0.745421 0.715318 0.618367
O O20 0.700754 0.847681 0.678256
O O21 0.000000 0.310881 0.439296
O O22 0.500000 0.049493 0.344463
#
# Coordination Sequence:
#
# PCOD9416982 Si02
#       8
#     8   8   8   8   8   8   8   8
#     4   9  19  34  51  73 101 135 176 223 276 332
#     4   9  19  36  59  85 113 150 191 231 276 329
#     4  10  20  34  51  72  99 131 173 219 263 316
#     4  11  21  32  48  71 102 138 176 223 278 332
#     4  10  21  38  60  88 123 157 188 228 281 336
#     4  10  21  38  59  81 107 143 190 241 292 346
#     4  10  20  36  59  85 113 146 187 234 284 341
#     4  10  21  34  49  72 102 137 179 229 282 334
#
# _framework density 19.88327
#
# number of rings (size 3 to 8) (size 9 to 14) (size 15 to 20)
#    0.000    2.125    0.000    3.000    0.000    6.250 
#    0.000    1.875    0.000    1.500    0.000    0.000 
#    0.000    0.000    0.000    0.000    0.000    0.000 
#
# Total GULP energy -357118.161066 kJ/mol
# GULP energy per Si atom -5579.971267 kJ/mol
# Density = 1.983801 g / cm^3
# Si number density = 19.883270 Si / 1000 Ang^3
#
#
#
# Elastic Constant Matrix: (Units=GPa)
#
#
# Indices 1 2 3 4 5 6 
#
# 1 59.8421 31.1282 45.3260 0.0000 0.0000 0.0000
# 2 31.1282 29.5886 29.9110 0.0000 0.0000 0.0000
# 3 45.3260 29.9110 126.4247 0.0000 0.0000 0.0000
# 4 0.0000 0.0000 0.0000 18.8876 0.0000 0.0000
# 5 0.0000 0.0000 0.0000 0.0000 30.9646 0.0000
# 6 0.0000 0.0000 0.0000 0.0000 0.0000 19.6705
#
#
#
# Elastic Compliance Matrix: (Units=1/GPa)
#
#
# Indices 1 2 3 4 5 6 
#
# 1 0.039845 -0.036115 -0.005741 0.000000 0.000000 0.000000
# 2 -0.036115 0.077155 -0.005306 0.000000 0.000000 0.000000
# 3 -0.005741 -0.005306 0.011223 0.000000 0.000000 0.000000
# 4 0.000000 0.000000 0.000000 0.052945 0.000000 0.000000
# 5 0.000000 0.000000 0.000000 0.000000 0.032295 0.000000
# 6 0.000000 0.000000 0.000000 0.000000 0.000000 0.050838
#
#
# Mechanical properties :
#
#
# Convention : Reuss Voigt Hill
#
# Bulk Modulus (GPa) = 29.49892 47.62061 38.55977
# Shear Modulus (GPa) = 13.51633 21.20389 17.36011
#
# Velocity S-wave (km/s) = 2.61010 3.26915 2.95803
# Velocity P-wave (km/s) = 4.89405 6.18481 5.57690
#
# Compressibility (1/GPa) = 0.03389955
#
# Stress axis : x y z
#
# Youngs Moduli (GPa) = 25.09748 12.96098 89.09911
#
# Poissons Ratio (x) = 0.46808 0.51150
# Poissons Ratio (y) = 0.90638 0.47278
# Poissons Ratio (z) = 0.14408 0.06877
#
# Static dielectric constant tensor:
#      x y z
#    x 1.684900 0.000000 0.000000 
#    y 0.000000 1.706840 0.000000 
#    z 0.000000 0.000000 1.671440 
# 
# From -- ./inp_files/31281.got.cif
#   From: 2010.05.17/outbox.cif.g08.bks.cpg/sg53_16_cif.got.tgz:31281.got - 2010.06.03 12:45:16.
