data_PCOD9416201
_publ_section_title
;
Structure prediction by ZEFSAII (Michael W. Deem and Ramdas Pophale) SiO2 
 PCOD9416201
Probable space group: P M N A
;
_chemical_formula_sum "Si O2"
_cell_formula_units_Z 64
_cell_length_a 14.555663
_cell_length_b 18.414940
_cell_length_c 11.618248
_cell_angle_alpha 90.000000
_cell_angle_beta 90.000000
_cell_angle_gamma 90.000000
_cell_volume 3114.174490
_symmetry_space_group_name_H-M "P M N A"
_symmetry_group_IT_number 53
_symmetry_cell_setting 'orthorhombic'
loop_
_space_group_symop_operation_xyz
x,y,z
1/2-x,-y,1/2+z
x,-y,-z
1/2-x,y,1/2-z
-x,-y,-z
1/2+x,y,1/2-z
-x,y,z
1/2+x,-y,1/2+z
loop_
_atom_site_type_symbol
_atom_site_label
_atom_site_fract_x
_atom_site_fract_y
_atom_site_fract_z
Si Si1 0.894459 0.288352 0.969071
Si Si2 0.844222 0.642392 0.678673
Si Si3 0.098595 0.514281 0.362365
Si Si4 0.111582 0.079078 0.620250
Si Si5 0.214136 0.643895 0.414834
Si Si6 0.893582 0.231065 0.716720
Si Si7 0.612241 0.081574 0.146037
Si Si8 0.895105 0.213603 0.198288
O O1 0.822592 0.351548 0.938795
O O2 0.895827 0.242230 0.852930
O O3 0.000000 0.311307 0.994934
O O4 0.855704 0.241711 0.076623
O O5 0.750000 0.641763 0.750000
O O6 0.889345 0.563496 0.697461
O O7 0.829300 0.647265 0.542265
O O8 0.894024 0.714855 0.721745
O O9 0.095743 0.500000 0.500000
O O10 0.179427 0.571947 0.350718
O O11 0.000000 0.547123 0.328497
O O12 0.137818 0.150084 0.689168
O O13 0.140428 0.090798 0.487421
O O14 0.000000 0.075849 0.618193
O O15 0.140722 0.001432 0.671592
O O16 0.172937 0.711413 0.344315
O O17 0.000000 0.241157 0.674907
O O18 0.500000 0.085059 0.147285
O O19 0.644353 0.145294 0.231391
O O20 0.000000 0.193582 0.170240
#
# Coordination Sequence:
#
# PCOD9416201 Si02
#       8
#     8   8   8   8   8   8   8   8
#     4  10  22  38  55  81 117 159 205 244 286 353
#     4  11  21  35  57  87 118 150 190 240 300 360
#     4   9  20  37  59  87 116 143 181 238 296 351
#     4   8  14  27  48  83 118 145 187 241 296 349
#     4  11  21  38  61  85 115 153 196 246 296 348
#     4  10  20  34  57  85 113 151 200 251 298 352
#     4   8  14  26  50  82 116 148 185 240 298 354
#     4  10  19  34  56  83 117 158 198 239 298 362
#
# _framework density 20.551193000000001
#
# number of rings (size 3 to 8) (size 9 to 14) (size 15 to 20)
#    0.000    2.375    1.250    2.625    0.000    3.500 
#    0.000    0.625    0.000    9.375    3.250    0.000 
#    0.000    0.000    0.000    0.000    0.000    0.125 
#
# Total GULP energy -356776.810558 kJ/mol
# GULP energy per Si atom -5574.637665 kJ/mol
# Density = 2.050442 g / cm^3
# Si number density = 20.551193 Si / 1000 Ang^3
#
#
#
# Elastic Constant Matrix: (Units=GPa)
#
#
# Indices 1 2 3 4 5 6 
#
# 1 74.9556 42.3421 20.6781 0.0000 0.0000 0.0000
# 2 42.3421 138.7199 40.1960 0.0000 0.0000 0.0000
# 3 20.6781 40.1960 78.8202 0.0000 0.0000 0.0000
# 4 0.0000 0.0000 0.0000 -19.5946 0.0000 0.0000
# 5 0.0000 0.0000 0.0000 0.0000 17.5260 0.0000
# 6 0.0000 0.0000 0.0000 0.0000 0.0000 -25.0975
#
#
#
# Elastic Compliance Matrix: (Units=1/GPa)
#
#
# Indices 1 2 3 4 5 6 
#
# 1 0.016399 -0.004411 -0.002053 0.000000 0.000000 0.000000
# 2 -0.004411 0.009645 -0.003762 0.000000 0.000000 0.000000
# 3 -0.002053 -0.003762 0.015144 0.000000 0.000000 0.000000
# 4 0.000000 0.000000 0.000000 -0.051034 0.000000 0.000000
# 5 0.000000 0.000000 0.000000 0.000000 0.057058 0.000000
# 6 0.000000 0.000000 0.000000 0.000000 0.000000 -0.039845
#
#
# Mechanical properties :
#
#
# Convention : Reuss Voigt Hill
#
# Bulk Modulus (GPa) = 48.22112 55.43646 51.82879
# Shear Modulus (GPa) = 143.96656 7.18541 75.57598
#
# Velocity S-wave (km/s) = 8.37883 1.87188 6.07078
# Velocity P-wave (km/s) = 10.82225 5.63075 8.62631
#
# Compressibility (1/GPa) = 0.02073780
#
# Stress axis : x y z
#
# Youngs Moduli (GPa) = 60.97866 103.68016 66.03296
#
# Poissons Ratio (x) = 0.45731 0.13556
# Poissons Ratio (y) = 0.26896 0.24839
# Poissons Ratio (z) = 0.12518 0.39000
#
# Static dielectric constant tensor:
#      x y z
#    x 1.804060 0.000000 0.000000 
#    y 0.000000 1.737650 0.000000 
#    z 0.000000 0.000000 1.728170 
# 
# From -- ./inp_files/16208.got.cif
#   From: 2010.05.17/outbox.cif.g08.bks.cpg/sg53_9_cif.got.tgz:16208.got - 2010.06.03 12:45:16.
