data_PCOD9416289
_publ_section_title
;
Structure prediction by ZEFSAII (Michael W. Deem and Ramdas Pophale) SiO2 
 PCOD9416289
Probable space group: P M N A
;
_chemical_formula_sum "Si O2"
_cell_formula_units_Z 64
_cell_length_a 17.887442
_cell_length_b 15.864342
_cell_length_c 11.875329
_cell_angle_alpha 90.000000
_cell_angle_beta 90.000000
_cell_angle_gamma 90.000000
_cell_volume 3369.891768
_symmetry_space_group_name_H-M "P M N A"
_symmetry_group_IT_number 53
_symmetry_cell_setting 'orthorhombic'
loop_
_space_group_symop_operation_xyz
x,y,z
1/2-x,-y,1/2+z
x,-y,-z
1/2-x,y,1/2-z
-x,-y,-z
1/2+x,y,1/2-z
-x,y,z
1/2+x,-y,1/2+z
loop_
_atom_site_type_symbol
_atom_site_label
_atom_site_fract_x
_atom_site_fract_y
_atom_site_fract_z
Si Si1 0.913735 0.440079 0.144040
Si Si2 0.413700 0.369912 0.703686
Si Si3 0.911344 0.129285 0.571482
Si Si4 0.170418 0.306220 0.582934
Si Si5 0.414022 0.330539 0.141805
Si Si6 0.588197 0.953466 0.824431
Si Si7 0.165166 0.810986 0.792126
Si Si8 0.339328 0.699714 0.494667
O O1 0.899229 0.539153 0.146335
O O2 0.909863 0.408358 0.272707
O O3 0.858716 0.381313 0.072891
O O4 0.000000 0.425306 0.105531
O O5 0.500000 0.368287 0.740899
O O6 0.359107 0.354745 0.807982
O O7 0.398434 0.301486 0.606598
O O8 0.861658 0.211040 0.591101
O O9 0.900282 0.093997 0.444548
O O10 0.000000 0.148922 0.583150
O O11 0.893476 0.051094 0.653460
O O12 0.133632 0.342786 0.469458
O O13 0.258665 0.306953 0.563222
O O14 0.500000 0.314873 0.111039
O O15 0.383801 0.251497 0.213791
O O16 0.500000 0.947448 0.799181
O O17 0.635581 0.904355 0.731897
O O18 0.250000 0.802823 0.750000
O O19 0.158659 0.777888 0.919407
#
# Coordination Sequence:
#
# PCOD9416289 Si02
#       8
#     8   8   8   8   8   8   8   8
#     4   9  21  41  62  84 114 154 205 257 306 371
#     4  11  24  43  62  82 114 165 215 250 301 373
#     4   9  17  32  56  87 121 155 192 242 295 357
#     4  12  22  38  58  89 124 157 198 255 312 367
#     4  10  19  34  59  87 116 154 195 248 309 363
#     4   9  17  30  55  88 117 151 198 242 294 356
#     4  11  19  34  56  87 123 154 195 250 310 362
#     4  11  23  39  58  86 121 158 204 254 309 370
#
# _framework density 18.991707000000002
#
# number of rings (size 3 to 8) (size 9 to 14) (size 15 to 20)
#    0.000    1.750    2.500    3.375    0.000    3.000 
#    6.750    3.125    0.000    2.250    0.000    2.625 
#    0.000    0.000    0.000    0.000    0.000    0.000 
#
# Total GULP energy -357391.862929 kJ/mol
# GULP energy per Si atom -5584.247858 kJ/mol
# Density = 1.894848 g / cm^3
# Si number density = 18.991707 Si / 1000 Ang^3
#
#
#
# Elastic Constant Matrix: (Units=GPa)
#
#
# Indices 1 2 3 4 5 6 
#
# 1 66.0457 42.0786 18.5658 0.0000 0.0000 0.0000
# 2 42.0786 78.3776 22.0980 0.0000 0.0000 0.0000
# 3 18.5658 22.0980 71.6550 0.0000 0.0000 0.0000
# 4 0.0000 0.0000 0.0000 25.1523 0.0000 0.0000
# 5 0.0000 0.0000 0.0000 0.0000 28.1934 0.0000
# 6 0.0000 0.0000 0.0000 0.0000 0.0000 -86.4005
#
#
#
# Elastic Compliance Matrix: (Units=1/GPa)
#
#
# Indices 1 2 3 4 5 6 
#
# 1 0.023382 -0.011878 -0.002395 0.000000 0.000000 0.000000
# 2 -0.011878 0.020007 -0.003093 0.000000 0.000000 0.000000
# 3 -0.002395 -0.003093 0.015530 0.000000 0.000000 0.000000
# 4 0.000000 0.000000 0.000000 0.039758 0.000000 0.000000
# 5 0.000000 0.000000 0.000000 0.000000 0.035469 0.000000
# 6 0.000000 0.000000 0.000000 0.000000 0.000000 -0.011574
#
#
# Mechanical properties :
#
#
# Convention : Reuss Voigt Hill
#
# Bulk Modulus (GPa) = 41.34239 42.39589 41.86914
# Shear Modulus (GPa) = 30.23593 2.27812 16.25702
#
# Velocity S-wave (km/s) = 3.99439 1.09642 2.92893
# Velocity P-wave (km/s) = 6.56426 4.89639 5.79069
#
# Compressibility (1/GPa) = 0.02418825
#
# Stress axis : x y z
#
# Youngs Moduli (GPa) = 42.76842 49.98137 64.39098
#
# Poissons Ratio (x) = 0.59366 0.15423
# Poissons Ratio (y) = 0.50799 0.19914
# Poissons Ratio (z) = 0.10244 0.15458
#
# Static dielectric constant tensor:
#      x y z
#    x 1.644200 0.000000 0.000000 
#    y 0.000000 1.664110 0.000000 
#    z 0.000000 0.000000 1.666960 
# 
# From -- ./inp_files/17092.got.cif
#   From: 2010.05.17/outbox.cif.g08.bks.cpg/sg53_9_cif.got.tgz:17092.got - 2010.06.03 12:45:16.
