data_PCOD9416441
_publ_section_title
;
Structure prediction by ZEFSAII (Michael W. Deem and Ramdas Pophale) SiO2 
 PCOD9416441
Probable space group: P M N A
;
_chemical_formula_sum "Si O2"
_cell_formula_units_Z 64
_cell_length_a 16.630119
_cell_length_b 11.259043
_cell_length_c 18.030135
_cell_angle_alpha 90.000000
_cell_angle_beta 90.000000
_cell_angle_gamma 90.000000
_cell_volume 3375.948503
_symmetry_space_group_name_H-M "P M N A"
_symmetry_group_IT_number 53
_symmetry_cell_setting 'orthorhombic'
loop_
_space_group_symop_operation_xyz
x,y,z
1/2-x,-y,1/2+z
x,-y,-z
1/2-x,y,1/2-z
-x,-y,-z
1/2+x,y,1/2-z
-x,y,z
1/2+x,-y,1/2+z
loop_
_atom_site_type_symbol
_atom_site_label
_atom_site_fract_x
_atom_site_fract_y
_atom_site_fract_z
Si Si1 0.136978 0.637812 0.430674
Si Si2 0.086913 0.377227 0.408958
Si Si3 0.740886 0.971051 0.838480
Si Si4 0.092270 0.949883 0.083502
Si Si5 0.767458 0.297214 0.336102
Si Si6 0.096129 0.846467 0.318917
Si Si7 0.407831 0.284153 0.664716
Si Si8 0.689321 0.482894 0.584885
O O1 0.085814 0.518806 0.418127
O O2 0.125748 0.672647 0.515924
O O3 0.108640 0.739082 0.376130
O O4 0.227770 0.592336 0.420724
O O5 0.143816 0.349335 0.342083
O O6 0.000000 0.325948 0.399658
O O7 0.750000 0.966688 0.750000
O O8 0.730218 0.836420 0.866433
O O9 0.826654 0.009915 0.873733
O O10 0.661057 0.054099 0.845760
O O11 0.095453 0.807711 0.095596
O O12 0.000000 0.982750 0.111034
O O13 0.097050 0.000000 0.000000
O O14 0.750000 0.294126 0.250000
O O15 0.710762 0.388747 0.380517
O O16 0.119465 0.790811 0.237746
O O17 0.000000 0.880745 0.316408
O O18 0.500000 0.313941 0.680729
O O19 0.363430 0.403460 0.640321
O O20 0.659085 0.500000 0.500000
#
# Coordination Sequence:
#
# PCOD9416441 Si02
#       8
#     8   8   8   8   8   8   8   8
#     4  10  19  35  60  93 121 161 207 251 315 388
#     4  10  19  37  60  85 123 164 201 253 310 376
#     4  11  23  41  63  87 125 174 209 263 327 380
#     4  10  22  41  66  94 125 170 222 269 320 389
#     4  10  24  41  57  89 123 162 215 255 309 393
#     4  11  23  39  65 100 132 164 213 272 331 392
#     4  10  23  40  63  96 129 163 216 272 323 387
#     4  11  22  39  63  89 124 167 209 264 327 376
#
# _framework density 18.957636000000001
#
# number of rings (size 3 to 8) (size 9 to 14) (size 15 to 20)
#    0.000    1.625    3.750    2.250    5.250    1.750 
#    0.000    2.500    0.000    1.875    0.000    0.000 
#    0.000    0.000    0.000    0.000    0.000    0.000 
#
# Total GULP energy -356309.628464 kJ/mol
# GULP energy per Si atom -5567.337945 kJ/mol
# Density = 1.891449 g / cm^3
# Si number density = 18.957636 Si / 1000 Ang^3
#
#
#
# Elastic Constant Matrix: (Units=GPa)
#
#
# Indices 1 2 3 4 5 6 
#
# 1 108.2291 52.4192 41.7754 0.0000 0.0000 0.0000
# 2 52.4192 115.3164 45.8697 0.0000 0.0000 0.0000
# 3 41.7754 45.8697 77.7168 0.0000 0.0000 0.0000
# 4 0.0000 0.0000 0.0000 29.0195 0.0000 0.0000
# 5 0.0000 0.0000 0.0000 0.0000 29.4866 0.0000
# 6 0.0000 0.0000 0.0000 0.0000 0.0000 22.3584
#
#
#
# Elastic Compliance Matrix: (Units=1/GPa)
#
#
# Indices 1 2 3 4 5 6 
#
# 1 0.012980 -0.004084 -0.004567 0.000000 0.000000 0.000000
# 2 -0.004084 0.012617 -0.005252 0.000000 0.000000 0.000000
# 3 -0.004567 -0.005252 0.018422 0.000000 0.000000 0.000000
# 4 0.000000 0.000000 0.000000 0.034460 0.000000 0.000000
# 5 0.000000 0.000000 0.000000 0.000000 0.033914 0.000000
# 6 0.000000 0.000000 0.000000 0.000000 0.000000 0.044726
#
#
# Mechanical properties :
#
#
# Convention : Reuss Voigt Hill
#
# Bulk Modulus (GPa) = 61.67410 64.59900 63.13655
# Shear Modulus (GPa) = 26.27037 26.91943 26.59490
#
# Velocity S-wave (km/s) = 3.72659 3.77235 3.74954
# Velocity P-wave (km/s) = 7.14982 7.28859 7.21954
#
# Compressibility (1/GPa) = 0.01621426
#
# Stress axis : x y z
#
# Youngs Moduli (GPa) = 77.03883 79.25724 54.28352
#
# Poissons Ratio (x) = 0.32368 0.24792
# Poissons Ratio (y) = 0.31462 0.28508
# Poissons Ratio (z) = 0.35184 0.41623
#
# Static dielectric constant tensor:
#      x y z
#    x 1.715690 0.000000 0.000000 
#    y 0.000000 1.650270 0.000000 
#    z 0.000000 0.000000 1.707010 
# 
# From -- ./inp_files/28591.got.cif
#   From: 2010.05.17/outbox.cif.g08.bks.cpg/sg53_15_cif.got.tgz:28591.got - 2010.06.03 12:45:16.
