data_PCOD9416602
_publ_section_title
;
Structure prediction by ZEFSAII (Michael W. Deem and Ramdas Pophale) SiO2 
 PCOD9416602
Probable space group: P M N A
;
_chemical_formula_sum "Si O2"
_cell_formula_units_Z 64
_cell_length_a 8.458610
_cell_length_b 15.003747
_cell_length_c 25.838456
_cell_angle_alpha 90.000000
_cell_angle_beta 90.000000
_cell_angle_gamma 90.000000
_cell_volume 3279.180269
_symmetry_space_group_name_H-M "P M N A"
_symmetry_group_IT_number 53
_symmetry_cell_setting 'orthorhombic'
loop_
_space_group_symop_operation_xyz
x,y,z
1/2-x,-y,1/2+z
x,-y,-z
1/2-x,y,1/2-z
-x,-y,-z
1/2+x,y,1/2-z
-x,y,z
1/2+x,-y,1/2+z
loop_
_atom_site_type_symbol
_atom_site_label
_atom_site_fract_x
_atom_site_fract_y
_atom_site_fract_z
Si Si1 0.690916 0.990425 0.658988
Si Si2 0.316987 0.232153 0.480815
Si Si3 0.180863 0.946129 0.552956
Si Si4 0.807988 0.282682 0.907369
Si Si5 0.189309 0.791658 0.807220
Si Si6 0.316346 0.346548 0.107246
Si Si7 0.809144 0.181897 0.804630
Si Si8 0.690347 0.479548 0.559210
O O1 0.500000 0.989375 0.657431
O O2 0.758712 0.001164 0.601513
O O3 0.744313 0.893079 0.679227
O O4 0.741524 0.078257 0.689897
O O5 0.500000 0.261842 0.478056
O O6 0.294938 0.137735 0.453790
O O7 0.269161 0.227454 0.540710
O O8 0.212853 0.299622 0.448087
O O9 0.000000 0.915845 0.561941
O O10 0.184881 0.000000 0.500000
O O11 0.751585 0.237608 0.854493
O O12 0.754954 0.383275 0.920059
O O13 0.000000 0.284133 0.904041
O O14 0.250000 0.768948 0.750000
O O15 0.244335 0.719625 0.849676
O O16 0.000000 0.792871 0.807383
O O17 0.500000 0.356375 0.118172
O O18 0.239231 0.442957 0.098800
O O19 0.750000 0.217936 0.750000
O O20 0.000000 0.183143 0.805080
O O21 0.745433 0.500000 0.500000
O O22 0.500000 0.476870 0.556703
#
# Coordination Sequence:
#
# PCOD9416602 Si02
#       8
#     8   8   8   8   8   8   8   8
#     4  10  21  37  59  84 114 156 204 244 288 351
#     4  11  20  36  60  85 115 155 198 241 296 361
#     4  11  23  35  50  81 123 161 197 243 300 354
#     4   9  19  36  61  88 115 151 198 247 296 355
#     4  11  23  40  62  88 118 159 204 247 296 353
#     4  12  24  38  58  89 125 157 193 246 303 359
#     4  10  21  39  60  86 116 152 198 245 293 344
#     4  10  19  37  63  88 117 157 202 246 298 362
#
# _framework density 19.517071999999999
#
# number of rings (size 3 to 8) (size 9 to 14) (size 15 to 20)
#    0.000    1.500    2.500    3.375    0.000    3.250 
#    0.000    2.500    0.000    1.500    0.000    0.000 
#    0.000    0.000    0.000    0.000    0.000    0.000 
#
# Total GULP energy -357369.286812 kJ/mol
# GULP energy per Si atom -5583.895106 kJ/mol
# Density = 1.947265 g / cm^3
# Si number density = 19.517072 Si / 1000 Ang^3
#
#
#
# Elastic Constant Matrix: (Units=GPa)
#
#
# Indices 1 2 3 4 5 6 
#
# 1 15.4577 13.9967 10.2999 0.0000 0.0000 0.0000
# 2 13.9967 87.0002 47.2191 0.0000 0.0000 0.0000
# 3 10.2999 47.2191 143.3925 0.0000 0.0000 0.0000
# 4 0.0000 0.0000 0.0000 16.6288 0.0000 0.0000
# 5 0.0000 0.0000 0.0000 0.0000 26.9901 0.0000
# 6 0.0000 0.0000 0.0000 0.0000 0.0000 -15.0099
#
#
#
# Elastic Compliance Matrix: (Units=1/GPa)
#
#
# Indices 1 2 3 4 5 6 
#
# 1 0.076081 -0.011292 -0.001746 0.000000 0.000000 0.000000
# 2 -0.011292 0.015672 -0.004350 0.000000 0.000000 0.000000
# 3 -0.001746 -0.004350 0.008532 0.000000 0.000000 0.000000
# 4 0.000000 0.000000 0.000000 0.060136 0.000000 0.000000
# 5 0.000000 0.000000 0.000000 0.000000 0.037051 0.000000
# 6 0.000000 0.000000 0.000000 0.000000 0.000000 -0.066623
#
#
# Mechanical properties :
#
#
# Convention : Reuss Voigt Hill
#
# Bulk Modulus (GPa) = 15.26522 43.20906 29.23714
# Shear Modulus (GPa) = 26.67213 17.34412 22.00813
#
# Velocity S-wave (km/s) = 3.70077 2.98428 3.36167
# Velocity P-wave (km/s) = 5.10876 5.83624 5.48458
#
# Compressibility (1/GPa) = 0.06550839
#
# Stress axis : x y z
#
# Youngs Moduli (GPa) = 13.14382 63.80959 117.21112
#
# Poissons Ratio (x) = 0.72055 0.20470
# Poissons Ratio (y) = 0.14842 0.50981
# Poissons Ratio (z) = 0.02295 0.27754
#
# Static dielectric constant tensor:
#      x y z
#    x 1.672970 0.000000 0.000000 
#    y 0.000000 1.702780 0.000000 
#    z 0.000000 0.000000 1.674620 
# 
# From -- ./inp_files/34152.got.cif
#   From: 2010.05.17/outbox.cif.g08.bks.cpg/sg53_18_cif.got.tgz:34152.got - 2010.06.03 12:45:16.
