data_PCOD9416617
_publ_section_title
;
Structure prediction by ZEFSAII (Michael W. Deem and Ramdas Pophale) SiO2 
 PCOD9416617
Probable space group: P M N A
;
_chemical_formula_sum "Si O2"
_cell_formula_units_Z 64
_cell_length_a 25.886634
_cell_length_b 13.388494
_cell_length_c 8.554922
_cell_angle_alpha 90.000000
_cell_angle_beta 90.000000
_cell_angle_gamma 90.000000
_cell_volume 2964.990908
_symmetry_space_group_name_H-M "P M N A"
_symmetry_group_IT_number 53
_symmetry_cell_setting 'orthorhombic'
loop_
_space_group_symop_operation_xyz
x,y,z
1/2-x,-y,1/2+z
x,-y,-z
1/2-x,y,1/2-z
-x,-y,-z
1/2+x,y,1/2-z
-x,y,z
1/2+x,-y,1/2+z
loop_
_atom_site_type_symbol
_atom_site_label
_atom_site_fract_x
_atom_site_fract_y
_atom_site_fract_z
Si Si1 0.059877 0.389170 0.804263
Si Si2 0.411279 0.303466 0.350854
Si Si3 0.865022 0.107236 0.066613
Si Si4 0.234996 0.809367 0.077576
Si Si5 0.152543 0.527370 0.823978
Si Si6 0.288542 0.403397 0.921142
Si Si7 0.105816 0.298640 0.493257
Si Si8 0.669757 0.102649 0.084729
O O1 0.095418 0.486433 0.778523
O O2 0.078046 0.316545 0.661006
O O3 0.000000 0.411569 0.785275
O O4 0.067826 0.352534 0.986074
O O5 0.409164 0.187207 0.394885
O O6 0.353536 0.352643 0.326865
O O7 0.428090 0.311786 0.166579
O O8 0.837190 0.090627 0.231691
O O9 0.823992 0.164045 0.955200
O O10 0.880474 0.000000 0.000000
O O11 0.250000 0.845994 0.250000
O O12 0.252577 0.693184 0.075309
O O13 0.272322 0.864270 0.956761
O O14 0.191724 0.455117 0.736494
O O15 0.157760 0.500000 0.000000
O O16 0.264975 0.500000 0.000000
O O17 0.343472 0.372117 0.002086
O O18 0.131880 0.189752 0.478352
O O19 0.657696 0.000000 0.000000
#
# Coordination Sequence:
#
# PCOD9416617 Si02
#       8
#     8   8   8   8   8   8   8   8
#     4  10  22  37  61  94 129 158 191 248 308 371
#     4  10  21  38  62  89 119 162 204 250 299 368
#     4  11  24  40  61  88 118 158 206 259 312 360
#     4  11  24  37  54  86 122 158 203 253 308 355
#     4   9  19  35  60  83 118 156 204 241 297 364
#     4  10  19  38  57  79 117 166 206 248 299 361
#     4   9  20  37  61  88 118 157 206 243 305 365
#     4  10  21  39  63  85 111 156 201 262 305 363
#
# _framework density 21.585227
#
# number of rings (size 3 to 8) (size 9 to 14) (size 15 to 20)
#    0.000    2.000    1.250    1.500    8.750    2.750 
#    2.250    0.625    0.000    0.750    0.000    0.000 
#    0.000    0.000    0.000    0.000    0.000    0.000 
#
# Total GULP energy -356540.438092 kJ/mol
# GULP energy per Si atom -5570.944345 kJ/mol
# Density = 2.153610 g / cm^3
# Si number density = 21.585227 Si / 1000 Ang^3
#
#
#
# Elastic Constant Matrix: (Units=GPa)
#
#
# Indices 1 2 3 4 5 6 
#
# 1 64.1060 13.4855 9.3265 0.0000 0.0000 0.0000
# 2 13.4855 125.9744 23.9756 0.0000 0.0000 0.0000
# 3 9.3265 23.9756 107.1228 0.0000 0.0000 0.0000
# 4 0.0000 0.0000 0.0000 38.7857 0.0000 0.0000
# 5 0.0000 0.0000 0.0000 0.0000 20.9133 0.0000
# 6 0.0000 0.0000 0.0000 0.0000 0.0000 7.8085
#
#
#
# Elastic Compliance Matrix: (Units=1/GPa)
#
#
# Indices 1 2 3 4 5 6 
#
# 1 0.016073 -0.001519 -0.001059 0.000000 0.000000 0.000000
# 2 -0.001519 0.008435 -0.001756 0.000000 0.000000 0.000000
# 3 -0.001059 -0.001756 0.009820 0.000000 0.000000 0.000000
# 4 0.000000 0.000000 0.000000 0.025783 0.000000 0.000000
# 5 0.000000 0.000000 0.000000 0.000000 0.047816 0.000000
# 6 0.000000 0.000000 0.000000 0.000000 0.000000 0.128066
#
#
# Mechanical properties :
#
#
# Convention : Reuss Voigt Hill
#
# Bulk Modulus (GPa) = 38.97113 43.41982 41.19547
# Shear Modulus (GPa) = 19.74614 30.19587 24.97100
#
# Velocity S-wave (km/s) = 3.02785 3.74426 3.40495
# Velocity P-wave (km/s) = 5.50614 6.23313 5.88088
#
# Compressibility (1/GPa) = 0.02566002
#
# Stress axis : x y z
#
# Youngs Moduli (GPa) = 62.21682 118.55575 101.83053
#
# Poissons Ratio (x) = 0.18008 0.10788
# Poissons Ratio (y) = 0.09451 0.17877
# Poissons Ratio (z) = 0.06591 0.20814
#
# Static dielectric constant tensor:
#      x y z
#    x 1.810950 0.000000 0.000000 
#    y 0.000000 1.792690 0.000000 
#    z 0.000000 0.000000 1.868780 
# 
# From -- ./inp_files/13259.got.cif
#   From: 2010.05.17/outbox.cif.g08.bks.cpg/sg53_7_cif.got.tgz:13259.got - 2010.06.03 12:45:16.
