data_PCOD9416320
_publ_section_title
;
Structure prediction by ZEFSAII (Michael W. Deem and Ramdas Pophale) SiO2 
 PCOD9416320
Probable space group: P M N A
;
_chemical_formula_sum "Si O2"
_cell_formula_units_Z 48
_cell_length_a 8.850648
_cell_length_b 16.957355
_cell_length_c 18.490565
_cell_angle_alpha 90.000000
_cell_angle_beta 90.000000
_cell_angle_gamma 90.000000
_cell_volume 2775.130194
_symmetry_space_group_name_H-M "P M N A"
_symmetry_group_IT_number 53
_symmetry_cell_setting 'orthorhombic'
loop_
_space_group_symop_operation_xyz
x,y,z
1/2-x,-y,1/2+z
x,-y,-z
1/2-x,y,1/2-z
-x,-y,-z
1/2+x,y,1/2-z
-x,y,z
1/2+x,-y,1/2+z
loop_
_atom_site_type_symbol
_atom_site_label
_atom_site_fract_x
_atom_site_fract_y
_atom_site_fract_z
Si Si1 0.680971 0.663652 0.173789
Si Si2 0.681391 0.258532 0.457198
Si Si3 0.181207 0.823436 0.402570
Si Si4 0.318214 0.146745 0.329160
Si Si5 0.817573 0.411618 0.522111
Si Si6 0.682208 0.989312 0.415575
O O1 0.750000 0.639911 0.250000
O O2 0.500000 0.660199 0.178850
O O3 0.723345 0.753889 0.153343
O O4 0.726395 0.611060 0.104447
O O5 0.500000 0.257480 0.463351
O O6 0.749825 0.204600 0.520993
O O7 0.724632 0.219421 0.381125
O O8 0.744018 0.345746 0.471002
O O9 0.245263 0.909324 0.385797
O O10 0.000000 0.825325 0.407758
O O11 0.250000 0.151762 0.250000
O O12 0.500000 0.145841 0.324200
O O13 0.272750 0.065993 0.369900
O O14 0.775856 0.500000 0.500000
O O15 0.000000 0.404060 0.517619
O O16 0.500000 0.982384 0.413454
O O17 0.725324 0.000000 0.500000
#
# Coordination Sequence:
#
# PCOD9416320 Si02
#       6
#     8   8   8   8   8   8
#     4   9  19  34  52  77 108 140 173 213 265 318
#     4  10  19  35  56  78 105 138 177 218 263 316
#     4  10  20  33  52  79 105 137 182 221 262 318
#     4  10  22  37  53  75 106 143 181 225 272 316
#     4   9  19  37  59  83 110 139 174 217 266 321
#     4  10  19  35  54  74 105 142 181 225 271 312
#
# _framework density 17.296485000000001
#
# number of rings (size 3 to 8) (size 9 to 14) (size 15 to 20)
#    0.000    2.333    1.667    2.000    0.000    6.667 
#    0.000    4.167    0.000    4.000    0.000    0.000 
#    0.000    0.000    0.000    0.000    0.000    0.000 
#
# Total GULP energy -267794.025347 kJ/mol
# GULP energy per Si atom -5579.042195 kJ/mol
# Density = 1.725712 g / cm^3
# Si number density = 17.296485 Si / 1000 Ang^3
#
#
#
# Elastic Constant Matrix: (Units=GPa)
#
#
# Indices 1 2 3 4 5 6 
#
# 1 20.7626 39.3885 33.1887 0.0000 0.0000 0.0000
# 2 39.3885 153.9169 80.9696 0.0000 0.0000 0.0000
# 3 33.1887 80.9696 135.5218 0.0000 0.0000 0.0000
# 4 0.0000 0.0000 0.0000 17.8449 0.0000 0.0000
# 5 0.0000 0.0000 0.0000 0.0000 30.3219 0.0000
# 6 0.0000 0.0000 0.0000 0.0000 0.0000 45.9867
#
#
#
# Elastic Compliance Matrix: (Units=1/GPa)
#
#
# Indices 1 2 3 4 5 6 
#
# 1 0.110989 -0.020569 -0.014891 0.000000 0.000000 0.000000
# 2 -0.020569 0.013287 -0.002901 0.000000 0.000000 0.000000
# 3 -0.014891 -0.002901 0.012759 0.000000 0.000000 0.000000
# 4 0.000000 0.000000 0.000000 0.056038 0.000000 0.000000
# 5 0.000000 0.000000 0.000000 0.000000 0.032979 0.000000
# 6 0.000000 0.000000 0.000000 0.000000 0.000000 0.021745
#
#
# Mechanical properties :
#
#
# Convention : Reuss Voigt Hill
#
# Bulk Modulus (GPa) = 16.58058 68.58835 42.58447
# Shear Modulus (GPa) = 14.50850 29.27433 21.89142
#
# Velocity S-wave (km/s) = 2.89937 4.11847 3.56147
# Velocity P-wave (km/s) = 4.56238 7.89660 6.44871
#
# Compressibility (1/GPa) = 0.06031150
#
# Stress axis : x y z
#
# Youngs Moduli (GPa) = 9.00992 75.26122 78.37536
#
# Poissons Ratio (x) = 1.54806 1.16711
# Poissons Ratio (y) = 0.18533 0.22739
# Poissons Ratio (z) = 0.13417 0.21835
#
# Static dielectric constant tensor:
#      x y z
#    x 1.582670 0.000000 0.000000 
#    y 0.000000 1.584730 0.000000 
#    z 0.000000 0.000000 1.571590 
# 
# From -- ./inp_files/20237.got.cif
#   From: 2010.05.17/outbox.cif.g08.bks.cpg/sg53_11_cif.got.tgz:20237.got - 2010.06.03 12:45:16.
