data_PCOD9416225
_publ_section_title
;
Structure prediction by ZEFSAII (Michael W. Deem and Ramdas Pophale) SiO2 
 PCOD9416225
Probable space group: P M N A
;
_chemical_formula_sum "Si O2"
_cell_formula_units_Z 48
_cell_length_a 18.786121
_cell_length_b 8.745886
_cell_length_c 15.160973
_cell_angle_alpha 90.000000
_cell_angle_beta 90.000000
_cell_angle_gamma 90.000000
_cell_volume 2490.967158
_symmetry_space_group_name_H-M "P M N A"
_symmetry_group_IT_number 53
_symmetry_cell_setting 'orthorhombic'
loop_
_space_group_symop_operation_xyz
x,y,z
1/2-x,-y,1/2+z
x,-y,-z
1/2-x,y,1/2-z
-x,-y,-z
1/2+x,y,1/2-z
-x,y,z
1/2+x,-y,1/2+z
loop_
_atom_site_type_symbol
_atom_site_label
_atom_site_fract_x
_atom_site_fract_y
_atom_site_fract_z
Si Si1 0.921118 0.068712 0.732027
Si Si2 0.863503 0.432700 0.092531
Si Si3 0.079119 0.562517 0.273317
Si Si4 0.722759 0.400478 0.850040
Si Si5 0.640951 0.069676 0.404193
Si Si6 0.202642 0.944084 0.402886
O O1 0.917256 0.253261 0.736593
O O2 0.858471 0.017854 0.666958
O O3 0.000000 0.026943 0.700128
O O4 0.907793 0.999647 0.828073
O O5 0.906531 0.491384 0.177472
O O6 0.782915 0.494995 0.106743
O O7 0.864646 0.250971 0.090889
O O8 0.890265 0.500000 0.000000
O O9 0.145383 0.523135 0.336933
O O10 0.000000 0.521331 0.304772
O O11 0.750000 0.366025 0.750000
O O12 0.715310 0.238997 0.899441
O O13 0.624908 0.000000 0.500000
O O14 0.721947 0.021517 0.381236
O O15 0.182259 0.000000 0.500000
#
# Coordination Sequence:
#
# PCOD9416225 Si02
#       6
#     8   8   8   8   8   8
#     4  10  21  37  56  79 112 149 182 221 271 328
#     4  11  21  34  55  80 106 138 179 226 272 322
#     4   9  19  36  56  77 105 143 180 216 266 323
#     4   9  18  35  56  79 107 142 183 224 269 323
#     4  11  22  36  56  82 111 143 181 227 275 323
#     4  10  19  34  57  82 111 144 181 225 270 322
#
# _framework density 19.269622999999999
#
# number of rings (size 3 to 8) (size 9 to 14) (size 15 to 20)
#    0.000    2.000    0.000    6.500    0.000    5.667 
#    0.000    0.000    0.000    0.500    0.000    0.000 
#    0.000    0.000    0.000    0.000    0.000    0.000 
#
# Total GULP energy -268107.426427 kJ/mol
# GULP energy per Si atom -5585.571384 kJ/mol
# Density = 1.922576 g / cm^3
# Si number density = 19.269623 Si / 1000 Ang^3
#
#
#
# Elastic Constant Matrix: (Units=GPa)
#
#
# Indices 1 2 3 4 5 6 
#
# 1 62.0750 -5.2156 -0.5847 0.0000 0.0000 0.0000
# 2 -5.2156 34.5133 12.7681 0.0000 0.0000 0.0000
# 3 -0.5847 12.7681 48.0511 0.0000 0.0000 0.0000
# 4 0.0000 0.0000 0.0000 31.0379 0.0000 0.0000
# 5 0.0000 0.0000 0.0000 0.0000 8.8368 0.0000
# 6 0.0000 0.0000 0.0000 0.0000 0.0000 11.9870
#
#
#
# Elastic Compliance Matrix: (Units=1/GPa)
#
#
# Indices 1 2 3 4 5 6 
#
# 1 0.016328 0.002655 -0.000507 0.000000 0.000000 0.000000
# 2 0.002655 0.032565 -0.008621 0.000000 0.000000 0.000000
# 3 -0.000507 -0.008621 0.023096 0.000000 0.000000 0.000000
# 4 0.000000 0.000000 0.000000 0.032219 0.000000 0.000000
# 5 0.000000 0.000000 0.000000 0.000000 0.113163 0.000000
# 6 0.000000 0.000000 0.000000 0.000000 0.000000 0.083423
#
#
# Mechanical properties :
#
#
# Convention : Reuss Voigt Hill
#
# Bulk Modulus (GPa) = 16.93679 17.61944 17.27811
# Shear Modulus (GPa) = 14.99609 19.55046 17.27327
#
# Velocity S-wave (km/s) = 2.79269 3.18869 2.99724
# Velocity P-wave (km/s) = 4.38261 4.76660 4.57864
#
# Compressibility (1/GPa) = 0.05904308
#
# Stress axis : x y z
#
# Youngs Moduli (GPa) = 61.24506 30.70797 43.29802
#
# Poissons Ratio (x) = -0.08153 0.02194
# Poissons Ratio (y) = -0.16260 0.37326
# Poissons Ratio (z) = 0.03104 0.26473
#
# Static dielectric constant tensor:
#      x y z
#    x 1.707620 0.000000 0.000000 
#    y 0.000000 1.643300 0.000000 
#    z 0.000000 0.000000 1.649720 
# 
# From -- ./inp_files/23689.got.cif
#   From: 2010.05.17/outbox.cif.g08.bks.cpg/sg53_12_cif.got.tgz:23689.got - 2010.06.03 12:45:16.
