data_PCOD9416782
_publ_section_title
;
Structure prediction by ZEFSAII (Michael W. Deem and Ramdas Pophale) SiO2 
 PCOD9416782
Probable space group: P M N A
;
_chemical_formula_sum "Si O2"
_cell_formula_units_Z 58
_cell_length_a 32.821352
_cell_length_b 18.104431
_cell_length_c 5.040980
_cell_angle_alpha 90.000000
_cell_angle_beta 90.000000
_cell_angle_gamma 90.000000
_cell_volume 2995.410317
_symmetry_space_group_name_H-M "P M N A"
_symmetry_group_IT_number 53
_symmetry_cell_setting 'orthorhombic'
loop_
_space_group_symop_operation_xyz
x,y,z
1/2-x,-y,1/2+z
x,-y,-z
1/2-x,y,1/2-z
-x,-y,-z
1/2+x,y,1/2-z
-x,y,z
1/2+x,-y,1/2+z
loop_
_atom_site_type_symbol
_atom_site_label
_atom_site_fract_x
_atom_site_fract_y
_atom_site_fract_z
Si Si1 0.545900 0.115595 0.475327
Si Si2 0.288239 0.420546 0.397676
Si Si3 0.000000 0.500000 0.500000
Si Si4 0.625677 0.761310 0.075410
Si Si5 0.398837 0.919145 0.026020
Si Si6 0.574027 0.427943 0.682728
Si Si7 0.838133 0.616185 0.413581
Si Si8 0.924522 0.727058 0.923108
O O1 0.500000 0.088422 0.490958
O O2 0.574299 0.086856 0.709814
O O3 0.545651 0.205226 0.485071
O O4 0.568799 0.092591 0.208891
O O5 0.273529 0.500000 0.500000
O O6 0.250000 0.383115 0.250000
O O7 0.309105 0.387641 0.658012
O O8 0.322004 0.427613 0.168025
O O9 0.963831 0.552851 0.370028
O O10 0.630736 0.848064 0.026341
O O11 0.659808 0.702334 0.003970
O O12 0.613405 0.746878 0.380952
O O13 0.588526 0.735988 0.882202
O O14 0.379824 0.000000 0.000000
O O15 0.580044 0.500000 0.500000
O O16 0.616502 0.410227 0.832125
O O17 0.563807 0.355776 0.502968
#
# Coordination Sequence:
#
# PCOD9416782 Si02
#       8
#     8   8   2   8   8   8   8   8
#     4  10  20  33  49  72  95 138 184 228 301 369
#     4  12  25  40  62  96 126 152 190 237 289 352
#     4  12  30  40  52  82 112 140 216 282 290 328
#     4   9  19  37  55  83 103 143 193 224 272 351
#     4  10  20  34  52  75 107 135 173 239 290 335
#     4  11  26  42  55  80 108 152 206 256 308 332
#     4  11  23  40  67  83 117 162 193 236 292 361
#     4   9  20  36  55  69 103 138 189 246 292 344
#
# _framework density 19.362956000000001
#
# number of rings (size 3 to 8) (size 9 to 14) (size 15 to 20)
#    0.000    1.655    0.000    4.759    8.690    1.655 
#    0.000    0.000    0.000    0.000    0.000    0.000 
#    0.000    2.207    0.000    1.655    0.000    0.000 
#
# Total GULP energy -323160.389105 kJ/mol
# GULP energy per Si atom -5571.730847 kJ/mol
# Density = 1.931889 g / cm^3
# Si number density = 19.362956 Si / 1000 Ang^3
#
#
#
# Elastic Constant Matrix: (Units=GPa)
#
#
# Indices 1 2 3 4 5 6 
#
# 1 57.9355 16.7977 18.1670 0.0000 0.0000 0.0000
# 2 16.7977 154.3963 25.4769 0.0000 0.0000 0.0000
# 3 18.1670 25.4769 115.5652 0.0000 0.0000 0.0000
# 4 0.0000 0.0000 0.0000 28.2333 0.0000 0.0000
# 5 0.0000 0.0000 0.0000 0.0000 19.0398 0.0000
# 6 0.0000 0.0000 0.0000 0.0000 0.0000 6.7007
#
#
#
# Elastic Compliance Matrix: (Units=1/GPa)
#
#
# Indices 1 2 3 4 5 6 
#
# 1 0.018525 -0.001593 -0.002561 0.000000 0.000000 0.000000
# 2 -0.001593 0.006858 -0.001262 0.000000 0.000000 0.000000
# 3 -0.002561 -0.001262 0.009334 0.000000 0.000000 0.000000
# 4 0.000000 0.000000 0.000000 0.035419 0.000000 0.000000
# 5 0.000000 0.000000 0.000000 0.000000 0.052521 0.000000
# 6 0.000000 0.000000 0.000000 0.000000 0.000000 0.149239
#
#
# Mechanical properties :
#
#
# Convention : Reuss Voigt Hill
#
# Bulk Modulus (GPa) = 41.86444 49.86447 45.86446
# Shear Modulus (GPa) = 17.20043 28.62511 22.91277
#
# Velocity S-wave (km/s) = 2.98370 3.84910 3.44369
# Velocity P-wave (km/s) = 5.79118 6.75000 6.28889
#
# Compressibility (1/GPa) = 0.02388662
#
# Stress axis : x y z
#
# Youngs Moduli (GPa) = 53.97965 145.80857 107.13702
#
# Poissons Ratio (x) = 0.23226 0.27439
# Poissons Ratio (y) = 0.08598 0.13516
# Poissons Ratio (z) = 0.13825 0.18394
#
# Static dielectric constant tensor:
#      x y z
#    x 1.664320 0.000000 0.000000 
#    y 0.000000 1.734830 0.000000 
#    z 0.000000 0.000000 1.657830 
# 
# From -- ./inp_files/5450.got.cif
#   From: 2010.05.17/outbox.cif.g08.bks.cpg/sg53_3_cif.got.tgz:5450.got - 2010.06.03 12:45:16.
