data_PCOD9416249
_publ_section_title
;
Structure prediction by ZEFSAII (Michael W. Deem and Ramdas Pophale) SiO2 
 PCOD9416249
Probable space group: P M N A
;
_chemical_formula_sum "Si O2"
_cell_formula_units_Z 48
_cell_length_a 27.979277
_cell_length_b 6.634330
_cell_length_c 13.769432
_cell_angle_alpha 90.000000
_cell_angle_beta 90.000000
_cell_angle_gamma 90.000000
_cell_volume 2555.933697
_symmetry_space_group_name_H-M "P M N A"
_symmetry_group_IT_number 53
_symmetry_cell_setting 'orthorhombic'
loop_
_space_group_symop_operation_xyz
x,y,z
1/2-x,-y,1/2+z
x,-y,-z
1/2-x,y,1/2-z
-x,-y,-z
1/2+x,y,1/2-z
-x,y,z
1/2+x,-y,1/2+z
loop_
_atom_site_type_symbol
_atom_site_label
_atom_site_fract_x
_atom_site_fract_y
_atom_site_fract_z
Si Si1 0.630896 0.085171 0.107773
Si Si2 0.856369 0.966367 0.900769
Si Si3 0.806448 0.318315 0.260128
Si Si4 0.445870 0.387061 0.202210
Si Si5 0.447029 0.303479 0.433055
Si Si6 0.370010 0.290503 0.755305
O O1 0.674828 0.232590 0.136179
O O2 0.585126 0.212777 0.148716
O O3 0.640531 0.886017 0.170061
O O4 0.625306 0.000000 0.000000
O O5 0.828881 0.827955 0.822556
O O6 0.902422 0.843041 0.937021
O O7 0.873026 0.170490 0.846447
O O8 0.827123 0.000000 0.000000
O O9 0.750000 0.322630 0.250000
O O10 0.830159 0.537237 0.247143
O O11 0.500000 0.398935 0.164337
O O12 0.448522 0.347474 0.317732
O O13 0.416627 0.595713 0.202682
O O14 0.439289 0.500000 0.500000
O O15 0.500000 0.225335 0.460092
#
# Coordination Sequence:
#
# PCOD9416249 Si02
#       6
#     8   8   8   8   8   8
#     4  10  22  41  63  86 118 158 203 250 306 358
#     4  11  22  36  62  89 123 158 196 242 300 362
#     4  10  23  42  60  86 116 150 199 255 310 363
#     4  10  20  36  57  87 123 159 204 247 291 353
#     4  10  19  34  57  88 126 162 197 237 289 359
#     4  10  20  39  59  85 115 162 192 250 301 356
#
# _framework density 18.77983
#
# number of rings (size 3 to 8) (size 9 to 14) (size 15 to 20)
#    0.000    1.833    5.000    1.000    0.000    8.000 
#    0.000    2.500    0.000    0.000    0.000    0.000 
#    0.000    0.000    0.000    0.000    0.000    0.000 
#
# Total GULP energy -267308.937624 kJ/mol
# GULP energy per Si atom -5568.936201 kJ/mol
# Density = 1.873709 g / cm^3
# Si number density = 18.779830 Si / 1000 Ang^3
#
#
#
# Elastic Constant Matrix: (Units=GPa)
#
#
# Indices 1 2 3 4 5 6 
#
# 1 149.5638 64.2832 27.8833 0.0000 0.0000 0.0000
# 2 64.2832 132.3106 55.3342 0.0000 0.0000 0.0000
# 3 27.8833 55.3342 120.6066 0.0000 0.0000 0.0000
# 4 0.0000 0.0000 0.0000 28.8775 0.0000 0.0000
# 5 0.0000 0.0000 0.0000 0.0000 6.0903 0.0000
# 6 0.0000 0.0000 0.0000 0.0000 0.0000 -6.5911
#
#
#
# Elastic Compliance Matrix: (Units=1/GPa)
#
#
# Indices 1 2 3 4 5 6 
#
# 1 0.008452 -0.004070 -0.000087 0.000000 0.000000 0.000000
# 2 -0.004070 0.011312 -0.004249 0.000000 0.000000 0.000000
# 3 -0.000087 -0.004249 0.010261 0.000000 0.000000 0.000000
# 4 0.000000 0.000000 0.000000 0.034629 0.000000 0.000000
# 5 0.000000 0.000000 0.000000 0.000000 0.164194 0.000000
# 6 0.000000 0.000000 0.000000 0.000000 0.000000 -0.151720
#
#
# Mechanical properties :
#
#
# Convention : Reuss Voigt Hill
#
# Bulk Modulus (GPa) = 75.68084 77.49804 76.58944
# Shear Modulus (GPa) = 50.84189 22.67404 36.75797
#
# Velocity S-wave (km/s) = 5.20878 3.47848 4.42895
# Velocity P-wave (km/s) = 8.74995 7.58217 8.18691
#
# Compressibility (1/GPa) = 0.01321338
#
# Stress axis : x y z
#
# Youngs Moduli (GPa) = 118.32150 88.39820 97.45655
#
# Poissons Ratio (x) = 0.35978 0.00844
# Poissons Ratio (y) = 0.48156 0.41411
# Poissons Ratio (z) = 0.01025 0.37562
#
# Static dielectric constant tensor:
#      x y z
#    x 1.666220 0.000000 0.000000 
#    y 0.000000 1.666430 0.000000 
#    z 0.000000 0.000000 1.744070 
# 
# From -- ./inp_files/24907.got.cif
#   From: 2010.05.17/outbox.cif.g08.bks.cpg/sg53_13_cif.got.tgz:24907.got - 2010.06.03 12:45:16.
