data_PCOD9416109
_publ_section_title
;
Structure prediction by ZEFSAII (Michael W. Deem and Ramdas Pophale) SiO2 
 PCOD9416109
Probable space group: P M N A
;
_chemical_formula_sum "Si O2"
_cell_formula_units_Z 48
_cell_length_a 18.876324
_cell_length_b 8.836914
_cell_length_c 16.550721
_cell_angle_alpha 90.000000
_cell_angle_beta 90.000000
_cell_angle_gamma 90.000000
_cell_volume 2760.800147
_symmetry_space_group_name_H-M "P M N A"
_symmetry_group_IT_number 53
_symmetry_cell_setting 'orthorhombic'
loop_
_space_group_symop_operation_xyz
x,y,z
1/2-x,-y,1/2+z
x,-y,-z
1/2-x,y,1/2-z
-x,-y,-z
1/2+x,y,1/2-z
-x,y,z
1/2+x,-y,1/2+z
loop_
_atom_site_type_symbol
_atom_site_label
_atom_site_fract_x
_atom_site_fract_y
_atom_site_fract_z
Si Si1 0.420475 0.478355 0.385899
Si Si2 0.176597 0.048724 0.205558
Si Si3 0.198169 0.267071 0.869543
Si Si4 0.314933 0.742065 0.552085
Si Si5 0.285681 0.544830 0.837293
Si Si6 0.580266 0.290420 0.218761
O O1 0.500000 0.526045 0.405305
O O2 0.366475 0.613905 0.368980
O O3 0.385622 0.361591 0.449274
O O4 0.422481 0.380699 0.303441
O O5 0.250000 0.086378 0.250000
O O6 0.174545 0.126359 0.117247
O O7 0.115544 0.128228 0.258952
O O8 0.178873 0.870031 0.189250
O O9 0.267914 0.367125 0.848909
O O10 0.204544 0.211202 0.962050
O O11 0.256173 0.632542 0.592258
O O12 0.250000 0.581210 0.750000
O O13 0.364865 0.609949 0.833851
O O14 0.500000 0.276992 0.187694
#
# Coordination Sequence:
#
# PCOD9416109 Si02
#       6
#     8   8   8   8   8   8
#     4   9  18  32  50  75 109 145 175 207 256 310
#     4  11  20  36  54  76 104 138 176 217 264 313
#     4  11  22  29  54  82 109 134 174 227 265 307
#     4  10  19  34  51  78 106 141 177 213 264 318
#     4  11  16  35  55  77 101 137 181 219 256 302
#     4  10  19  34  56  76 103 142 180 215 257 313
#
# _framework density 17.386265000000002
#
# number of rings (size 3 to 8) (size 9 to 14) (size 15 to 20)
#    0.000    1.667    6.667    3.000    0.000    2.000 
#    0.000    0.000    0.000    7.000    0.000    1.167 
#    0.000    0.000    0.000    0.000    0.000    0.000 
#
# Total GULP energy -267458.000075 kJ/mol
# GULP energy per Si atom -5572.041668 kJ/mol
# Density = 1.734669 g / cm^3
# Si number density = 17.386265 Si / 1000 Ang^3
#
#
#
# Elastic Constant Matrix: (Units=GPa)
#
#
# Indices 1 2 3 4 5 6 
#
# 1 133.8697 43.7384 22.3788 0.0000 0.0000 0.0000
# 2 43.7384 106.5814 7.3477 0.0000 0.0000 0.0000
# 3 22.3788 7.3477 35.1921 0.0000 0.0000 0.0000
# 4 0.0000 0.0000 0.0000 25.7729 0.0000 0.0000
# 5 0.0000 0.0000 0.0000 0.0000 16.7487 0.0000
# 6 0.0000 0.0000 0.0000 0.0000 0.0000 14.2298
#
#
#
# Elastic Compliance Matrix: (Units=1/GPa)
#
#
# Indices 1 2 3 4 5 6 
#
# 1 0.009514 -0.003538 -0.005311 0.000000 0.000000 0.000000
# 2 -0.003538 0.010835 -0.000012 0.000000 0.000000 0.000000
# 3 -0.005311 -0.000012 0.031795 0.000000 0.000000 0.000000
# 4 0.000000 0.000000 0.000000 0.038800 0.000000 0.000000
# 5 0.000000 0.000000 0.000000 0.000000 0.059706 0.000000
# 6 0.000000 0.000000 0.000000 0.000000 0.000000 0.070275
#
#
# Mechanical properties :
#
#
# Convention : Reuss Voigt Hill
#
# Bulk Modulus (GPa) = 29.05179 46.95255 38.00217
# Shear Modulus (GPa) = 19.99018 24.82885 22.40951
#
# Velocity S-wave (km/s) = 3.39450 3.78308 3.59405
# Velocity P-wave (km/s) = 5.66652 6.79312 6.25523
#
# Compressibility (1/GPa) = 0.03442129
#
# Stress axis : x y z
#
# Youngs Moduli (GPa) = 105.11074 92.29102 31.45101
#
# Poissons Ratio (x) = 0.32653 0.16704
# Poissons Ratio (y) = 0.37189 0.00039
# Poissons Ratio (z) = 0.55826 0.00115
#
# Static dielectric constant tensor:
#      x y z
#    x 1.607890 0.000000 0.000000 
#    y 0.000000 1.632670 0.000000 
#    z 0.000000 0.000000 1.619710 
# 
# From -- ./inp_files/24196.got.cif
#   From: 2010.05.17/outbox.cif.g08.bks.cpg/sg53_13_cif.got.tgz:24196.got - 2010.06.03 12:45:16.
