data_PCOD9416562
_publ_section_title
;
Structure prediction by ZEFSAII (Michael W. Deem and Ramdas Pophale) SiO2 
 PCOD9416562
Probable space group: P M N A
;
_chemical_formula_sum "Si O2"
_cell_formula_units_Z 64
_cell_length_a 16.874775
_cell_length_b 14.182329
_cell_length_c 12.291413
_cell_angle_alpha 90.000000
_cell_angle_beta 90.000000
_cell_angle_gamma 90.000000
_cell_volume 2941.625342
_symmetry_space_group_name_H-M "P M N A"
_symmetry_group_IT_number 53
_symmetry_cell_setting 'orthorhombic'
loop_
_space_group_symop_operation_xyz
x,y,z
1/2-x,-y,1/2+z
x,-y,-z
1/2-x,y,1/2-z
-x,-y,-z
1/2+x,y,1/2-z
-x,y,z
1/2+x,-y,1/2+z
loop_
_atom_site_type_symbol
_atom_site_label
_atom_site_fract_x
_atom_site_fract_y
_atom_site_fract_z
Si Si1 0.093035 0.336358 0.843522
Si Si2 0.673392 0.028751 0.676524
Si Si3 0.831216 0.153538 0.042605
Si Si4 0.593564 0.569455 0.120369
Si Si5 0.908613 0.834335 0.305011
Si Si6 0.090927 0.661357 0.924404
Si Si7 0.404887 0.635324 0.816360
Si Si8 0.669348 0.256816 0.000928
O O1 0.096751 0.413118 0.750062
O O2 0.124868 0.241767 0.783916
O O3 0.000000 0.316543 0.864694
O O4 0.126424 0.370141 0.959031
O O5 0.750000 0.051778 0.750000
O O6 0.667206 0.090247 0.566257
O O7 0.602056 0.063902 0.752364
O O8 0.675361 0.920717 0.640282
O O9 0.903641 0.224894 0.061804
O O10 0.756854 0.223623 0.029860
O O11 0.500000 0.585351 0.088064
O O12 0.614028 0.459518 0.114784
O O13 0.650801 0.647636 0.068161
O O14 0.866125 0.821707 0.419975
O O15 0.000000 0.809174 0.321604
O O16 0.127077 0.635526 0.807346
O O17 0.000000 0.627401 0.919892
O O18 0.500000 0.638900 0.810615
O O19 0.374546 0.723232 0.885903
#
# Coordination Sequence:
#
# PCOD9416562 Si02
#       8
#     8   8   8   8   8   8   8   8
#     4   8  15  30  56  87 117 151 195 245 298 349
#     4  11  23  42  62  87 118 159 208 249 309 378
#     4  11  25  39  64  88 119 166 202 252 317 378
#     4   9  18  35  63  93 119 159 208 257 305 359
#     4  10  19  36  65  94 119 151 203 264 306 353
#     4  10  21  38  60  89 123 162 208 254 306 368
#     4  10  21  36  60  92 126 164 205 254 309 363
#     4  11  21  37  62  90 124 160 206 249 310 378
#
# _framework density 21.756678999999998
#
# number of rings (size 3 to 8) (size 9 to 14) (size 15 to 20)
#    0.000    2.000    2.500    2.250    1.750    2.000 
#    0.000    3.750    8.250    0.750    0.000    0.000 
#    0.000    0.000    0.000    0.000    0.000    0.000 
#
# Total GULP energy -356645.542366 kJ/mol
# GULP energy per Si atom -5572.586599 kJ/mol
# Density = 2.170716 g / cm^3
# Si number density = 21.756679 Si / 1000 Ang^3
#
#
#
# Elastic Constant Matrix: (Units=GPa)
#
#
# Indices 1 2 3 4 5 6 
#
# 1 30.5335 18.6417 9.6548 0.0000 0.0000 0.0000
# 2 18.6417 63.4987 20.4929 0.0000 0.0000 0.0000
# 3 9.6548 20.4929 95.1722 0.0000 0.0000 0.0000
# 4 0.0000 0.0000 0.0000 44.7283 0.0000 0.0000
# 5 0.0000 0.0000 0.0000 0.0000 14.9722 0.0000
# 6 0.0000 0.0000 0.0000 0.0000 0.0000 15.3385
#
#
#
# Elastic Compliance Matrix: (Units=1/GPa)
#
#
# Indices 1 2 3 4 5 6 
#
# 1 0.040143 -0.011253 -0.001649 0.000000 0.000000 0.000000
# 2 -0.011253 0.020079 -0.003182 0.000000 0.000000 0.000000
# 3 -0.001649 -0.003182 0.011360 0.000000 0.000000 0.000000
# 4 0.000000 0.000000 0.000000 0.022357 0.000000 0.000000
# 5 0.000000 0.000000 0.000000 0.000000 0.066790 0.000000
# 6 0.000000 0.000000 0.000000 0.000000 0.000000 0.065195
#
#
# Mechanical properties :
#
#
# Convention : Reuss Voigt Hill
#
# Bulk Modulus (GPa) = 25.37213 31.86482 28.61848
# Shear Modulus (GPa) = 18.43457 24.36881 21.40169
#
# Velocity S-wave (km/s) = 2.91401 3.35036 3.13978
# Velocity P-wave (km/s) = 4.79677 5.44466 5.13095
#
# Compressibility (1/GPa) = 0.03941332
#
# Stress axis : x y z
#
# Youngs Moduli (GPa) = 24.91120 49.80392 88.03023
#
# Poissons Ratio (x) = 0.56042 0.14519
# Poissons Ratio (y) = 0.28032 0.28011
# Poissons Ratio (z) = 0.04109 0.15847
#
# Static dielectric constant tensor:
#      x y z
#    x 1.808750 0.000000 0.000000 
#    y 0.000000 1.807880 0.000000 
#    z 0.000000 0.000000 1.869760 
# 
# From -- ./inp_files/17091.got.cif
#   From: 2010.05.17/outbox.cif.g08.bks.cpg/sg53_9_cif.got.tgz:17091.got - 2010.06.03 12:45:16.
