data_PCOD9416897
_publ_section_title
;
Structure prediction by ZEFSAII (Michael W. Deem and Ramdas Pophale) SiO2 
 PCOD9416897
Probable space group: P M N A
;
_chemical_formula_sum "Si O2"
_cell_formula_units_Z 64
_cell_length_a 7.711741
_cell_length_b 20.463914
_cell_length_c 19.086948
_cell_angle_alpha 90.000000
_cell_angle_beta 90.000000
_cell_angle_gamma 90.000000
_cell_volume 3012.157161
_symmetry_space_group_name_H-M "P M N A"
_symmetry_group_IT_number 53
_symmetry_cell_setting 'orthorhombic'
loop_
_space_group_symop_operation_xyz
x,y,z
1/2-x,-y,1/2+z
x,-y,-z
1/2-x,y,1/2-z
-x,-y,-z
1/2+x,y,1/2-z
-x,y,z
1/2+x,-y,1/2+z
loop_
_atom_site_type_symbol
_atom_site_label
_atom_site_fract_x
_atom_site_fract_y
_atom_site_fract_z
Si Si1 0.289861 0.130612 0.915807
Si Si2 0.211590 0.719517 0.432713
Si Si3 0.791424 0.788915 0.670060
Si Si4 0.201416 0.901170 0.568403
Si Si5 0.788178 0.666471 0.585768
Si Si6 0.208331 0.604313 0.331484
Si Si7 0.697850 0.011843 0.669843
Si Si8 0.711887 0.518694 0.920776
O O1 0.500000 0.128445 0.911102
O O2 0.234864 0.206251 0.917484
O O3 0.222113 0.086813 0.852471
O O4 0.228489 0.098619 0.989584
O O5 0.263800 0.694603 0.509771
O O6 0.270988 0.667118 0.375208
O O7 0.000000 0.720023 0.432926
O O8 0.750000 0.803453 0.750000
O O9 0.722522 0.844061 0.617150
O O10 0.730591 0.717888 0.644381
O O11 0.000000 0.789155 0.664629
O O12 0.000000 0.883651 0.557969
O O13 0.206192 0.967354 0.612695
O O14 0.729464 0.592156 0.595638
O O15 0.000000 0.665203 0.585823
O O16 0.250000 0.607686 0.250000
O O17 0.271787 0.537465 0.367769
O O18 0.000000 0.604035 0.338636
O O19 0.750000 0.000616 0.750000
O O20 0.500000 0.992426 0.662787
O O21 0.500000 0.519129 0.919398
O O22 0.761656 0.500000 0.000000
#
# Coordination Sequence:
#
# PCOD9416897 Si02
#       8
#     8   8   8   8   8   8   8   8
#     4  10  20  37  62  88 112 143 186 232 279 334
#     4   9  16  31  56  82 107 141 185 230 271 320
#     4  10  20  33  52  80 112 144 178 219 269 322
#     4  10  20  37  61  86 112 146 184 225 274 334
#     4   9  15  28  51  79 106 136 183 231 266 311
#     4  10  20  33  52  81 113 145 184 231 280 326
#     4  12  26  42  59  82 114 149 185 229 280 333
#     4   9  15  26  50  80 105 135 183 233 268 308
#
# _framework density 21.247232
#
# number of rings (size 3 to 8) (size 9 to 14) (size 15 to 20)
#    0.000    2.125    2.500    1.875    0.000    4.500 
#    0.000    1.875    0.000    1.125    0.000    0.000 
#    0.000    0.000    0.000    0.000    0.000    0.000 
#
# Total GULP energy -357447.363270 kJ/mol
# GULP energy per Si atom -5585.115051 kJ/mol
# Density = 2.119887 g / cm^3
# Si number density = 21.247232 Si / 1000 Ang^3
#
#
#
# Elastic Constant Matrix: (Units=GPa)
#
#
# Indices 1 2 3 4 5 6 
#
# 1 33.5067 -7.1110 -3.2106 0.0000 0.0000 0.0000
# 2 -7.1110 102.7817 14.3819 0.0000 0.0000 0.0000
# 3 -3.2106 14.3819 72.1403 0.0000 0.0000 0.0000
# 4 0.0000 0.0000 0.0000 72.7218 0.0000 0.0000
# 5 0.0000 0.0000 0.0000 0.0000 18.1643 0.0000
# 6 0.0000 0.0000 0.0000 0.0000 0.0000 -11.7938
#
#
#
# Elastic Compliance Matrix: (Units=1/GPa)
#
#
# Indices 1 2 3 4 5 6 
#
# 1 0.030354 0.001966 0.000959 0.000000 0.000000 0.000000
# 2 0.001966 0.010136 -0.001933 0.000000 0.000000 0.000000
# 3 0.000959 -0.001933 0.014290 0.000000 0.000000 0.000000
# 4 0.000000 0.000000 0.000000 0.013751 0.000000 0.000000
# 5 0.000000 0.000000 0.000000 0.000000 0.055053 0.000000
# 6 0.000000 0.000000 0.000000 0.000000 0.000000 -0.084790
#
#
# Mechanical properties :
#
#
# Convention : Reuss Voigt Hill
#
# Bulk Modulus (GPa) = 17.61711 24.06103 20.83907
# Shear Modulus (GPa) = 89.71584 29.44301 59.57942
#
# Velocity S-wave (km/s) = 6.50510 3.72658 5.30112
# Velocity P-wave (km/s) = 8.04558 5.46493 6.87738
#
# Compressibility (1/GPa) = 0.05676300
#
# Stress axis : x y z
#
# Youngs Moduli (GPa) = 32.94469 98.65944 69.97919
#
# Poissons Ratio (x) = -0.19395 -0.06711
# Poissons Ratio (y) = -0.06476 0.13528
# Poissons Ratio (z) = -0.03159 0.19073
#
# Static dielectric constant tensor:
#      x y z
#    x 1.815900 0.000000 0.000000 
#    y 0.000000 1.765630 0.000000 
#    z 0.000000 0.000000 1.689070 
# 
# From -- ./inp_files/26806.got.cif
#   From: 2010.05.17/outbox.cif.g08.bks.cpg/sg53_14_cif.got.tgz:26806.got - 2010.06.03 12:45:16.
