data_PCOD9416865
_publ_section_title
;
Structure prediction by ZEFSAII (Michael W. Deem and Ramdas Pophale) SiO2 
 PCOD9416865
Probable space group: P M N A
;
_chemical_formula_sum "Si O2"
_cell_formula_units_Z 64
_cell_length_a 9.458140
_cell_length_b 21.473631
_cell_length_c 15.478284
_cell_angle_alpha 90.000000
_cell_angle_beta 90.000000
_cell_angle_gamma 90.000000
_cell_volume 3143.648896
_symmetry_space_group_name_H-M "P M N A"
_symmetry_group_IT_number 53
_symmetry_cell_setting 'orthorhombic'
loop_
_space_group_symop_operation_xyz
x,y,z
1/2-x,-y,1/2+z
x,-y,-z
1/2-x,y,1/2-z
-x,-y,-z
1/2+x,y,1/2-z
-x,y,z
1/2+x,-y,1/2+z
loop_
_atom_site_type_symbol
_atom_site_label
_atom_site_fract_x
_atom_site_fract_y
_atom_site_fract_z
Si Si1 0.150664 0.916960 0.178445
Si Si2 0.166893 0.632130 0.510159
Si Si3 0.341371 0.228026 0.671094
Si Si4 0.670657 0.870903 0.839096
Si Si5 0.652037 0.009261 0.900575
Si Si6 0.168324 0.410018 0.839928
Si Si7 0.831952 0.559163 0.839827
Si Si8 0.664145 0.776608 0.994502
O O1 0.250000 0.947475 0.250000
O O2 0.139095 0.844698 0.195078
O O3 0.000000 0.946536 0.170621
O O4 0.242930 0.932411 0.097270
O O5 0.249274 0.622761 0.419089
O O6 0.250635 0.592973 0.582185
O O7 0.169191 0.704867 0.536434
O O8 0.000000 0.614044 0.502077
O O9 0.250000 0.255770 0.750000
O O10 0.500000 0.254392 0.663527
O O11 0.258771 0.224809 0.580884
O O12 0.750000 0.854837 0.750000
O O13 0.500000 0.866742 0.828212
O O14 0.702083 0.943113 0.862778
O O15 0.707452 0.824580 0.918862
O O16 0.500000 0.026796 0.860570
O O17 0.630565 0.000000 0.000000
O O18 0.250000 0.397540 0.750000
O O19 0.176963 0.484700 0.854103
O O20 0.000000 0.395269 0.836198
O O21 0.750000 0.573045 0.750000
O O22 0.000000 0.575379 0.835764
O O23 0.500000 0.791059 0.017992
#
# Coordination Sequence:
#
# PCOD9416865 Si02
#       8
#     8   8   8   8   8   8   8   8
#     4  10  20  33  51  77 106 134 169 215 269 331
#     4  11  23  38  59  87 118 154 197 245 295 346
#     4  10  21  37  59  85 113 149 189 234 292 353
#     4  10  22  40  60  82 112 152 197 244 292 344
#     4  10  20  34  55  81 108 141 179 224 283 344
#     4  10  21  38  61  90 123 158 194 234 287 349
#     4  10  21  38  61  89 121 156 194 238 288 344
#     4  10  23  42  60  81 112 152 199 246 289 339
#
# _framework density 20.358506999999999
#
# number of rings (size 3 to 8) (size 9 to 14) (size 15 to 20)
#    0.000    1.875    0.000    3.375    0.000    9.750 
#    0.000    1.250    0.000    0.000    0.000    0.000 
#    0.000    0.000    0.000    0.000    0.000    0.000 
#
# Total GULP energy -356700.123059 kJ/mol
# GULP energy per Si atom -5573.439423 kJ/mol
# Density = 2.031217 g / cm^3
# Si number density = 20.358507 Si / 1000 Ang^3
#
#
#
# Elastic Constant Matrix: (Units=GPa)
#
#
# Indices 1 2 3 4 5 6 
#
# 1 136.2127 49.7210 47.5360 0.0000 0.0000 0.0000
# 2 49.7210 84.0086 37.5516 0.0000 0.0000 0.0000
# 3 47.5360 37.5516 101.0448 0.0000 0.0000 0.0000
# 4 0.0000 0.0000 0.0000 -10.9364 0.0000 0.0000
# 5 0.0000 0.0000 0.0000 0.0000 29.4033 0.0000
# 6 0.0000 0.0000 0.0000 0.0000 0.0000 19.0881
#
#
#
# Elastic Compliance Matrix: (Units=1/GPa)
#
#
# Indices 1 2 3 4 5 6 
#
# 1 0.010082 -0.004614 -0.003029 0.000000 0.000000 0.000000
# 2 -0.004614 0.016386 -0.003919 0.000000 0.000000 0.000000
# 3 -0.003029 -0.003919 0.012778 0.000000 0.000000 0.000000
# 4 0.000000 0.000000 0.000000 -0.091438 0.000000 0.000000
# 5 0.000000 0.000000 0.000000 0.000000 0.034010 0.000000
# 6 0.000000 0.000000 0.000000 0.000000 0.000000 0.052389
#
#
# Mechanical properties :
#
#
# Convention : Reuss Voigt Hill
#
# Bulk Modulus (GPa) = 62.02104 65.65369 63.83737
# Shear Modulus (GPa) = 79.73984 19.94152 49.84068
#
# Velocity S-wave (km/s) = 6.26521 3.13312 4.95325
# Velocity P-wave (km/s) = 9.10317 6.73850 8.00859
#
# Compressibility (1/GPa) = 0.01612356
#
# Stress axis : x y z
#
# Youngs Moduli (GPa) = 99.18182 61.02792 78.25999
#
# Poissons Ratio (x) = 0.28156 0.23703
# Poissons Ratio (y) = 0.45758 0.30671
# Poissons Ratio (z) = 0.30039 0.23918
#
# Static dielectric constant tensor:
#      x y z
#    x 1.749320 0.000000 0.000000 
#    y 0.000000 1.805680 0.000000 
#    z 0.000000 0.000000 2.163750 
# 
# From -- ./inp_files/21035.got.cif
#   From: 2010.05.17/outbox.cif.g08.bks.cpg/sg53_11_cif.got.tgz:21035.got - 2010.06.03 12:45:16.
