data_PCOD9416912
_publ_section_title
;
Structure prediction by ZEFSAII (Michael W. Deem and Ramdas Pophale) SiO2 
 PCOD9416912
Probable space group: P M N A
;
_chemical_formula_sum "Si O2"
_cell_formula_units_Z 64
_cell_length_a 8.862547
_cell_length_b 22.546930
_cell_length_c 17.977968
_cell_angle_alpha 90.000000
_cell_angle_beta 90.000000
_cell_angle_gamma 90.000000
_cell_volume 3592.415578
_symmetry_space_group_name_H-M "P M N A"
_symmetry_group_IT_number 53
_symmetry_cell_setting 'orthorhombic'
loop_
_space_group_symop_operation_xyz
x,y,z
1/2-x,-y,1/2+z
x,-y,-z
1/2-x,y,1/2-z
-x,-y,-z
1/2+x,y,1/2-z
-x,y,z
1/2+x,-y,1/2+z
loop_
_atom_site_type_symbol
_atom_site_label
_atom_site_fract_x
_atom_site_fract_y
_atom_site_fract_z
Si Si1 0.820145 0.944834 0.168178
Si Si2 0.179387 0.391023 0.977088
Si Si3 0.819266 0.289029 0.328101
Si Si4 0.179204 0.545829 0.175243
Si Si5 0.320888 0.254936 0.482924
Si Si6 0.681729 0.861707 0.040339
Si Si7 0.178417 0.575842 0.629104
Si Si8 0.172808 0.042267 0.426987
O O1 0.750000 0.937714 0.250000
O O2 0.753118 0.896545 0.110104
O O3 0.000000 0.939780 0.171024
O O4 0.772160 0.008664 0.133629
O O5 0.223047 0.417696 0.898000
O O6 0.000000 0.402337 0.989288
O O7 0.202947 0.320501 0.983044
O O8 0.272289 0.420973 0.043152
O O9 0.750000 0.268797 0.250000
O O10 0.748605 0.257355 0.399995
O O11 0.783339 0.359361 0.337999
O O12 0.000000 0.282548 0.328652
O O13 0.250000 0.571222 0.250000
O O14 0.235081 0.478513 0.165561
O O15 0.000000 0.546330 0.181000
O O16 0.500000 0.244184 0.479203
O O17 0.240942 0.204592 0.531334
O O18 0.500000 0.864669 0.046280
O O19 0.724341 0.896100 0.963437
O O20 0.000000 0.566847 0.636714
O O21 0.000000 0.047298 0.399859
O O22 0.169949 0.000000 0.500000
#
# Coordination Sequence:
#
# PCOD9416912 Si02
#       8
#     8   8   8   8   8   8   8   8
#     4  11  21  34  55  83 114 145 180 221 265 309
#     4   9  20  37  54  73 101 137 174 216 264 315
#     4  10  20  34  52  76 105 135 169 213 265 318
#     4  11  22  35  51  73 102 134 169 212 265 319
#     4  10  20  36  57  78 103 139 182 222 263 313
#     4  10  20  36  57  81 110 143 181 221 262 311
#     4  10  20  33  53  79 103 130 167 211 262 322
#     4   8  16  32  53  77 107 139 168 205 255 306
#
# _framework density 17.815311000000001
#
# number of rings (size 3 to 8) (size 9 to 14) (size 15 to 20)
#    0.000    2.125    0.000    4.500    0.000    8.250 
#    0.000    1.250    0.000    4.500    0.000    0.000 
#    0.000    0.000    0.000    0.000    0.000    0.000 
#
# Total GULP energy -357227.577221 kJ/mol
# GULP energy per Si atom -5581.680894 kJ/mol
# Density = 1.777476 g / cm^3
# Si number density = 17.815311 Si / 1000 Ang^3
#
#
#
# Elastic Constant Matrix: (Units=GPa)
#
#
# Indices 1 2 3 4 5 6 
#
# 1 73.0569 30.7148 56.2182 0.0000 0.0000 0.0000
# 2 30.7148 43.6063 33.9099 0.0000 0.0000 0.0000
# 3 56.2182 33.9099 122.2532 0.0000 0.0000 0.0000
# 4 0.0000 0.0000 0.0000 16.5457 0.0000 0.0000
# 5 0.0000 0.0000 0.0000 0.0000 32.1711 0.0000
# 6 0.0000 0.0000 0.0000 0.0000 0.0000 17.7483
#
#
#
# Elastic Compliance Matrix: (Units=1/GPa)
#
#
# Indices 1 2 3 4 5 6 
#
# 1 0.024680 -0.010912 -0.008322 0.000000 0.000000 0.000000
# 2 -0.010912 0.034064 -0.004431 0.000000 0.000000 0.000000
# 3 -0.008322 -0.004431 0.013236 0.000000 0.000000 0.000000
# 4 0.000000 0.000000 0.000000 0.060439 0.000000 0.000000
# 5 0.000000 0.000000 0.000000 0.000000 0.031084 0.000000
# 6 0.000000 0.000000 0.000000 0.000000 0.000000 0.056344
#
#
# Mechanical properties :
#
#
# Convention : Reuss Voigt Hill
#
# Bulk Modulus (GPa) = 40.56843 53.40025 46.98434
# Shear Modulus (GPa) = 18.15599 21.16458 19.66028
#
# Velocity S-wave (km/s) = 3.19583 3.45048 3.32559
# Velocity P-wave (km/s) = 6.03646 6.77597 6.41688
#
# Compressibility (1/GPa) = 0.02464971
#
# Stress axis : x y z
#
# Youngs Moduli (GPa) = 40.51922 29.35668 75.55319
#
# Poissons Ratio (x) = 0.32033 0.62878
# Poissons Ratio (y) = 0.44214 0.33475
# Poissons Ratio (z) = 0.33721 0.13007
#
# Static dielectric constant tensor:
#      x y z
#    x 1.593070 0.000000 0.000000 
#    y 0.000000 1.613310 0.000000 
#    z 0.000000 0.000000 1.599290 
# 
# From -- ./inp_files/20890.got.cif
#   From: 2010.05.17/outbox.cif.g08.bks.cpg/sg53_11_cif.got.tgz:20890.got - 2010.06.03 12:45:16.
