data_PCOD9416058
_publ_section_title
;
Structure prediction by ZEFSAII (Michael W. Deem and Ramdas Pophale) SiO2 
 PCOD9416058
Probable space group: P M N A
;
_chemical_formula_sum "Si O2"
_cell_formula_units_Z 64
_cell_length_a 18.313833
_cell_length_b 9.428408
_cell_length_c 18.701395
_cell_angle_alpha 90.000000
_cell_angle_beta 90.000000
_cell_angle_gamma 90.000000
_cell_volume 3229.175290
_symmetry_space_group_name_H-M "P M N A"
_symmetry_group_IT_number 53
_symmetry_cell_setting 'orthorhombic'
loop_
_space_group_symop_operation_xyz
x,y,z
1/2-x,-y,1/2+z
x,-y,-z
1/2-x,y,1/2-z
-x,-y,-z
1/2+x,y,1/2-z
-x,y,z
1/2+x,-y,1/2+z
loop_
_atom_site_type_symbol
_atom_site_label
_atom_site_fract_x
_atom_site_fract_y
_atom_site_fract_z
Si Si1 0.912494 0.940414 0.773021
Si Si2 0.326332 0.348903 0.283715
Si Si3 0.079206 0.832861 0.990979
Si Si4 0.357600 0.193145 0.633980
Si Si5 0.794812 0.369134 0.055174
Si Si6 0.913525 0.611374 0.258906
Si Si7 0.415713 0.869174 0.134126
Si Si8 0.280321 0.848085 0.033493
O O1 0.879468 0.786043 0.783780
O O2 0.000000 0.944536 0.782691
O O3 0.874836 0.041601 0.831278
O O4 0.898063 0.012289 0.695068
O O5 0.250000 0.302909 0.250000
O O6 0.302415 0.409251 0.361938
O O7 0.368593 0.466902 0.237424
O O8 0.084264 0.776766 0.071763
O O9 0.000000 0.812751 0.958220
O O10 0.140258 0.745361 0.951721
O O11 0.092619 0.000000 0.000000
O O12 0.372890 0.303559 0.695958
O O13 0.279271 0.191661 0.594903
O O14 0.804001 0.500000 0.000000
O O15 0.726336 0.275956 0.026167
O O16 0.910344 0.716684 0.326310
O O17 0.000000 0.589163 0.242978
O O18 0.500000 0.890529 0.112331
O O19 0.358328 0.867585 0.070310
O O20 0.259634 0.000000 0.000000
#
# Coordination Sequence:
#
# PCOD9416058 Si02
#       8
#     8   8   8   8   8   8   8   8
#     4  10  21  38  61  92 130 160 204 264 316 373
#     4  12  26  38  63  90 127 167 211 255 327 377
#     4  10  19  33  56  84 120 164 203 239 296 365
#     4  10  19  34  61  90 121 157 205 248 303 365
#     4  11  25  41  56  88 127 165 211 260 304 375
#     4  10  22  40  63  91 124 163 210 259 308 375
#     4   9  22  42  67  94 119 162 217 265 318 375
#     4  11  23  39  65  87 131 163 208 262 313 371
#
# _framework density 19.819303000000001
#
# number of rings (size 3 to 8) (size 9 to 14) (size 15 to 20)
#    0.000    1.625    0.000    6.750    7.000    3.500 
#    0.000    0.000    0.000    0.375    0.000    0.000 
#    0.000    0.000    0.000    0.000    0.000    0.000 
#
# Total GULP energy -357112.896917 kJ/mol
# GULP energy per Si atom -5579.889014 kJ/mol
# Density = 1.977419 g / cm^3
# Si number density = 19.819303 Si / 1000 Ang^3
#
#
#
# Elastic Constant Matrix: (Units=GPa)
#
#
# Indices 1 2 3 4 5 6 
#
# 1 77.7481 -0.7537 22.3865 0.0000 0.0000 0.0000
# 2 -0.7537 58.4529 -9.1285 0.0000 0.0000 0.0000
# 3 22.3865 -9.1285 32.1546 0.0000 0.0000 0.0000
# 4 0.0000 0.0000 0.0000 11.2319 0.0000 0.0000
# 5 0.0000 0.0000 0.0000 0.0000 12.5575 0.0000
# 6 0.0000 0.0000 0.0000 0.0000 0.0000 23.2598
#
#
#
# Elastic Compliance Matrix: (Units=1/GPa)
#
#
# Indices 1 2 3 4 5 6 
#
# 1 0.016234 -0.001628 -0.011764 0.000000 0.000000 0.000000
# 2 -0.001628 0.018065 0.006262 0.000000 0.000000 0.000000
# 3 -0.011764 0.006262 0.041068 0.000000 0.000000 0.000000
# 4 0.000000 0.000000 0.000000 0.089032 0.000000 0.000000
# 5 0.000000 0.000000 0.000000 0.000000 0.079634 0.000000
# 6 0.000000 0.000000 0.000000 0.000000 0.000000 0.042993
#
#
# Mechanical properties :
#
#
# Convention : Reuss Voigt Hill
#
# Bulk Modulus (GPa) = 16.36510 21.48490 18.92500
# Shear Modulus (GPa) = 15.54466 19.79993 17.67230
#
# Velocity S-wave (km/s) = 2.80361 3.16416 2.98933
# Velocity P-wave (km/s) = 4.33075 4.92068 4.63511
#
# Compressibility (1/GPa) = 0.06110563
#
# Stress axis : x y z
#
# Youngs Moduli (GPa) = 61.60056 55.35654 24.34996
#
# Poissons Ratio (x) = 0.09011 0.28646
# Poissons Ratio (y) = 0.10028 -0.15248
# Poissons Ratio (z) = 0.72468 -0.34663
#
# Static dielectric constant tensor:
#      x y z
#    x 1.695080 0.000000 0.000000 
#    y 0.000000 1.719270 0.000000 
#    z 0.000000 0.000000 1.741820 
# 
# From -- ./inp_files/32846.got.cif
#   From: 2010.05.17/outbox.cif.g08.bks.cpg/sg53_17_cif.got.tgz:32846.got - 2010.06.03 12:45:16.
