data_PCOD9416739
_publ_section_title
;
Structure prediction by ZEFSAII (Michael W. Deem and Ramdas Pophale) SiO2 
 PCOD9416739
Probable space group: P M N A
;
_chemical_formula_sum "Si O2"
_cell_formula_units_Z 40
_cell_length_a 8.843738
_cell_length_b 13.349244
_cell_length_c 19.641935
_cell_angle_alpha 90.000000
_cell_angle_beta 90.000000
_cell_angle_gamma 90.000000
_cell_volume 2318.872171
_symmetry_space_group_name_H-M "P M N A"
_symmetry_group_IT_number 53
_symmetry_cell_setting 'orthorhombic'
loop_
_space_group_symop_operation_xyz
x,y,z
1/2-x,-y,1/2+z
x,-y,-z
1/2-x,y,1/2-z
-x,-y,-z
1/2+x,y,1/2-z
-x,y,z
1/2+x,-y,1/2+z
loop_
_atom_site_type_symbol
_atom_site_label
_atom_site_fract_x
_atom_site_fract_y
_atom_site_fract_z
Si Si1 0.317977 0.604490 0.175070
Si Si2 0.817355 0.213705 0.575680
Si Si3 0.174254 0.005450 0.417263
Si Si4 0.817990 0.392236 0.175056
Si Si5 0.180029 0.787798 0.925749
O O1 0.250000 0.622591 0.250000
O O2 0.500000 0.597271 0.179297
O O3 0.277489 0.694942 0.124740
O O4 0.249946 0.498418 0.151177
O O5 0.768434 0.104429 0.603992
O O6 0.751873 0.227291 0.500233
O O7 0.000000 0.208886 0.570110
O O8 0.000000 0.017928 0.395896
O O9 0.175995 0.000000 0.500000
O O10 0.266051 0.104083 0.398332
O O11 0.750000 0.374177 0.250000
O O12 0.777193 0.302118 0.124598
O O13 0.000000 0.399546 0.179393
O O14 0.000000 0.788758 0.932724
#
# Coordination Sequence:
#
# PCOD9416739 Si02
#       5
#     8   8   8   8   8
#     4  10  20  35  54  74  98 130 167 203 244 294
#     4   9  19  34  52  75 101 131 165 199 241 295
#     4   8  15  30  50  71  99 132 162 195 240 293
#     4  10  21  36  52  72  99 131 166 203 247 294
#     4  10  20  32  50  77 103 127 162 207 247 285
#
# _framework density 17.249763999999999
#
# number of rings (size 3 to 8) (size 9 to 14) (size 15 to 20)
#    0.000    2.600    0.000    4.200    0.000    9.200 
#    0.000    5.000    0.000    4.800    0.000    0.000 
#    0.000    0.000    0.000    0.000    0.000    0.000 
#
# Total GULP energy -222995.427641 kJ/mol
# GULP energy per Si atom -5574.885691 kJ/mol
# Density = 1.721050 g / cm^3
# Si number density = 17.249764 Si / 1000 Ang^3
#
#
#
# Elastic Constant Matrix: (Units=GPa)
#
#
# Indices 1 2 3 4 5 6 
#
# 1 43.1316 59.0784 30.4954 0.0000 0.0000 0.0000
# 2 59.0784 210.2386 90.1511 0.0000 0.0000 0.0000
# 3 30.4954 90.1511 56.0460 0.0000 0.0000 0.0000
# 4 0.0000 0.0000 0.0000 -25.6472 0.0000 0.0000
# 5 0.0000 0.0000 0.0000 0.0000 0.6136 0.0000
# 6 0.0000 0.0000 0.0000 0.0000 0.0000 55.2794
#
#
#
# Elastic Compliance Matrix: (Units=1/GPa)
#
#
# Indices 1 2 3 4 5 6 
#
# 1 0.040004 -0.006149 -0.011876 0.000000 0.000000 0.000000
# 2 -0.006149 0.016276 -0.022834 0.000000 0.000000 0.000000
# 3 -0.011876 -0.022834 0.061034 0.000000 0.000000 0.000000
# 4 0.000000 0.000000 0.000000 -0.038991 0.000000 0.000000
# 5 0.000000 0.000000 0.000000 0.000000 1.629762 0.000000
# 6 0.000000 0.000000 0.000000 0.000000 0.000000 0.018090
#
#
# Mechanical properties :
#
#
# Convention : Reuss Voigt Hill
#
# Bulk Modulus (GPa) = 28.09382 74.31844 51.20613
# Shear Modulus (GPa) = 2.74762 14.69523 8.72142
#
# Velocity S-wave (km/s) = 1.26345 2.92191 2.25099
# Velocity P-wave (km/s) = 4.29538 7.38652 6.04198
#
# Compressibility (1/GPa) = 0.03559502
#
# Stress axis : x y z
#
# Youngs Moduli (GPa) = 24.99762 61.44104 16.38437
#
# Poissons Ratio (x) = 0.37779 0.19458
# Poissons Ratio (y) = 0.15371 0.37412
# Poissons Ratio (z) = 0.29687 1.40296
#
# Static dielectric constant tensor:
#      x y z
#    x 1.580620 0.000000 0.000000 
#    y 0.000000 1.612180 0.000000 
#    z 0.000000 0.000000 1.553200 
# 
# From -- ./inp_files/30367.got.cif
#   From: 2010.05.17/outbox.cif.g08.bks.cpg/sg53_16_cif.got.tgz:30367.got - 2010.06.03 12:45:16.
