data_PCOD9416705
_publ_section_title
;
Structure prediction by ZEFSAII (Michael W. Deem and Ramdas Pophale) SiO2 
 PCOD9416705
Probable space group: P M N A
;
_chemical_formula_sum "Si O2"
_cell_formula_units_Z 32
_cell_length_a 9.256208
_cell_length_b 9.201377
_cell_length_c 21.670819
_cell_angle_alpha 90.000000
_cell_angle_beta 90.000000
_cell_angle_gamma 90.000000
_cell_volume 1845.700607
_symmetry_space_group_name_H-M "P M N A"
_symmetry_group_IT_number 53
_symmetry_cell_setting 'orthorhombic'
loop_
_space_group_symop_operation_xyz
x,y,z
1/2-x,-y,1/2+z
x,-y,-z
1/2-x,y,1/2-z
-x,-y,-z
1/2+x,y,1/2-z
-x,y,z
1/2+x,-y,1/2+z
loop_
_atom_site_type_symbol
_atom_site_label
_atom_site_fract_x
_atom_site_fract_y
_atom_site_fract_z
Si Si1 0.168415 0.070387 0.812342
Si Si2 0.165145 0.574847 0.190546
Si Si3 0.671920 0.910831 0.062814
Si Si4 0.173357 0.396655 0.942343
O O1 0.250000 0.021694 0.750000
O O2 0.171746 0.248026 0.810947
O O3 0.248938 0.028196 0.875784
O O4 0.000000 0.027478 0.812646
O O5 0.250000 0.523287 0.250000
O O6 0.216709 0.529872 0.122697
O O7 0.000000 0.531298 0.197569
O O8 0.500000 0.902600 0.074426
O O9 0.739028 0.751720 0.052082
O O10 0.696350 0.000000 0.000000
O O11 0.000000 0.365250 0.938094
O O12 0.197499 0.500000 0.000000
#
# Coordination Sequence:
#
# PCOD9416705 Si02
#       4
#     8   8   8   8
#     4   9  16  27  45  68  93 121 155 196 239 280
#     4   8  14  24  40  63  88 113 143 183 227 269
#     4  10  20  32  47  70  99 128 160 198 237 281
#     4   9  18  32  49  69  93 122 158 197 237 283
#
# _framework density 17.337591
#
# number of rings (size 3 to 8) (size 9 to 14) (size 15 to 20)
#    0.000    3.000    0.000    3.000    0.000    8.500 
#    0.000    0.000    0.000    1.500    0.000    7.000 
#    0.000    0.000    0.000    0.000    0.000    0.000 
#
# Total GULP energy -178189.780570 kJ/mol
# GULP energy per Si atom -5568.430643 kJ/mol
# Density = 1.729813 g / cm^3
# Si number density = 17.337591 Si / 1000 Ang^3
#
#
#
# Elastic Constant Matrix: (Units=GPa)
#
#
# Indices 1 2 3 4 5 6 
#
# 1 104.0474 28.0718 105.5751 0.0000 0.0000 0.0000
# 2 28.0718 13.5917 41.0870 0.0000 0.0000 0.0000
# 3 105.5751 41.0870 214.8634 0.0000 0.0000 0.0000
# 4 0.0000 0.0000 0.0000 20.9348 0.0000 0.0000
# 5 0.0000 0.0000 0.0000 0.0000 36.6359 0.0000
# 6 0.0000 0.0000 0.0000 0.0000 0.0000 10.2449
#
#
#
# Elastic Compliance Matrix: (Units=1/GPa)
#
#
# Indices 1 2 3 4 5 6 
#
# 1 0.024192 -0.033255 -0.005528 0.000000 0.000000 0.000000
# 2 -0.033255 0.220086 -0.025745 0.000000 0.000000 0.000000
# 3 -0.005528 -0.025745 0.012293 0.000000 0.000000 0.000000
# 4 0.000000 0.000000 0.000000 0.047767 0.000000 0.000000
# 5 0.000000 0.000000 0.000000 0.000000 0.027296 0.000000
# 6 0.000000 0.000000 0.000000 0.000000 0.000000 0.097609
#
#
# Mechanical properties :
#
#
# Convention : Reuss Voigt Hill
#
# Bulk Modulus (GPa) = 7.84227 75.77449 41.80838
# Shear Modulus (GPa) = 8.32216 24.08102 16.20159
#
# Velocity S-wave (km/s) = 2.19328 3.73090 3.06024
# Velocity P-wave (km/s) = 3.30864 7.89682 6.05420
#
# Compressibility (1/GPa) = 0.12751416
#
# Stress axis : x y z
#
# Youngs Moduli (GPa) = 41.33552 4.54369 81.34443
#
# Poissons Ratio (x) = 0.15110 0.44966
# Poissons Ratio (y) = 1.37463 2.09424
# Poissons Ratio (z) = 0.22850 0.11698
#
# Static dielectric constant tensor:
#      x y z
#    x 1.587510 0.000000 0.000000 
#    y 0.000000 1.569940 0.000000 
#    z 0.000000 0.000000 1.619310 
# 
# From -- ./inp_files/25745.got.cif
#   From: 2010.05.17/outbox.cif.g08.bks.cpg/sg53_13_cif.got.tgz:25745.got - 2010.06.03 12:45:16.
