data_PCOD9416980
_publ_section_title
;
Structure prediction by ZEFSAII (Michael W. Deem and Ramdas Pophale) SiO2 
 PCOD9416980
Probable space group: P M N A
;
_chemical_formula_sum "Si O2"
_cell_formula_units_Z 48
_cell_length_a 8.111349
_cell_length_b 32.788108
_cell_length_c 9.499397
_cell_angle_alpha 90.000000
_cell_angle_beta 90.000000
_cell_angle_gamma 90.000000
_cell_volume 2526.419606
_symmetry_space_group_name_H-M "P M N A"
_symmetry_group_IT_number 53
_symmetry_cell_setting 'orthorhombic'
loop_
_space_group_symop_operation_xyz
x,y,z
1/2-x,-y,1/2+z
x,-y,-z
1/2-x,y,1/2-z
-x,-y,-z
1/2+x,y,1/2-z
-x,y,z
1/2+x,-y,1/2+z
loop_
_atom_site_type_symbol
_atom_site_label
_atom_site_fract_x
_atom_site_fract_y
_atom_site_fract_z
Si Si1 0.199507 0.461195 0.912988
Si Si2 0.803407 0.117027 0.412413
Si Si3 0.303204 0.793087 0.588305
Si Si4 0.801283 0.372548 0.913983
Si Si5 0.699333 0.039463 0.912211
Si Si6 0.199558 0.716039 0.087103
O O1 0.250000 0.464586 0.750000
O O2 0.256618 0.416643 0.969327
O O3 0.000000 0.461365 0.918762
O O4 0.261149 0.500000 0.000000
O O5 0.750000 0.111566 0.250000
O O6 0.751191 0.162095 0.460984
O O7 0.740069 0.080566 0.510632
O O8 0.000000 0.115725 0.413818
O O9 0.250000 0.788952 0.750000
O O10 0.500000 0.792263 0.583051
O O11 0.238061 0.755018 0.498549
O O12 0.750000 0.372520 0.750000
O O13 0.743473 0.328477 0.969707
O O14 0.000000 0.372560 0.922483
O O15 0.750000 0.037457 0.750000
O O16 0.500000 0.039707 0.917059
O O17 0.756532 0.000000 0.000000
O O18 0.250000 0.719218 0.250000
O O19 0.000000 0.716216 0.081122
#
# Coordination Sequence:
#
# PCOD9416980 Si02
#       6
#     8   8   8   8   8   8
#     4   9  17  29  46  67  91 120 153 191 235 282
#     4  10  20  35  55  77 101 131 167 203 241 286
#     4  10  20  34  51  72  99 131 164 197 240 289
#     4   8  14  27  45  64  88 118 153 191 232 279
#     4  10  22  38  56  80 107 135 168 204 243 288
#     4   9  18  31  49  71  93 121 158 199 239 281
#
# _framework density 18.999220000000001
#
# number of rings (size 3 to 8) (size 9 to 14) (size 15 to 20)
#    0.000    2.667    0.000    2.500    0.000    4.000 
#    0.000    4.167    0.000    0.000    0.000    0.000 
#    0.000    0.000    0.000    0.000    0.000    0.000 
#
# Total GULP energy -267490.612929 kJ/mol
# GULP energy per Si atom -5572.721103 kJ/mol
# Density = 1.895598 g / cm^3
# Si number density = 18.999220 Si / 1000 Ang^3
#
#
#
# Elastic Constant Matrix: (Units=GPa)
#
#
# Indices 1 2 3 4 5 6 
#
# 1 18.9497 18.9667 3.2568 0.0000 0.0000 0.0000
# 2 18.9667 253.8759 98.5769 0.0000 0.0000 0.0000
# 3 3.2568 98.5769 70.5347 0.0000 0.0000 0.0000
# 4 0.0000 0.0000 0.0000 36.9971 0.0000 0.0000
# 5 0.0000 0.0000 0.0000 0.0000 20.8465 0.0000
# 6 0.0000 0.0000 0.0000 0.0000 0.0000 31.3407
#
#
#
# Elastic Compliance Matrix: (Units=1/GPa)
#
#
# Indices 1 2 3 4 5 6 
#
# 1 0.058790 -0.007299 0.007486 0.000000 0.000000 0.000000
# 2 -0.007299 0.009519 -0.012966 0.000000 0.000000 0.000000
# 3 0.007486 -0.012966 0.031953 0.000000 0.000000 0.000000
# 4 0.000000 0.000000 0.000000 0.027029 0.000000 0.000000
# 5 0.000000 0.000000 0.000000 0.000000 0.047970 0.000000
# 6 0.000000 0.000000 0.000000 0.000000 0.000000 0.031907
#
#
# Mechanical properties :
#
#
# Convention : Reuss Voigt Hill
#
# Bulk Modulus (GPa) = 13.38617 64.99569 39.19093
# Shear Modulus (GPa) = 19.40788 32.67418 26.04103
#
# Velocity S-wave (km/s) = 3.19957 4.15150 3.70623
# Velocity P-wave (km/s) = 4.55089 7.56729 6.24398
#
# Compressibility (1/GPa) = 0.07470396
#
# Stress axis : x y z
#
# Youngs Moduli (GPa) = 17.00965 105.05496 31.29612
#
# Poissons Ratio (x) = 0.76679 -0.23429
# Poissons Ratio (y) = 0.12415 0.40579
# Poissons Ratio (z) = -0.12734 1.36216
#
# Static dielectric constant tensor:
#      x y z
#    x 1.549140 0.000000 0.000000 
#    y 0.000000 1.732070 0.000000 
#    z 0.000000 0.000000 1.604630 
# 
# From -- ./inp_files/6747.got.cif
#   From: 2010.05.17/outbox.cif.g08.bks.cpg/sg53_4_cif.got.tgz:6747.got - 2010.06.03 12:45:16.
