data_PCOD9416164
_publ_section_title
;
Structure prediction by ZEFSAII (Michael W. Deem and Ramdas Pophale) SiO2 
 PCOD9416164
Probable space group: P M N A
;
_chemical_formula_sum "Si O2"
_cell_formula_units_Z 64
_cell_length_a 8.743956
_cell_length_b 20.957552
_cell_length_c 19.786865
_cell_angle_alpha 90.000000
_cell_angle_beta 90.000000
_cell_angle_gamma 90.000000
_cell_volume 3625.980855
_symmetry_space_group_name_H-M "P M N A"
_symmetry_group_IT_number 53
_symmetry_cell_setting 'orthorhombic'
loop_
_space_group_symop_operation_xyz
x,y,z
1/2-x,-y,1/2+z
x,-y,-z
1/2-x,y,1/2-z
-x,-y,-z
1/2+x,y,1/2-z
-x,y,z
1/2+x,-y,1/2+z
loop_
_atom_site_type_symbol
_atom_site_label
_atom_site_fract_x
_atom_site_fract_y
_atom_site_fract_z
Si Si1 0.683015 0.934440 0.961845
Si Si2 0.686389 0.564845 0.035308
Si Si3 0.817524 0.186304 0.959165
Si Si4 0.183378 0.767079 0.322925
Si Si5 0.182585 0.106375 0.176899
Si Si6 0.182807 0.742585 0.822919
Si Si7 0.683789 0.616946 0.177505
Si Si8 0.316424 0.694297 0.958813
O O1 0.500000 0.927490 0.960052
O O2 0.746393 0.931431 0.885670
O O3 0.754145 0.875608 0.002911
O O4 0.721161 0.000000 0.000000
O O5 0.500000 0.562818 0.036935
O O6 0.736757 0.576760 0.112592
O O7 0.740062 0.500000 0.000000
O O8 0.728074 0.626858 0.991533
O O9 0.755245 0.192437 0.883175
O O10 0.000000 0.185723 0.960263
O O11 0.756475 0.248418 0.998488
O O12 0.250000 0.784923 0.250000
O O13 0.222561 0.691868 0.333886
O O14 0.000000 0.772521 0.323612
O O15 0.250000 0.088641 0.250000
O O16 0.217451 0.181937 0.166015
O O17 0.000000 0.099400 0.177600
O O18 0.250000 0.725356 0.750000
O O19 0.259085 0.702827 0.882628
O O20 0.000000 0.735418 0.823814
O O21 0.750000 0.597501 0.250000
O O22 0.500000 0.613367 0.180945
O O23 0.500000 0.699953 0.961983
#
# Coordination Sequence:
#
# PCOD9416164 Si02
#       8
#     8   8   8   8   8   8   8   8
#     4  11  24  41  61  86 117 153 192 236 284 338
#     4   9  18  34  55  80 111 149 192 232 281 342
#     4  12  23  36  57  85 115 150 188 233 282 335
#     4  10  19  34  55  84 115 146 186 236 289 341
#     4  10  20  35  58  86 116 151 189 234 282 338
#     4  10  20  34  54  84 115 148 187 234 286 339
#     4   9  17  31  52  79 106 141 184 229 279 336
#     4  11  20  34  57  83 112 148 187 236 285 333
#
# _framework density 17.650396000000001
#
# number of rings (size 3 to 8) (size 9 to 14) (size 15 to 20)
#    0.000    1.750    2.500    3.000    0.000    2.500 
#    0.000    1.250    0.000    7.875    0.000    0.000 
#    0.000    0.000    0.000    0.000    0.000    0.000 
#
# Total GULP energy -357428.816175 kJ/mol
# GULP energy per Si atom -5584.825253 kJ/mol
# Density = 1.761022 g / cm^3
# Si number density = 17.650396 Si / 1000 Ang^3
#
#
#
# Elastic Constant Matrix: (Units=GPa)
#
#
# Indices 1 2 3 4 5 6 
#
# 1 57.0747 49.7742 58.1164 0.0000 0.0000 0.0000
# 2 49.7742 104.7268 84.0523 0.0000 0.0000 0.0000
# 3 58.1164 84.0523 192.5426 0.0000 0.0000 0.0000
# 4 0.0000 0.0000 0.0000 24.0783 0.0000 0.0000
# 5 0.0000 0.0000 0.0000 0.0000 36.5203 0.0000
# 6 0.0000 0.0000 0.0000 0.0000 0.0000 -27.8266
#
#
#
# Elastic Compliance Matrix: (Units=1/GPa)
#
#
# Indices 1 2 3 4 5 6 
#
# 1 0.032489 -0.011654 -0.004719 0.000000 0.000000 0.000000
# 2 -0.011654 0.018879 -0.004724 0.000000 0.000000 0.000000
# 3 -0.004719 -0.004724 0.008680 0.000000 0.000000 0.000000
# 4 0.000000 0.000000 0.000000 0.041531 0.000000 0.000000
# 5 0.000000 0.000000 0.000000 0.000000 0.027382 0.000000
# 6 0.000000 0.000000 0.000000 0.000000 0.000000 -0.035937
#
#
# Mechanical properties :
#
#
# Convention : Reuss Voigt Hill
#
# Bulk Modulus (GPa) = 56.00757 82.02553 69.01655
# Shear Modulus (GPa) = 35.41843 17.38117 26.39980
#
# Velocity S-wave (km/s) = 4.48444 3.14147 3.87163
# Velocity P-wave (km/s) = 7.65599 7.72863 7.69239
#
# Compressibility (1/GPa) = 0.01785473
#
# Stress axis : x y z
#
# Youngs Moduli (GPa) = 30.77928 52.96986 115.20595
#
# Poissons Ratio (x) = 0.61731 0.54367
# Poissons Ratio (y) = 0.35870 0.54419
# Poissons Ratio (z) = 0.14525 0.25021
#
# Static dielectric constant tensor:
#      x y z
#    x 1.589630 0.000000 0.000000 
#    y 0.000000 1.580480 0.000000 
#    z 0.000000 0.000000 1.618030 
# 
# From -- ./inp_files/26847.got.cif
#   From: 2010.05.17/outbox.cif.g08.bks.cpg/sg53_14_cif.got.tgz:26847.got - 2010.06.03 12:45:16.
