data_PCOD9416850
_publ_section_title
;
Structure prediction by ZEFSAII (Michael W. Deem and Ramdas Pophale) SiO2 
 PCOD9416850
Probable space group: P M N A
;
_chemical_formula_sum "Si O2"
_cell_formula_units_Z 40
_cell_length_a 8.687082
_cell_length_b 26.941133
_cell_length_c 9.732664
_cell_angle_alpha 90.000000
_cell_angle_beta 90.000000
_cell_angle_gamma 90.000000
_cell_volume 2277.831043
_symmetry_space_group_name_H-M "P M N A"
_symmetry_group_IT_number 53
_symmetry_cell_setting 'orthorhombic'
loop_
_space_group_symop_operation_xyz
x,y,z
1/2-x,-y,1/2+z
x,-y,-z
1/2-x,y,1/2-z
-x,-y,-z
1/2+x,y,1/2-z
-x,y,z
1/2+x,-y,1/2+z
loop_
_atom_site_type_symbol
_atom_site_label
_atom_site_fract_x
_atom_site_fract_y
_atom_site_fract_z
Si Si1 0.184470 0.845676 0.405120
Si Si2 0.685819 0.955073 0.095910
Si Si3 0.184811 0.651516 0.903114
Si Si4 0.684719 0.454259 0.097217
Si Si5 0.184344 0.743397 0.095718
O O1 0.250000 0.846650 0.250000
O O2 0.226262 0.900156 0.461905
O O3 0.254116 0.795396 0.466183
O O4 0.000000 0.841389 0.401824
O O5 0.750000 0.959709 0.250000
O O6 0.500000 0.956882 0.104015
O O7 0.739357 0.000000 0.000000
O O8 0.250000 0.659509 0.750000
O O9 0.249428 0.598520 0.952500
O O10 0.000000 0.648870 0.896251
O O11 0.228926 0.696583 0.002745
O O12 0.750000 0.462099 0.250000
O O13 0.500000 0.451098 0.103582
O O14 0.728106 0.500000 0.000000
O O15 0.250000 0.738079 0.250000
O O16 0.000000 0.745877 0.104116
#
# Coordination Sequence:
#
# PCOD9416850 Si02
#       5
#     8   8   8   8   8
#     4   9  16  28  48  70  95 128 162 200 245 289
#     4   9  18  32  49  71  98 127 162 202 244 292
#     4  10  21  36  54  75 101 134 167 201 245 294
#     4  10  21  36  55  78 103 133 167 203 245 291
#     4  10  20  33  51  76 101 127 164 206 245 289
#
# _framework density 17.560563999999999
#
# number of rings (size 3 to 8) (size 9 to 14) (size 15 to 20)
#    0.000    2.400    0.000    4.800    0.000    6.800 
#    0.000    5.000    0.000    4.800    0.000    0.000 
#    0.000    0.000    0.000    0.000    0.000    0.000 
#
# Total GULP energy -222996.744255 kJ/mol
# GULP energy per Si atom -5574.918606 kJ/mol
# Density = 1.752060 g / cm^3
# Si number density = 17.560564 Si / 1000 Ang^3
#
#
#
# Elastic Constant Matrix: (Units=GPa)
#
#
# Indices 1 2 3 4 5 6 
#
# 1 46.2185 55.6436 22.8917 0.0000 0.0000 0.0000
# 2 55.6436 224.6935 83.6495 0.0000 0.0000 0.0000
# 3 22.8917 83.6495 51.0612 0.0000 0.0000 0.0000
# 4 0.0000 0.0000 0.0000 33.4622 0.0000 0.0000
# 5 0.0000 0.0000 0.0000 0.0000 4.1344 0.0000
# 6 0.0000 0.0000 0.0000 0.0000 0.0000 100.1479
#
#
#
# Elastic Compliance Matrix: (Units=1/GPa)
#
#
# Indices 1 2 3 4 5 6 
#
# 1 0.031055 -0.006427 -0.003393 0.000000 0.000000 0.000000
# 2 -0.006427 0.012738 -0.017987 0.000000 0.000000 0.000000
# 3 -0.003393 -0.017987 0.050572 0.000000 0.000000 0.000000
# 4 0.000000 0.000000 0.000000 0.029884 0.000000 0.000000
# 5 0.000000 0.000000 0.000000 0.000000 0.241875 0.000000
# 6 0.000000 0.000000 0.000000 0.000000 0.000000 0.009985
#
#
# Mechanical properties :
#
#
# Convention : Reuss Voigt Hill
#
# Bulk Modulus (GPa) = 25.80605 71.81586 48.81096
# Shear Modulus (GPa) = 11.24502 38.20145 24.72324
#
# Velocity S-wave (km/s) = 2.53327 4.66919 3.75625
# Velocity P-wave (km/s) = 4.82535 8.36979 6.83145
#
# Compressibility (1/GPa) = 0.03875060
#
# Stress axis : x y z
#
# Youngs Moduli (GPa) = 32.20096 78.50350 19.77386
#
# Poissons Ratio (x) = 0.50456 0.06710
# Poissons Ratio (y) = 0.20696 0.35567
# Poissons Ratio (z) = 0.10927 1.41202
#
# Static dielectric constant tensor:
#      x y z
#    x 1.590820 0.000000 0.000000 
#    y 0.000000 1.642330 0.000000 
#    z 0.000000 0.000000 1.574560 
# 
# From -- ./inp_files/6495.got.cif
#   From: 2010.05.17/outbox.cif.g08.bks.cpg/sg53_4_cif.got.tgz:6495.got - 2010.06.03 12:45:16.
