data_PCOD9416662
_publ_section_title
;
Structure prediction by ZEFSAII (Michael W. Deem and Ramdas Pophale) SiO2 
 PCOD9416662
Probable space group: P M N A
;
_chemical_formula_sum "Si O2"
_cell_formula_units_Z 48
_cell_length_a 27.196777
_cell_length_b 15.091256
_cell_length_c 5.220327
_cell_angle_alpha 90.000000
_cell_angle_beta 90.000000
_cell_angle_gamma 90.000000
_cell_volume 2142.597207
_symmetry_space_group_name_H-M "P M N A"
_symmetry_group_IT_number 53
_symmetry_cell_setting 'orthorhombic'
loop_
_space_group_symop_operation_xyz
x,y,z
1/2-x,-y,1/2+z
x,-y,-z
1/2-x,y,1/2-z
-x,-y,-z
1/2+x,y,1/2-z
-x,y,z
1/2+x,-y,1/2+z
loop_
_atom_site_type_symbol
_atom_site_label
_atom_site_fract_x
_atom_site_fract_y
_atom_site_fract_z
Si Si1 0.333765 0.337519 0.957010
Si Si2 0.500000 0.645077 0.953668
Si Si3 0.750000 0.560222 0.250000
Si Si4 0.000000 0.236253 0.955424
Si Si5 0.807552 0.829883 0.728982
Si Si6 0.284711 0.000000 0.000000
Si Si7 0.404904 0.580276 0.699634
Si Si8 0.606743 0.768992 0.413165
O O1 0.298444 0.378222 0.744834
O O2 0.375576 0.269680 0.857554
O O3 0.303420 0.269435 0.124018
O O4 0.357493 0.415041 0.121097
O O5 0.500000 0.725232 0.744867
O O6 0.452362 0.588151 0.880055
O O7 0.500000 0.683834 0.240937
O O8 0.751195 0.500000 0.500000
O O9 0.947462 0.188687 0.911948
O O10 0.750000 0.852647 0.750000
O O11 0.819842 0.915130 0.554628
O O12 0.848122 0.821136 0.954213
O O13 0.250000 0.023314 0.750000
O O14 0.406753 0.500000 0.500000
O O15 0.401419 0.675095 0.558562
#
# Coordination Sequence:
#
# PCOD9416662 Si02
#       8
#     8   4   4   4   8   4   8   8
#     4  11  24  41  63  86 125 175 226 274 333 401
#     4  10  19  40  58  88 124 161 221 287 348 387
#     4  12  32  44  60  86 126 176 228 276 326 390
#     4  10  20  40  61  93 127 172 226 274 338 398
#     4  10  23  42  67 100 133 172 214 275 343 414
#     4  10  24  42  70 107 140 169 212 276 348 422
#     4  10  22  37  59  87 124 170 224 286 338 394
#     4  10  22  38  63  91 129 174 222 278 331 401
#
# _framework density 22.402716999999999
#
# number of rings (size 3 to 8) (size 9 to 14) (size 15 to 20)
#    0.000    1.667    1.667    1.250   14.000    0.000 
#    0.000    1.667    0.000    0.500    0.000    1.750 
#    0.000    0.000    0.000    0.000    0.000    0.000 
#
# Total GULP energy -267626.586084 kJ/mol
# GULP energy per Si atom -5575.553877 kJ/mol
# Density = 2.235173 g / cm^3
# Si number density = 22.402717 Si / 1000 Ang^3
#
#
#
# Elastic Constant Matrix: (Units=GPa)
#
#
# Indices 1 2 3 4 5 6 
#
# 1 129.0346 21.0194 19.1281 0.0000 0.0000 0.0000
# 2 21.0194 74.9605 19.2268 0.0000 0.0000 0.0000
# 3 19.1281 19.2268 84.4865 0.0000 0.0000 0.0000
# 4 0.0000 0.0000 0.0000 29.3399 0.0000 0.0000
# 5 0.0000 0.0000 0.0000 0.0000 772.1755 0.0000
# 6 0.0000 0.0000 0.0000 0.0000 0.0000 -16.9749
#
#
#
# Elastic Compliance Matrix: (Units=1/GPa)
#
#
# Indices 1 2 3 4 5 6 
#
# 1 0.008280 -0.001955 -0.001430 0.000000 0.000000 0.000000
# 2 -0.001955 0.014629 -0.002886 0.000000 0.000000 0.000000
# 3 -0.001430 -0.002886 0.012817 0.000000 0.000000 0.000000
# 4 0.000000 0.000000 0.000000 0.034083 0.000000 0.000000
# 5 0.000000 0.000000 0.000000 0.000000 0.001295 0.000000
# 6 0.000000 0.000000 0.000000 0.000000 0.000000 -0.058911
#
#
# Mechanical properties :
#
#
# Convention : Reuss Voigt Hill
#
# Bulk Modulus (GPa) = 43.13453 45.24780 44.19116
# Shear Modulus (GPa) = 154.01498 172.18192 163.09845
#
# Velocity S-wave (km/s) = 8.30046 8.77636 8.54172
# Velocity P-wave (km/s) = 10.54322 11.08786 10.81896
#
# Compressibility (1/GPa) = 0.02318328
#
# Stress axis : x y z
#
# Youngs Moduli (GPa) = 120.76863 68.35755 78.02262
#
# Poissons Ratio (x) = 0.13365 0.11155
# Poissons Ratio (y) = 0.23612 0.22521
# Poissons Ratio (z) = 0.17267 0.19731
#
# Static dielectric constant tensor:
#      x y z
#    x 2.021540 0.000000 0.000000 
#    y 0.000000 1.806810 0.000000 
#    z 0.000000 0.000000 1.979530 
# 
# From -- ./inp_files/4543.got.cif
#   From: 2010.05.17/outbox.cif.g08.bks.cpg/sg53_3_cif.got.tgz:4543.got - 2010.06.03 12:45:16.
