data_PCOD9416860
_publ_section_title
;
Structure prediction by ZEFSAII (Michael W. Deem and Ramdas Pophale) SiO2 
 PCOD9416860
Probable space group: P M N A
;
_chemical_formula_sum "Si O2"
_cell_formula_units_Z 48
_cell_length_a 8.678615
_cell_length_b 32.120321
_cell_length_c 9.191897
_cell_angle_alpha 90.000000
_cell_angle_beta 90.000000
_cell_angle_gamma 90.000000
_cell_volume 2562.332285
_symmetry_space_group_name_H-M "P M N A"
_symmetry_group_IT_number 53
_symmetry_cell_setting 'orthorhombic'
loop_
_space_group_symop_operation_xyz
x,y,z
1/2-x,-y,1/2+z
x,-y,-z
1/2-x,y,1/2-z
-x,-y,-z
1/2+x,y,1/2-z
-x,y,z
1/2+x,-y,1/2+z
loop_
_atom_site_type_symbol
_atom_site_label
_atom_site_fract_x
_atom_site_fract_y
_atom_site_fract_z
Si Si1 0.185810 0.458992 0.912488
Si Si2 0.685506 0.624320 0.587252
Si Si3 0.684262 0.703031 0.087532
Si Si4 0.185293 0.218832 0.085447
Si Si5 0.315938 0.873717 0.585852
Si Si6 0.684509 0.041237 0.086797
O O1 0.250000 0.458669 0.750000
O O2 0.000000 0.459977 0.905140
O O3 0.237599 0.500000 0.000000
O O4 0.230051 0.417313 0.999210
O O5 0.750000 0.622300 0.750000
O O6 0.500000 0.627020 0.591023
O O7 0.752523 0.664414 0.505815
O O8 0.750000 0.700194 0.250000
O O9 0.500000 0.702015 0.090580
O O10 0.742166 0.745348 0.012134
O O11 0.250000 0.222208 0.250000
O O12 0.221679 0.172236 0.026599
O O13 0.000000 0.223137 0.090402
O O14 0.250000 0.872900 0.750000
O O15 0.500000 0.877811 0.591187
O O16 0.245818 0.915534 0.518245
O O17 0.750000 0.038379 0.250000
O O18 0.500000 0.043160 0.093165
O O19 0.731198 0.000000 0.000000
#
# Coordination Sequence:
#
# PCOD9416860 Si02
#       6
#     8   8   8   8   8   8
#     4  10  22  39  60  88 120 155 195 238 286 339
#     4  11  23  40  62  88 118 152 193 238 284 335
#     4  12  25  41  60  83 114 150 187 230 281 336
#     4  10  20  36  58  85 112 142 183 227 275 329
#     4   9  17  30  52  78 105 138 176 220 268 321
#     4  10  20  33  51  76 105 139 179 222 269 322
#
# _framework density 18.732932999999999
#
# number of rings (size 3 to 8) (size 9 to 14) (size 15 to 20)
#    0.000    1.667    0.000    6.000    0.000    6.333 
#    0.000    0.833    0.000    2.000    0.000    0.000 
#    0.000    0.000    0.000    0.000    0.000    0.000 
#
# Total GULP energy -268125.125900 kJ/mol
# GULP energy per Si atom -5585.940123 kJ/mol
# Density = 1.869030 g / cm^3
# Si number density = 18.732933 Si / 1000 Ang^3
#
#
#
# Elastic Constant Matrix: (Units=GPa)
#
#
# Indices 1 2 3 4 5 6 
#
# 1 85.7004 74.4418 45.2701 0.0000 0.0000 0.0000
# 2 74.4418 224.5079 98.9261 0.0000 0.0000 0.0000
# 3 45.2701 98.9261 129.1211 0.0000 0.0000 0.0000
# 4 0.0000 0.0000 0.0000 33.9621 0.0000 0.0000
# 5 0.0000 0.0000 0.0000 0.0000 30.3217 0.0000
# 6 0.0000 0.0000 0.0000 0.0000 0.0000 28.3839
#
#
#
# Elastic Compliance Matrix: (Units=1/GPa)
#
#
# Indices 1 2 3 4 5 6 
#
# 1 0.016892 -0.004516 -0.002462 0.000000 0.000000 0.000000
# 2 -0.004516 0.007932 -0.004493 0.000000 0.000000 0.000000
# 3 -0.002462 -0.004493 0.012051 0.000000 0.000000 0.000000
# 4 0.000000 0.000000 0.000000 0.029445 0.000000 0.000000
# 5 0.000000 0.000000 0.000000 0.000000 0.032980 0.000000
# 6 0.000000 0.000000 0.000000 0.000000 0.000000 0.035231
#
#
# Mechanical properties :
#
#
# Convention : Reuss Voigt Hill
#
# Bulk Modulus (GPa) = 71.78509 97.40061 84.59285
# Shear Modulus (GPa) = 30.84193 33.24631 32.04412
#
# Velocity S-wave (km/s) = 4.06199 4.21735 4.14040
# Velocity P-wave (km/s) = 7.77194 8.70758 8.25303
#
# Compressibility (1/GPa) = 0.01393047
#
# Stress axis : x y z
#
# Youngs Moduli (GPa) = 59.19959 126.07868 82.98285
#
# Poissons Ratio (x) = 0.56937 0.20434
# Poissons Ratio (y) = 0.26734 0.37288
# Poissons Ratio (z) = 0.14578 0.56653
#
# Static dielectric constant tensor:
#      x y z
#    x 1.627700 0.000000 0.000000 
#    y 0.000000 1.674220 0.000000 
#    z 0.000000 0.000000 1.604070 
# 
# From -- ./inp_files/6696.got.cif
#   From: 2010.05.17/outbox.cif.g08.bks.cpg/sg53_4_cif.got.tgz:6696.got - 2010.06.03 12:45:16.
