data_PCOD9416893
_publ_section_title
;
Structure prediction by ZEFSAII (Michael W. Deem and Ramdas Pophale) SiO2 
 PCOD9416893
Probable space group: P M N A
;
_chemical_formula_sum "Si O2"
_cell_formula_units_Z 40
_cell_length_a 10.092874
_cell_length_b 8.730652
_cell_length_c 24.892851
_cell_angle_alpha 90.000000
_cell_angle_beta 90.000000
_cell_angle_gamma 90.000000
_cell_volume 2193.492576
_symmetry_space_group_name_H-M "P M N A"
_symmetry_group_IT_number 53
_symmetry_cell_setting 'orthorhombic'
loop_
_space_group_symop_operation_xyz
x,y,z
1/2-x,-y,1/2+z
x,-y,-z
1/2-x,y,1/2-z
-x,-y,-z
1/2+x,y,1/2-z
-x,y,z
1/2+x,-y,1/2+z
loop_
_atom_site_type_symbol
_atom_site_label
_atom_site_fract_x
_atom_site_fract_y
_atom_site_fract_z
Si Si1 0.250351 0.650817 0.971742
Si Si2 0.355268 0.915513 0.903346
Si Si3 0.342415 0.295676 0.199391
Si Si4 0.650748 0.494505 0.634060
Si Si5 0.350422 0.181197 0.575471
O O1 0.345914 0.774622 0.945017
O O2 0.163387 0.586734 0.922330
O O3 0.311666 0.500000 0.000000
O O4 0.170219 0.739024 0.017730
O O5 0.500000 0.987241 0.906429
O O6 0.336461 0.838774 0.845056
O O7 0.247470 0.041386 0.916706
O O8 0.250000 0.255791 0.250000
O O9 0.500000 0.322618 0.210549
O O10 0.265804 0.439555 0.172014
O O11 0.500000 0.515259 0.654859
O O12 0.670974 0.317214 0.618604
O O13 0.500000 0.125704 0.580156
#
# Coordination Sequence:
#
# PCOD9416893 Si02
#       5
#     8   8   8   8   8
#     4   9  18  32  52  78 108 143 183 221 255 301
#     4  10  22  36  51  77 110 142 177 218 265 314
#     4  10  21  38  59  80 101 131 173 219 267 316
#     4   9  18  34  55  79 106 137 175 217 260 308
#     4  10  20  33  52  79 110 144 178 212 255 309
#
# _framework density 18.235758000000001
#
# number of rings (size 3 to 8) (size 9 to 14) (size 15 to 20)
#    0.000    2.400    0.000    1.800    0.000   10.800 
#    0.000    5.000    0.000    2.400    0.000    0.000 
#    0.000    0.000    0.000    0.000    0.000    0.000 
#
# Total GULP energy -222950.062977 kJ/mol
# GULP energy per Si atom -5573.751574 kJ/mol
# Density = 1.819425 g / cm^3
# Si number density = 18.235758 Si / 1000 Ang^3
#
#
#
# Elastic Constant Matrix: (Units=GPa)
#
#
# Indices 1 2 3 4 5 6 
#
# 1 148.3035 79.5587 40.9723 0.0000 0.0000 0.0000
# 2 79.5587 96.3079 28.8815 0.0000 0.0000 0.0000
# 3 40.9723 28.8815 43.2469 0.0000 0.0000 0.0000
# 4 0.0000 0.0000 0.0000 5.1808 0.0000 0.0000
# 5 0.0000 0.0000 0.0000 0.0000 6.0009 0.0000
# 6 0.0000 0.0000 0.0000 0.0000 0.0000 10.9747
#
#
#
# Elastic Compliance Matrix: (Units=1/GPa)
#
#
# Indices 1 2 3 4 5 6 
#
# 1 0.013493 -0.009144 -0.006677 0.000000 0.000000 0.000000
# 2 -0.009144 0.019181 -0.004146 0.000000 0.000000 0.000000
# 3 -0.006677 -0.004146 0.032217 0.000000 0.000000 0.000000
# 4 0.000000 0.000000 0.000000 0.193022 0.000000 0.000000
# 5 0.000000 0.000000 0.000000 0.000000 0.166641 0.000000
# 6 0.000000 0.000000 0.000000 0.000000 0.000000 0.091119
#
#
# Mechanical properties :
#
#
# Convention : Reuss Voigt Hill
#
# Bulk Modulus (GPa) = 40.06858 65.18703 52.62781
# Shear Modulus (GPa) = 8.86642 13.66099 11.26370
#
# Velocity S-wave (km/s) = 2.20741 2.74000 2.48800
# Velocity P-wave (km/s) = 5.34014 6.77012 6.09720
#
# Compressibility (1/GPa) = 0.02495721
#
# Stress axis : x y z
#
# Youngs Moduli (GPa) = 74.11299 52.13603 31.03913
#
# Poissons Ratio (x) = 0.47674 0.20723
# Poissons Ratio (y) = 0.67770 0.12869
# Poissons Ratio (z) = 0.49482 0.21617
#
# Static dielectric constant tensor:
#      x y z
#    x 1.620780 0.000000 0.000000 
#    y 0.000000 1.610050 0.000000 
#    z 0.000000 0.000000 1.648080 
# 
# From -- ./inp_files/33639.got.cif
#   From: 2010.05.17/outbox.cif.g08.bks.cpg/sg53_17_cif.got.tgz:33639.got - 2010.06.03 12:45:16.
