data_PCOD9416843
_publ_section_title
;
Structure prediction by ZEFSAII (Michael W. Deem and Ramdas Pophale) SiO2 
 PCOD9416843
Probable space group: P M N A
;
_chemical_formula_sum "Si O2"
_cell_formula_units_Z 56
_cell_length_a 8.816754
_cell_length_b 26.451814
_cell_length_c 14.426466
_cell_angle_alpha 90.000000
_cell_angle_beta 90.000000
_cell_angle_gamma 90.000000
_cell_volume 3364.527949
_symmetry_space_group_name_H-M "P M N A"
_symmetry_group_IT_number 53
_symmetry_cell_setting 'orthorhombic'
loop_
_space_group_symop_operation_xyz
x,y,z
1/2-x,-y,1/2+z
x,-y,-z
1/2-x,y,1/2-z
-x,-y,-z
1/2+x,y,1/2-z
-x,y,z
1/2+x,-y,1/2+z
loop_
_atom_site_type_symbol
_atom_site_label
_atom_site_fract_x
_atom_site_fract_y
_atom_site_fract_z
Si Si1 0.319036 0.167119 0.649940
Si Si2 0.682666 0.020893 0.148228
Si Si3 0.180364 0.627102 0.466814
Si Si4 0.181711 0.465543 0.852889
Si Si5 0.317119 0.079277 0.966305
Si Si6 0.680398 0.427734 0.149733
Si Si7 0.181464 0.285050 0.850251
O O1 0.250000 0.152868 0.750000
O O2 0.500000 0.162688 0.654889
O O3 0.254831 0.130292 0.571770
O O4 0.280597 0.226079 0.633310
O O5 0.750000 0.027955 0.250000
O O6 0.500000 0.021870 0.154367
O O7 0.725100 0.966596 0.103516
O O8 0.727882 0.061955 0.069960
O O9 0.256373 0.580312 0.413365
O O10 0.206351 0.616082 0.575167
O O11 0.250262 0.678308 0.427287
O O12 0.000000 0.626380 0.449931
O O13 0.250000 0.459296 0.750000
O O14 0.242649 0.520242 0.884925
O O15 0.000000 0.465596 0.850556
O O16 0.500000 0.083154 0.964764
O O17 0.750000 0.416540 0.250000
O O18 0.500000 0.436498 0.158196
O O19 0.250000 0.299307 0.750000
O O20 0.000000 0.290249 0.846819
#
# Coordination Sequence:
#
# PCOD9416843 Si02
#       7
#     8   8   8   8   8   8   8
#     4  10  20  33  51  75 101 130 164 202 244 290
#     4   9  18  31  47  71 103 136 169 206 247 290
#     4  11  22  35  52  74 100 129 161 199 244 291
#     4  11  21  33  51  74 102 133 162 195 237 288
#     4   9  18  32  49  71 101 135 169 205 246 292
#     4  10  21  36  53  73  98 127 161 201 241 286
#     4  10  21  36  53  75 102 129 160 200 244 292
#
# _framework density 16.644238000000001
#
# number of rings (size 3 to 8) (size 9 to 14) (size 15 to 20)
#    0.000    2.000    0.000    6.000    0.000    8.000 
#    0.000    1.429    0.000    0.857    0.000    0.000 
#    0.000    0.000    0.000    0.000    0.000    0.000 
#
# Total GULP energy -312646.963492 kJ/mol
# GULP energy per Si atom -5582.981491 kJ/mol
# Density = 1.660635 g / cm^3
# Si number density = 16.644238 Si / 1000 Ang^3
#
#
#
# Elastic Constant Matrix: (Units=GPa)
#
#
# Indices 1 2 3 4 5 6 
#
# 1 69.7839 44.1863 47.8671 0.0000 0.0000 0.0000
# 2 44.1863 83.9074 67.4054 0.0000 0.0000 0.0000
# 3 47.8671 67.4054 116.6833 0.0000 0.0000 0.0000
# 4 0.0000 0.0000 0.0000 29.2748 0.0000 0.0000
# 5 0.0000 0.0000 0.0000 0.0000 29.5217 0.0000
# 6 0.0000 0.0000 0.0000 0.0000 0.0000 28.6716
#
#
#
# Elastic Compliance Matrix: (Units=1/GPa)
#
#
# Indices 1 2 3 4 5 6 
#
# 1 0.022692 -0.008344 -0.004489 0.000000 0.000000 0.000000
# 2 -0.008344 0.025306 -0.011196 0.000000 0.000000 0.000000
# 3 -0.004489 -0.011196 0.016879 0.000000 0.000000 0.000000
# 4 0.000000 0.000000 0.000000 0.034159 0.000000 0.000000
# 5 0.000000 0.000000 0.000000 0.000000 0.033873 0.000000
# 6 0.000000 0.000000 0.000000 0.000000 0.000000 0.034878
#
#
# Mechanical properties :
#
#
# Convention : Reuss Voigt Hill
#
# Bulk Modulus (GPa) = 59.45222 65.47692 62.46457
# Shear Modulus (GPa) = 22.57835 24.88799 23.73317
#
# Velocity S-wave (km/s) = 3.68710 3.87110 3.78022
# Velocity P-wave (km/s) = 7.34324 7.70746 7.52756
#
# Compressibility (1/GPa) = 0.01682023
#
# Stress axis : x y z
#
# Youngs Moduli (GPa) = 44.06776 39.51692 59.24438
#
# Poissons Ratio (x) = 0.32972 0.26595
# Poissons Ratio (y) = 0.36769 0.66328
# Poissons Ratio (z) = 0.19782 0.44242
#
# Static dielectric constant tensor:
#      x y z
#    x 1.555810 0.000000 0.000000 
#    y 0.000000 1.551520 0.000000 
#    z 0.000000 0.000000 1.560960 
# 
# From -- ./inp_files/20651.got.cif
#   From: 2010.05.17/outbox.cif.g08.bks.cpg/sg53_11_cif.got.tgz:20651.got - 2010.06.03 12:45:16.
