data_PCOD9416493
_publ_section_title
;
Structure prediction by ZEFSAII (Michael W. Deem and Ramdas Pophale) SiO2 
 PCOD9416493
Probable space group: P M N A
;
_chemical_formula_sum "Si O2"
_cell_formula_units_Z 64
_cell_length_a 8.853396
_cell_length_b 12.279624
_cell_length_c 31.988064
_cell_angle_alpha 90.000000
_cell_angle_beta 90.000000
_cell_angle_gamma 90.000000
_cell_volume 3477.626329
_symmetry_space_group_name_H-M "P M N A"
_symmetry_group_IT_number 53
_symmetry_cell_setting 'orthorhombic'
loop_
_space_group_symop_operation_xyz
x,y,z
1/2-x,-y,1/2+z
x,-y,-z
1/2-x,y,1/2-z
-x,-y,-z
1/2+x,y,1/2-z
-x,y,z
1/2+x,-y,1/2+z
loop_
_atom_site_type_symbol
_atom_site_label
_atom_site_fract_x
_atom_site_fract_y
_atom_site_fract_z
Si Si1 0.182196 0.495141 0.794908
Si Si2 0.681984 0.089250 0.629872
Si Si3 0.181476 0.243504 0.794080
Si Si4 0.825104 0.884279 0.977078
Si Si5 0.178013 0.257792 0.942408
Si Si6 0.818922 0.369908 0.122776
Si Si7 0.677176 0.138871 0.110571
Si Si8 0.680348 0.511574 0.048741
O O1 0.250000 0.529082 0.750000
O O2 0.227101 0.368859 0.802178
O O3 0.227911 0.564754 0.835340
O O4 0.000000 0.499670 0.791881
O O5 0.500000 0.075132 0.629459
O O6 0.726519 0.162732 0.669196
O O7 0.721310 0.160723 0.589017
O O8 0.758941 0.972390 0.629840
O O9 0.250000 0.209978 0.750000
O O10 0.000000 0.242385 0.791731
O O11 0.714292 0.870696 0.938688
O O12 0.000000 0.881983 0.961833
O O13 0.805767 0.789782 0.011090
O O14 0.804740 0.000000 0.000000
O O15 0.270714 0.367669 0.937000
O O16 0.000000 0.281507 0.934906
O O17 0.761610 0.246736 0.125873
O O18 0.753197 0.426164 0.080947
O O19 0.000000 0.372977 0.120008
O O20 0.500000 0.149033 0.117773
O O21 0.500000 0.499001 0.049996
O O22 0.729456 0.500000 0.000000
#
# Coordination Sequence:
#
# PCOD9416493 Si02
#       8
#     8   8   8   8   8   8   8   8
#     4   9  19  37  63  93 118 145 185 236 292 350
#     4  10  20  38  59  81 110 148 192 231 271 332
#     4   9  18  34  59  87 116 143 175 225 282 339
#     4  10  19  36  59  81 108 150 197 237 277 335
#     4  10  20  35  59  84 108 143 192 238 277 333
#     4  11  23  41  63  84 113 157 205 242 286 353
#     4  12  25  38  55  83 118 152 190 241 295 340
#     4  11  24  39  55  82 120 155 191 241 299 347
#
# _framework density 18.403355999999999
#
# number of rings (size 3 to 8) (size 9 to 14) (size 15 to 20)
#    0.000    1.750    1.250    3.375    0.000    7.750 
#    0.000    3.125    0.000    0.000    0.000    0.000 
#    0.000    0.000    0.000    0.000    0.000    0.000 
#
# Total GULP energy -357542.118435 kJ/mol
# GULP energy per Si atom -5586.595601 kJ/mol
# Density = 1.836147 g / cm^3
# Si number density = 18.403356 Si / 1000 Ang^3
#
#
#
# Elastic Constant Matrix: (Units=GPa)
#
#
# Indices 1 2 3 4 5 6 
#
# 1 41.3595 36.1667 37.2873 0.0000 0.0000 0.0000
# 2 36.1667 111.3245 61.0170 0.0000 0.0000 0.0000
# 3 37.2873 61.0170 117.7501 0.0000 0.0000 0.0000
# 4 0.0000 0.0000 0.0000 25.7975 0.0000 0.0000
# 5 0.0000 0.0000 0.0000 0.0000 26.9235 0.0000
# 6 0.0000 0.0000 0.0000 0.0000 0.0000 7.8785
#
#
#
# Elastic Compliance Matrix: (Units=1/GPa)
#
#
# Indices 1 2 3 4 5 6 
#
# 1 0.038473 -0.008131 -0.007970 0.000000 0.000000 0.000000
# 2 -0.008131 0.014264 -0.004817 0.000000 0.000000 0.000000
# 3 -0.007970 -0.004817 0.013512 0.000000 0.000000 0.000000
# 4 0.000000 0.000000 0.000000 0.038763 0.000000 0.000000
# 5 0.000000 0.000000 0.000000 0.000000 0.037142 0.000000
# 6 0.000000 0.000000 0.000000 0.000000 0.000000 0.126927
#
#
# Mechanical properties :
#
#
# Convention : Reuss Voigt Hill
#
# Bulk Modulus (GPa) = 40.95845 59.93069 50.44457
# Shear Modulus (GPa) = 15.67118 21.18410 18.42764
#
# Velocity S-wave (km/s) = 2.92128 3.39647 3.16780
# Velocity P-wave (km/s) = 5.80369 6.92944 6.39140
#
# Compressibility (1/GPa) = 0.02441499
#
# Stress axis : x y z
#
# Youngs Moduli (GPa) = 25.99201 70.10439 74.00583
#
# Poissons Ratio (x) = 0.57001 0.58982
# Poissons Ratio (y) = 0.21134 0.35648
# Poissons Ratio (z) = 0.20715 0.33769
#
# Static dielectric constant tensor:
#      x y z
#    x 1.620750 0.000000 0.000000 
#    y 0.000000 1.623930 0.000000 
#    z 0.000000 0.000000 1.628560 
# 
# From -- ./inp_files/38245.got.cif
#   From: 2010.05.17/outbox.cif.g08.bks.cpg/sg53_20_cif.got.tgz:38245.got - 2010.06.03 12:45:16.
