data_PCOD9416585
_publ_section_title
;
Structure prediction by ZEFSAII (Michael W. Deem and Ramdas Pophale) SiO2 
 PCOD9416585
Probable space group: P M N A
;
_chemical_formula_sum "Si O2"
_cell_formula_units_Z 48
_cell_length_a 14.657251
_cell_length_b 10.085326
_cell_length_c 17.605276
_cell_angle_alpha 90.000000
_cell_angle_beta 90.000000
_cell_angle_gamma 90.000000
_cell_volume 2602.467436
_symmetry_space_group_name_H-M "P M N A"
_symmetry_group_IT_number 53
_symmetry_cell_setting 'orthorhombic'
loop_
_space_group_symop_operation_xyz
x,y,z
1/2-x,-y,1/2+z
x,-y,-z
1/2-x,y,1/2-z
-x,-y,-z
1/2+x,y,1/2-z
-x,y,z
1/2+x,-y,1/2+z
loop_
_atom_site_type_symbol
_atom_site_label
_atom_site_fract_x
_atom_site_fract_y
_atom_site_fract_z
Si Si1 0.300172 0.462080 0.589365
Si Si2 0.500000 0.106854 0.190244
Si Si3 0.500000 0.247157 0.348673
Si Si4 0.196814 0.002877 0.677985
Si Si5 0.798431 0.762975 0.893501
Si Si6 0.500000 0.460752 0.589725
Si Si7 0.805784 0.778459 0.448422
Si Si8 0.500000 0.840932 0.983947
O O1 0.300337 0.500000 0.500000
O O2 0.288597 0.606565 0.627407
O O3 0.400535 0.399750 0.605433
O O4 0.221914 0.353437 0.598025
O O5 0.500000 0.206355 0.260934
O O6 0.500000 0.174297 0.107119
O O7 0.409312 0.018724 0.194642
O O8 0.594832 0.200281 0.386191
O O9 0.500000 0.403933 0.362724
O O10 0.250000 0.059605 0.750000
O O11 0.206881 0.095023 0.604804
O O12 0.240326 0.859860 0.659191
O O13 0.760294 0.782957 0.978445
O O14 0.500000 0.500000 0.500000
O O15 0.908696 0.780634 0.479983
O O16 0.500000 0.000000 0.000000
#
# Coordination Sequence:
#
# PCOD9416585 Si02
#       8
#     8   4   4   8   8   4   8   4
#     4   8  17  32  56  86 117 143 189 242 296 353
#     4  12  22  38  57  90 120 161 205 254 308 365
#     4  10  20  34  61  93 120 154 201 256 311 363
#     4  12  23  38  60  83 120 160 203 255 306 365
#     4  10  19  37  60  88 114 154 200 251 298 365
#     4   8  14  32  58  84 116 154 180 232 311 370
#     4  11  21  37  59  90 116 159 207 246 307 367
#     4  12  20  36  62  83 118 169 209 251 300 371
#
# _framework density 18.444033999999998
#
# number of rings (size 3 to 8) (size 9 to 14) (size 15 to 20)
#    0.000    1.667    5.000    1.500    0.000    0.000 
#    0.000    9.583    0.000    0.000    0.000    0.000 
#    0.000    0.000    0.000    0.000    0.000    0.000 
#
# Total GULP energy -267537.297167 kJ/mol
# GULP energy per Si atom -5573.693691 kJ/mol
# Density = 1.840205 g / cm^3
# Si number density = 18.444034 Si / 1000 Ang^3
#
#
#
# Elastic Constant Matrix: (Units=GPa)
#
#
# Indices 1 2 3 4 5 6 
#
# 1 172.3991 54.4807 43.6489 0.0000 0.0000 0.0000
# 2 54.4807 68.6726 28.9638 0.0000 0.0000 0.0000
# 3 43.6489 28.9638 82.4347 0.0000 0.0000 0.0000
# 4 0.0000 0.0000 0.0000 16.3875 0.0000 0.0000
# 5 0.0000 0.0000 0.0000 0.0000 -1.5060 0.0000
# 6 0.0000 0.0000 0.0000 0.0000 0.0000 19.5790
#
#
#
# Elastic Compliance Matrix: (Units=1/GPa)
#
#
# Indices 1 2 3 4 5 6 
#
# 1 0.008124 -0.005436 -0.002392 0.000000 0.000000 0.000000
# 2 -0.005436 0.020733 -0.004406 0.000000 0.000000 0.000000
# 3 -0.002392 -0.004406 0.014945 0.000000 0.000000 0.000000
# 4 0.000000 0.000000 0.000000 0.061022 0.000000 0.000000
# 5 0.000000 0.000000 0.000000 0.000000 -0.664027 0.000000
# 6 0.000000 0.000000 0.000000 0.000000 0.000000 0.051075
#
#
# Mechanical properties :
#
#
# Convention : Reuss Voigt Hill
#
# Bulk Modulus (GPa) = 51.72170 64.18812 57.95491
# Shear Modulus (GPa) = -10.47747 19.98632 4.75443
#
# Velocity S-wave (km/s) = -2.38600 3.29541 1.60728
# Velocity P-wave (km/s) = 4.52909 7.02544 5.91056
#
# Compressibility (1/GPa) = 0.01933425
#
# Stress axis : x y z
#
# Youngs Moduli (GPa) = 123.09243 48.23205 66.91111
#
# Poissons Ratio (x) = 0.26221 0.16002
# Poissons Ratio (y) = 0.66918 0.29482
# Poissons Ratio (z) = 0.29438 0.21252
#
# Static dielectric constant tensor:
#      x y z
#    x 1.667710 0.000000 0.000000 
#    y 0.000000 1.642000 0.000000 
#    z 0.000000 0.000000 1.632670 
# 
# From -- ./inp_files/28347.got.cif
#   From: 2010.05.17/outbox.cif.g08.bks.cpg/sg53_15_cif.got.tgz:28347.got - 2010.06.03 12:45:16.
