data_PCOD9416050
_publ_section_title
;
Structure prediction by ZEFSAII (Michael W. Deem and Ramdas Pophale) SiO2 
 PCOD9416050
Probable space group: P M N A
;
_chemical_formula_sum "Si O2"
_cell_formula_units_Z 48
_cell_length_a 13.831672
_cell_length_b 7.877683
_cell_length_c 21.932439
_cell_angle_alpha 90.000000
_cell_angle_beta 90.000000
_cell_angle_gamma 90.000000
_cell_volume 2389.792053
_symmetry_space_group_name_H-M "P M N A"
_symmetry_group_IT_number 53
_symmetry_cell_setting 'orthorhombic'
loop_
_space_group_symop_operation_xyz
x,y,z
1/2-x,-y,1/2+z
x,-y,-z
1/2-x,y,1/2-z
-x,-y,-z
1/2+x,y,1/2-z
-x,y,z
1/2+x,-y,1/2+z
loop_
_atom_site_type_symbol
_atom_site_label
_atom_site_fract_x
_atom_site_fract_y
_atom_site_fract_z
Si Si1 0.886298 0.966458 0.829562
Si Si2 0.611330 0.298578 0.993619
Si Si3 0.886047 0.324481 0.269236
Si Si4 0.797742 0.176133 0.383045
Si Si5 0.615132 0.183040 0.862491
Si Si6 0.383140 0.313039 0.731806
O O1 0.856548 0.159889 0.813631
O O2 0.000000 0.960307 0.845826
O O3 0.873860 0.847894 0.769504
O O4 0.812598 0.884241 0.877136
O O5 0.500000 0.233772 0.998543
O O6 0.672457 0.226632 0.049360
O O7 0.607936 0.500000 0.000000
O O8 0.651446 0.254716 0.926842
O O9 0.826329 0.314277 0.331790
O O10 0.860435 0.487403 0.227274
O O11 0.000000 0.340210 0.285031
O O12 0.862226 0.014992 0.363474
O O13 0.500000 0.212258 0.862605
O O14 0.651306 0.263881 0.799775
O O15 0.500000 0.302894 0.731238
#
# Coordination Sequence:
#
# PCOD9416050 Si02
#       6
#     8   8   8   8   8   8
#     4  10  22  40  55  78 117 157 199 242 287 338
#     4  10  21  37  57  86 122 154 188 236 301 367
#     4  10  19  34  56  83 115 151 187 234 296 356
#     4  12  21  34  55  86 115 152 197 241 292 349
#     4  10  19  33  56  84 113 147 182 231 295 355
#     4   9  18  35  57  81 116 153 187 231 289 352
#
# _framework density 20.085429000000001
#
# number of rings (size 3 to 8) (size 9 to 14) (size 15 to 20)
#    0.000    1.833    1.667    3.500    0.000    4.000 
#    9.000    0.000    0.000    2.500    0.000    0.000 
#    0.000    0.000    0.000    0.000    0.000    0.000 
#
# Total GULP energy -267986.975910 kJ/mol
# GULP energy per Si atom -5583.061998 kJ/mol
# Density = 2.003971 g / cm^3
# Si number density = 20.085429 Si / 1000 Ang^3
#
#
#
# Elastic Constant Matrix: (Units=GPa)
#
#
# Indices 1 2 3 4 5 6 
#
# 1 79.6778 -1.0737 20.8161 0.0000 0.0000 0.0000
# 2 -1.0737 75.2317 0.1830 0.0000 0.0000 0.0000
# 3 20.8161 0.1830 46.9250 0.0000 0.0000 0.0000
# 4 0.0000 0.0000 0.0000 28.3014 0.0000 0.0000
# 5 0.0000 0.0000 0.0000 0.0000 12.6270 0.0000
# 6 0.0000 0.0000 0.0000 0.0000 0.0000 11.8308
#
#
#
# Elastic Compliance Matrix: (Units=1/GPa)
#
#
# Indices 1 2 3 4 5 6 
#
# 1 0.014199 0.000218 -0.006300 0.000000 0.000000 0.000000
# 2 0.000218 0.013296 -0.000149 0.000000 0.000000 0.000000
# 3 -0.006300 -0.000149 0.024106 0.000000 0.000000 0.000000
# 4 0.000000 0.000000 0.000000 0.035334 0.000000 0.000000
# 5 0.000000 0.000000 0.000000 0.000000 0.079196 0.000000
# 6 0.000000 0.000000 0.000000 0.000000 0.000000 0.084525
#
#
# Mechanical properties :
#
#
# Convention : Reuss Voigt Hill
#
# Bulk Modulus (GPa) = 25.54916 26.85392 26.20154
# Shear Modulus (GPa) = 18.10527 22.67912 20.39220
#
# Velocity S-wave (km/s) = 3.00561 3.36390 3.18979
# Velocity P-wave (km/s) = 4.97924 5.33729 5.16137
#
# Compressibility (1/GPa) = 0.03914023
#
# Stress axis : x y z
#
# Youngs Moduli (GPa) = 70.42595 75.21208 41.48387
#
# Poissons Ratio (x) = -0.01639 0.26134
# Poissons Ratio (y) = -0.01535 0.00616
# Poissons Ratio (z) = 0.44366 0.01117
#
# Static dielectric constant tensor:
#      x y z
#    x 1.755510 0.000000 0.000000 
#    y 0.000000 1.753690 0.000000 
#    z 0.000000 0.000000 1.698620 
# 
# From -- ./inp_files/32254.got.cif
#   From: 2010.05.17/outbox.cif.g08.bks.cpg/sg53_17_cif.got.tgz:32254.got - 2010.06.03 12:45:16.
