data_PCOD9416567
_publ_section_title
;
Structure prediction by ZEFSAII (Michael W. Deem and Ramdas Pophale) SiO2 
 PCOD9416567
Probable space group: P M N A
;
_chemical_formula_sum "Si O2"
_cell_formula_units_Z 60
_cell_length_a 28.640386
_cell_length_b 6.527642
_cell_length_c 13.835575
_cell_angle_alpha 90.000000
_cell_angle_beta 90.000000
_cell_angle_gamma 90.000000
_cell_volume 2586.618670
_symmetry_space_group_name_H-M "P M N A"
_symmetry_group_IT_number 53
_symmetry_cell_setting 'orthorhombic'
loop_
_space_group_symop_operation_xyz
x,y,z
1/2-x,-y,1/2+z
x,-y,-z
1/2-x,y,1/2-z
-x,-y,-z
1/2+x,y,1/2-z
-x,y,z
1/2+x,-y,1/2+z
loop_
_atom_site_type_symbol
_atom_site_label
_atom_site_fract_x
_atom_site_fract_y
_atom_site_fract_z
Si Si1 0.148261 0.000000 0.000000
Si Si2 0.701686 0.361185 0.131683
Si Si3 0.947798 0.606534 0.752459
Si Si4 0.847328 0.753675 0.445230
Si Si5 0.113265 0.332608 0.867915
Si Si6 0.690621 0.685448 0.648740
Si Si7 0.603759 0.002154 0.800496
Si Si8 0.050586 0.283659 0.577246
O O1 0.178435 0.884412 0.916604
O O2 0.117065 0.186243 0.959784
O O3 0.671029 0.569364 0.122725
O O4 0.757106 0.393340 0.127964
O O5 0.643369 0.951119 0.120134
O O6 0.688398 0.249605 0.032190
O O7 0.932191 0.464782 0.841955
O O8 0.909743 0.783758 0.739851
O O9 0.947482 0.466260 0.655821
O O10 0.000000 0.686427 0.765998
O O11 0.900895 0.712095 0.481565
O O12 0.155373 0.496510 0.869374
O O13 0.115192 0.166492 0.781704
O O14 0.690827 0.734894 0.763626
O O15 0.557653 0.080465 0.858391
O O16 0.000000 0.282493 0.528460
#
# Coordination Sequence:
#
# PCOD9416567 Si02
#       8
#     4   8   8   8   8   8   8   8
#     4  12  28  44  73 106 130 192 253 318 380 450
#     4  10  21  43  73 105 145 192 244 310 377 438
#     4  10  19  36  71 112 153 200 243 299 371 451
#     4   9  19  36  69 108 148 197 236 299 360 438
#     4  11  23  44  68 102 142 190 246 310 376 447
#     4  11  24  47  75  98 143 192 253 315 375 458
#     4   9  18  35  65 107 150 191 243 289 359 436
#     4   8  16  32  58  98 148 198 239 278 343 435
#
# _framework density 23.196307999999998
#
# number of rings (size 3 to 8) (size 9 to 14) (size 15 to 20)
#    0.800    1.333    1.333    1.600    3.733    0.533 
#    0.000   11.000    2.933    5.600    0.000   12.133 
#    0.000    0.000    0.000    0.000    0.000    0.000 
#
# Total GULP energy -334743.984089 kJ/mol
# GULP energy per Si atom -5579.066401 kJ/mol
# Density = 2.314351 g / cm^3
# Si number density = 23.196308 Si / 1000 Ang^3
#
#
#
# Elastic Constant Matrix: (Units=GPa)
#
#
# Indices 1 2 3 4 5 6 
#
# 1 141.4522 29.2981 34.1295 0.0000 0.0000 0.0000
# 2 29.2981 116.1002 36.5612 0.0000 0.0000 0.0000
# 3 34.1295 36.5612 101.3299 0.0000 0.0000 0.0000
# 4 0.0000 0.0000 0.0000 52.1549 0.0000 0.0000
# 5 0.0000 0.0000 0.0000 0.0000 19.5706 0.0000
# 6 0.0000 0.0000 0.0000 0.0000 0.0000 -34.4876
#
#
#
# Elastic Compliance Matrix: (Units=1/GPa)
#
#
# Indices 1 2 3 4 5 6 
#
# 1 0.007864 -0.001298 -0.002181 0.000000 0.000000 0.000000
# 2 -0.001298 0.009932 -0.003146 0.000000 0.000000 0.000000
# 3 -0.002181 -0.003146 0.011738 0.000000 0.000000 0.000000
# 4 0.000000 0.000000 0.000000 0.019174 0.000000 0.000000
# 5 0.000000 0.000000 0.000000 0.000000 0.051097 0.000000
# 6 0.000000 0.000000 0.000000 0.000000 0.000000 -0.028996
#
#
# Mechanical properties :
#
#
# Convention : Reuss Voigt Hill
#
# Bulk Modulus (GPa) = 61.40650 62.09554 61.75102
# Shear Modulus (GPa) = 55.87398 24.70715 40.29056
#
# Velocity S-wave (km/s) = 4.91322 3.26718 4.17218
# Velocity P-wave (km/s) = 7.66266 6.40783 7.06317
#
# Compressibility (1/GPa) = 0.01628492
#
# Stress axis : x y z
#
# Youngs Moduli (GPa) = 127.15389 100.68891 85.19032
#
# Poissons Ratio (x) = 0.13069 0.18576
# Poissons Ratio (y) = 0.16504 0.26803
# Poissons Ratio (z) = 0.27727 0.31680
#
# Static dielectric constant tensor:
#      x y z
#    x 1.841800 0.000000 0.000000 
#    y 0.000000 1.922560 0.000000 
#    z 0.000000 0.000000 1.928350 
# 
# From -- ./inp_files/33204.got.cif
#   From: 2010.05.17/outbox.cif.g08.bks.cpg/sg53_17_cif.got.tgz:33204.got - 2010.06.03 12:45:16.
