data_PCOD9416584
_publ_section_title
;
Structure prediction by ZEFSAII (Michael W. Deem and Ramdas Pophale) SiO2 
 PCOD9416584
Probable space group: P M N A
;
_chemical_formula_sum "Si O2"
_cell_formula_units_Z 48
_cell_length_a 15.521517
_cell_length_b 10.282992
_cell_length_c 15.008385
_cell_angle_alpha 90.000000
_cell_angle_beta 90.000000
_cell_angle_gamma 90.000000
_cell_volume 2395.452837
_symmetry_space_group_name_H-M "P M N A"
_symmetry_group_IT_number 53
_symmetry_cell_setting 'orthorhombic'
loop_
_space_group_symop_operation_xyz
x,y,z
1/2-x,-y,1/2+z
x,-y,-z
1/2-x,y,1/2-z
-x,-y,-z
1/2+x,y,1/2-z
-x,y,z
1/2+x,-y,1/2+z
loop_
_atom_site_type_symbol
_atom_site_label
_atom_site_fract_x
_atom_site_fract_y
_atom_site_fract_z
Si Si1 0.800536 0.395563 0.157303
Si Si2 0.399024 0.077531 0.587910
Si Si3 0.656869 0.357998 0.004796
Si Si4 0.214724 0.682915 0.150740
Si Si5 0.098342 0.904820 0.575043
Si Si6 0.100456 0.849641 0.770406
O O1 0.750000 0.406843 0.250000
O O2 0.735014 0.367437 0.076683
O O3 0.834107 0.542964 0.143801
O O4 0.861690 0.273575 0.176615
O O5 0.500000 0.112056 0.574556
O O6 0.343746 0.202747 0.612344
O O7 0.369543 0.000000 0.500000
O O8 0.393136 0.975647 0.668430
O O9 0.598909 0.238830 0.033961
O O10 0.614820 0.500000 0.000000
O O11 0.701260 0.329728 0.910975
O O12 0.250000 0.707362 0.250000
O O13 0.139708 0.885805 0.673146
O O14 0.000000 0.952949 0.589135
O O15 0.138493 0.000000 0.500000
O O16 0.000000 0.819065 0.753921
#
# Coordination Sequence:
#
# PCOD9416584 Si02
#       6
#     8   8   8   8   8   8
#     4  10  19  37  60  84 115 151 189 237 284 339
#     4  10  22  41  60  83 118 155 193 238 289 346
#     4  10  21  38  59  83 114 148 186 234 286 341
#     4  10  23  38  57  88 118 146 192 242 289 344
#     4  10  22  38  56  83 116 150 191 234 279 340
#     4  10  21  37  59  86 115 151 194 235 282 342
#
# _framework density 20.037963999999999
#
# number of rings (size 3 to 8) (size 9 to 14) (size 15 to 20)
#    0.000    2.000    1.667    1.000    2.333    3.667 
#    0.000    0.000    0.000    6.000    0.000    0.000 
#    0.000    0.000    0.000    0.000    0.000    0.000 
#
# Total GULP energy -267714.099540 kJ/mol
# GULP energy per Si atom -5577.377074 kJ/mol
# Density = 1.999236 g / cm^3
# Si number density = 20.037964 Si / 1000 Ang^3
#
#
#
# Elastic Constant Matrix: (Units=GPa)
#
#
# Indices 1 2 3 4 5 6 
#
# 1 28.5141 30.0369 7.1600 0.0000 0.0000 0.0000
# 2 30.0369 110.4593 10.1739 0.0000 0.0000 0.0000
# 3 7.1600 10.1739 117.8709 0.0000 0.0000 0.0000
# 4 0.0000 0.0000 0.0000 30.1603 0.0000 0.0000
# 5 0.0000 0.0000 0.0000 0.0000 13.9933 0.0000
# 6 0.0000 0.0000 0.0000 0.0000 0.0000 32.7169
#
#
#
# Elastic Compliance Matrix: (Units=1/GPa)
#
#
# Indices 1 2 3 4 5 6 
#
# 1 0.049551 -0.013303 -0.001862 0.000000 0.000000 0.000000
# 2 -0.013303 0.012697 -0.000288 0.000000 0.000000 0.000000
# 3 -0.001862 -0.000288 0.008622 0.000000 0.000000 0.000000
# 4 0.000000 0.000000 0.000000 0.033156 0.000000 0.000000
# 5 0.000000 0.000000 0.000000 0.000000 0.071463 0.000000
# 6 0.000000 0.000000 0.000000 0.000000 0.000000 0.030565
#
#
# Mechanical properties :
#
#
# Convention : Reuss Voigt Hill
#
# Bulk Modulus (GPa) = 25.02181 39.06510 32.04346
# Shear Modulus (GPa) = 19.97757 29.33901 24.65829
#
# Velocity S-wave (km/s) = 3.16093 3.83060 3.51177
# Velocity P-wave (km/s) = 5.08294 6.25320 5.69819
#
# Compressibility (1/GPa) = 0.03996514
#
# Stress axis : x y z
#
# Youngs Moduli (GPa) = 20.18115 78.75861 115.98516
#
# Poissons Ratio (x) = 1.04771 0.21593
# Poissons Ratio (y) = 0.26847 0.03339
# Poissons Ratio (z) = 0.03757 0.02267
#
# Static dielectric constant tensor:
#      x y z
#    x 1.709440 0.000000 0.000000 
#    y 0.000000 1.736200 0.000000 
#    z 0.000000 0.000000 1.656960 
# 
# From -- ./inp_files/23649.got.cif
#   From: 2010.05.17/outbox.cif.g08.bks.cpg/sg53_12_cif.got.tgz:23649.got - 2010.06.03 12:45:16.
