data_PCOD9416279
_publ_section_title
;
Structure prediction by ZEFSAII (Michael W. Deem and Ramdas Pophale) SiO2 
 PCOD9416279
Probable space group: P M N A
;
_chemical_formula_sum "Si O2"
_cell_formula_units_Z 64
_cell_length_a 25.532891
_cell_length_b 5.203670
_cell_length_c 23.559741
_cell_angle_alpha 90.000000
_cell_angle_beta 90.000000
_cell_angle_gamma 90.000000
_cell_volume 3130.258837
_symmetry_space_group_name_H-M "P M N A"
_symmetry_group_IT_number 53
_symmetry_cell_setting 'orthorhombic'
loop_
_space_group_symop_operation_xyz
x,y,z
1/2-x,-y,1/2+z
x,-y,-z
1/2-x,y,1/2-z
-x,-y,-z
1/2+x,y,1/2-z
-x,y,z
1/2+x,-y,1/2+z
loop_
_atom_site_type_symbol
_atom_site_label
_atom_site_fract_x
_atom_site_fract_y
_atom_site_fract_z
Si Si1 0.141985 0.505552 0.567596
Si Si2 0.441543 0.226622 0.727468
Si Si3 0.133581 0.406161 0.860087
Si Si4 0.059706 0.506114 0.659381
Si Si5 0.940192 0.755301 0.037965
Si Si6 0.363134 0.861203 0.768065
Si Si7 0.188312 0.983521 0.376591
Si Si8 0.195525 0.110149 0.161060
O O1 0.137557 0.500000 0.500000
O O2 0.086750 0.446120 0.599563
O O3 0.160660 0.787675 0.587961
O O4 0.181709 0.283627 0.589880
O O5 0.500000 0.205568 0.704911
O O6 0.407350 0.429613 0.692304
O O7 0.445463 0.279976 0.794611
O O8 0.406244 0.976424 0.725481
O O9 0.099243 0.297479 0.911327
O O10 0.162368 0.673838 0.872707
O O11 0.174322 0.181407 0.844091
O O12 0.103401 0.673912 0.692219
O O13 0.000000 0.612668 0.653776
O O14 0.000000 0.801059 0.058337
O O15 0.940700 0.500000 0.000000
O O16 0.925164 0.000000 0.000000
O O17 0.339017 0.053699 0.814975
O O18 0.315112 0.793781 0.726110
O O19 0.245780 0.088317 0.361414
#
# Coordination Sequence:
#
# PCOD9416279 Si02
#       8
#     8   8   8   8   8   8   8   8
#     4  11  24  44  66  90 124 167 218 267 316 376
#     4  10  19  34  58  90 129 163 197 244 313 384
#     4  11  22  39  58  91 127 157 203 252 312 375
#     4  10  20  37  62  94 131 165 204 251 318 387
#     4  10  21  39  61  84 115 160 206 247 299 363
#     4  10  20  37  59  91 128 164 202 252 315 381
#     4  11  23  42  65  88 119 162 212 263 318 368
#     4  11  23  38  61  91 123 158 204 256 314 381
#
# _framework density 20.445595999999998
#
# number of rings (size 3 to 8) (size 9 to 14) (size 15 to 20)
#    0.000    1.500    2.500    3.000    0.000    0.250 
#    0.000   10.000    0.000    2.250    0.000    0.000 
#    0.000    0.000    0.000    0.000    0.000    0.000 
#
# Total GULP energy -356507.815575 kJ/mol
# GULP energy per Si atom -5570.434618 kJ/mol
# Density = 2.039906 g / cm^3
# Si number density = 20.445596 Si / 1000 Ang^3
#
#
#
# Elastic Constant Matrix: (Units=GPa)
#
#
# Indices 1 2 3 4 5 6 
#
# 1 92.5168 7.9292 43.8420 0.0000 0.0000 0.0000
# 2 7.9292 82.3774 13.5962 0.0000 0.0000 0.0000
# 3 43.8420 13.5962 96.7264 0.0000 0.0000 0.0000
# 4 0.0000 0.0000 0.0000 29.2535 0.0000 0.0000
# 5 0.0000 0.0000 0.0000 0.0000 12.3613 0.0000
# 6 0.0000 0.0000 0.0000 0.0000 0.0000 17.1541
#
#
#
# Elastic Compliance Matrix: (Units=1/GPa)
#
#
# Indices 1 2 3 4 5 6 
#
# 1 0.013773 -0.000302 -0.006200 0.000000 0.000000 0.000000
# 2 -0.000302 0.012434 -0.001611 0.000000 0.000000 0.000000
# 3 -0.006200 -0.001611 0.013375 0.000000 0.000000 0.000000
# 4 0.000000 0.000000 0.000000 0.034184 0.000000 0.000000
# 5 0.000000 0.000000 0.000000 0.000000 0.080898 0.000000
# 6 0.000000 0.000000 0.000000 0.000000 0.000000 0.058295
#
#
# Mechanical properties :
#
#
# Convention : Reuss Voigt Hill
#
# Bulk Modulus (GPa) = 42.81618 44.70615 43.76116
# Shear Modulus (GPa) = 21.09965 25.50398 23.30182
#
# Velocity S-wave (km/s) = 3.21595 3.53570 3.37960
# Velocity P-wave (km/s) = 5.89718 6.21141 6.05633
#
# Compressibility (1/GPa) = 0.02335566
#
# Stress axis : x y z
#
# Youngs Moduli (GPa) = 72.60624 80.42327 74.76565
#
# Poissons Ratio (x) = 0.02432 0.46356
# Poissons Ratio (y) = 0.02196 0.12043
# Poissons Ratio (z) = 0.45017 0.12954
#
# Static dielectric constant tensor:
#      x y z
#    x 1.782550 0.000000 0.000000 
#    y 0.000000 1.762470 0.000000 
#    z 0.000000 0.000000 1.754130 
# 
# From -- ./inp_files/35723.got.cif
#   From: 2010.05.17/outbox.cif.g08.bks.cpg/sg53_18_cif.got.tgz:35723.got - 2010.06.03 12:45:16.
