data_PCOD9416695
_publ_section_title
;
Structure prediction by ZEFSAII (Michael W. Deem and Ramdas Pophale) SiO2 
 PCOD9416695
Probable space group: P M N A
;
_chemical_formula_sum "Si O2"
_cell_formula_units_Z 48
_cell_length_a 7.244388
_cell_length_b 7.109875
_cell_length_c 37.239248
_cell_angle_alpha 90.000000
_cell_angle_beta 90.000000
_cell_angle_gamma 90.000000
_cell_volume 1918.070519
_symmetry_space_group_name_H-M "P M N A"
_symmetry_group_IT_number 53
_symmetry_cell_setting 'orthorhombic'
loop_
_space_group_symop_operation_xyz
x,y,z
1/2-x,-y,1/2+z
x,-y,-z
1/2-x,y,1/2-z
-x,-y,-z
1/2+x,y,1/2-z
-x,y,z
1/2+x,-y,1/2+z
loop_
_atom_site_type_symbol
_atom_site_label
_atom_site_fract_x
_atom_site_fract_y
_atom_site_fract_z
Si Si1 0.776890 0.721857 0.008363
Si Si2 0.775376 0.463439 0.839757
Si Si3 0.719187 0.846153 0.291194
Si Si4 0.279769 0.814590 0.567512
Si Si5 0.779999 0.633225 0.084096
Si Si6 0.226031 0.888111 0.855080
O O1 0.710176 0.745451 0.049275
O O2 0.000000 0.745087 0.009147
O O3 0.743466 0.500000 0.000000
O O4 0.710541 0.835152 0.973353
O O5 0.716865 0.360490 0.803533
O O6 0.715113 0.346704 0.875121
O O7 0.718439 0.676806 0.844555
O O8 0.000000 0.467236 0.840909
O O9 0.750000 0.894625 0.250000
O O10 0.500000 0.847507 0.295178
O O11 0.788980 0.983073 0.322377
O O12 0.500000 0.848929 0.565687
O O13 0.255921 0.590734 0.576054
O O14 0.213830 0.918825 0.603518
O O15 0.000000 0.668123 0.084925
O O16 0.000000 0.896447 0.856292
#
# Coordination Sequence:
#
# PCOD9416695 Si02
#       6
#     8   8   8   8   8   8
#     4   7   8  10  20  41  67  95 128 158 180 212
#     4   8  14  25  40  57  78 105 135 164 196 238
#     4  10  20  32  46  63  81 103 133 168 206 246
#     4   7   9  14  26  45  69  98 130 158 184 220
#     4   7   9  14  26  45  69  98 130 158 184 220
#     4   8  14  25  40  57  78 105 135 164 196 238
#
# _framework density 25.025148000000002
#
# number of rings (size 3 to 8) (size 9 to 14) (size 15 to 20)
#    0.000    4.167    0.000    4.000    0.000    0.667 
#    0.000    0.000    0.000    1.000    0.000    7.000 
#    0.000    0.000    0.000    3.000    0.000   23.000 
#
# Total GULP energy -267774.343705 kJ/mol
# GULP energy per Si atom -5578.632161 kJ/mol
# Density = 2.496819 g / cm^3
# Si number density = 25.025148 Si / 1000 Ang^3
#
#
#
# Elastic Constant Matrix: (Units=GPa)
#
#
# Indices 1 2 3 4 5 6 
#
# 1 106.8250 -2.4711 5.6546 0.0000 0.0000 0.0000
# 2 -2.4711 80.0739 70.9139 0.0000 0.0000 0.0000
# 3 5.6546 70.9139 229.9527 0.0000 0.0000 0.0000
# 4 0.0000 0.0000 0.0000 42.4680 0.0000 0.0000
# 5 0.0000 0.0000 0.0000 0.0000 -19.2300 0.0000
# 6 0.0000 0.0000 0.0000 0.0000 0.0000 -4.9886
#
#
#
# Elastic Compliance Matrix: (Units=1/GPa)
#
#
# Indices 1 2 3 4 5 6 
#
# 1 0.009400 0.000681 -0.000441 0.000000 0.000000 0.000000
# 2 0.000681 0.017230 -0.005330 0.000000 0.000000 0.000000
# 3 -0.000441 -0.005330 0.006003 0.000000 0.000000 0.000000
# 4 0.000000 0.000000 0.000000 0.023547 0.000000 0.000000
# 5 0.000000 0.000000 0.000000 0.000000 -0.052002 0.000000
# 6 0.000000 0.000000 0.000000 0.000000 0.000000 -0.200456
#
#
# Mechanical properties :
#
#
# Convention : Reuss Voigt Hill
#
# Bulk Modulus (GPa) = 44.53881 62.78295 53.66088
# Shear Modulus (GPa) = -27.99361 26.50014 -0.74673
#
# Velocity S-wave (km/s) = -3.34820 3.25767 -0.54685
# Velocity P-wave (km/s) = 1.69969 6.26835 4.59245
#
# Compressibility (1/GPa) = 0.02245233
#
# Stress axis : x y z
#
# Youngs Moduli (GPa) = 106.38069 58.03862 166.57469
#
# Poissons Ratio (x) = -0.03951 0.07347
# Poissons Ratio (y) = -0.07241 0.88787
# Poissons Ratio (z) = 0.04692 0.30936
#
# Static dielectric constant tensor:
#      x y z
#    x 2.390310 0.000000 0.000000 
#    y 0.000000 2.003260 0.000000 
#    z 0.000000 0.000000 1.985490 
# 
# From -- ./inp_files/38599.got.cif
#   From: 2010.05.17/outbox.cif.g08.bks.cpg/sg53_20_cif.got.tgz:38599.got - 2010.06.03 12:45:16.
