data_PCOD9416750
_publ_section_title
;
Structure prediction by ZEFSAII (Michael W. Deem and Ramdas Pophale) SiO2 
 PCOD9416750
Probable space group: P M N A
;
_chemical_formula_sum "Si O2"
_cell_formula_units_Z 64
_cell_length_a 8.770218
_cell_length_b 20.736120
_cell_length_c 20.260140
_cell_angle_alpha 90.000000
_cell_angle_beta 90.000000
_cell_angle_gamma 90.000000
_cell_volume 3684.514994
_symmetry_space_group_name_H-M "P M N A"
_symmetry_group_IT_number 53
_symmetry_cell_setting 'orthorhombic'
loop_
_space_group_symop_operation_xyz
x,y,z
1/2-x,-y,1/2+z
x,-y,-z
1/2-x,y,1/2-z
-x,-y,-z
1/2+x,y,1/2-z
-x,y,z
1/2+x,-y,1/2+z
loop_
_atom_site_type_symbol
_atom_site_label
_atom_site_fract_x
_atom_site_fract_y
_atom_site_fract_z
Si Si1 0.682897 0.416340 0.177568
Si Si2 0.314067 0.975771 0.927591
Si Si3 0.815427 0.083470 0.677278
Si Si4 0.683827 0.525040 0.072313
Si Si5 0.682501 0.204213 0.909517
Si Si6 0.682232 0.696907 0.593006
Si Si7 0.818153 0.337289 0.942258
Si Si8 0.817082 0.169433 0.438521
O O1 0.750000 0.425844 0.250000
O O2 0.500000 0.415252 0.180276
O O3 0.730423 0.473843 0.127929
O O4 0.742249 0.349864 0.146014
O O5 0.500000 0.976000 0.928784
O O6 0.267334 0.901776 0.916768
O O7 0.266182 0.025476 0.871130
O O8 0.264789 0.000000 0.000000
O O9 0.750000 0.076644 0.750000
O O10 0.768757 0.151113 0.643574
O O11 0.000000 0.082794 0.679418
O O12 0.500000 0.528283 0.071744
O O13 0.748740 0.596167 0.083045
O O14 0.733849 0.500000 0.000000
O O15 0.500000 0.212162 0.905035
O O16 0.759663 0.273794 0.904889
O O17 0.714662 0.176747 0.983029
O O18 0.500000 0.693679 0.598082
O O19 0.727700 0.672354 0.519395
O O20 0.737602 0.770610 0.596929
O O21 0.000000 0.339926 0.939622
O O22 0.000000 0.174924 0.430293
#
# Coordination Sequence:
#
# PCOD9416750 Si02
#       8
#     8   8   8   8   8   8   8   8
#     4  11  23  39  59  82 111 146 183 224 272 327
#     4   9  15  29  54  81 104 134 184 234 271 317
#     4  10  20  34  53  78 108 143 180 223 275 331
#     4  10  20  36  58  83 110 143 183 224 267 324
#     4   9  17  31  52  76 103 137 178 222 267 320
#     4  10  20  34  52  79 113 144 176 219 270 325
#     4  10  20  32  53  83 112 138 173 226 275 313
#     4   9  16  29  54  81 103 132 178 231 272 313
#
# _framework density 17.369992
#
# number of rings (size 3 to 8) (size 9 to 14) (size 15 to 20)
#    0.000    2.250    2.500    1.125    0.000    2.750 
#    0.000    1.875    0.000    2.250    0.000    0.000 
#    0.000    0.000    0.000    0.000    0.000    0.000 
#
# Total GULP energy -357102.965674 kJ/mol
# GULP energy per Si atom -5579.733839 kJ/mol
# Density = 1.733046 g / cm^3
# Si number density = 17.369992 Si / 1000 Ang^3
#
#
#
# Elastic Constant Matrix: (Units=GPa)
#
#
# Indices 1 2 3 4 5 6 
#
# 1 19.3398 38.6365 33.9875 0.0000 0.0000 0.0000
# 2 38.6365 178.0784 89.1291 0.0000 0.0000 0.0000
# 3 33.9875 89.1291 123.4273 0.0000 0.0000 0.0000
# 4 0.0000 0.0000 0.0000 25.1793 0.0000 0.0000
# 5 0.0000 0.0000 0.0000 0.0000 25.1027 0.0000
# 6 0.0000 0.0000 0.0000 0.0000 0.0000 5.0974
#
#
#
# Elastic Compliance Matrix: (Units=1/GPa)
#
#
# Indices 1 2 3 4 5 6 
#
# 1 0.121445 -0.015051 -0.022573 0.000000 0.000000 0.000000
# 2 -0.015051 0.010659 -0.003553 0.000000 0.000000 0.000000
# 3 -0.022573 -0.003553 0.016883 0.000000 0.000000 0.000000
# 4 0.000000 0.000000 0.000000 0.039715 0.000000 0.000000
# 5 0.000000 0.000000 0.000000 0.000000 0.039836 0.000000
# 6 0.000000 0.000000 0.000000 0.000000 0.000000 0.196180
#
#
# Mechanical properties :
#
#
# Convention : Reuss Voigt Hill
#
# Bulk Modulus (GPa) = 15.00737 71.59465 43.30101
# Shear Modulus (GPa) = 9.44672 21.68202 15.56437
#
# Velocity S-wave (km/s) = 2.33460 3.53689 2.99666
# Velocity P-wave (km/s) = 3.99070 7.61488 6.07915
#
# Compressibility (1/GPa) = 0.06663392
#
# Stress axis : x y z
#
# Youngs Moduli (GPa) = 8.23416 93.81584 59.23082
#
# Poissons Ratio (x) = 1.41206 1.33701
# Poissons Ratio (y) = 0.12394 0.21042
# Poissons Ratio (z) = 0.18587 0.33329
#
# Static dielectric constant tensor:
#      x y z
#    x 1.583240 0.000000 0.000000 
#    y 0.000000 1.584110 0.000000 
#    z 0.000000 0.000000 1.570580 
# 
# From -- ./inp_files/26871.got.cif
#   From: 2010.05.17/outbox.cif.g08.bks.cpg/sg53_14_cif.got.tgz:26871.got - 2010.06.03 12:45:16.
