data_PCOD9416689
_publ_section_title
;
Structure prediction by ZEFSAII (Michael W. Deem and Ramdas Pophale) SiO2 
 PCOD9416689
Probable space group: P M N A
;
_chemical_formula_sum "Si O2"
_cell_formula_units_Z 48
_cell_length_a 16.965193
_cell_length_b 9.974891
_cell_length_c 16.414550
_cell_angle_alpha 90.000000
_cell_angle_beta 90.000000
_cell_angle_gamma 90.000000
_cell_volume 2777.767833
_symmetry_space_group_name_H-M "P M N A"
_symmetry_group_IT_number 53
_symmetry_cell_setting 'orthorhombic'
loop_
_space_group_symop_operation_xyz
x,y,z
1/2-x,-y,1/2+z
x,-y,-z
1/2-x,y,1/2-z
-x,-y,-z
1/2+x,y,1/2-z
-x,y,z
1/2+x,-y,1/2+z
loop_
_atom_site_type_symbol
_atom_site_label
_atom_site_fract_x
_atom_site_fract_y
_atom_site_fract_z
Si Si1 0.000000 0.085929 0.083361
Si Si2 0.594180 0.485301 0.250895
Si Si3 0.500000 0.342435 0.518616
Si Si4 0.840147 0.696846 0.124940
Si Si5 0.801318 0.498113 0.410665
Si Si6 0.702237 0.720269 0.666820
Si Si7 0.333078 0.000457 0.400736
O O1 0.921706 0.039109 0.125849
O O2 0.000000 0.240304 0.057083
O O3 0.000000 0.000000 0.000000
O O4 0.500000 0.490089 0.246486
O O5 0.629324 0.616138 0.296321
O O6 0.635996 0.486317 0.162479
O O7 0.621928 0.357188 0.306123
O O8 0.500000 0.500000 0.500000
O O9 0.582542 0.311166 0.565538
O O10 0.760648 0.620338 0.098276
O O11 0.817848 0.852584 0.132009
O O12 0.838151 0.500000 0.500000
O O13 0.743253 0.371260 0.400882
O O14 0.750000 0.708865 0.750000
O O15 0.710059 0.871284 0.635572
O O16 0.327115 0.000000 0.500000
#
# Coordination Sequence:
#
# PCOD9416689 Si02
#       7
#     4   8   4   8   8   8   8
#     4  10  20  32  42  80 114 141 168 211 249 313
#     4  10  22  38  56  78 105 143 182 223 275 323
#     4  12  22  30  50  82 115 151 178 204 263 329
#     4  11  20  34  52  82 111 141 176 217 265 325
#     4  10  21  38  57  79 106 136 184 230 269 321
#     4   9  21  37  53  77 105 138 176 218 269 326
#     4  11  20  32  52  77 113 143 174 210 260 317
#
# _framework density 17.280062999999998
#
# number of rings (size 3 to 8) (size 9 to 14) (size 15 to 20)
#    0.000    1.667    4.167    3.000    5.833    1.667 
#    0.000    0.000    0.000    0.000    0.000    0.000 
#    0.000   11.333    0.000    0.000    0.000    0.000 
#
# Total GULP energy -267293.359703 kJ/mol
# GULP energy per Si atom -5568.611660 kJ/mol
# Density = 1.724073 g / cm^3
# Si number density = 17.280063 Si / 1000 Ang^3
#
#
#
# Elastic Constant Matrix: (Units=GPa)
#
#
# Indices 1 2 3 4 5 6 
#
# 1 48.9386 18.9174 26.6173 0.0000 0.0000 0.0000
# 2 18.9174 158.0846 30.1031 0.0000 0.0000 0.0000
# 3 26.6173 30.1031 82.5944 0.0000 0.0000 0.0000
# 4 0.0000 0.0000 0.0000 23.6912 0.0000 0.0000
# 5 0.0000 0.0000 0.0000 0.0000 11.1148 0.0000
# 6 0.0000 0.0000 0.0000 0.0000 0.0000 12.9480
#
#
#
# Elastic Compliance Matrix: (Units=1/GPa)
#
#
# Indices 1 2 3 4 5 6 
#
# 1 0.025136 -0.001575 -0.007527 0.000000 0.000000 0.000000
# 2 -0.001575 0.006896 -0.002006 0.000000 0.000000 0.000000
# 3 -0.007527 -0.002006 0.015264 0.000000 0.000000 0.000000
# 4 0.000000 0.000000 0.000000 0.042210 0.000000 0.000000
# 5 0.000000 0.000000 0.000000 0.000000 0.089970 0.000000
# 6 0.000000 0.000000 0.000000 0.000000 0.000000 0.077232
#
#
# Mechanical properties :
#
#
# Convention : Reuss Voigt Hill
#
# Bulk Modulus (GPa) = 39.86953 48.98815 44.42884
# Shear Modulus (GPa) = 17.40441 23.81612 20.61027
#
# Velocity S-wave (km/s) = 3.17708 3.71650 3.45732
# Velocity P-wave (km/s) = 6.04823 6.84306 6.45789
#
# Compressibility (1/GPa) = 0.02508181
#
# Stress axis : x y z
#
# Youngs Moduli (GPa) = 39.78336 145.00853 65.51356
#
# Poissons Ratio (x) = 0.22835 0.49309
# Poissons Ratio (y) = 0.06265 0.13142
# Poissons Ratio (z) = 0.29943 0.29088
#
# Static dielectric constant tensor:
#      x y z
#    x 1.664390 0.000000 0.000000 
#    y 0.000000 1.668270 0.000000 
#    z 0.000000 0.000000 1.617920 
# 
# From -- ./inp_files/23697.got.cif
#   From: 2010.05.17/outbox.cif.g08.bks.cpg/sg53_12_cif.got.tgz:23697.got - 2010.06.03 12:45:16.
