data_PCOD9416313
_publ_section_title
;
Structure prediction by ZEFSAII (Michael W. Deem and Ramdas Pophale) SiO2 
 PCOD9416313
Probable space group: P M N A
;
_chemical_formula_sum "Si O2"
_cell_formula_units_Z 64
_cell_length_a 18.076988
_cell_length_b 6.055485
_cell_length_c 26.281292
_cell_angle_alpha 90.000000
_cell_angle_beta 90.000000
_cell_angle_gamma 90.000000
_cell_volume 2876.879781
_symmetry_space_group_name_H-M "P M N A"
_symmetry_group_IT_number 53
_symmetry_cell_setting 'orthorhombic'
loop_
_space_group_symop_operation_xyz
x,y,z
1/2-x,-y,1/2+z
x,-y,-z
1/2-x,y,1/2-z
-x,-y,-z
1/2+x,y,1/2-z
-x,y,z
1/2+x,-y,1/2+z
loop_
_atom_site_type_symbol
_atom_site_label
_atom_site_fract_x
_atom_site_fract_y
_atom_site_fract_z
Si Si1 0.587459 0.152682 0.299016
Si Si2 0.176143 0.597794 0.373972
Si Si3 0.584791 0.742100 0.814714
Si Si4 0.414451 0.021006 0.918632
Si Si5 0.415327 0.483704 0.384915
Si Si6 0.772102 0.790823 0.555910
Si Si7 0.190485 0.132257 0.869459
Si Si8 0.621815 0.249345 0.482556
O O1 0.500000 0.095101 0.304449
O O2 0.606501 0.162993 0.239721
O O3 0.597068 0.386752 0.328386
O O4 0.640443 0.986108 0.328167
O O5 0.133333 0.461624 0.331942
O O6 0.119393 0.738493 0.408329
O O7 0.217262 0.430211 0.411879
O O8 0.238838 0.741801 0.347404
O O9 0.500000 0.669574 0.809412
O O10 0.588280 0.909888 0.862226
O O11 0.500000 0.019285 0.935497
O O12 0.355146 0.882294 0.951901
O O13 0.500000 0.553874 0.389876
O O14 0.362116 0.687944 0.396455
O O15 0.400444 0.280418 0.423249
O O16 0.711670 0.753364 0.512160
O O17 0.730571 0.967687 0.591648
O O18 0.596236 0.500000 0.500000
O O19 0.596693 0.000000 0.500000
#
# Coordination Sequence:
#
# PCOD9416313 Si02
#       8
#     8   8   8   8   8   8   8   8
#     4  10  21  37  59  81 123 173 209 261 316 376
#     4  10  19  34  62  84 122 164 207 265 314 373
#     4   9  19  36  54  88 125 161 215 262 310 368
#     4   9  19  35  62  92 123 164 210 258 311 378
#     4  11  24  42  64  90 123 167 214 264 323 390
#     4  10  21  40  62  90 126 164 203 260 324 397
#     4  11  19  38  60  83 121 170 218 257 322 385
#     4  12  26  44  72 100 128 167 215 277 340 402
#
# _framework density 22.246324000000001
#
# number of rings (size 3 to 8) (size 9 to 14) (size 15 to 20)
#    0.000    1.750    2.500    1.500    1.750    2.000 
#    0.000   18.750    0.000    0.750    0.000    0.000 
#    0.000    0.000    0.000    0.000    0.000    0.000 
#
# Total GULP energy -357244.338365 kJ/mol
# GULP energy per Si atom -5581.942787 kJ/mol
# Density = 2.219569 g / cm^3
# Si number density = 22.246324 Si / 1000 Ang^3
#
#
#
# Elastic Constant Matrix: (Units=GPa)
#
#
# Indices 1 2 3 4 5 6 
#
# 1 99.2189 44.9914 1.1078 0.0000 0.0000 0.0000
# 2 44.9914 107.4088 16.7200 0.0000 0.0000 0.0000
# 3 1.1078 16.7200 55.5205 0.0000 0.0000 0.0000
# 4 0.0000 0.0000 0.0000 21.1815 0.0000 0.0000
# 5 0.0000 0.0000 0.0000 0.0000 -21.4880 0.0000
# 6 0.0000 0.0000 0.0000 0.0000 0.0000 30.6453
#
#
#
# Elastic Compliance Matrix: (Units=1/GPa)
#
#
# Indices 1 2 3 4 5 6 
#
# 1 0.012545 -0.005472 0.001398 0.000000 0.000000 0.000000
# 2 -0.005472 0.012155 -0.003551 0.000000 0.000000 0.000000
# 3 0.001398 -0.003551 0.019053 0.000000 0.000000 0.000000
# 4 0.000000 0.000000 0.000000 0.047211 0.000000 0.000000
# 5 0.000000 0.000000 0.000000 0.000000 -0.046538 0.000000
# 6 0.000000 0.000000 0.000000 0.000000 0.000000 0.032631
#
#
# Mechanical properties :
#
#
# Convention : Reuss Voigt Hill
#
# Bulk Modulus (GPa) = 35.08661 43.08739 39.08700
# Shear Modulus (GPa) = 49.11124 19.35637 34.23380
#
# Velocity S-wave (km/s) = 4.70362 2.95293 3.92708
# Velocity P-wave (km/s) = 6.73089 5.57107 6.17825
#
# Compressibility (1/GPa) = 0.02850090
#
# Stress axis : x y z
#
# Youngs Moduli (GPa) = 79.71605 82.26897 52.48526
#
# Poissons Ratio (x) = 0.45019 -0.07336
# Poissons Ratio (y) = 0.43622 0.18639
# Poissons Ratio (z) = -0.11142 0.29217
#
# Static dielectric constant tensor:
#      x y z
#    x 1.836530 0.000000 0.000000 
#    y 0.000000 1.867730 0.000000 
#    z 0.000000 0.000000 1.850700 
# 
# From -- ./inp_files/39028.got.cif
#   From: 2010.05.17/outbox.cif.g08.bks.cpg/sg53_20_cif.got.tgz:39028.got - 2010.06.03 12:45:16.
