data_PCOD9416284
_publ_section_title
;
Structure prediction by ZEFSAII (Michael W. Deem and Ramdas Pophale) SiO2 
 PCOD9416284
Probable space group: P M N A
;
_chemical_formula_sum "Si O2"
_cell_formula_units_Z 56
_cell_length_a 14.930009
_cell_length_b 9.469547
_cell_length_c 20.519371
_cell_angle_alpha 90.000000
_cell_angle_beta 90.000000
_cell_angle_gamma 90.000000
_cell_volume 2901.037330
_symmetry_space_group_name_H-M "P M N A"
_symmetry_group_IT_number 53
_symmetry_cell_setting 'orthorhombic'
loop_
_space_group_symop_operation_xyz
x,y,z
1/2-x,-y,1/2+z
x,-y,-z
1/2-x,y,1/2-z
-x,-y,-z
1/2+x,y,1/2-z
-x,y,z
1/2+x,-y,1/2+z
loop_
_atom_site_type_symbol
_atom_site_label
_atom_site_fract_x
_atom_site_fract_y
_atom_site_fract_z
Si Si1 0.101922 0.566517 0.651820
Si Si2 0.391424 0.053323 0.271455
Si Si3 0.177431 0.322212 0.577456
Si Si4 0.295473 0.781371 0.939982
Si Si5 0.274115 0.041303 0.852050
Si Si6 0.105971 0.612556 0.791767
Si Si7 0.662701 0.548496 0.564197
O O1 0.105002 0.422597 0.610957
O O2 0.156771 0.687765 0.615443
O O3 0.140780 0.544485 0.724470
O O4 0.000000 0.616809 0.656497
O O5 0.500000 0.028606 0.273814
O O6 0.326516 0.976258 0.323666
O O7 0.346081 0.008890 0.202691
O O8 0.374915 0.220109 0.284818
O O9 0.155443 0.249727 0.508285
O O10 0.256154 0.435534 0.564206
O O11 0.207485 0.200042 0.626083
O O12 0.286926 0.938617 0.914084
O O13 0.198373 0.707750 0.946780
O O14 0.131797 0.550094 0.861328
O O15 0.000000 0.595757 0.789989
O O16 0.607887 0.500000 0.500000
#
# Coordination Sequence:
#
# PCOD9416284 Si02
#       7
#     8   8   8   8   8   8   8
#     4  10  21  37  58  85 117 153 195 245 298 353
#     4  10  22  38  59  88 115 150 202 248 294 353
#     4  10  23  35  53  85 119 149 191 240 297 352
#     4  10  19  36  58  80 111 154 200 236 280 357
#     4  11  21  37  62  85 115 159 193 245 298 344
#     4  10  19  34  59  83 108 147 194 243 287 345
#     4   9  19  36  56  82 111 144 186 237 287 348
#
# _framework density 19.303439000000001
#
# number of rings (size 3 to 8) (size 9 to 14) (size 15 to 20)
#    0.000    2.000    2.857    1.714    0.000    6.571 
#    0.000    2.143    0.000    5.143    0.000    0.000 
#    0.000    0.000    0.000    0.000    0.000    0.000 
#
# Total GULP energy -311818.794305 kJ/mol
# GULP energy per Si atom -5568.192755 kJ/mol
# Density = 1.925950 g / cm^3
# Si number density = 19.303439 Si / 1000 Ang^3
#
#
#
# Elastic Constant Matrix: (Units=GPa)
#
#
# Indices 1 2 3 4 5 6 
#
# 1 60.2874 13.5118 20.5400 0.0000 0.0000 0.0000
# 2 13.5118 58.5306 8.7059 0.0000 0.0000 0.0000
# 3 20.5400 8.7059 124.5950 0.0000 0.0000 0.0000
# 4 0.0000 0.0000 0.0000 27.6937 0.0000 0.0000
# 5 0.0000 0.0000 0.0000 0.0000 135.2699 0.0000
# 6 0.0000 0.0000 0.0000 0.0000 0.0000 0.0735
#
#
#
# Elastic Compliance Matrix: (Units=1/GPa)
#
#
# Indices 1 2 3 4 5 6 
#
# 1 0.018388 -0.003834 -0.002763 0.000000 0.000000 0.000000
# 2 -0.003834 0.018064 -0.000630 0.000000 0.000000 0.000000
# 3 -0.002763 -0.000630 0.008526 0.000000 0.000000 0.000000
# 4 0.000000 0.000000 0.000000 0.036109 0.000000 0.000000
# 5 0.000000 0.000000 0.000000 0.000000 0.007393 0.000000
# 6 0.000000 0.000000 0.000000 0.000000 0.000000 13.599610
#
#
# Mechanical properties :
#
#
# Convention : Reuss Voigt Hill
#
# Bulk Modulus (GPa) = 32.76268 36.54761 34.65515
# Shear Modulus (GPa) = 0.36463 45.98445 23.17454
#
# Velocity S-wave (km/s) = 0.43509 4.88606 3.46864
# Velocity P-wave (km/s) = 4.15472 7.12782 5.83385
#
# Compressibility (1/GPa) = 0.03052253
#
# Stress axis : x y z
#
# Youngs Moduli (GPa) = 54.38341 55.35921 117.29378
#
# Poissons Ratio (x) = 0.21224 0.32414
# Poissons Ratio (y) = 0.20850 0.07391
# Poissons Ratio (z) = 0.15029 0.03489
#
# Static dielectric constant tensor:
#      x y z
#    x 1.690560 0.000000 0.000000 
#    y 0.000000 1.643900 0.000000 
#    z 0.000000 0.000000 1.786770 
# 
# From -- ./inp_files/32485.got.cif
#   From: 2010.05.17/outbox.cif.g08.bks.cpg/sg53_17_cif.got.tgz:32485.got - 2010.06.03 12:45:16.
