data_PCOD9416389
_publ_section_title
;
Structure prediction by ZEFSAII (Michael W. Deem and Ramdas Pophale) SiO2 
 PCOD9416389
Probable space group: P M N A
;
_chemical_formula_sum "Si O2"
_cell_formula_units_Z 48
_cell_length_a 7.797423
_cell_length_b 9.798726
_cell_length_c 34.683180
_cell_angle_alpha 90.000000
_cell_angle_beta 90.000000
_cell_angle_gamma 90.000000
_cell_volume 2649.961830
_symmetry_space_group_name_H-M "P M N A"
_symmetry_group_IT_number 53
_symmetry_cell_setting 'orthorhombic'
loop_
_space_group_symop_operation_xyz
x,y,z
1/2-x,-y,1/2+z
x,-y,-z
1/2-x,y,1/2-z
-x,-y,-z
1/2+x,y,1/2-z
-x,y,z
1/2+x,-y,1/2+z
loop_
_atom_site_type_symbol
_atom_site_label
_atom_site_fract_x
_atom_site_fract_y
_atom_site_fract_z
Si Si1 0.697323 0.363213 0.294100
Si Si2 0.295751 0.127050 0.153390
Si Si3 0.291741 0.453766 0.636015
Si Si4 0.200625 0.686870 0.579338
Si Si5 0.500000 0.790543 0.528193
Si Si6 0.200983 0.849468 0.382866
Si Si7 0.500000 0.104845 0.556315
O O1 0.750000 0.373255 0.250000
O O2 0.500000 0.398809 0.294612
O O3 0.719041 0.211524 0.311384
O O4 0.775693 0.465127 0.326145
O O5 0.500000 0.136657 0.157845
O O6 0.251727 0.207024 0.113816
O O7 0.250103 0.969897 0.147033
O O8 0.500000 0.453484 0.635017
O O9 0.229056 0.539924 0.599044
O O10 0.226068 0.300177 0.634446
O O11 0.331577 0.716158 0.544958
O O12 0.000000 0.705641 0.569576
O O13 0.500000 0.805070 0.482295
O O14 0.500000 0.945857 0.544329
O O15 0.331033 0.864819 0.418467
O O16 0.000000 0.870364 0.393320
#
# Coordination Sequence:
#
# PCOD9416389 Si02
#       7
#     8   8   8   8   4   8   4
#     4  10  21  35  58  87 117 149 186 235 289 342
#     4   9  19  34  57  82 109 147 192 237 277 339
#     4  10  20  36  61  85 113 156 197 240 290 348
#     4  10  19  35  58  84 112 150 201 241 285 349
#     4  11  22  37  59  89 117 157 191 255 307 337
#     4  11  22  38  59  86 115 154 198 239 290 353
#     4  11  24  37  59  87 125 149 195 257 297 347
#
# _framework density 18.113468000000001
#
# number of rings (size 3 to 8) (size 9 to 14) (size 15 to 20)
#    0.000    1.833    3.333    1.000    2.333    2.667 
#    0.000    4.167    0.000    4.000    0.000    0.000 
#    0.000    0.000    0.000    0.000    0.000    0.000 
#
# Total GULP energy -267760.241573 kJ/mol
# GULP energy per Si atom -5578.338366 kJ/mol
# Density = 1.807224 g / cm^3
# Si number density = 18.113468 Si / 1000 Ang^3
#
#
#
# Elastic Constant Matrix: (Units=GPa)
#
#
# Indices 1 2 3 4 5 6 
#
# 1 80.5190 10.7858 36.0186 0.0000 0.0000 0.0000
# 2 10.7858 113.0037 28.4988 0.0000 0.0000 0.0000
# 3 36.0186 28.4988 88.3505 0.0000 0.0000 0.0000
# 4 0.0000 0.0000 0.0000 11.3787 0.0000 0.0000
# 5 0.0000 0.0000 0.0000 0.0000 -244.0749 0.0000
# 6 0.0000 0.0000 0.0000 0.0000 0.0000 24.1490
#
#
#
# Elastic Compliance Matrix: (Units=1/GPa)
#
#
# Indices 1 2 3 4 5 6 
#
# 1 0.015191 0.000122 -0.006232 0.000000 0.000000 0.000000
# 2 0.000122 0.009634 -0.003157 0.000000 0.000000 0.000000
# 3 -0.006232 -0.003157 0.014878 0.000000 0.000000 0.000000
# 4 0.000000 0.000000 0.000000 0.087883 0.000000 0.000000
# 5 0.000000 0.000000 0.000000 0.000000 -0.004097 0.000000
# 6 0.000000 0.000000 0.000000 0.000000 0.000000 0.041410
#
#
# Mechanical properties :
#
#
# Convention : Reuss Voigt Hill
#
# Bulk Modulus (GPa) = 47.24295 48.05328 47.64812
# Shear Modulus (GPa) = 26.24817 -27.93810 -0.84497
#
# Velocity S-wave (km/s) = 3.81083 -3.93159 -0.68374
# Velocity P-wave (km/s) = 6.74548 2.44474 5.07337
#
# Compressibility (1/GPa) = 0.02116718
#
# Stress axis : x y z
#
# Youngs Moduli (GPa) = 65.82830 103.80040 67.21436
#
# Poissons Ratio (x) = -0.01265 0.41890
# Poissons Ratio (y) = -0.00802 0.21221
# Poissons Ratio (z) = 0.41027 0.32772
#
# Static dielectric constant tensor:
#      x y z
#    x 1.644170 0.000000 0.000000 
#    y 0.000000 1.629290 0.000000 
#    z 0.000000 0.000000 1.643550 
# 
# From -- ./inp_files/37812.got.cif
#   From: 2010.05.17/outbox.cif.g08.bks.cpg/sg53_19_cif.got.tgz:37812.got - 2010.06.03 12:45:16.
