data_PCOD9416523
_publ_section_title
;
Structure prediction by ZEFSAII (Michael W. Deem and Ramdas Pophale) SiO2 
 PCOD9416523
Probable space group: P M N A
;
_chemical_formula_sum "Si O2"
_cell_formula_units_Z 48
_cell_length_a 8.626011
_cell_length_b 10.248246
_cell_length_c 28.337655
_cell_angle_alpha 90.000000
_cell_angle_beta 90.000000
_cell_angle_gamma 90.000000
_cell_volume 2505.090719
_symmetry_space_group_name_H-M "P M N A"
_symmetry_group_IT_number 53
_symmetry_cell_setting 'orthorhombic'
loop_
_space_group_symop_operation_xyz
x,y,z
1/2-x,-y,1/2+z
x,-y,-z
1/2-x,y,1/2-z
-x,-y,-z
1/2+x,y,1/2-z
-x,y,z
1/2+x,-y,1/2+z
loop_
_atom_site_type_symbol
_atom_site_label
_atom_site_fract_x
_atom_site_fract_y
_atom_site_fract_z
Si Si1 0.686616 0.701495 0.840782
Si Si2 0.685264 0.381545 0.439294
Si Si3 0.686154 0.578024 0.198990
Si Si4 0.813403 0.668679 0.460210
Si Si5 0.315798 0.032016 0.300817
Si Si6 0.186957 0.185387 0.631243
O O1 0.500000 0.706296 0.841607
O O2 0.749965 0.693792 0.894030
O O3 0.737449 0.566218 0.816295
O O4 0.750902 0.825050 0.812933
O O5 0.500000 0.390231 0.437641
O O6 0.756363 0.528018 0.440734
O O7 0.739204 0.316899 0.488372
O O8 0.750000 0.612026 0.250000
O O9 0.500000 0.576786 0.200497
O O10 0.732277 0.686472 0.161170
O O11 0.771778 0.780782 0.422683
O O12 0.000000 0.663005 0.464068
O O13 0.250000 0.988069 0.250000
O O14 0.500000 0.035214 0.297979
O O15 0.262450 0.936480 0.342744
O O16 0.000000 0.171202 0.633579
#
# Coordination Sequence:
#
# PCOD9416523 Si02
#       6
#     8   8   8   8   8   8
#     4  11  22  41  63  86 118 160 204 250 301 359
#     4  11  21  34  57  92 127 157 197 247 304 360
#     4  10  21  36  57  86 115 147 194 247 298 351
#     4  10  19  36  61  88 122 161 202 245 299 361
#     4  12  26  43  62  88 121 163 204 247 302 362
#     4  10  21  40  62  88 118 157 203 247 298 357
#
# _framework density 19.160983999999999
#
# number of rings (size 3 to 8) (size 9 to 14) (size 15 to 20)
#    0.000    1.333    1.667    6.000    0.000    6.000 
#    0.000    0.833    0.000    5.000    0.000    0.000 
#    0.000    0.000    0.000    0.000    0.000    0.000 
#
# Total GULP energy -268325.213276 kJ/mol
# GULP energy per Si atom -5590.108610 kJ/mol
# Density = 1.911737 g / cm^3
# Si number density = 19.160984 Si / 1000 Ang^3
#
#
#
# Elastic Constant Matrix: (Units=GPa)
#
#
# Indices 1 2 3 4 5 6 
#
# 1 63.3626 3.9909 6.0395 0.0000 0.0000 0.0000
# 2 3.9909 33.8755 -19.7945 0.0000 0.0000 0.0000
# 3 6.0395 -19.7945 67.3740 0.0000 0.0000 0.0000
# 4 0.0000 0.0000 0.0000 25.0690 0.0000 0.0000
# 5 0.0000 0.0000 0.0000 0.0000 19.4309 0.0000
# 6 0.0000 0.0000 0.0000 0.0000 0.0000 19.8224
#
#
#
# Elastic Compliance Matrix: (Units=1/GPa)
#
#
# Indices 1 2 3 4 5 6 
#
# 1 0.016224 -0.003333 -0.002434 0.000000 0.000000 0.000000
# 2 -0.003333 0.036323 0.010971 0.000000 0.000000 0.000000
# 3 -0.002434 0.010971 0.018284 0.000000 0.000000 0.000000
# 4 0.000000 0.000000 0.000000 0.039890 0.000000 0.000000
# 5 0.000000 0.000000 0.000000 0.000000 0.051464 0.000000
# 6 0.000000 0.000000 0.000000 0.000000 0.000000 0.050448
#
#
# Mechanical properties :
#
#
# Convention : Reuss Voigt Hill
#
# Bulk Modulus (GPa) = 12.30959 16.12044 14.21501
# Shear Modulus (GPa) = 21.80493 24.48952 23.14722
#
# Velocity S-wave (km/s) = 3.37706 3.57892 3.47946
# Velocity P-wave (km/s) = 4.65235 5.05071 4.85561
#
# Compressibility (1/GPa) = 0.08123751
#
# Stress axis : x y z
#
# Youngs Moduli (GPa) = 61.63666 27.53079 54.69316
#
# Poissons Ratio (x) = 0.09177 0.13311
# Poissons Ratio (y) = 0.20546 -0.60001
# Poissons Ratio (z) = 0.15001 -0.30203
#
# Static dielectric constant tensor:
#      x y z
#    x 1.640120 0.000000 0.000000 
#    y 0.000000 1.652140 0.000000 
#    z 0.000000 0.000000 1.671750 
# 
# From -- ./inp_files/37769.got.cif
#   From: 2010.05.17/outbox.cif.g08.bks.cpg/sg53_19_cif.got.tgz:37769.got - 2010.06.03 12:45:16.
