data_PCOD9416492
_publ_section_title
;
Structure prediction by ZEFSAII (Michael W. Deem and Ramdas Pophale) SiO2 
 PCOD9416492
Probable space group: P M N A
;
_chemical_formula_sum "Si O2"
_cell_formula_units_Z 56
_cell_length_a 15.421016
_cell_length_b 8.808448
_cell_length_c 20.724146
_cell_angle_alpha 90.000000
_cell_angle_beta 90.000000
_cell_angle_gamma 90.000000
_cell_volume 2815.068880
_symmetry_space_group_name_H-M "P M N A"
_symmetry_group_IT_number 53
_symmetry_cell_setting 'orthorhombic'
loop_
_space_group_symop_operation_xyz
x,y,z
1/2-x,-y,1/2+z
x,-y,-z
1/2-x,y,1/2-z
-x,-y,-z
1/2+x,y,1/2-z
-x,y,z
1/2+x,-y,1/2+z
loop_
_atom_site_type_symbol
_atom_site_label
_atom_site_fract_x
_atom_site_fract_y
_atom_site_fract_z
Si Si1 0.249339 0.163082 0.465514
Si Si2 0.101282 0.562843 0.305491
Si Si3 0.150133 0.236681 0.261260
Si Si4 0.204491 0.271782 0.597435
Si Si5 0.898654 0.952845 0.616824
Si Si6 0.669909 0.812964 0.294367
Si Si7 0.903019 0.888296 0.865400
O O1 0.239431 0.278386 0.524882
O O2 0.158054 0.158702 0.427903
O O3 0.329361 0.164588 0.415817
O O4 0.260011 0.000000 0.500000
O O5 0.146424 0.407734 0.285630
O O6 0.137534 0.607033 0.375567
O O7 0.119633 0.698896 0.253760
O O8 0.000000 0.536465 0.307899
O O9 0.250000 0.197107 0.250000
O O10 0.109737 0.117988 0.312002
O O11 0.100605 0.227344 0.193928
O O12 0.284712 0.276450 0.647012
O O13 0.152698 0.111885 0.608938
O O14 0.000000 0.968320 0.599865
O O15 0.750000 0.869136 0.250000
O O16 0.621519 0.951872 0.329722
O O17 0.000000 0.898384 0.893085
#
# Coordination Sequence:
#
# PCOD9416492 Si02
#       7
#     8   8   8   8   8   8   8
#     4  10  21  39  58  86 123 160 202 242 295 355
#     4  11  23  37  59  92 119 152 202 251 303 364
#     4  12  22  40  61  87 123 160 196 252 311 360
#     4  10  20  39  59  82 123 160 197 241 300 357
#     4  11  21  36  62  91 118 155 202 251 300 354
#     4  10  19  36  58  87 120 157 196 249 305 355
#     4  12  22  36  62  92 122 158 201 252 300 353
#
# _framework density 19.892941
#
# number of rings (size 3 to 8) (size 9 to 14) (size 15 to 20)
#    0.000    1.143    4.286    5.571    0.000    3.429 
#    0.000    0.714    0.000    1.714    0.000    3.000 
#    0.000    0.000    0.000    0.000    0.000    0.000 
#
# Total GULP energy -312493.770954 kJ/mol
# GULP energy per Si atom -5580.245910 kJ/mol
# Density = 1.984766 g / cm^3
# Si number density = 19.892941 Si / 1000 Ang^3
#
#
#
# Elastic Constant Matrix: (Units=GPa)
#
#
# Indices 1 2 3 4 5 6 
#
# 1 67.5562 -5.2753 17.0295 0.0000 0.0000 0.0000
# 2 -5.2753 44.9632 2.6013 0.0000 0.0000 0.0000
# 3 17.0295 2.6013 105.9796 0.0000 0.0000 0.0000
# 4 0.0000 0.0000 0.0000 17.9846 0.0000 0.0000
# 5 0.0000 0.0000 0.0000 0.0000 11.3855 0.0000
# 6 0.0000 0.0000 0.0000 0.0000 0.0000 72.0174
#
#
#
# Elastic Compliance Matrix: (Units=1/GPa)
#
#
# Indices 1 2 3 4 5 6 
#
# 1 0.015601 0.001978 -0.002555 0.000000 0.000000 0.000000
# 2 0.001978 0.022523 -0.000871 0.000000 0.000000 0.000000
# 3 -0.002555 -0.000871 0.009868 0.000000 0.000000 0.000000
# 4 0.000000 0.000000 0.000000 0.055603 0.000000 0.000000
# 5 0.000000 0.000000 0.000000 0.000000 0.087831 0.000000
# 6 0.000000 0.000000 0.000000 0.000000 0.000000 0.013886
#
#
# Mechanical properties :
#
#
# Convention : Reuss Voigt Hill
#
# Bulk Modulus (GPa) = 22.17491 27.46777 24.82134
# Shear Modulus (GPa) = 22.39748 33.88706 28.14227
#
# Velocity S-wave (km/s) = 3.35908 4.13179 3.76531
# Velocity P-wave (km/s) = 5.12015 6.04980 5.60428
#
# Compressibility (1/GPa) = 0.04509601
#
# Stress axis : x y z
#
# Youngs Moduli (GPa) = 64.09787 44.39924 101.33994
#
# Poissons Ratio (x) = -0.08783 0.25897
# Poissons Ratio (y) = -0.12680 0.08824
# Poissons Ratio (z) = 0.16380 0.03866
#
# Static dielectric constant tensor:
#      x y z
#    x 1.715980 0.000000 0.000000 
#    y 0.000000 1.711260 0.000000 
#    z 0.000000 0.000000 1.743750 
# 
# From -- ./inp_files/32474.got.cif
#   From: 2010.05.17/outbox.cif.g08.bks.cpg/sg53_17_cif.got.tgz:32474.got - 2010.06.03 12:45:16.
