data_PCOD9416153
_publ_section_title
;
Structure prediction by ZEFSAII (Michael W. Deem and Ramdas Pophale) SiO2 
 PCOD9416153
Probable space group: P M N A
;
_chemical_formula_sum "Si O2"
_cell_formula_units_Z 40
_cell_length_a 8.844721
_cell_length_b 9.605284
_cell_length_c 26.538759
_cell_angle_alpha 90.000000
_cell_angle_beta 90.000000
_cell_angle_gamma 90.000000
_cell_volume 2254.628325
_symmetry_space_group_name_H-M "P M N A"
_symmetry_group_IT_number 53
_symmetry_cell_setting 'orthorhombic'
loop_
_space_group_symop_operation_xyz
x,y,z
1/2-x,-y,1/2+z
x,-y,-z
1/2-x,y,1/2-z
-x,-y,-z
1/2+x,y,1/2-z
-x,y,z
1/2+x,-y,1/2+z
loop_
_atom_site_type_symbol
_atom_site_label
_atom_site_fract_x
_atom_site_fract_y
_atom_site_fract_z
Si Si1 0.179566 0.157017 0.392189
Si Si2 0.817996 0.358576 0.697213
Si Si3 0.326204 0.831022 0.503227
Si Si4 0.819423 0.333688 0.197087
Si Si5 0.180506 0.171282 0.601306
O O1 0.230301 0.207544 0.447614
O O2 0.267450 0.237900 0.348848
O O3 0.000000 0.175233 0.385904
O O4 0.214559 0.991852 0.389657
O O5 0.750000 0.305109 0.750000
O O6 0.749054 0.511973 0.689571
O O7 0.778716 0.261259 0.650044
O O8 0.000000 0.367734 0.701092
O O9 0.500000 0.789286 0.509812
O O10 0.261122 0.780882 0.449955
O O11 0.320608 0.000000 0.500000
O O12 0.750000 0.281525 0.250000
O O13 0.000000 0.341017 0.200788
O O14 0.000000 0.181488 0.593596
#
# Coordination Sequence:
#
# PCOD9416153 Si02
#       5
#     8   8   8   8   8
#     4  10  19  34  55  79 107 138 172 212 257 305
#     4  10  20  36  55  76 103 136 173 211 257 309
#     4   9  17  30  50  77 107 138 171 209 255 305
#     4  11  22  37  55  76 103 137 175 213 258 308
#     4   9  19  34  54  79 106 137 172 211 257 308
#
# _framework density 17.741282000000002
#
# number of rings (size 3 to 8) (size 9 to 14) (size 15 to 20)
#    0.000    2.200    0.000    4.800    0.000    5.600 
#    0.000    3.000    0.000    6.000    0.000    0.000 
#    0.000    0.000    0.000    0.000    0.000    0.000 
#
# Total GULP energy -223227.924299 kJ/mol
# GULP energy per Si atom -5580.698107 kJ/mol
# Density = 1.770090 g / cm^3
# Si number density = 17.741282 Si / 1000 Ang^3
#
#
#
# Elastic Constant Matrix: (Units=GPa)
#
#
# Indices 1 2 3 4 5 6 
#
# 1 94.8354 34.7142 73.5157 0.0000 0.0000 0.0000
# 2 34.7142 30.2709 52.7808 0.0000 0.0000 0.0000
# 3 73.5157 52.7808 162.5632 0.0000 0.0000 0.0000
# 4 0.0000 0.0000 0.0000 -871.1860 0.0000 0.0000
# 5 0.0000 0.0000 0.0000 0.0000 39.4634 0.0000
# 6 0.0000 0.0000 0.0000 0.0000 0.0000 -27.8222
#
#
#
# Elastic Compliance Matrix: (Units=1/GPa)
#
#
# Indices 1 2 3 4 5 6 
#
# 1 0.018999 -0.015688 -0.003498 0.000000 0.000000 0.000000
# 2 -0.015688 0.089092 -0.021832 0.000000 0.000000 0.000000
# 3 -0.003498 -0.021832 0.014822 0.000000 0.000000 0.000000
# 4 0.000000 0.000000 0.000000 -0.001148 0.000000 0.000000
# 5 0.000000 0.000000 0.000000 0.000000 0.025340 0.000000
# 6 0.000000 0.000000 0.000000 0.000000 0.000000 -0.035943
#
#
# Mechanical properties :
#
#
# Convention : Reuss Voigt Hill
#
# Bulk Modulus (GPa) = 24.46386 67.74342 46.10364
# Shear Modulus (GPa) = 24.17516 -163.46504 -69.64494
#
# Velocity S-wave (km/s) = 3.69541 -9.60928 -6.27225
# Velocity P-wave (km/s) = 5.65926 9.21144 5.13923
#
# Compressibility (1/GPa) = 0.04087662
#
# Stress axis : x y z
#
# Youngs Moduli (GPa) = 52.63422 11.22436 67.46849
#
# Poissons Ratio (x) = 0.17609 0.23603
# Poissons Ratio (y) = 0.82573 1.47294
# Poissons Ratio (z) = 0.18413 0.24505
#
# Static dielectric constant tensor:
#      x y z
#    x 1.593890 0.000000 0.000000 
#    y 0.000000 1.589350 0.000000 
#    z 0.000000 0.000000 1.596340 
# 
# From -- ./inp_files/25849.got.cif
#   From: 2010.05.17/outbox.cif.g08.bks.cpg/sg53_13_cif.got.tgz:25849.got - 2010.06.03 12:45:16.
