data_PCOD9416069
_publ_section_title
;
Structure prediction by ZEFSAII (Michael W. Deem and Ramdas Pophale) SiO2 
 PCOD9416069
Probable space group: P M N A
;
_chemical_formula_sum "Si O2"
_cell_formula_units_Z 48
_cell_length_a 15.592378
_cell_length_b 9.640790
_cell_length_c 14.719911
_cell_angle_alpha 90.000000
_cell_angle_beta 90.000000
_cell_angle_gamma 90.000000
_cell_volume 2212.738854
_symmetry_space_group_name_H-M "P M N A"
_symmetry_group_IT_number 53
_symmetry_cell_setting 'orthorhombic'
loop_
_space_group_symop_operation_xyz
x,y,z
1/2-x,-y,1/2+z
x,-y,-z
1/2-x,y,1/2-z
-x,-y,-z
1/2+x,y,1/2-z
-x,y,z
1/2+x,-y,1/2+z
loop_
_atom_site_type_symbol
_atom_site_label
_atom_site_fract_x
_atom_site_fract_y
_atom_site_fract_z
Si Si1 0.397101 0.848372 0.032932
Si Si2 0.396849 0.876326 0.237576
Si Si3 0.662861 0.366180 0.116827
Si Si4 0.898921 0.183299 0.215735
Si Si5 0.863499 0.595610 0.915058
Si Si6 0.147464 0.580201 0.250337
O O1 0.500000 0.852393 0.036549
O O2 0.364272 0.843428 0.135735
O O3 0.374536 0.723898 0.965366
O O4 0.367626 0.000000 0.000000
O O5 0.500000 0.880875 0.235199
O O6 0.370216 0.734577 0.283767
O O7 0.369135 0.023588 0.276902
O O8 0.653031 0.268654 0.206845
O O9 0.760195 0.396677 0.088041
O O10 0.621352 0.511950 0.152307
O O11 0.890529 0.248683 0.114703
O O12 0.000000 0.188897 0.241876
O O13 0.894347 0.514083 0.826191
O O14 0.889369 0.500000 0.000000
O O15 0.250000 0.562110 0.250000
#
# Coordination Sequence:
#
# PCOD9416069 Si02
#       6
#     8   8   8   8   8   8
#     4  10  19  33  56  90 125 155 192 238 293 365
#     4  10  21  36  57  88 122 153 192 246 301 361
#     4  10  20  36  60  85 121 161 198 245 302 366
#     4  10  20  39  63  86 117 161 206 249 304 370
#     4  10  23  41  61  84 117 155 208 260 301 357
#     4   9  21  37  55  81 117 157 197 248 302 357
#
# _framework density 21.692571999999998
#
# number of rings (size 3 to 8) (size 9 to 14) (size 15 to 20)
#    0.000    2.167    1.667    2.000    4.667    5.000 
#    0.000    2.500    0.000    2.000    0.000    0.000 
#    0.000    0.000    0.000    0.000    0.000    0.000 
#
# Total GULP energy -267204.460387 kJ/mol
# GULP energy per Si atom -5566.759591 kJ/mol
# Density = 2.164320 g / cm^3
# Si number density = 21.692572 Si / 1000 Ang^3
#
#
#
# Elastic Constant Matrix: (Units=GPa)
#
#
# Indices 1 2 3 4 5 6 
#
# 1 33.6488 5.0844 7.1358 0.0000 0.0000 0.0000
# 2 5.0844 159.9580 45.8263 0.0000 0.0000 0.0000
# 3 7.1358 45.8263 75.5614 0.0000 0.0000 0.0000
# 4 0.0000 0.0000 0.0000 35.8543 0.0000 0.0000
# 5 0.0000 0.0000 0.0000 0.0000 2.5474 0.0000
# 6 0.0000 0.0000 0.0000 0.0000 0.0000 15.4968
#
#
#
# Elastic Compliance Matrix: (Units=1/GPa)
#
#
# Indices 1 2 3 4 5 6 
#
# 1 0.030330 -0.000174 -0.002759 0.000000 0.000000 0.000000
# 2 -0.000174 0.007567 -0.004573 0.000000 0.000000 0.000000
# 3 -0.002759 -0.004573 0.016268 0.000000 0.000000 0.000000
# 4 0.000000 0.000000 0.000000 0.027891 0.000000 0.000000
# 5 0.000000 0.000000 0.000000 0.000000 0.392563 0.000000
# 6 0.000000 0.000000 0.000000 0.000000 0.000000 0.064529
#
#
# Mechanical properties :
#
#
# Convention : Reuss Voigt Hill
#
# Bulk Modulus (GPa) = 25.53995 42.80681 34.17338
# Shear Modulus (GPa) = 8.81506 24.85448 16.83477
#
# Velocity S-wave (km/s) = 2.01803 3.38858 2.78881
# Velocity P-wave (km/s) = 4.15079 5.92336 5.11445
#
# Compressibility (1/GPa) = 0.03915434
#
# Stress axis : x y z
#
# Youngs Moduli (GPa) = 32.97059 132.14806 61.46950
#
# Poissons Ratio (x) = 0.02295 0.16959
# Poissons Ratio (y) = 0.00573 0.28110
# Poissons Ratio (z) = 0.09097 0.60431
#
# Static dielectric constant tensor:
#      x y z
#    x 1.792430 0.000000 0.000000 
#    y 0.000000 2.092150 0.000000 
#    z 0.000000 0.000000 1.916210 
# 
# From -- ./inp_files/23681.got.cif
#   From: 2010.05.17/outbox.cif.g08.bks.cpg/sg53_12_cif.got.tgz:23681.got - 2010.06.03 12:45:16.
