data_PCOD9416382
_publ_section_title
;
Structure prediction by ZEFSAII (Michael W. Deem and Ramdas Pophale) SiO2 
 PCOD9416382
Probable space group: P M N A
;
_chemical_formula_sum "Si O2"
_cell_formula_units_Z 64
_cell_length_a 8.916733
_cell_length_b 22.042493
_cell_length_c 17.911047
_cell_angle_alpha 90.000000
_cell_angle_beta 90.000000
_cell_angle_gamma 90.000000
_cell_volume 3520.362998
_symmetry_space_group_name_H-M "P M N A"
_symmetry_group_IT_number 53
_symmetry_cell_setting 'orthorhombic'
loop_
_space_group_symop_operation_xyz
x,y,z
1/2-x,-y,1/2+z
x,-y,-z
1/2-x,y,1/2-z
-x,-y,-z
1/2+x,y,1/2-z
-x,y,z
1/2+x,-y,1/2+z
loop_
_atom_site_type_symbol
_atom_site_label
_atom_site_fract_x
_atom_site_fract_y
_atom_site_fract_z
Si Si1 0.178530 0.126538 0.095708
Si Si2 0.320619 0.314703 0.950685
Si Si3 0.179045 0.373316 0.174480
Si Si4 0.680088 0.101270 0.934023
Si Si5 0.319638 0.568092 0.516848
Si Si6 0.321334 0.001040 0.669966
Si Si7 0.680313 0.782084 0.168415
Si Si8 0.678790 0.254263 0.110787
O O1 0.205651 0.069118 0.149056
O O2 0.253278 0.188319 0.124147
O O3 0.000000 0.134878 0.088307
O O4 0.248447 0.111287 0.014961
O O5 0.500000 0.322074 0.946861
O O6 0.269818 0.276915 0.878681
O O7 0.246846 0.379850 0.963835
O O8 0.290390 0.274021 0.024627
O O9 0.250000 0.398338 0.250000
O O10 0.218984 0.412384 0.101375
O O11 0.245790 0.306500 0.159883
O O12 0.000000 0.370200 0.180379
O O13 0.500000 0.097063 0.940934
O O14 0.716158 0.158821 0.881212
O O15 0.746627 0.042505 0.893413
O O16 0.267891 0.500000 0.500000
O O17 0.500000 0.569678 0.510184
O O18 0.250000 0.015738 0.750000
O O19 0.500000 0.011674 0.671491
O O20 0.750000 0.785467 0.250000
O O21 0.500000 0.779786 0.174766
O O22 0.500000 0.254052 0.121492
#
# Coordination Sequence:
#
# PCOD9416382 Si02
#       8
#     8   8   8   8   8   8   8   8
#     4  11  23  38  58  84 114 146 189 236 283 343
#     4   9  18  35  55  79 112 143 181 227 271 330
#     4  10  20  35  56  84 116 151 190 232 283 336
#     4  11  22  39  61  83 110 146 189 236 287 341
#     4   9  19  36  58  84 113 148 191 233 274 327
#     4  11  25  42  57  79 110 146 187 236 287 342
#     4  10  21  36  54  82 113 143 182 229 279 333
#     4  10  19  35  58  82 111 145 183 231 283 334
#
# _framework density 18.179943999999999
#
# number of rings (size 3 to 8) (size 9 to 14) (size 15 to 20)
#    0.000    1.875    1.250    2.625    0.000    7.750 
#    0.000    1.875    0.000    3.000    0.000    0.000 
#    0.000    0.000    0.000    0.000    0.000    0.000 
#
# Total GULP energy -357523.810985 kJ/mol
# GULP energy per Si atom -5586.309547 kJ/mol
# Density = 1.813857 g / cm^3
# Si number density = 18.179944 Si / 1000 Ang^3
#
#
#
# Elastic Constant Matrix: (Units=GPa)
#
#
# Indices 1 2 3 4 5 6 
#
# 1 38.3927 34.2232 19.2377 0.0000 0.0000 0.0000
# 2 34.2232 104.6412 4.3048 0.0000 0.0000 0.0000
# 3 19.2377 4.3048 48.5740 0.0000 0.0000 0.0000
# 4 0.0000 0.0000 0.0000 11.5578 0.0000 0.0000
# 5 0.0000 0.0000 0.0000 0.0000 27.0008 0.0000
# 6 0.0000 0.0000 0.0000 0.0000 0.0000 27.1193
#
#
#
# Elastic Compliance Matrix: (Units=1/GPa)
#
#
# Indices 1 2 3 4 5 6 
#
# 1 0.048470 -0.015118 -0.017857 0.000000 0.000000 0.000000
# 2 -0.015118 0.014307 0.004719 0.000000 0.000000 0.000000
# 3 -0.017857 0.004719 0.027241 0.000000 0.000000 0.000000
# 4 0.000000 0.000000 0.000000 0.086522 0.000000 0.000000
# 5 0.000000 0.000000 0.000000 0.000000 0.037036 0.000000
# 6 0.000000 0.000000 0.000000 0.000000 0.000000 0.036874
#
#
# Mechanical properties :
#
#
# Convention : Reuss Voigt Hill
#
# Bulk Modulus (GPa) = 29.84384 34.12658 31.98521
# Shear Modulus (GPa) = 15.71694 22.05842 18.88768
#
# Velocity S-wave (km/s) = 2.94346 3.48708 3.22674
# Velocity P-wave (km/s) = 5.29182 5.91821 5.61376
#
# Compressibility (1/GPa) = 0.03350775
#
# Stress axis : x y z
#
# Youngs Moduli (GPa) = 20.63133 69.89794 36.70933
#
# Poissons Ratio (x) = 1.05669 0.65551
# Poissons Ratio (y) = 0.31190 -0.17325
# Poissons Ratio (z) = 0.36841 -0.32988
#
# Static dielectric constant tensor:
#      x y z
#    x 1.605710 0.000000 0.000000 
#    y 0.000000 1.613230 0.000000 
#    z 0.000000 0.000000 1.611460 
# 
# From -- ./inp_files/26922.got.cif
#   From: 2010.05.17/outbox.cif.g08.bks.cpg/sg53_14_cif.got.tgz:26922.got - 2010.06.03 12:45:16.
