data_PCOD9416253
_publ_section_title
;
Structure prediction by ZEFSAII (Michael W. Deem and Ramdas Pophale) SiO2 
 PCOD9416253
Probable space group: P M N A
;
_chemical_formula_sum "Si O2"
_cell_formula_units_Z 48
_cell_length_a 7.597556
_cell_length_b 14.090234
_cell_length_c 19.507805
_cell_angle_alpha 90.000000
_cell_angle_beta 90.000000
_cell_angle_gamma 90.000000
_cell_volume 2088.336702
_symmetry_space_group_name_H-M "P M N A"
_symmetry_group_IT_number 53
_symmetry_cell_setting 'orthorhombic'
loop_
_space_group_symop_operation_xyz
x,y,z
1/2-x,-y,1/2+z
x,-y,-z
1/2-x,y,1/2-z
-x,-y,-z
1/2+x,y,1/2-z
-x,y,z
1/2+x,-y,1/2+z
loop_
_atom_site_type_symbol
_atom_site_label
_atom_site_fract_x
_atom_site_fract_y
_atom_site_fract_z
Si Si1 0.783525 0.800692 0.953720
Si Si2 0.709773 0.720009 0.169977
Si Si3 0.209776 0.495131 0.670515
Si Si4 0.797038 0.098001 0.915541
Si Si5 0.202541 0.408242 0.036699
Si Si6 0.788970 0.079414 0.170048
O O1 0.719504 0.695838 0.973579
O O2 0.730024 0.833842 0.878114
O O3 0.000000 0.797858 0.955486
O O4 0.722970 0.877723 0.009673
O O5 0.750000 0.736928 0.250000
O O6 0.500000 0.723110 0.160339
O O7 0.771317 0.612748 0.154299
O O8 0.791698 0.802557 0.124934
O O9 0.250000 0.513829 0.750000
O O10 0.292652 0.567557 0.617218
O O11 0.000000 0.497762 0.661700
O O12 0.000000 0.070813 0.927555
O O13 0.720130 0.016460 0.866958
O O14 0.000000 0.403140 0.012789
O O15 0.285560 0.500000 0.000000
O O16 0.750000 0.085118 0.250000
O O17 0.000000 0.076922 0.166265
#
# Coordination Sequence:
#
# PCOD9416253 Si02
#       6
#     8   8   8   8   8   8
#     4   9  19  36  57  81 109 143 182 221 267 326
#     4  10  20  33  51  78 111 145 181 225 276 327
#     4  10  21  36  54  77 108 145 185 229 277 330
#     4  10  19  34  58  82 106 140 181 225 270 319
#     4  10  20  35  57  83 111 144 183 228 276 327
#     4  10  21  37  57  81 110 144 182 222 266 320
#
# _framework density 22.984798000000001
#
# number of rings (size 3 to 8) (size 9 to 14) (size 15 to 20)
#    0.000    2.167    0.000    3.000    0.000    8.333 
#    0.000    4.167    0.000    2.000    0.000    0.000 
#    0.000    0.000    0.000    0.000    0.000    0.000 
#
# Total GULP energy -268241.310909 kJ/mol
# GULP energy per Si atom -5588.360644 kJ/mol
# Density = 2.293248 g / cm^3
# Si number density = 22.984798 Si / 1000 Ang^3
#
#
#
# Elastic Constant Matrix: (Units=GPa)
#
#
# Indices 1 2 3 4 5 6 
#
# 1 61.1772 4.9468 -0.2870 0.0000 0.0000 0.0000
# 2 4.9468 106.3695 61.2577 0.0000 0.0000 0.0000
# 3 -0.2870 61.2577 123.4649 0.0000 0.0000 0.0000
# 4 0.0000 0.0000 0.0000 36.4799 0.0000 0.0000
# 5 0.0000 0.0000 0.0000 0.0000 21.8955 0.0000
# 6 0.0000 0.0000 0.0000 0.0000 0.0000 7.4889
#
#
#
# Elastic Compliance Matrix: (Units=1/GPa)
#
#
# Indices 1 2 3 4 5 6 
#
# 1 0.016438 -0.001101 0.000585 0.000000 0.000000 0.000000
# 2 -0.001101 0.013236 -0.006570 0.000000 0.000000 0.000000
# 3 0.000585 -0.006570 0.011360 0.000000 0.000000 0.000000
# 4 0.000000 0.000000 0.000000 0.027412 0.000000 0.000000
# 5 0.000000 0.000000 0.000000 0.000000 0.045672 0.000000
# 6 0.000000 0.000000 0.000000 0.000000 0.000000 0.133530
#
#
# Mechanical properties :
#
#
# Convention : Reuss Voigt Hill
#
# Bulk Modulus (GPa) = 37.22783 46.98296 42.10540
# Shear Modulus (GPa) = 18.46557 28.17913 23.32235
#
# Velocity S-wave (km/s) = 2.83747 3.50521 3.18887
# Velocity P-wave (km/s) = 5.19297 6.07184 5.64952
#
# Compressibility (1/GPa) = 0.02686162
#
# Stress axis : x y z
#
# Youngs Moduli (GPa) = 60.83569 75.55287 88.02555
#
# Poissons Ratio (x) = 0.08319 -0.05145
# Poissons Ratio (y) = 0.06698 0.57829
# Poissons Ratio (z) = -0.03556 0.49635
#
# Static dielectric constant tensor:
#      x y z
#    x 1.895350 0.000000 0.000000 
#    y 0.000000 1.861140 0.000000 
#    z 0.000000 0.000000 1.849880 
# 
# From -- ./inp_files/26241.got.cif
#   From: 2010.05.17/outbox.cif.g08.bks.cpg/sg53_14_cif.got.tgz:26241.got - 2010.06.03 12:45:16.
