data_PCOD9416862
_publ_section_title
;
Structure prediction by ZEFSAII (Michael W. Deem and Ramdas Pophale) SiO2 
 PCOD9416862
Probable space group: P M N A
;
_chemical_formula_sum "Si O2"
_cell_formula_units_Z 64
_cell_length_a 7.848152
_cell_length_b 21.364100
_cell_length_c 18.602493
_cell_angle_alpha 90.000000
_cell_angle_beta 90.000000
_cell_angle_gamma 90.000000
_cell_volume 3119.055895
_symmetry_space_group_name_H-M "P M N A"
_symmetry_group_IT_number 53
_symmetry_cell_setting 'orthorhombic'
loop_
_space_group_symop_operation_xyz
x,y,z
1/2-x,-y,1/2+z
x,-y,-z
1/2-x,y,1/2-z
-x,-y,-z
1/2+x,y,1/2-z
-x,y,z
1/2+x,-y,1/2+z
loop_
_atom_site_type_symbol
_atom_site_label
_atom_site_fract_x
_atom_site_fract_y
_atom_site_fract_z
Si Si1 0.794165 0.628053 0.166500
Si Si2 0.796569 0.380157 0.166367
Si Si3 0.302594 0.750585 0.411741
Si Si4 0.695112 0.262054 0.071850
Si Si5 0.294243 0.125617 0.402991
Si Si6 0.208596 0.111893 0.931397
Si Si7 0.705026 0.000516 0.331158
Si Si8 0.291459 0.504218 0.416985
O O1 0.750000 0.622438 0.250000
O O2 0.726985 0.692834 0.132366
O O3 0.733836 0.567925 0.121427
O O4 0.000000 0.628600 0.159951
O O5 0.750000 0.379137 0.250000
O O6 0.731582 0.319653 0.123818
O O7 0.734374 0.443572 0.127762
O O8 0.000000 0.379536 0.160653
O O9 0.500000 0.755163 0.389659
O O10 0.298119 0.735947 0.497121
O O11 0.229518 0.820463 0.403216
O O12 0.500000 0.263581 0.049086
O O13 0.730255 0.195692 0.110121
O O14 0.500000 0.128291 0.400054
O O15 0.245172 0.108018 0.484800
O O16 0.232601 0.069874 0.352126
O O17 0.000000 0.112559 0.929493
O O18 0.267834 0.053039 0.885350
O O19 0.750000 0.984823 0.250000
O O20 0.500000 0.001954 0.338235
O O21 0.238142 0.500000 0.500000
O O22 0.500000 0.504358 0.416550
#
# Coordination Sequence:
#
# PCOD9416862 Si02
#       8
#     8   8   8   8   8   8   8   8
#     4  10  20  34  54  81 112 145 179 218 265 315
#     4  11  22  37  57  80 110 145 180 219 265 318
#     4   9  18  35  58  80 106 144 185 219 258 314
#     4  11  22  36  56  82 109 136 174 224 273 321
#     4   9  18  35  57  76  99 137 182 221 259 311
#     4   8  15  31  55  78  98 131 180 221 252 298
#     4  10  20  33  51  76 106 138 173 216 264 315
#     4   9  18  34  57  81 105 139 183 224 262 311
#
# _framework density 20.519029
#
# number of rings (size 3 to 8) (size 9 to 14) (size 15 to 20)
#    0.000    2.375    0.000    3.750    0.000    5.500 
#    0.000    4.375    0.000    6.375    0.000    0.000 
#    0.000    0.000    0.000    0.000    0.000    0.000 
#
# Total GULP energy -357334.238123 kJ/mol
# GULP energy per Si atom -5583.347471 kJ/mol
# Density = 2.047233 g / cm^3
# Si number density = 20.519029 Si / 1000 Ang^3
#
#
#
# Elastic Constant Matrix: (Units=GPa)
#
#
# Indices 1 2 3 4 5 6 
#
# 1 27.8246 2.2492 -11.3514 0.0000 0.0000 0.0000
# 2 2.2492 89.3291 21.9870 0.0000 0.0000 0.0000
# 3 -11.3514 21.9870 46.7865 0.0000 0.0000 0.0000
# 4 0.0000 0.0000 0.0000 2.9328 0.0000 0.0000
# 5 0.0000 0.0000 0.0000 0.0000 24.7062 0.0000
# 6 0.0000 0.0000 0.0000 0.0000 0.0000 -13.3017
#
#
#
# Elastic Compliance Matrix: (Units=1/GPa)
#
#
# Indices 1 2 3 4 5 6 
#
# 1 0.041080 -0.003944 0.011820 0.000000 0.000000 0.000000
# 2 -0.003944 0.013037 -0.007084 0.000000 0.000000 0.000000
# 3 0.011820 -0.007084 0.027570 0.000000 0.000000 0.000000
# 4 0.000000 0.000000 0.000000 0.340976 0.000000 0.000000
# 5 0.000000 0.000000 0.000000 0.000000 0.040476 0.000000
# 6 0.000000 0.000000 0.000000 0.000000 0.000000 -0.075178
#
#
# Mechanical properties :
#
#
# Convention : Reuss Voigt Hill
#
# Bulk Modulus (GPa) = 12.00855 21.07887 16.54371
# Shear Modulus (GPa) = 12.07339 12.93780 12.50560
#
# Velocity S-wave (km/s) = 2.42833 2.51375 2.47141
# Velocity P-wave (km/s) = 3.70506 4.32671 4.02790
#
# Compressibility (1/GPa) = 0.08327402
#
# Stress axis : x y z
#
# Youngs Moduli (GPa) = 24.34250 76.70237 36.27069
#
# Poissons Ratio (x) = 0.30250 -0.42873
# Poissons Ratio (y) = 0.09600 0.25693
# Poissons Ratio (z) = -0.28774 0.54333
#
# Static dielectric constant tensor:
#      x y z
#    x 1.760410 0.000000 0.000000 
#    y 0.000000 1.735630 0.000000 
#    z 0.000000 0.000000 1.674370 
# 
# From -- ./inp_files/26978.got.cif
#   From: 2010.05.17/outbox.cif.g08.bks.cpg/sg53_14_cif.got.tgz:26978.got - 2010.06.03 12:45:16.
