data_PCOD9416836
_publ_section_title
;
Structure prediction by ZEFSAII (Michael W. Deem and Ramdas Pophale) SiO2 
 PCOD9416836
Probable space group: P M N A
;
_chemical_formula_sum "Si O2"
_cell_formula_units_Z 48
_cell_length_a 8.568290
_cell_length_b 21.937848
_cell_length_c 14.564868
_cell_angle_alpha 90.000000
_cell_angle_beta 90.000000
_cell_angle_gamma 90.000000
_cell_volume 2737.755961
_symmetry_space_group_name_H-M "P M N A"
_symmetry_group_IT_number 53
_symmetry_cell_setting 'orthorhombic'
loop_
_space_group_symop_operation_xyz
x,y,z
1/2-x,-y,1/2+z
x,-y,-z
1/2-x,y,1/2-z
-x,-y,-z
1/2+x,y,1/2-z
-x,y,z
1/2+x,-y,1/2+z
loop_
_atom_site_type_symbol
_atom_site_label
_atom_site_fract_x
_atom_site_fract_y
_atom_site_fract_z
Si Si1 0.809852 0.598651 0.999972
Si Si2 0.811742 0.500233 0.852430
Si Si3 0.811174 0.738011 0.006282
Si Si4 0.811436 0.069919 0.493513
Si Si5 0.813189 0.833630 0.352572
Si Si6 0.186722 0.165542 0.147415
O O1 0.761654 0.559604 0.910904
O O2 0.000000 0.599527 0.999568
O O3 0.762319 0.558967 0.088555
O O4 0.756622 0.668273 0.001316
O O5 0.750000 0.499997 0.750000
O O6 0.000000 0.500292 0.850575
O O7 0.748486 0.773865 0.094725
O O8 0.000000 0.738324 0.009983
O O9 0.763640 0.777542 0.917080
O O10 0.764620 0.109339 0.582954
O O11 0.746528 0.105517 0.405406
O O12 0.000000 0.070752 0.488478
O O13 0.759826 0.000000 0.500000
O O14 0.750000 0.838314 0.250000
O O15 0.000000 0.831981 0.350312
O O16 0.250000 0.169944 0.250000
O O17 0.000000 0.164532 0.149874
#
# Coordination Sequence:
#
# PCOD9416836 Si02
#       6
#     8   8   8   8   8   8
#     4   8  16  32  51  69  95 130 162 195 241 293
#     4   9  17  31  50  71  96 127 161 198 241 287
#     4   9  18  34  53  72  96 129 168 205 243 289
#     4   9  19  36  55  75 100 129 163 204 246 288
#     4  10  20  34  52  74 101 130 161 200 244 290
#     4  10  20  33  51  74 101 132 165 203 246 293
#
# _framework density 17.532608
#
# number of rings (size 3 to 8) (size 9 to 14) (size 15 to 20)
#    0.000    2.833    0.000    2.000    0.000    3.667 
#    0.000    6.667    0.000    0.000    0.000    0.000 
#    0.000    0.000    0.000    0.000    0.000    0.000 
#
# Total GULP energy -267645.263494 kJ/mol
# GULP energy per Si atom -5575.942989 kJ/mol
# Density = 1.749270 g / cm^3
# Si number density = 17.532608 Si / 1000 Ang^3
#
#
#
# Elastic Constant Matrix: (Units=GPa)
#
#
# Indices 1 2 3 4 5 6 
#
# 1 11.5899 26.0026 26.5270 0.0000 0.0000 0.0000
# 2 26.0026 179.1173 87.0430 0.0000 0.0000 0.0000
# 3 26.5270 87.0430 174.3095 0.0000 0.0000 0.0000
# 4 0.0000 0.0000 0.0000 6.9792 0.0000 0.0000
# 5 0.0000 0.0000 0.0000 0.0000 26.9781 0.0000
# 6 0.0000 0.0000 0.0000 0.0000 0.0000 16.9244
#
#
#
# Elastic Compliance Matrix: (Units=1/GPa)
#
#
# Indices 1 2 3 4 5 6 
#
# 1 0.157396 -0.014801 -0.016562 0.000000 0.000000 0.000000
# 2 -0.014801 0.008764 -0.002124 0.000000 0.000000 0.000000
# 3 -0.016562 -0.002124 0.009318 0.000000 0.000000 0.000000
# 4 0.000000 0.000000 0.000000 0.143282 0.000000 0.000000
# 5 0.000000 0.000000 0.000000 0.000000 0.037067 0.000000
# 6 0.000000 0.000000 0.000000 0.000000 0.000000 0.059086
#
#
# Mechanical properties :
#
#
# Convention : Reuss Voigt Hill
#
# Bulk Modulus (GPa) = 9.21622 71.57357 40.39489
# Shear Modulus (GPa) = 9.65148 25.20595 17.42871
#
# Velocity S-wave (km/s) = 2.34879 3.79576 3.15631
# Velocity P-wave (km/s) = 3.55300 7.75385 6.03100
#
# Compressibility (1/GPa) = 0.10850438
#
# Stress axis : x y z
#
# Youngs Moduli (GPa) = 6.35338 114.10775 107.32005
#
# Poissons Ratio (x) = 1.68890 1.77745
# Poissons Ratio (y) = 0.09404 0.22792
# Poissons Ratio (z) = 0.10523 0.24234
#
# Static dielectric constant tensor:
#      x y z
#    x 1.594050 0.000000 0.000000 
#    y 0.000000 1.595770 0.000000 
#    z 0.000000 0.000000 1.564670 
# 
# From -- ./inp_files/20331.got.cif
#   From: 2010.05.17/outbox.cif.g08.bks.cpg/sg53_11_cif.got.tgz:20331.got - 2010.06.03 12:45:16.
