data_PCOD9416462
_publ_section_title
;
Structure prediction by ZEFSAII (Michael W. Deem and Ramdas Pophale) SiO2 
 PCOD9416462
Probable space group: P M N A
;
_chemical_formula_sum "Si O2"
_cell_formula_units_Z 64
_cell_length_a 8.610320
_cell_length_b 12.431940
_cell_length_c 32.218263
_cell_angle_alpha 90.000000
_cell_angle_beta 90.000000
_cell_angle_gamma 90.000000
_cell_volume 3448.738934
_symmetry_space_group_name_H-M "P M N A"
_symmetry_group_IT_number 53
_symmetry_cell_setting 'orthorhombic'
loop_
_space_group_symop_operation_xyz
x,y,z
1/2-x,-y,1/2+z
x,-y,-z
1/2-x,y,1/2-z
-x,-y,-z
1/2+x,y,1/2-z
-x,y,z
1/2+x,-y,1/2+z
loop_
_atom_site_type_symbol
_atom_site_label
_atom_site_fract_x
_atom_site_fract_y
_atom_site_fract_z
Si Si1 0.683126 0.871805 0.612181
Si Si2 0.312947 0.746698 0.056736
Si Si3 0.314226 0.245033 0.705016
Si Si4 0.187471 0.493423 0.795414
Si Si5 0.812875 0.486593 0.952277
Si Si6 0.689891 0.631451 0.624838
Si Si7 0.185309 0.899930 0.368051
Si Si8 0.815625 0.884575 0.521741
O O1 0.500000 0.122294 0.380255
O O2 0.740793 0.755239 0.627184
O O3 0.718205 0.875718 0.563206
O O4 0.760072 0.977395 0.631265
O O5 0.500000 0.736714 0.059079
O O6 0.237125 0.631194 0.063181
O O7 0.263466 0.835352 0.090542
O O8 0.274389 0.793027 0.011386
O O9 0.250000 0.214888 0.750000
O O10 0.500000 0.241807 0.705139
O O11 0.265519 0.369089 0.697146
O O12 0.249829 0.166180 0.670462
O O13 0.250000 0.525829 0.750000
O O14 0.238841 0.565123 0.834428
O O15 0.000000 0.496942 0.793826
O O16 0.759288 0.574239 0.918213
O O17 0.000000 0.492160 0.953452
O O18 0.756204 0.500000 0.000000
O O19 0.500000 0.630724 0.624091
O O20 0.000000 0.898385 0.367730
O O21 0.000000 0.877047 0.531678
O O22 0.792845 0.000000 0.500000
#
# Coordination Sequence:
#
# PCOD9416462 Si02
#       8
#     8   8   8   8   8   8   8   8
#     4  11  22  36  56  81 108 144 192 236 275 331
#     4  10  21  35  54  78 107 143 183 227 277 329
#     4  10  20  36  60  89 115 143 177 221 275 333
#     4   9  18  35  59  84 112 142 177 224 277 332
#     4  10  20  35  55  79 110 144 181 227 279 335
#     4   9  19  36  55  78 112 149 180 226 287 333
#     4  11  22  38  56  79 112 147 182 225 277 328
#     4  10  19  36  54  72 107 150 184 226 282 330
#
# _framework density 18.557507999999999
#
# number of rings (size 3 to 8) (size 9 to 14) (size 15 to 20)
#    0.000    2.000    1.250    2.625    0.000    4.500 
#    0.000    3.750    0.000    1.500    0.000    0.000 
#    0.000    0.000    0.000    0.000    0.000    0.000 
#
# Total GULP energy -357347.893596 kJ/mol
# GULP energy per Si atom -5583.560837 kJ/mol
# Density = 1.851527 g / cm^3
# Si number density = 18.557508 Si / 1000 Ang^3
#
#
#
# Elastic Constant Matrix: (Units=GPa)
#
#
# Indices 1 2 3 4 5 6 
#
# 1 15.2607 21.6318 22.3127 0.0000 0.0000 0.0000
# 2 21.6318 120.6839 69.5868 0.0000 0.0000 0.0000
# 3 22.3127 69.5868 123.4881 0.0000 0.0000 0.0000
# 4 0.0000 0.0000 0.0000 31.8435 0.0000 0.0000
# 5 0.0000 0.0000 0.0000 0.0000 24.4456 0.0000
# 6 0.0000 0.0000 0.0000 0.0000 0.0000 -0.4312
#
#
#
# Elastic Compliance Matrix: (Units=1/GPa)
#
#
# Indices 1 2 3 4 5 6 
#
# 1 0.097829 -0.010877 -0.011547 0.000000 0.000000 0.000000
# 2 -0.010877 0.013484 -0.005633 0.000000 0.000000 0.000000
# 3 -0.011547 -0.005633 0.013359 0.000000 0.000000 0.000000
# 4 0.000000 0.000000 0.000000 0.031404 0.000000 0.000000
# 5 0.000000 0.000000 0.000000 0.000000 0.040907 0.000000
# 6 0.000000 0.000000 0.000000 0.000000 0.000000 -2.319193
#
#
# Mechanical properties :
#
#
# Convention : Reuss Voigt Hill
#
# Bulk Modulus (GPa) = 14.58639 54.05504 34.32071
# Shear Modulus (GPa) = -2.44709 20.89834 9.22563
#
# Velocity S-wave (km/s) = -1.14957 3.35944 2.23208
# Velocity P-wave (km/s) = 2.47288 6.65127 5.01770
#
# Compressibility (1/GPa) = 0.06855707
#
# Stress axis : x y z
#
# Youngs Moduli (GPa) = 10.22193 74.16380 74.85859
#
# Poissons Ratio (x) = 0.80669 0.86440
# Poissons Ratio (y) = 0.11118 0.42167
# Poissons Ratio (z) = 0.11803 0.41775
#
# Static dielectric constant tensor:
#      x y z
#    x 1.632010 0.000000 0.000000 
#    y 0.000000 1.636500 0.000000 
#    z 0.000000 0.000000 1.627470 
# 
# From -- ./inp_files/38117.got.cif
#   From: 2010.05.17/outbox.cif.g08.bks.cpg/sg53_20_cif.got.tgz:38117.got - 2010.06.03 12:45:16.
