data_PCOD9416158
_publ_section_title
;
Structure prediction by ZEFSAII (Michael W. Deem and Ramdas Pophale) SiO2 
 PCOD9416158
Probable space group: P M N A
;
_chemical_formula_sum "Si O2"
_cell_formula_units_Z 64
_cell_length_a 9.296575
_cell_length_b 12.446231
_cell_length_c 28.071517
_cell_angle_alpha 90.000000
_cell_angle_beta 90.000000
_cell_angle_gamma 90.000000
_cell_volume 3248.079999
_symmetry_space_group_name_H-M "P M N A"
_symmetry_group_IT_number 53
_symmetry_cell_setting 'orthorhombic'
loop_
_space_group_symop_operation_xyz
x,y,z
1/2-x,-y,1/2+z
x,-y,-z
1/2-x,y,1/2-z
-x,-y,-z
1/2+x,y,1/2-z
-x,y,z
1/2+x,-y,1/2+z
loop_
_atom_site_type_symbol
_atom_site_label
_atom_site_fract_x
_atom_site_fract_y
_atom_site_fract_z
Si Si1 0.162959 0.482146 0.432335
Si Si2 0.164061 0.514671 0.318644
Si Si3 0.829397 0.864203 0.878029
Si Si4 0.670803 0.763102 0.964501
Si Si5 0.668897 0.724072 0.333675
Si Si6 0.171317 0.964870 0.200889
Si Si7 0.330121 0.694505 0.445920
Si Si8 0.168622 0.696969 0.794300
O O1 0.162755 0.494182 0.375433
O O2 0.195407 0.359824 0.446147
O O3 0.271227 0.572589 0.450923
O O4 0.000000 0.508727 0.448144
O O5 0.232750 0.631339 0.311580
O O6 0.264116 0.420483 0.299586
O O7 0.000000 0.507989 0.301023
O O8 0.741749 0.842065 0.925908
O O9 0.809658 0.762477 0.842821
O O10 0.000000 0.874133 0.888726
O O11 0.784311 0.964323 0.844899
O O12 0.500000 0.779469 0.967555
O O13 0.745512 0.766431 0.016027
O O14 0.500000 0.696261 0.327545
O O15 0.695422 0.840024 0.311266
O O16 0.695236 0.727223 0.390852
O O17 0.250000 0.991983 0.250000
O O18 0.000000 0.983329 0.206759
O O19 0.500000 0.698591 0.455136
O O20 0.250000 0.750620 0.750000
O O21 0.000000 0.693014 0.784551
#
# Coordination Sequence:
#
# PCOD9416158 Si02
#       8
#     8   8   8   8   8   8   8   8
#     4   9  18  32  50  76 112 152 189 228 276 331
#     4  10  19  34  55  81 114 150 186 227 281 340
#     4  10  22  39  59  84 113 147 190 238 285 342
#     4  11  21  34  54  81 116 155 192 234 285 340
#     4   9  20  39  60  83 116 153 192 239 288 340
#     4  10  22  42  66  89 112 144 190 242 294 345
#     4  10  20  33  53  82 114 153 196 236 281 336
#     4  11  22  35  54  80 112 146 183 229 285 347
#
# _framework density 19.703948
#
# number of rings (size 3 to 8) (size 9 to 14) (size 15 to 20)
#    0.000    2.000    1.250    2.250    0.000    5.500 
#    0.000    1.875    0.000    3.750    0.000    0.000 
#    0.000    0.000    0.000    0.000    0.000    0.000 
#
# Total GULP energy -357509.404904 kJ/mol
# GULP energy per Si atom -5586.084452 kJ/mol
# Density = 1.965910 g / cm^3
# Si number density = 19.703948 Si / 1000 Ang^3
#
#
#
# Elastic Constant Matrix: (Units=GPa)
#
#
# Indices 1 2 3 4 5 6 
#
# 1 57.0133 26.9191 19.7731 0.0000 0.0000 0.0000
# 2 26.9191 58.0626 1.4106 0.0000 0.0000 0.0000
# 3 19.7731 1.4106 46.6978 0.0000 0.0000 0.0000
# 4 0.0000 0.0000 0.0000 12.9853 0.0000 0.0000
# 5 0.0000 0.0000 0.0000 0.0000 31.0959 0.0000
# 6 0.0000 0.0000 0.0000 0.0000 0.0000 -5.6302
#
#
#
# Elastic Compliance Matrix: (Units=1/GPa)
#
#
# Indices 1 2 3 4 5 6 
#
# 1 0.027248 -0.012362 -0.011164 0.000000 0.000000 0.000000
# 2 -0.012362 0.022844 0.004544 0.000000 0.000000 0.000000
# 3 -0.011164 0.004544 0.026004 0.000000 0.000000 0.000000
# 4 0.000000 0.000000 0.000000 0.077010 0.000000 0.000000
# 5 0.000000 0.000000 0.000000 0.000000 0.032159 0.000000
# 6 0.000000 0.000000 0.000000 0.000000 0.000000 -0.177614
#
#
# Mechanical properties :
#
#
# Convention : Reuss Voigt Hill
#
# Bulk Modulus (GPa) = 26.22421 28.66436 27.44429
# Shear Modulus (GPa) = 85.72577 15.26826 50.49702
#
# Velocity S-wave (km/s) = 6.60313 2.78669 5.06789
# Velocity P-wave (km/s) = 8.45418 4.99333 6.94285
#
# Compressibility (1/GPa) = 0.03813270
#
# Stress axis : x y z
#
# Youngs Moduli (GPa) = 36.69946 43.77604 38.45522
#
# Poissons Ratio (x) = 0.54115 0.42932
# Poissons Ratio (y) = 0.45367 -0.17475
# Poissons Ratio (z) = 0.40972 -0.19893
#
# Static dielectric constant tensor:
#      x y z
#    x 1.664030 0.000000 0.000000 
#    y 0.000000 1.676430 0.000000 
#    z 0.000000 0.000000 1.731190 
# 
# From -- ./inp_files/38235.got.cif
#   From: 2010.05.17/outbox.cif.g08.bks.cpg/sg53_20_cif.got.tgz:38235.got - 2010.06.03 12:45:16.
