data_PCOD9416811
_publ_section_title
;
Structure prediction by ZEFSAII (Michael W. Deem and Ramdas Pophale) SiO2 
 PCOD9416811
Probable space group: P M N A
;
_chemical_formula_sum "Si O2"
_cell_formula_units_Z 56
_cell_length_a 9.058720
_cell_length_b 19.276392
_cell_length_c 15.785458
_cell_angle_alpha 90.000000
_cell_angle_beta 90.000000
_cell_angle_gamma 90.000000
_cell_volume 2756.447800
_symmetry_space_group_name_H-M "P M N A"
_symmetry_group_IT_number 53
_symmetry_cell_setting 'orthorhombic'
loop_
_space_group_symop_operation_xyz
x,y,z
1/2-x,-y,1/2+z
x,-y,-z
1/2-x,y,1/2-z
-x,-y,-z
1/2+x,y,1/2-z
-x,y,z
1/2+x,-y,1/2+z
loop_
_atom_site_type_symbol
_atom_site_label
_atom_site_fract_x
_atom_site_fract_y
_atom_site_fract_z
Si Si1 0.822601 0.147739 0.596101
Si Si2 0.177205 0.141216 0.090421
Si Si3 0.672328 0.004532 0.103420
Si Si4 0.175308 0.425097 0.341787
Si Si5 0.323274 0.575808 0.157638
Si Si6 0.164955 0.290496 0.100195
Si Si7 0.833596 0.285677 0.898046
O O1 0.762686 0.143781 0.499480
O O2 0.747715 0.216347 0.634302
O O3 0.000000 0.154278 0.595359
O O4 0.784516 0.072364 0.634928
O O5 0.231373 0.069843 0.132334
O O6 0.211471 0.214924 0.135023
O O7 0.000000 0.139222 0.077161
O O8 0.500000 0.016714 0.122543
O O9 0.683994 0.000000 0.000000
O O10 0.250000 0.424578 0.250000
O O11 0.212049 0.500259 0.382883
O O12 0.231562 0.355720 0.385589
O O13 0.000000 0.422809 0.333394
O O14 0.250000 0.573522 0.250000
O O15 0.500000 0.581743 0.162731
O O16 0.256017 0.644157 0.116750
O O17 0.000000 0.306986 0.132542
O O18 0.155228 0.279384 0.999455
O O19 0.000000 0.290818 0.863124
#
# Coordination Sequence:
#
# PCOD9416811 Si02
#       7
#     8   8   8   8   8   8   8
#     4   9  16  26  40  61  92 127 161 199 241 285
#     4   9  16  25  39  62  92 126 161 198 240 285
#     4   8  14  23  36  57  87 124 161 196 237 282
#     4  10  21  36  55  75  96 126 163 202 244 291
#     4  10  21  37  55  75  98 126 162 202 243 291
#     4   9  19  33  48  71 103 133 163 201 245 290
#     4  10  20  33  50  74 102 132 164 201 246 290
#
# _framework density 20.316002000000001
#
# number of rings (size 3 to 8) (size 9 to 14) (size 15 to 20)
#    0.000    2.714    0.000    3.857    0.000    8.857 
#    0.000    2.857    0.000    0.000    0.000    1.000 
#    0.000    2.286    0.000    0.000    0.000    0.000 
#
# Total GULP energy -311952.706053 kJ/mol
# GULP energy per Si atom -5570.584037 kJ/mol
# Density = 2.026976 g / cm^3
# Si number density = 20.316002 Si / 1000 Ang^3
#
#
#
# Elastic Constant Matrix: (Units=GPa)
#
#
# Indices 1 2 3 4 5 6 
#
# 1 100.9190 103.0265 3.3980 0.0000 0.0000 0.0000
# 2 103.0265 237.9681 14.3438 0.0000 0.0000 0.0000
# 3 3.3980 14.3438 9.4421 0.0000 0.0000 0.0000
# 4 0.0000 0.0000 0.0000 7.1257 0.0000 0.0000
# 5 0.0000 0.0000 0.0000 0.0000 15.6502 0.0000
# 6 0.0000 0.0000 0.0000 0.0000 0.0000 41.9548
#
#
#
# Elastic Compliance Matrix: (Units=1/GPa)
#
#
# Indices 1 2 3 4 5 6 
#
# 1 0.018053 -0.008173 0.005919 0.000000 0.000000 0.000000
# 2 -0.008173 0.008326 -0.009707 0.000000 0.000000 0.000000
# 3 0.005919 -0.009707 0.118524 0.000000 0.000000 0.000000
# 4 0.000000 0.000000 0.000000 0.140337 0.000000 0.000000
# 5 0.000000 0.000000 0.000000 0.000000 0.063897 0.000000
# 6 0.000000 0.000000 0.000000 0.000000 0.000000 0.023835
#
#
# Mechanical properties :
#
#
# Convention : Reuss Voigt Hill
#
# Bulk Modulus (GPa) = 8.26573 65.54062 36.90317
# Shear Modulus (GPa) = 11.43588 28.11686 19.77637
#
# Velocity S-wave (km/s) = 2.37513 3.72422 3.12338
# Velocity P-wave (km/s) = 3.40574 7.12907 5.58671
#
# Compressibility (1/GPa) = 0.12098147
#
# Stress axis : x y z
#
# Youngs Moduli (GPa) = 55.39255 120.11145 8.43709
#
# Poissons Ratio (x) = 0.98163 -0.04994
# Poissons Ratio (y) = 0.45270 0.08190
# Poissons Ratio (z) = -0.32784 1.16587
#
# Static dielectric constant tensor:
#      x y z
#    x 1.705040 0.000000 0.000000 
#    y 0.000000 1.807750 0.000000 
#    z 0.000000 0.000000 1.778200 
# 
# From -- ./inp_files/31010.got.cif
#   From: 2010.05.17/outbox.cif.g08.bks.cpg/sg53_16_cif.got.tgz:31010.got - 2010.06.03 12:45:16.
