data_PCOD9416312
_publ_section_title
;
Structure prediction by ZEFSAII (Michael W. Deem and Ramdas Pophale) SiO2 
 PCOD9416312
Probable space group: P M N A
;
_chemical_formula_sum "Si O2"
_cell_formula_units_Z 64
_cell_length_a 19.013226
_cell_length_b 14.267829
_cell_length_c 12.112584
_cell_angle_alpha 90.000000
_cell_angle_beta 90.000000
_cell_angle_gamma 90.000000
_cell_volume 3285.870989
_symmetry_space_group_name_H-M "P M N A"
_symmetry_group_IT_number 53
_symmetry_cell_setting 'orthorhombic'
loop_
_space_group_symop_operation_xyz
x,y,z
1/2-x,-y,1/2+z
x,-y,-z
1/2-x,y,1/2-z
-x,-y,-z
1/2+x,y,1/2-z
-x,y,z
1/2+x,-y,1/2+z
loop_
_atom_site_type_symbol
_atom_site_label
_atom_site_fract_x
_atom_site_fract_y
_atom_site_fract_z
Si Si1 0.583840 0.161209 0.767139
Si Si2 0.332632 0.555713 0.743955
Si Si3 0.328109 0.110561 0.970291
Si Si4 0.077759 0.822073 0.883781
Si Si5 0.827462 0.093826 0.928206
Si Si6 0.673013 0.231463 0.192727
Si Si7 0.917919 0.377200 0.783938
Si Si8 0.923389 0.390206 0.048615
O O1 0.500000 0.150977 0.749847
O O2 0.608606 0.136787 0.889583
O O3 0.627986 0.095223 0.683724
O O4 0.603145 0.270285 0.743598
O O5 0.250000 0.538617 0.750000
O O6 0.346158 0.656446 0.805398
O O7 0.374700 0.460854 0.774486
O O8 0.358564 0.570489 0.617733
O O9 0.252488 0.125805 0.910468
O O10 0.326023 0.179276 0.075923
O O11 0.333588 0.000000 0.000000
O O12 0.119579 0.827540 0.769662
O O13 0.069509 0.712774 0.904414
O O14 0.000000 0.867034 0.884201
O O15 0.126097 0.847782 0.986461
O O16 0.820977 0.000000 0.000000
O O17 0.750000 0.226846 0.250000
O O18 0.000000 0.386203 0.754275
O O19 0.912998 0.386447 0.917649
O O20 0.000000 0.434191 0.077164
#
# Coordination Sequence:
#
# PCOD9416312 Si02
#       8
#     8   8   8   8   8   8   8   8
#     4  11  25  44  65  94 130 167 213 264 319 380
#     4  10  21  33  54  92 125 159 203 257 315 373
#     4  11  26  44  67  89 125 176 216 256 321 392
#     4  10  19  34  61  94 121 156 202 258 315 362
#     4  11  23  40  65  95 127 163 211 264 322 377
#     4  10  21  41  62  87 128 166 211 265 313 375
#     4  10  20  39  63  88 124 163 204 257 316 378
#     4   9  17  34  60  87 119 158 199 248 312 375
#
# _framework density 19.477333000000002
#
# number of rings (size 3 to 8) (size 9 to 14) (size 15 to 20)
#    0.000    1.750    2.500    1.500    1.750    4.250 
#    0.000    3.125    0.000    1.500    0.000    0.000 
#    0.000    0.000    0.000    0.000    0.000    0.000 
#
# Total GULP energy -356487.687566 kJ/mol
# GULP energy per Si atom -5570.120118 kJ/mol
# Density = 1.943300 g / cm^3
# Si number density = 19.477333 Si / 1000 Ang^3
#
#
#
# Elastic Constant Matrix: (Units=GPa)
#
#
# Indices 1 2 3 4 5 6 
#
# 1 72.6476 17.9708 20.9343 0.0000 0.0000 0.0000
# 2 17.9708 58.1253 31.3221 0.0000 0.0000 0.0000
# 3 20.9343 31.3221 77.9545 0.0000 0.0000 0.0000
# 4 0.0000 0.0000 0.0000 12.6135 0.0000 0.0000
# 5 0.0000 0.0000 0.0000 0.0000 25.6003 0.0000
# 6 0.0000 0.0000 0.0000 0.0000 0.0000 21.2221
#
#
#
# Elastic Compliance Matrix: (Units=1/GPa)
#
#
# Indices 1 2 3 4 5 6 
#
# 1 0.015380 -0.003228 -0.002833 0.000000 0.000000 0.000000
# 2 -0.003228 0.022636 -0.008228 0.000000 0.000000 0.000000
# 3 -0.002833 -0.008228 0.016895 0.000000 0.000000 0.000000
# 4 0.000000 0.000000 0.000000 0.079280 0.000000 0.000000
# 5 0.000000 0.000000 0.000000 0.000000 0.039062 0.000000
# 6 0.000000 0.000000 0.000000 0.000000 0.000000 0.047121
#
#
# Mechanical properties :
#
#
# Convention : Reuss Voigt Hill
#
# Bulk Modulus (GPa) = 37.97697 38.79798 38.38747
# Shear Modulus (GPa) = 19.40008 21.12054 20.26031
#
# Velocity S-wave (km/s) = 3.15942 3.29654 3.22871
# Velocity P-wave (km/s) = 5.73146 5.86962 5.80095
#
# Compressibility (1/GPa) = 0.02633175
#
# Stress axis : x y z
#
# Youngs Moduli (GPa) = 65.01918 44.17674 59.18942
#
# Poissons Ratio (x) = 0.14262 0.16769
# Poissons Ratio (y) = 0.20991 0.48703
# Poissons Ratio (z) = 0.18420 0.36350
#
# Static dielectric constant tensor:
#      x y z
#    x 1.736410 0.000000 0.000000 
#    y 0.000000 1.681600 0.000000 
#    z 0.000000 0.000000 1.666290 
# 
# From -- ./inp_files/17077.got.cif
#   From: 2010.05.17/outbox.cif.g08.bks.cpg/sg53_9_cif.got.tgz:17077.got - 2010.06.03 12:45:16.
