data_PCOD9416237
_publ_section_title
;
Structure prediction by ZEFSAII (Michael W. Deem and Ramdas Pophale) SiO2 
 PCOD9416237
Probable space group: P M N A
;
_chemical_formula_sum "Si O2"
_cell_formula_units_Z 64
_cell_length_a 8.596412
_cell_length_b 21.418484
_cell_length_c 19.230438
_cell_angle_alpha 90.000000
_cell_angle_beta 90.000000
_cell_angle_gamma 90.000000
_cell_volume 3540.748876
_symmetry_space_group_name_H-M "P M N A"
_symmetry_group_IT_number 53
_symmetry_cell_setting 'orthorhombic'
loop_
_space_group_symop_operation_xyz
x,y,z
1/2-x,-y,1/2+z
x,-y,-z
1/2-x,y,1/2-z
-x,-y,-z
1/2+x,y,1/2-z
-x,y,z
1/2+x,-y,1/2+z
loop_
_atom_site_type_symbol
_atom_site_label
_atom_site_fract_x
_atom_site_fract_y
_atom_site_fract_z
Si Si1 0.188528 0.190132 0.531860
Si Si2 0.813766 0.502289 0.919677
Si Si3 0.312777 0.750102 0.175459
Si Si4 0.311322 0.251914 0.109765
Si Si5 0.686575 0.880074 0.825769
Si Si6 0.686575 0.064831 0.464595
Si Si7 0.813467 0.395258 0.675090
Si Si8 0.812888 0.384178 0.327887
O O1 0.240428 0.212085 0.607836
O O2 0.234295 0.238298 0.470193
O O3 0.253339 0.123232 0.509631
O O4 0.000000 0.187230 0.531462
O O5 0.758136 0.439236 0.882791
O O6 0.742691 0.560487 0.877976
O O7 0.000000 0.506889 0.916453
O O8 0.764889 0.500000 0.000000
O O9 0.250000 0.771872 0.250000
O O10 0.500000 0.752515 0.177616
O O11 0.268264 0.677307 0.166480
O O12 0.500000 0.253188 0.111182
O O13 0.262565 0.190712 0.153420
O O14 0.257581 0.317164 0.141782
O O15 0.750000 0.896061 0.750000
O O16 0.500000 0.881264 0.825660
O O17 0.747307 0.924420 0.887248
O O18 0.500000 0.066384 0.461429
O O19 0.735524 0.000000 0.500000
O O20 0.750000 0.416182 0.750000
O O21 0.000000 0.399587 0.674087
O O22 0.750000 0.392940 0.250000
O O23 0.000000 0.384120 0.325733
#
# Coordination Sequence:
#
# PCOD9416237 Si02
#       8
#     8   8   8   8   8   8   8   8
#     4   9  18  35  57  82 111 144 181 223 272 322
#     4  11  25  41  54  74 106 139 179 229 274 321
#     4   9  19  34  56  83 111 140 177 226 274 328
#     4   8  17  32  54  82 110 140 175 220 267 321
#     4  10  19  34  57  84 115 147 184 226 271 322
#     4  10  21  37  56  81 113 149 189 229 268 318
#     4  10  20  36  59  81 104 138 178 221 272 328
#     4  11  22  37  58  80 108 142 178 219 269 327
#
# _framework density 18.075271000000001
#
# number of rings (size 3 to 8) (size 9 to 14) (size 15 to 20)
#    0.000    2.250    0.000    3.375    1.750    3.000 
#    0.000    6.250    0.000    1.500    0.000    0.000 
#    0.000    0.000    0.000    0.000    0.000    0.000 
#
# Total GULP energy -357260.169392 kJ/mol
# GULP energy per Si atom -5582.190147 kJ/mol
# Density = 1.803413 g / cm^3
# Si number density = 18.075271 Si / 1000 Ang^3
#
#
#
# Elastic Constant Matrix: (Units=GPa)
#
#
# Indices 1 2 3 4 5 6 
#
# 1 37.4302 28.2705 43.5894 0.0000 0.0000 0.0000
# 2 28.2705 90.7199 95.1293 0.0000 0.0000 0.0000
# 3 43.5894 95.1293 206.5217 0.0000 0.0000 0.0000
# 4 0.0000 0.0000 0.0000 26.4758 0.0000 0.0000
# 5 0.0000 0.0000 0.0000 0.0000 27.4492 0.0000
# 6 0.0000 0.0000 0.0000 0.0000 0.0000 34.9999
#
#
#
# Elastic Compliance Matrix: (Units=1/GPa)
#
#
# Indices 1 2 3 4 5 6 
#
# 1 0.037315 -0.006518 -0.004874 0.000000 0.000000 0.000000
# 2 -0.006518 0.022460 -0.008970 0.000000 0.000000 0.000000
# 3 -0.004874 -0.008970 0.010003 0.000000 0.000000 0.000000
# 4 0.000000 0.000000 0.000000 0.037770 0.000000 0.000000
# 5 0.000000 0.000000 0.000000 0.000000 0.036431 0.000000
# 6 0.000000 0.000000 0.000000 0.000000 0.000000 0.028572
#
#
# Mechanical properties :
#
#
# Convention : Reuss Voigt Hill
#
# Bulk Modulus (GPa) = 34.41787 74.29447 54.35617
# Shear Modulus (GPa) = 22.42580 28.96381 25.69480
#
# Velocity S-wave (km/s) = 3.52616 4.00734 3.77443
# Velocity P-wave (km/s) = 5.97170 7.91225 7.00946
#
# Compressibility (1/GPa) = 0.02905467
#
# Stress axis : x y z
#
# Youngs Moduli (GPa) = 26.79911 44.52360 99.97431
#
# Poissons Ratio (x) = 0.29019 0.48723
# Poissons Ratio (y) = 0.17467 0.89677
# Poissons Ratio (z) = 0.13061 0.39938
#
# Static dielectric constant tensor:
#      x y z
#    x 1.615200 0.000000 0.000000 
#    y 0.000000 1.602660 0.000000 
#    z 0.000000 0.000000 1.631670 
# 
# From -- ./inp_files/26933.got.cif
#   From: 2010.05.17/outbox.cif.g08.bks.cpg/sg53_14_cif.got.tgz:26933.got - 2010.06.03 12:45:16.
