data_PCOD9416709
_publ_section_title
;
Structure prediction by ZEFSAII (Michael W. Deem and Ramdas Pophale) SiO2 
 PCOD9416709
Probable space group: P M N A
;
_chemical_formula_sum "Si O2"
_cell_formula_units_Z 44
_cell_length_a 26.707765
_cell_length_b 15.512903
_cell_length_c 5.440067
_cell_angle_alpha 90.000000
_cell_angle_beta 90.000000
_cell_angle_gamma 90.000000
_cell_volume 2253.901184
_symmetry_space_group_name_H-M "P M N A"
_symmetry_group_IT_number 53
_symmetry_cell_setting 'orthorhombic'
loop_
_space_group_symop_operation_xyz
x,y,z
1/2-x,-y,1/2+z
x,-y,-z
1/2-x,y,1/2-z
-x,-y,-z
1/2+x,y,1/2-z
-x,y,z
1/2+x,-y,1/2+z
loop_
_atom_site_type_symbol
_atom_site_label
_atom_site_fract_x
_atom_site_fract_y
_atom_site_fract_z
Si Si1 0.372460 0.830908 0.235876
Si Si2 0.377435 0.000000 0.500000
Si Si3 0.057714 0.275006 0.026289
Si Si4 0.555988 0.896267 0.852901
Si Si5 0.060137 0.456372 0.250218
Si Si6 0.781449 0.102506 0.500262
O O1 0.353278 0.909037 0.415677
O O2 0.393523 0.742810 0.353830
O O3 0.423098 0.864695 0.110096
O O4 0.329708 0.835268 0.027312
O O5 0.409857 0.967337 0.727616
O O6 0.000000 0.288194 0.920730
O O7 0.056401 0.186935 0.177695
O O8 0.067050 0.354656 0.209122
O O9 0.500000 0.926560 0.863417
O O10 0.079717 0.500000 0.500000
O O11 0.000000 0.470572 0.253842
O O12 0.079478 0.500000 0.000000
O O13 0.750000 0.116627 0.250000
O O14 0.796104 0.000000 0.500000
O O15 0.750000 0.116641 0.750000
#
# Coordination Sequence:
#
# PCOD9416709 Si02
#       6
#     8   4   8   8   8   8
#     4  11  22  34  54  73 105 142 190 244 294 341
#     4  10  21  32  48  70  98 142 196 234 283 332
#     4   9  20  34  51  78 111 151 193 237 288 340
#     4  10  20  32  48  70 105 144 185 230 281 338
#     4   9  18  32  52  76 107 149 194 231 269 328
#     4  10  23  38  58  77 101 138 189 242 293 345
#
# _framework density 19.521706999999999
#
# number of rings (size 3 to 8) (size 9 to 14) (size 15 to 20)
#    0.000    2.182    0.000    2.455   11.455    2.909 
#    0.000    0.000    0.000    0.000    0.000    0.000 
#    0.000    0.000    6.182    0.000    0.000    0.000 
#
# Total GULP energy -245009.798739 kJ/mol
# GULP energy per Si atom -5568.404517 kJ/mol
# Density = 1.947727 g / cm^3
# Si number density = 19.521707 Si / 1000 Ang^3
#
#
#
# Elastic Constant Matrix: (Units=GPa)
#
#
# Indices 1 2 3 4 5 6 
#
# 1 60.0605 26.9226 30.4418 0.0000 0.0000 0.0000
# 2 26.9226 63.4050 34.0518 0.0000 0.0000 0.0000
# 3 30.4418 34.0518 104.5868 0.0000 0.0000 0.0000
# 4 0.0000 0.0000 0.0000 25.7431 0.0000 0.0000
# 5 0.0000 0.0000 0.0000 0.0000 23.4258 0.0000
# 6 0.0000 0.0000 0.0000 0.0000 0.0000 16.8527
#
#
#
# Elastic Compliance Matrix: (Units=1/GPa)
#
#
# Indices 1 2 3 4 5 6 
#
# 1 0.021897 -0.007120 -0.004055 0.000000 0.000000 0.000000
# 2 -0.007120 0.021429 -0.004905 0.000000 0.000000 0.000000
# 3 -0.004055 -0.004905 0.012339 0.000000 0.000000 0.000000
# 4 0.000000 0.000000 0.000000 0.038845 0.000000 0.000000
# 5 0.000000 0.000000 0.000000 0.000000 0.042688 0.000000
# 6 0.000000 0.000000 0.000000 0.000000 0.000000 0.059337
#
#
# Mechanical properties :
#
#
# Convention : Reuss Voigt Hill
#
# Bulk Modulus (GPa) = 42.54424 45.65385 44.09904
# Shear Modulus (GPa) = 21.13902 22.31339 21.72621
#
# Velocity S-wave (km/s) = 3.29423 3.38450 3.33967
# Velocity P-wave (km/s) = 6.02577 6.22174 6.12454
#
# Compressibility (1/GPa) = 0.02350495
#
# Stress axis : x y z
#
# Youngs Moduli (GPa) = 45.66872 46.66629 81.04602
#
# Poissons Ratio (x) = 0.33225 0.32867
# Poissons Ratio (y) = 0.32515 0.39749
# Poissons Ratio (z) = 0.18520 0.22888
#
# Static dielectric constant tensor:
#      x y z
#    x 1.737650 0.000000 0.000000 
#    y 0.000000 1.710480 0.000000 
#    z 0.000000 0.000000 1.822410 
# 
# From -- ./inp_files/5250.got.cif
#   From: 2010.05.17/outbox.cif.g08.bks.cpg/sg53_3_cif.got.tgz:5250.got - 2010.06.03 12:45:16.
