data_PCOD9416805
_publ_section_title
;
Structure prediction by ZEFSAII (Michael W. Deem and Ramdas Pophale) SiO2 
 PCOD9416805
Probable space group: P M N A
;
_chemical_formula_sum "Si O2"
_cell_formula_units_Z 64
_cell_length_a 8.588271
_cell_length_b 20.602736
_cell_length_c 20.563148
_cell_angle_alpha 90.000000
_cell_angle_beta 90.000000
_cell_angle_gamma 90.000000
_cell_volume 3638.482068
_symmetry_space_group_name_H-M "P M N A"
_symmetry_group_IT_number 53
_symmetry_cell_setting 'orthorhombic'
loop_
_space_group_symop_operation_xyz
x,y,z
1/2-x,-y,1/2+z
x,-y,-z
1/2-x,y,1/2-z
-x,-y,-z
1/2+x,y,1/2-z
-x,y,z
1/2+x,-y,1/2+z
loop_
_atom_site_type_symbol
_atom_site_label
_atom_site_fract_x
_atom_site_fract_y
_atom_site_fract_z
Si Si1 0.188190 0.428827 0.178475
Si Si2 0.685337 0.945154 0.679104
Si Si3 0.814044 0.674154 0.047174
Si Si4 0.812701 0.813463 0.434745
Si Si5 0.313629 0.699215 0.604477
Si Si6 0.190263 0.469677 0.930840
Si Si7 0.314177 0.161994 0.082670
Si Si8 0.687362 0.910478 0.178799
O O1 0.250000 0.441063 0.250000
O O2 0.237203 0.357888 0.152503
O O3 0.240220 0.483670 0.127414
O O4 0.000000 0.429075 0.178472
O O5 0.750000 0.925000 0.750000
O O6 0.736864 0.894577 0.624339
O O7 0.000000 0.949169 0.817222
O O8 0.753353 0.016698 0.665499
O O9 0.740420 0.739483 0.075237
O O10 0.758466 0.605047 0.074290
O O11 0.000000 0.678007 0.056062
O O12 0.784925 0.675258 0.969431
O O13 0.760308 0.835529 0.507073
O O14 0.760016 0.861432 0.377711
O O15 0.000000 0.814623 0.435741
O O16 0.500000 0.708771 0.611022
O O17 0.230062 0.767917 0.612155
O O18 0.000000 0.469025 0.931371
O O19 0.238304 0.500000 0.000000
O O20 0.500000 0.153553 0.083615
O O21 0.750000 0.891597 0.250000
O O22 0.500000 0.911281 0.180632
#
# Coordination Sequence:
#
# PCOD9416805 Si02
#       8
#     8   8   8   8   8   8   8   8
#     4  10  20  33  50  73 105 137 171 215 263 314
#     4  11  22  37  56  79 106 138 177 220 262 312
#     4   9  16  29  54  80  99 126 175 224 258 302
#     4   9  20  36  54  78 111 143 171 213 269 319
#     4   9  17  31  50  73  99 133 174 217 258 304
#     4   9  15  29  54  78  97 129 176 219 259 304
#     4  10  20  35  54  78 109 143 175 213 260 313
#     4  10  20  37  58  79 104 139 179 218 264 318
#
# _framework density 17.589753000000002
#
# number of rings (size 3 to 8) (size 9 to 14) (size 15 to 20)
#    0.000    2.375    1.250    2.625    0.000    3.000 
#    0.000    5.000    0.000    3.750    0.000    0.000 
#    0.000    0.000    0.000    0.000    0.000    0.000 
#
# Total GULP energy -357043.113089 kJ/mol
# GULP energy per Si atom -5578.798642 kJ/mol
# Density = 1.754972 g / cm^3
# Si number density = 17.589753 Si / 1000 Ang^3
#
#
#
# Elastic Constant Matrix: (Units=GPa)
#
#
# Indices 1 2 3 4 5 6 
#
# 1 34.4946 31.0658 28.8141 0.0000 0.0000 0.0000
# 2 31.0658 140.8279 103.7771 0.0000 0.0000 0.0000
# 3 28.8141 103.7771 126.5565 0.0000 0.0000 0.0000
# 4 0.0000 0.0000 0.0000 31.3891 0.0000 0.0000
# 5 0.0000 0.0000 0.0000 0.0000 29.6899 0.0000
# 6 0.0000 0.0000 0.0000 0.0000 0.0000 22.5846
#
#
#
# Elastic Compliance Matrix: (Units=1/GPa)
#
#
# Indices 1 2 3 4 5 6 
#
# 1 0.037117 -0.004954 -0.004389 0.000000 0.000000 0.000000
# 2 -0.004954 0.018605 -0.014128 0.000000 0.000000 0.000000
# 3 -0.004389 -0.014128 0.020486 0.000000 0.000000 0.000000
# 4 0.000000 0.000000 0.000000 0.031858 0.000000 0.000000
# 5 0.000000 0.000000 0.000000 0.000000 0.033682 0.000000
# 6 0.000000 0.000000 0.000000 0.000000 0.000000 0.044278
#
#
# Mechanical properties :
#
#
# Convention : Reuss Voigt Hill
#
# Bulk Modulus (GPa) = 34.16830 69.91035 52.03933
# Shear Modulus (GPa) = 20.59963 25.94752 23.27357
#
# Velocity S-wave (km/s) = 3.42587 3.84493 3.64144
# Velocity P-wave (km/s) = 5.92588 7.71638 6.87963
#
# Compressibility (1/GPa) = 0.02926689
#
# Stress axis : x y z
#
# Youngs Moduli (GPa) = 26.94155 53.74944 48.81387
#
# Poissons Ratio (x) = 0.26627 0.21422
# Poissons Ratio (y) = 0.13347 0.68965
# Poissons Ratio (z) = 0.11823 0.75938
#
# Static dielectric constant tensor:
#      x y z
#    x 1.602710 0.000000 0.000000 
#    y 0.000000 1.587200 0.000000 
#    z 0.000000 0.000000 1.585640 
# 
# From -- ./inp_files/26818.got.cif
#   From: 2010.05.17/outbox.cif.g08.bks.cpg/sg53_14_cif.got.tgz:26818.got - 2010.06.03 12:45:16.
