data_PCOD9416112
_publ_section_title
;
Structure prediction by ZEFSAII (Michael W. Deem and Ramdas Pophale) SiO2 
 PCOD9416112
Probable space group: P M N A
;
_chemical_formula_sum "Si O2"
_cell_formula_units_Z 64
_cell_length_a 8.811444
_cell_length_b 15.837665
_cell_length_c 29.263421
_cell_angle_alpha 90.000000
_cell_angle_beta 90.000000
_cell_angle_gamma 90.000000
_cell_volume 4083.789360
_symmetry_space_group_name_H-M "P M N A"
_symmetry_group_IT_number 53
_symmetry_cell_setting 'orthorhombic'
loop_
_space_group_symop_operation_xyz
x,y,z
1/2-x,-y,1/2+z
x,-y,-z
1/2-x,y,1/2-z
-x,-y,-z
1/2+x,y,1/2-z
-x,y,z
1/2+x,-y,1/2+z
loop_
_atom_site_type_symbol
_atom_site_label
_atom_site_fract_x
_atom_site_fract_y
_atom_site_fract_z
Si Si1 0.317382 0.821558 0.947324
Si Si2 0.819824 0.182981 0.951005
Si Si3 0.818123 0.334156 0.607763
Si Si4 0.817950 0.408194 0.201868
Si Si5 0.325558 0.008172 0.944714
Si Si6 0.817695 0.394051 0.798930
Si Si7 0.681719 0.506724 0.946300
Si Si8 0.318143 0.334529 0.394108
O O1 0.500000 0.820387 0.951384
O O2 0.273830 0.915213 0.929437
O O3 0.259462 0.747873 0.914851
O O4 0.248441 0.808636 0.997875
O O5 0.749285 0.254714 0.919067
O O6 0.000000 0.191350 0.953105
O O7 0.773610 0.089563 0.933578
O O8 0.749651 0.344149 0.658253
O O9 0.780738 0.419625 0.579516
O O10 0.000000 0.327478 0.609953
O O11 0.750000 0.379960 0.250000
O O12 0.774731 0.506720 0.194769
O O13 0.770568 0.354659 0.157924
O O14 0.000000 0.405855 0.204680
O O15 0.500000 0.022809 0.930411
O O16 0.326185 0.000000 0.000000
O O17 0.750000 0.367628 0.750000
O O18 0.000000 0.388188 0.798293
O O19 0.500000 0.520828 0.941846
O O20 0.768473 0.584548 0.923739
O O21 0.716602 0.500000 0.000000
O O22 0.500000 0.325806 0.395682
#
# Coordination Sequence:
#
# PCOD9416112 Si02
#       8
#     8   8   8   8   8   8   8   8
#     4  10  20  34  51  72 100 135 170 204 244 296
#     4  11  21  32  50  75 102 132 166 208 251 293
#     4  11  21  33  50  72 100 135 171 205 247 298
#     4   9  19  33  50  71  96 126 162 206 251 293
#     4   8  16  32  51  70  96 129 165 205 247 292
#     4  10  19  34  52  72  98 127 166 211 256 298
#     4  10  21  34  47  65  94 134 173 203 235 286
#     4  11  21  33  49  73 100 129 164 206 250 292
#
# _framework density 15.671718
#
# number of rings (size 3 to 8) (size 9 to 14) (size 15 to 20)
#    0.000    2.000    1.250    4.125    0.000    6.000 
#    0.000    0.000    0.000    0.000    0.000    0.875 
#    0.000    4.000    0.000    0.000    0.000    0.000 
#
# Total GULP energy -357155.360713 kJ/mol
# GULP energy per Si atom -5580.552511 kJ/mol
# Density = 1.563605 g / cm^3
# Si number density = 15.671718 Si / 1000 Ang^3
#
#
#
# Elastic Constant Matrix: (Units=GPa)
#
#
# Indices 1 2 3 4 5 6 
#
# 1 53.8893 40.1450 34.1533 0.0000 0.0000 0.0000
# 2 40.1450 104.2812 50.0759 0.0000 0.0000 0.0000
# 3 34.1533 50.0759 101.3750 0.0000 0.0000 0.0000
# 4 0.0000 0.0000 0.0000 4.8823 0.0000 0.0000
# 5 0.0000 0.0000 0.0000 0.0000 25.4199 0.0000
# 6 0.0000 0.0000 0.0000 0.0000 0.0000 145.5320
#
#
#
# Elastic Compliance Matrix: (Units=1/GPa)
#
#
# Indices 1 2 3 4 5 6 
#
# 1 0.028111 -0.008225 -0.005408 0.000000 0.000000 0.000000
# 2 -0.008225 0.014978 -0.004628 0.000000 0.000000 0.000000
# 3 -0.005408 -0.004628 0.013972 0.000000 0.000000 0.000000
# 4 0.000000 0.000000 0.000000 0.204820 0.000000 0.000000
# 5 0.000000 0.000000 0.000000 0.000000 0.039339 0.000000
# 6 0.000000 0.000000 0.000000 0.000000 0.000000 0.006871
#
#
# Mechanical properties :
#
#
# Convention : Reuss Voigt Hill
#
# Bulk Modulus (GPa) = 48.68458 56.47711 52.58084
# Shear Modulus (GPa) = 14.22639 44.17827 29.20233
#
# Velocity S-wave (km/s) = 3.01620 5.31517 4.32137
# Velocity P-wave (km/s) = 6.57743 8.58975 7.65005
#
# Compressibility (1/GPa) = 0.02054038
#
# Stress axis : x y z
#
# Youngs Moduli (GPa) = 35.57316 66.76448 71.57112
#
# Poissons Ratio (x) = 0.54914 0.38704
# Poissons Ratio (y) = 0.29259 0.33120
# Poissons Ratio (z) = 0.19237 0.30896
#
# Static dielectric constant tensor:
#      x y z
#    x 1.523030 0.000000 0.000000 
#    y 0.000000 1.521450 0.000000 
#    z 0.000000 0.000000 1.502570 
# 
# From -- ./inp_files/38427.got.cif
#   From: 2010.05.17/outbox.cif.g08.bks.cpg/sg53_20_cif.got.tgz:38427.got - 2010.06.03 12:45:16.
