data_PCOD9416957
_publ_section_title
;
Structure prediction by ZEFSAII (Michael W. Deem and Ramdas Pophale) SiO2 
 PCOD9416957
Probable space group: P M N A
;
_chemical_formula_sum "Si O2"
_cell_formula_units_Z 64
_cell_length_a 26.061529
_cell_length_b 14.569205
_cell_length_c 8.486753
_cell_angle_alpha 90.000000
_cell_angle_beta 90.000000
_cell_angle_gamma 90.000000
_cell_volume 3222.384119
_symmetry_space_group_name_H-M "P M N A"
_symmetry_group_IT_number 53
_symmetry_cell_setting 'orthorhombic'
loop_
_space_group_symop_operation_xyz
x,y,z
1/2-x,-y,1/2+z
x,-y,-z
1/2-x,y,1/2-z
-x,-y,-z
1/2+x,y,1/2-z
-x,y,z
1/2+x,-y,1/2+z
loop_
_atom_site_type_symbol
_atom_site_label
_atom_site_fract_x
_atom_site_fract_y
_atom_site_fract_z
Si Si1 0.620261 0.652351 0.824877
Si Si2 0.211824 0.557649 0.149651
Si Si3 0.847953 0.167768 0.730658
Si Si4 0.441030 0.291007 0.870936
Si Si5 0.399718 0.542505 0.323569
Si Si6 0.221849 0.714702 0.499065
Si Si7 0.329959 0.784279 0.595661
Si Si8 0.191957 0.978125 0.812984
O O1 0.607344 0.548582 0.780929
O O2 0.629737 0.711231 0.665429
O O3 0.578711 0.683326 0.953377
O O4 0.675673 0.669087 0.904926
O O5 0.250000 0.493649 0.250000
O O6 0.156462 0.590899 0.201215
O O7 0.251522 0.634533 0.099002
O O8 0.196215 0.500000 0.000000
O O9 0.902233 0.210526 0.681652
O O10 0.804247 0.211555 0.617566
O O11 0.840107 0.058208 0.728718
O O12 0.840115 0.196039 0.912608
O O13 0.500000 0.262640 0.872392
O O14 0.435591 0.380172 0.754399
O O15 0.411462 0.500000 0.500000
O O16 0.270313 0.754067 0.593767
O O17 0.332254 0.877007 0.698595
O O18 0.250000 0.978453 0.750000
O O19 0.193941 0.000000 0.000000
#
# Coordination Sequence:
#
# PCOD9416957 Si02
#       8
#     8   8   8   8   8   8   8   8
#     4  11  23  37  56  84 119 154 193 237 286 344
#     4  11  20  30  47  75 113 152 185 215 264 335
#     4  10  21  38  59  85 115 153 199 245 287 337
#     4  11  25  45  64  80 105 147 199 255 309 353
#     4  11  23  38  58  86 114 145 191 242 295 356
#     4  11  20  33  54  81 122 165 193 224 272 338
#     4  11  20  35  57  90 128 158 190 228 279 347
#     4  10  20  33  57  91 127 162 193 226 274 340
#
# _framework density 19.861070000000002
#
# number of rings (size 3 to 8) (size 9 to 14) (size 15 to 20)
#    0.000    1.250    0.000    9.375    0.000    2.250 
#    0.000    1.875    0.000    4.875    0.000    0.000 
#    0.000    0.000    0.000    0.000    0.000    0.000 
#
# Total GULP energy -357124.916504 kJ/mol
# GULP energy per Si atom -5580.076820 kJ/mol
# Density = 1.981587 g / cm^3
# Si number density = 19.861070 Si / 1000 Ang^3
#
#
#
# Elastic Constant Matrix: (Units=GPa)
#
#
# Indices 1 2 3 4 5 6 
#
# 1 95.8181 18.3742 7.4158 0.0000 0.0000 0.0000
# 2 18.3742 73.2961 -6.6949 0.0000 0.0000 0.0000
# 3 7.4158 -6.6949 45.3537 0.0000 0.0000 0.0000
# 4 0.0000 0.0000 0.0000 26.0367 0.0000 0.0000
# 5 0.0000 0.0000 0.0000 0.0000 10.3405 0.0000
# 6 0.0000 0.0000 0.0000 0.0000 0.0000 3.6216
#
#
#
# Elastic Compliance Matrix: (Units=1/GPa)
#
#
# Indices 1 2 3 4 5 6 
#
# 1 0.011190 -0.003013 -0.002274 0.000000 0.000000 0.000000
# 2 -0.003013 0.014641 0.002654 0.000000 0.000000 0.000000
# 3 -0.002274 0.002654 0.022813 0.000000 0.000000 0.000000
# 4 0.000000 0.000000 0.000000 0.038407 0.000000 0.000000
# 5 0.000000 0.000000 0.000000 0.000000 0.096707 0.000000
# 6 0.000000 0.000000 0.000000 0.000000 0.000000 0.276117
#
#
# Mechanical properties :
#
#
# Convention : Reuss Voigt Hill
#
# Bulk Modulus (GPa) = 23.05387 28.07314 25.56350
# Shear Modulus (GPa) = 10.42533 21.02463 15.72498
#
# Velocity S-wave (km/s) = 2.29358 3.25712 2.81686
# Velocity P-wave (km/s) = 4.31819 5.32077 4.84548
#
# Compressibility (1/GPa) = 0.04337667
#
# Stress axis : x y z
#
# Youngs Moduli (GPa) = 89.36353 68.30127 43.83547
#
# Poissons Ratio (x) = 0.20579 0.09970
# Poissons Ratio (y) = 0.26925 -0.11633
# Poissons Ratio (z) = 0.20326 -0.18126
#
# Static dielectric constant tensor:
#      x y z
#    x 2.140010 0.000000 0.000000 
#    y 0.000000 1.771530 0.000000 
#    z 0.000000 0.000000 2.331260 
# 
# From -- ./inp_files/11922.got.cif
#   From: 2010.05.17/outbox.cif.g08.bks.cpg/sg53_6_cif.got.tgz:11922.got - 2010.06.03 12:45:16.
