data_PCOD9416528
_publ_section_title
;
Structure prediction by ZEFSAII (Michael W. Deem and Ramdas Pophale) SiO2 
 PCOD9416528
Probable space group: P M N A
;
_chemical_formula_sum "Si O2"
_cell_formula_units_Z 48
_cell_length_a 15.267451
_cell_length_b 15.744947
_cell_length_c 10.092748
_cell_angle_alpha 90.000000
_cell_angle_beta 90.000000
_cell_angle_gamma 90.000000
_cell_volume 2426.147315
_symmetry_space_group_name_H-M "P M N A"
_symmetry_group_IT_number 53
_symmetry_cell_setting 'orthorhombic'
loop_
_space_group_symop_operation_xyz
x,y,z
1/2-x,-y,1/2+z
x,-y,-z
1/2-x,y,1/2-z
-x,-y,-z
1/2+x,y,1/2-z
-x,y,z
1/2+x,-y,1/2+z
loop_
_atom_site_type_symbol
_atom_site_label
_atom_site_fract_x
_atom_site_fract_y
_atom_site_fract_z
Si Si1 0.894216 0.350710 0.751604
Si Si2 0.246842 0.918964 0.094649
Si Si3 0.147956 0.284330 0.259626
Si Si4 0.106413 0.526356 0.650702
Si Si5 0.101731 0.779689 0.027922
Si Si6 0.600079 0.211555 0.963518
O O1 0.863369 0.446873 0.739581
O O2 0.873644 0.294661 0.622021
O O3 0.000000 0.355933 0.757206
O O4 0.865475 0.296601 0.877326
O O5 0.250000 0.942063 0.250000
O O6 0.332965 0.862666 0.068189
O O7 0.163774 0.859354 0.058646
O O8 0.245889 0.000000 0.000000
O O9 0.250000 0.262572 0.250000
O O10 0.138958 0.384058 0.294229
O O11 0.107281 0.254490 0.121455
O O12 0.106083 0.235591 0.383104
O O13 0.130649 0.500000 0.500000
O O14 0.000000 0.532023 0.651628
O O15 0.000000 0.798534 0.059950
O O16 0.500000 0.190428 0.927517
#
# Coordination Sequence:
#
# PCOD9416528 Si02
#       6
#     8   8   8   8   8   8
#     4   9  19  38  66  92 125 179 226 264 323 383
#     4  12  28  47  72 103 138 168 212 276 335 406
#     4  12  24  40  62  99 137 177 227 281 327 385
#     4  10  19  36  61  92 130 174 229 280 319 378
#     4  11  24  45  69  95 135 180 218 271 339 393
#     4  11  22  44  72  94 129 181 226 265 326 403
#
# _framework density 19.784455000000001
#
# number of rings (size 3 to 8) (size 9 to 14) (size 15 to 20)
#    0.000    1.167    5.000    1.500    2.333    1.333 
#    6.000    2.500    0.000    0.000    0.000    0.000 
#    0.000    0.000    0.000    0.000    0.000    0.000 
#
# Total GULP energy -268245.036866 kJ/mol
# GULP energy per Si atom -5588.438268 kJ/mol
# Density = 1.973942 g / cm^3
# Si number density = 19.784455 Si / 1000 Ang^3
#
#
#
# Elastic Constant Matrix: (Units=GPa)
#
#
# Indices 1 2 3 4 5 6 
#
# 1 94.5848 34.6618 10.5420 0.0000 0.0000 0.0000
# 2 34.6618 104.7123 40.9247 0.0000 0.0000 0.0000
# 3 10.5420 40.9247 138.6153 0.0000 0.0000 0.0000
# 4 0.0000 0.0000 0.0000 32.8108 0.0000 0.0000
# 5 0.0000 0.0000 0.0000 0.0000 13.6557 0.0000
# 6 0.0000 0.0000 0.0000 0.0000 0.0000 -53.4085
#
#
#
# Elastic Compliance Matrix: (Units=1/GPa)
#
#
# Indices 1 2 3 4 5 6 
#
# 1 0.012043 -0.004102 0.000295 0.000000 0.000000 0.000000
# 2 -0.004102 0.012193 -0.003288 0.000000 0.000000 0.000000
# 3 0.000295 -0.003288 0.008162 0.000000 0.000000 0.000000
# 4 0.000000 0.000000 0.000000 0.030478 0.000000 0.000000
# 5 0.000000 0.000000 0.000000 0.000000 0.073229 0.000000
# 6 0.000000 0.000000 0.000000 0.000000 0.000000 -0.018724
#
#
# Mechanical properties :
#
#
# Convention : Reuss Voigt Hill
#
# Bulk Modulus (GPa) = 54.91772 56.68548 55.80160
# Shear Modulus (GPa) = 36.32666 15.39719 25.86192
#
# Velocity S-wave (km/s) = 4.28965 2.79273 3.61942
# Velocity P-wave (km/s) = 7.23554 6.25403 6.76261
#
# Compressibility (1/GPa) = 0.01820906
#
# Stress axis : x y z
#
# Youngs Moduli (GPa) = 83.03750 82.01625 122.51204
#
# Poissons Ratio (x) = 0.33641 -0.03615
# Poissons Ratio (y) = 0.34060 0.40280
# Poissons Ratio (z) = -0.02451 0.26965
#
# Static dielectric constant tensor:
#      x y z
#    x 1.710270 0.000000 0.000000 
#    y 0.000000 1.673310 0.000000 
#    z 0.000000 0.000000 1.704870 
# 
# From -- ./inp_files/8613.got.cif
#   From: 2010.05.17/outbox.cif.g08.bks.cpg/sg53_5_cif.got.tgz:8613.got - 2010.06.03 12:45:16.
