data_PCOD9416398
_publ_section_title
;
Structure prediction by ZEFSAII (Michael W. Deem and Ramdas Pophale) SiO2 
 PCOD9416398
Probable space group: P M N A
;
_chemical_formula_sum "Si O2"
_cell_formula_units_Z 64
_cell_length_a 8.848921
_cell_length_b 12.470992
_cell_length_c 28.392250
_cell_angle_alpha 90.000000
_cell_angle_beta 90.000000
_cell_angle_gamma 90.000000
_cell_volume 3133.221723
_symmetry_space_group_name_H-M "P M N A"
_symmetry_group_IT_number 53
_symmetry_cell_setting 'orthorhombic'
loop_
_space_group_symop_operation_xyz
x,y,z
1/2-x,-y,1/2+z
x,-y,-z
1/2-x,y,1/2-z
-x,-y,-z
1/2+x,y,1/2-z
-x,y,z
1/2+x,-y,1/2+z
loop_
_atom_site_type_symbol
_atom_site_label
_atom_site_fract_x
_atom_site_fract_y
_atom_site_fract_z
Si Si1 0.174652 0.474502 0.431738
Si Si2 0.172736 0.503644 0.318956
Si Si3 0.681341 0.870099 0.870799
Si Si4 0.681920 0.762474 0.964550
Si Si5 0.680353 0.722587 0.333436
Si Si6 0.179991 0.961417 0.199707
Si Si7 0.320795 0.698729 0.443015
Si Si8 0.177553 0.711145 0.798129
O O1 0.176297 0.485578 0.375327
O O2 0.228317 0.356388 0.446147
O O3 0.266737 0.575952 0.450569
O O4 0.000000 0.485950 0.446623
O O5 0.228721 0.624195 0.311020
O O6 0.286208 0.414897 0.299661
O O7 0.000000 0.486199 0.302756
O O8 0.500000 0.876107 0.868933
O O9 0.727806 0.848799 0.924961
O O10 0.737383 0.767339 0.841201
O O11 0.752331 0.969736 0.843158
O O12 0.500000 0.763202 0.966487
O O13 0.746471 0.771700 0.016866
O O14 0.500000 0.700562 0.330748
O O15 0.711584 0.836216 0.309802
O O16 0.720511 0.728212 0.389198
O O17 0.250000 0.992051 0.250000
O O18 0.000000 0.977387 0.200987
O O19 0.500000 0.704542 0.447188
O O20 0.250000 0.753857 0.750000
O O21 0.000000 0.732075 0.800105
#
# Coordination Sequence:
#
# PCOD9416398 Si02
#       8
#     8   8   8   8   8   8   8   8
#     4   9  17  32  52  77 115 160 197 234 285 342
#     4  10  19  35  58  86 119 156 196 240 294 353
#     4  11  23  42  63  87 119 153 198 248 298 356
#     4  10  20  35  55  81 118 160 197 239 292 350
#     4   9  21  41  61  85 122 160 198 248 301 356
#     4  11  24  44  68  91 115 150 198 250 306 360
#     4  10  20  33  53  85 119 156 201 245 289 343
#     4  12  24  38  58  84 118 156 194 239 299 363
#
# _framework density 20.426258000000001
#
# number of rings (size 3 to 8) (size 9 to 14) (size 15 to 20)
#    0.000    1.750    1.250    3.375    0.000    5.500 
#    0.000    1.875    0.000    3.750    0.000    0.000 
#    0.000    0.000    0.000    0.000    0.000    0.000 
#
# Total GULP energy -357663.584590 kJ/mol
# GULP energy per Si atom -5588.493509 kJ/mol
# Density = 2.037977 g / cm^3
# Si number density = 20.426258 Si / 1000 Ang^3
#
#
#
# Elastic Constant Matrix: (Units=GPa)
#
#
# Indices 1 2 3 4 5 6 
#
# 1 35.0475 22.7422 6.5310 0.0000 0.0000 0.0000
# 2 22.7422 71.6147 2.5080 0.0000 0.0000 0.0000
# 3 6.5310 2.5080 49.3646 0.0000 0.0000 0.0000
# 4 0.0000 0.0000 0.0000 38.0139 0.0000 0.0000
# 5 0.0000 0.0000 0.0000 0.0000 29.2937 0.0000
# 6 0.0000 0.0000 0.0000 0.0000 0.0000 25.1436
#
#
#
# Elastic Compliance Matrix: (Units=1/GPa)
#
#
# Indices 1 2 3 4 5 6 
#
# 1 0.036821 -0.011543 -0.004285 0.000000 0.000000 0.000000
# 2 -0.011543 0.017607 0.000633 0.000000 0.000000 0.000000
# 3 -0.004285 0.000633 0.020792 0.000000 0.000000 0.000000
# 4 0.000000 0.000000 0.000000 0.026306 0.000000 0.000000
# 5 0.000000 0.000000 0.000000 0.000000 0.034137 0.000000
# 6 0.000000 0.000000 0.000000 0.000000 0.000000 0.039772
#
#
# Mechanical properties :
#
#
# Convention : Reuss Voigt Hill
#
# Bulk Modulus (GPa) = 22.30662 24.39879 23.35270
# Shear Modulus (GPa) = 22.64802 26.77329 24.71065
#
# Velocity S-wave (km/s) = 3.33343 3.62433 3.48192
# Velocity P-wave (km/s) = 5.07543 5.43002 5.25571
#
# Compressibility (1/GPa) = 0.04482974
#
# Stress axis : x y z
#
# Youngs Moduli (GPa) = 27.15807 56.79521 48.09487
#
# Poissons Ratio (x) = 0.65559 0.20609
# Poissons Ratio (y) = 0.31349 -0.03043
# Poissons Ratio (z) = 0.11638 -0.03593
#
# Static dielectric constant tensor:
#      x y z
#    x 1.684910 0.000000 0.000000 
#    y 0.000000 1.722720 0.000000 
#    z 0.000000 0.000000 1.761130 
# 
# From -- ./inp_files/38234.got.cif
#   From: 2010.05.17/outbox.cif.g08.bks.cpg/sg53_20_cif.got.tgz:38234.got - 2010.06.03 12:45:16.
