data_PCOD9416962
_publ_section_title
;
Structure prediction by ZEFSAII (Michael W. Deem and Ramdas Pophale) SiO2 
 PCOD9416962
Probable space group: P M N A
;
_chemical_formula_sum "Si O2"
_cell_formula_units_Z 64
_cell_length_a 18.149083
_cell_length_b 5.234582
_cell_length_c 35.124112
_cell_angle_alpha 90.000000
_cell_angle_beta 90.000000
_cell_angle_gamma 90.000000
_cell_volume 3336.891207
_symmetry_space_group_name_H-M "P M N A"
_symmetry_group_IT_number 53
_symmetry_cell_setting 'orthorhombic'
loop_
_space_group_symop_operation_xyz
x,y,z
1/2-x,-y,1/2+z
x,-y,-z
1/2-x,y,1/2-z
-x,-y,-z
1/2+x,y,1/2-z
-x,y,z
1/2+x,-y,1/2+z
loop_
_atom_site_type_symbol
_atom_site_label
_atom_site_fract_x
_atom_site_fract_y
_atom_site_fract_z
Si Si1 0.915054 0.370740 0.302602
Si Si2 0.294597 0.638281 0.285216
Si Si3 0.262278 0.765955 0.131315
Si Si4 0.178459 0.730763 0.898764
Si Si5 0.588453 0.879190 0.155138
Si Si6 0.919396 0.667920 0.829811
Si Si7 0.084967 0.249646 0.026171
Si Si8 0.581747 0.995184 0.264052
O O1 0.902047 0.664698 0.311699
O O2 0.909216 0.253675 0.260698
O O3 0.000000 0.341792 0.312259
O O4 0.881752 0.154611 0.330210
O O5 0.250000 0.509845 0.250000
O O6 0.251225 0.745289 0.322420
O O7 0.354844 0.470200 0.307023
O O8 0.343023 0.843017 0.262094
O O9 0.229286 0.513740 0.111313
O O10 0.350427 0.790062 0.124990
O O11 0.220070 0.013457 0.115178
O O12 0.106312 0.696309 0.872434
O O13 0.146733 0.746140 0.941144
O O14 0.500000 0.881862 0.145464
O O15 0.923462 0.937801 0.808466
O O16 0.000000 0.547015 0.825596
O O17 0.000000 0.245839 0.041296
O O18 0.091818 0.500000 0.000000
O O19 0.093555 0.000000 0.000000
O O20 0.500000 0.888668 0.252733
#
# Coordination Sequence:
#
# PCOD9416962 Si02
#       8
#     8   8   8   8   8   8   8   8
#     4   9  19  31  51  72  95 133 187 255 302 330
#     4  11  23  35  49  73 103 147 196 256 303 341
#     4  11  23  37  55  82 116 155 195 239 301 355
#     4  11  22  41  59  88 124 155 185 237 292 346
#     4  10  20  37  55  77 105 145 196 246 297 345
#     4  10  22  38  54  75 105 150 197 236 291 353
#     4  10  21  39  66  98 126 158 195 229 274 344
#     4  10  20  34  49  67  93 134 192 243 290 349
#
# _framework density 19.179527
#
# number of rings (size 3 to 8) (size 9 to 14) (size 15 to 20)
#    0.000    1.750    1.250    3.000    3.500    0.500 
#    0.000    1.250    0.000    0.000    0.000    0.000 
#    0.000   10.000    0.000    0.000    0.000    0.000 
#
# Total GULP energy -356457.660729 kJ/mol
# GULP energy per Si atom -5569.650949 kJ/mol
# Density = 1.913587 g / cm^3
# Si number density = 19.179527 Si / 1000 Ang^3
#
#
#
# Elastic Constant Matrix: (Units=GPa)
#
#
# Indices 1 2 3 4 5 6 
#
# 1 128.4172 28.4599 45.0116 0.0000 0.0000 0.0000
# 2 28.4599 66.6876 22.0695 0.0000 0.0000 0.0000
# 3 45.0116 22.0695 80.1303 0.0000 0.0000 0.0000
# 4 0.0000 0.0000 0.0000 14.1367 0.0000 0.0000
# 5 0.0000 0.0000 0.0000 0.0000 29.1289 0.0000
# 6 0.0000 0.0000 0.0000 0.0000 0.0000 24.0498
#
#
#
# Elastic Compliance Matrix: (Units=1/GPa)
#
#
# Indices 1 2 3 4 5 6 
#
# 1 0.010114 -0.002680 -0.004943 0.000000 0.000000 0.000000
# 2 -0.002680 0.017210 -0.003234 0.000000 0.000000 0.000000
# 3 -0.004943 -0.003234 0.016147 0.000000 0.000000 0.000000
# 4 0.000000 0.000000 0.000000 0.070738 0.000000 0.000000
# 5 0.000000 0.000000 0.000000 0.000000 0.034330 0.000000
# 6 0.000000 0.000000 0.000000 0.000000 0.000000 0.041580
#
#
# Mechanical properties :
#
#
# Convention : Reuss Voigt Hill
#
# Bulk Modulus (GPa) = 45.96598 51.81301 48.88950
# Shear Modulus (GPa) = 22.82214 25.44268 24.13241
#
# Velocity S-wave (km/s) = 3.45327 3.64614 3.55101
# Velocity P-wave (km/s) = 6.31809 6.69322 6.50836
#
# Compressibility (1/GPa) = 0.02175522
#
# Stress axis : x y z
#
# Youngs Moduli (GPa) = 98.87577 58.10740 61.93084
#
# Poissons Ratio (x) = 0.15575 0.30612
# Poissons Ratio (y) = 0.26502 0.20030
# Poissons Ratio (z) = 0.48874 0.18793
#
# Static dielectric constant tensor:
#      x y z
#    x 1.837450 0.000000 0.000000 
#    y 0.000000 1.786580 0.000000 
#    z 0.000000 0.000000 1.659330 
# 
# From -- ./inp_files/39030.got.cif
#   From: 2010.05.17/outbox.cif.g08.bks.cpg/sg53_20_cif.got.tgz:39030.got - 2010.06.03 12:45:16.
