data_PCOD9416691
_publ_section_title
;
Structure prediction by ZEFSAII (Michael W. Deem and Ramdas Pophale) SiO2 
 PCOD9416691
Probable space group: P M N A
;
_chemical_formula_sum "Si O2"
_cell_formula_units_Z 40
_cell_length_a 31.838577
_cell_length_b 14.860643
_cell_length_c 5.176119
_cell_angle_alpha 90.000000
_cell_angle_beta 90.000000
_cell_angle_gamma 90.000000
_cell_volume 2449.037880
_symmetry_space_group_name_H-M "P M N A"
_symmetry_group_IT_number 53
_symmetry_cell_setting 'orthorhombic'
loop_
_space_group_symop_operation_xyz
x,y,z
1/2-x,-y,1/2+z
x,-y,-z
1/2-x,y,1/2-z
-x,-y,-z
1/2+x,y,1/2-z
-x,y,z
1/2+x,-y,1/2+z
loop_
_atom_site_type_symbol
_atom_site_label
_atom_site_fract_x
_atom_site_fract_y
_atom_site_fract_z
Si Si1 0.830278 0.756200 0.857086
Si Si2 0.812915 0.000000 0.500000
Si Si3 0.750000 0.858549 0.750000
Si Si4 0.047499 0.062441 0.752789
Si Si5 0.699844 0.439965 0.250448
Si Si6 0.632134 0.845111 0.156211
O O1 0.783039 0.795689 0.896548
O O2 0.824753 0.653498 0.771974
O O3 0.854760 0.809061 0.627389
O O4 0.852516 0.776011 0.127092
O O5 0.781041 0.075394 0.399761
O O6 0.843556 0.058115 0.685172
O O7 0.083368 0.135174 0.701450
O O8 0.000000 0.097940 0.790697
O O9 0.047347 0.000000 0.500000
O O10 0.057672 0.000000 0.000000
O O11 0.691011 0.500000 0.500000
O O12 0.750000 0.420140 0.250000
O O13 0.690413 0.500000 0.000000
#
# Coordination Sequence:
#
# PCOD9416691 Si02
#       6
#     8   4   4   8   8   8
#     4  11  22  35  51  76 102 134 177 222 253 300
#     4  10  20  32  47  68 100 152 177 216 238 292
#     4  10  20  32  44  68  98 142 180 210 242 282
#     4  10  20  35  54  75 102 138 178 212 259 308
#     4  10  20  36  55  73 100 134 173 215 270 320
#     4  11  22  33  53  73 106 135 178 219 250 296
#
# _framework density 16.332944000000001
#
# number of rings (size 3 to 8) (size 9 to 14) (size 15 to 20)
#    0.000    1.600    2.000    3.600    2.800    2.400 
#    0.000    0.000    0.000    0.000    0.000    0.000 
#    0.000   16.000    0.000    0.000    0.000    0.000 
#
# Total GULP energy -222996.608123 kJ/mol
# GULP energy per Si atom -5574.915203 kJ/mol
# Density = 1.629577 g / cm^3
# Si number density = 16.332944 Si / 1000 Ang^3
#
#
#
# Elastic Constant Matrix: (Units=GPa)
#
#
# Indices 1 2 3 4 5 6 
#
# 1 82.6013 27.9141 7.0697 0.0000 0.0000 0.0000
# 2 27.9141 80.5556 14.6216 0.0000 0.0000 0.0000
# 3 7.0697 14.6216 81.4912 0.0000 0.0000 0.0000
# 4 0.0000 0.0000 0.0000 13.4647 0.0000 0.0000
# 5 0.0000 0.0000 0.0000 0.0000 514.3537 0.0000
# 6 0.0000 0.0000 0.0000 0.0000 0.0000 18.2454
#
#
#
# Elastic Compliance Matrix: (Units=1/GPa)
#
#
# Indices 1 2 3 4 5 6 
#
# 1 0.013722 -0.004692 -0.000349 0.000000 0.000000 0.000000
# 2 -0.004692 0.014436 -0.002183 0.000000 0.000000 0.000000
# 3 -0.000349 -0.002183 0.012693 0.000000 0.000000 0.000000
# 4 0.000000 0.000000 0.000000 0.074268 0.000000 0.000000
# 5 0.000000 0.000000 0.000000 0.000000 0.001944 0.000000
# 6 0.000000 0.000000 0.000000 0.000000 0.000000 0.054808
#
#
# Mechanical properties :
#
#
# Convention : Reuss Voigt Hill
#
# Bulk Modulus (GPa) = 37.87304 38.20655 38.03979
# Shear Modulus (GPa) = 25.62537 122.21561 73.92049
#
# Velocity S-wave (km/s) = 3.96528 8.65968 6.73474
# Velocity P-wave (km/s) = 6.64854 11.10990 9.15513
#
# Compressibility (1/GPa) = 0.02640401
#
# Stress axis : x y z
#
# Youngs Moduli (GPa) = 72.87761 69.27248 78.78224
#
# Poissons Ratio (x) = 0.32499 0.02747
# Poissons Ratio (y) = 0.34191 0.17199
# Poissons Ratio (z) = 0.02541 0.15123
#
# Static dielectric constant tensor:
#      x y z
#    x 1.572380 0.000000 0.000000 
#    y 0.000000 1.565220 0.000000 
#    z 0.000000 0.000000 1.557240 
# 
# From -- ./inp_files/4391.got.cif
#   From: 2010.05.17/outbox.cif.g08.bks.cpg/sg53_3_cif.got.tgz:4391.got - 2010.06.03 12:45:16.
