data_PCOD9416623
_publ_section_title
;
Structure prediction by ZEFSAII (Michael W. Deem and Ramdas Pophale) SiO2 
 PCOD9416623
Probable space group: P M N A
;
_chemical_formula_sum "Si O2"
_cell_formula_units_Z 56
_cell_length_a 19.453267
_cell_length_b 15.147183
_cell_length_c 9.040149
_cell_angle_alpha 90.000000
_cell_angle_beta 90.000000
_cell_angle_gamma 90.000000
_cell_volume 2663.790149
_symmetry_space_group_name_H-M "P M N A"
_symmetry_group_IT_number 53
_symmetry_cell_setting 'orthorhombic'
loop_
_space_group_symop_operation_xyz
x,y,z
1/2-x,-y,1/2+z
x,-y,-z
1/2-x,y,1/2-z
-x,-y,-z
1/2+x,y,1/2-z
-x,y,z
1/2+x,-y,1/2+z
loop_
_atom_site_type_symbol
_atom_site_label
_atom_site_fract_x
_atom_site_fract_y
_atom_site_fract_z
Si Si1 0.190794 0.062807 0.642808
Si Si2 0.266229 0.241907 0.003358
Si Si3 0.929084 0.642781 0.884882
Si Si4 0.642121 0.200758 0.274863
Si Si5 0.581462 0.011637 0.324836
Si Si6 0.580632 0.480104 0.828453
Si Si7 0.807417 0.586486 0.093153
O O1 0.250000 0.025311 0.750000
O O2 0.212671 0.161203 0.600108
O O3 0.186352 0.000000 0.500000
O O4 0.119802 0.063619 0.732485
O O5 0.200375 0.210018 0.099282
O O6 0.326121 0.244647 0.127471
O O7 0.247303 0.333005 0.919974
O O8 0.921450 0.740568 0.825652
O O9 0.924882 0.573819 0.753084
O O10 0.000000 0.628215 0.967381
O O11 0.867903 0.622034 0.991176
O O12 0.617336 0.100823 0.265590
O O13 0.500000 0.013437 0.301849
O O14 0.594575 0.000000 0.500000
O O15 0.500000 0.442347 0.818220
O O16 0.648001 0.437039 0.742802
O O17 0.594707 0.500000 0.000000
O O18 0.781655 0.500000 0.000000
#
# Coordination Sequence:
#
# PCOD9416623 Si02
#       7
#     8   8   8   8   8   8   8
#     4  12  23  41  67  94 131 176 221 267 331 409
#     4  10  21  37  61  91 126 174 228 272 328 406
#     4   9  17  31  57  87 117 162 213 262 323 395
#     4  10  19  38  60  90 128 167 220 276 330 396
#     4  11  24  42  68 100 133 170 218 277 339 409
#     4   9  17  32  56  88 128 172 216 270 339 399
#     4   9  18  35  60  87 125 167 223 275 321 380
#
# _framework density 21.022677000000002
#
# number of rings (size 3 to 8) (size 9 to 14) (size 15 to 20)
#    0.000    2.000    1.429    3.000    0.000    2.000 
#    2.571    0.714    9.429    0.857    0.000    0.000 
#    0.000    0.571    0.000    0.000    0.000    0.000 
#
# Total GULP energy -312119.408597 kJ/mol
# GULP energy per Si atom -5573.560868 kJ/mol
# Density = 2.097483 g / cm^3
# Si number density = 21.022677 Si / 1000 Ang^3
#
#
#
# Elastic Constant Matrix: (Units=GPa)
#
#
# Indices 1 2 3 4 5 6 
#
# 1 84.0380 55.5083 61.6802 0.0000 0.0000 0.0000
# 2 55.5083 108.6917 50.8415 0.0000 0.0000 0.0000
# 3 61.6802 50.8415 130.0278 0.0000 0.0000 0.0000
# 4 0.0000 0.0000 0.0000 16.3555 0.0000 0.0000
# 5 0.0000 0.0000 0.0000 0.0000 21.2342 0.0000
# 6 0.0000 0.0000 0.0000 0.0000 0.0000 67.9116
#
#
#
# Elastic Compliance Matrix: (Units=1/GPa)
#
#
# Indices 1 2 3 4 5 6 
#
# 1 0.022892 -0.008091 -0.007695 0.000000 0.000000 0.000000
# 2 -0.008091 0.014120 -0.001683 0.000000 0.000000 0.000000
# 3 -0.007695 -0.001683 0.011999 0.000000 0.000000 0.000000
# 4 0.000000 0.000000 0.000000 0.061142 0.000000 0.000000
# 5 0.000000 0.000000 0.000000 0.000000 0.047094 0.000000
# 6 0.000000 0.000000 0.000000 0.000000 0.000000 0.014725
#
#
# Mechanical properties :
#
#
# Convention : Reuss Voigt Hill
#
# Bulk Modulus (GPa) = 71.06321 73.20197 72.13259
# Shear Modulus (GPa) = 23.62955 31.41542 27.52249
#
# Velocity S-wave (km/s) = 3.35625 3.86989 3.62219
# Velocity P-wave (km/s) = 6.99255 7.40703 7.20277
#
# Compressibility (1/GPa) = 0.01407198
#
# Stress axis : x y z
#
# Youngs Moduli (GPa) = 43.68403 70.82393 83.34077
#
# Poissons Ratio (x) = 0.57305 0.64133
# Poissons Ratio (y) = 0.35345 0.14024
# Poissons Ratio (z) = 0.33616 0.11917
#
# Static dielectric constant tensor:
#      x y z
#    x 1.804040 0.000000 0.000000 
#    y 0.000000 1.736280 0.000000 
#    z 0.000000 0.000000 1.792390 
# 
# From -- ./inp_files/11044.got.cif
#   From: 2010.05.17/outbox.cif.g08.bks.cpg/sg53_6_cif.got.tgz:11044.got - 2010.06.03 12:45:16.
