data_PCOD9416087
_publ_section_title
;
Structure prediction by ZEFSAII (Michael W. Deem and Ramdas Pophale) SiO2 
 PCOD9416087
Probable space group: P M N A
;
_chemical_formula_sum "Si O2"
_cell_formula_units_Z 56
_cell_length_a 17.198627
_cell_length_b 9.560954
_cell_length_c 18.369310
_cell_angle_alpha 90.000000
_cell_angle_beta 90.000000
_cell_angle_gamma 90.000000
_cell_volume 3020.562663
_symmetry_space_group_name_H-M "P M N A"
_symmetry_group_IT_number 53
_symmetry_cell_setting 'orthorhombic'
loop_
_space_group_symop_operation_xyz
x,y,z
1/2-x,-y,1/2+z
x,-y,-z
1/2-x,y,1/2-z
-x,-y,-z
1/2+x,y,1/2-z
-x,y,z
1/2+x,-y,1/2+z
loop_
_atom_site_type_symbol
_atom_site_label
_atom_site_fract_x
_atom_site_fract_y
_atom_site_fract_z
Si Si1 0.085436 0.080993 0.404819
Si Si2 0.843216 0.640986 0.544647
Si Si3 0.089844 0.712152 0.298339
Si Si4 0.201019 0.168878 0.578238
Si Si5 0.589866 0.834178 0.737118
Si Si6 0.826840 0.436416 0.290037
Si Si7 0.320924 0.085499 0.693025
O O1 0.093253 0.237969 0.437108
O O2 0.090461 0.094779 0.317511
O O3 0.000000 0.024089 0.422144
O O4 0.154081 0.977439 0.428261
O O5 0.865935 0.500000 0.500000
O O6 0.788226 0.733541 0.492039
O O7 0.812457 0.598370 0.624643
O O8 0.142598 0.748403 0.367930
O O9 0.104836 0.549242 0.285904
O O10 0.124564 0.800355 0.231575
O O11 0.000000 0.744608 0.310224
O O12 0.280343 0.139325 0.620391
O O13 0.500000 0.802747 0.719812
O O14 0.643706 0.699897 0.747776
O O15 0.629842 0.944939 0.684136
O O16 0.750000 0.492381 0.250000
O O17 0.250000 0.057256 0.750000
#
# Coordination Sequence:
#
# PCOD9416087 Si02
#       7
#     8   8   8   8   8   8   8
#     4  10  21  36  54  79 117 160 194 228 279 347
#     4  11  24  39  53  82 119 151 198 233 292 354
#     4  11  21  35  55  84 119 156 194 235 286 346
#     4  11  21  37  56  82 116 156 198 239 287 345
#     4  10  19  34  56  85 114 145 189 238 287 336
#     4  11  23  39  60  82 115 153 191 240 288 346
#     4  10  19  33  58  81 110 152 198 242 280 328
#
# _framework density 18.539593
#
# number of rings (size 3 to 8) (size 9 to 14) (size 15 to 20)
#    0.000    1.429    4.286    3.429    2.000    2.571 
#    0.000    0.000    0.000    0.000    0.000    6.000 
#    0.000    0.000    0.000    0.000    0.000    0.000 
#
# Total GULP energy -312375.959146 kJ/mol
# GULP energy per Si atom -5578.142128 kJ/mol
# Density = 1.849740 g / cm^3
# Si number density = 18.539593 Si / 1000 Ang^3
#
#
#
# Elastic Constant Matrix: (Units=GPa)
#
#
# Indices 1 2 3 4 5 6 
#
# 1 57.1587 11.9159 28.8245 0.0000 0.0000 0.0000
# 2 11.9159 89.7230 26.7255 0.0000 0.0000 0.0000
# 3 28.8245 26.7255 54.9072 0.0000 0.0000 0.0000
# 4 0.0000 0.0000 0.0000 20.7063 0.0000 0.0000
# 5 0.0000 0.0000 0.0000 0.0000 11.0752 0.0000
# 6 0.0000 0.0000 0.0000 0.0000 0.0000 27.0002
#
#
#
# Elastic Compliance Matrix: (Units=1/GPa)
#
#
# Indices 1 2 3 4 5 6 
#
# 1 0.023827 0.000657 -0.012828 0.000000 0.000000 0.000000
# 2 0.000657 0.013053 -0.006698 0.000000 0.000000 0.000000
# 3 -0.012828 -0.006698 0.028207 0.000000 0.000000 0.000000
# 4 0.000000 0.000000 0.000000 0.048294 0.000000 0.000000
# 5 0.000000 0.000000 0.000000 0.000000 0.090292 0.000000
# 6 0.000000 0.000000 0.000000 0.000000 0.000000 0.037037
#
#
# Mechanical properties :
#
#
# Convention : Reuss Voigt Hill
#
# Bulk Modulus (GPa) = 36.56536 37.41340 36.98938
# Shear Modulus (GPa) = 17.38727 20.71122 19.04924
#
# Velocity S-wave (km/s) = 3.06575 3.34598 3.20893
# Velocity P-wave (km/s) = 5.68308 5.92887 5.80728
#
# Compressibility (1/GPa) = 0.02734829
#
# Stress axis : x y z
#
# Youngs Moduli (GPa) = 41.96848 76.60831 35.45182
#
# Poissons Ratio (x) = -0.05030 0.45478
# Poissons Ratio (y) = -0.02756 0.23747
# Poissons Ratio (z) = 0.53838 0.51315
#
# Static dielectric constant tensor:
#      x y z
#    x 1.610040 0.000000 0.000000 
#    y 0.000000 1.702390 0.000000 
#    z 0.000000 0.000000 1.666880 
# 
# From -- ./inp_files/32791.got.cif
#   From: 2010.05.17/outbox.cif.g08.bks.cpg/sg53_17_cif.got.tgz:32791.got - 2010.06.03 12:45:16.
