data_PCOD9416244
_publ_section_title
;
Structure prediction by ZEFSAII (Michael W. Deem and Ramdas Pophale) SiO2 
 PCOD9416244
Probable space group: P M N A
;
_chemical_formula_sum "Si O2"
_cell_formula_units_Z 64
_cell_length_a 15.124535
_cell_length_b 9.365799
_cell_length_c 23.030040
_cell_angle_alpha 90.000000
_cell_angle_beta 90.000000
_cell_angle_gamma 90.000000
_cell_volume 3262.282427
_symmetry_space_group_name_H-M "P M N A"
_symmetry_group_IT_number 53
_symmetry_cell_setting 'orthorhombic'
loop_
_space_group_symop_operation_xyz
x,y,z
1/2-x,-y,1/2+z
x,-y,-z
1/2-x,y,1/2-z
-x,-y,-z
1/2+x,y,1/2-z
-x,y,z
1/2+x,-y,1/2+z
loop_
_atom_site_type_symbol
_atom_site_label
_atom_site_fract_x
_atom_site_fract_y
_atom_site_fract_z
Si Si1 0.896030 0.721440 0.120110
Si Si2 0.096349 0.811953 0.658114
Si Si3 0.896590 0.350918 0.221900
Si Si4 0.401878 0.424461 0.438525
Si Si5 0.217387 0.220018 0.117885
Si Si6 0.397307 0.147864 0.861052
Si Si7 0.263843 0.924002 0.437101
Si Si8 0.892698 0.324894 0.751986
O O1 0.888627 0.551759 0.107898
O O2 0.866471 0.747735 0.186755
O O3 0.000000 0.756708 0.114352
O O4 0.838658 0.805980 0.073379
O O5 0.104440 0.749607 0.722140
O O6 0.178558 0.753075 0.622366
O O7 0.101343 0.983325 0.660195
O O8 0.000000 0.772124 0.634225
O O9 0.834537 0.279454 0.173795
O O10 0.867279 0.508843 0.242428
O O11 0.000000 0.360953 0.202829
O O12 0.400045 0.500000 0.500000
O O13 0.500000 0.361637 0.430710
O O14 0.327964 0.306269 0.433524
O O15 0.209326 0.052176 0.106872
O O16 0.500000 0.185003 0.875667
O O17 0.328714 0.143683 0.914574
O O18 0.365498 0.247425 0.807529
O O19 0.257116 0.000000 0.500000
O O20 0.000000 0.320900 0.751362
#
# Coordination Sequence:
#
# PCOD9416244 Si02
#       8
#     8   8   8   8   8   8   8   8
#     4  10  21  37  55  82 119 155 194 240 294 351
#     4   9  20  36  55  81 114 147 183 232 286 343
#     4  10  19  34  57  87 118 146 182 229 287 358
#     4  10  20  36  58  82 113 156 199 238 284 340
#     4  11  21  36  57  81 113 149 197 238 285 345
#     4   9  20  40  63  84 112 152 192 244 305 353
#     4  11  25  40  56  84 117 156 207 251 290 346
#     4   9  18  35  58  87 117 144 185 235 294 363
#
# _framework density 19.618167
#
# number of rings (size 3 to 8) (size 9 to 14) (size 15 to 20)
#    0.000    2.125    1.250    1.500    1.750    3.000 
#    2.250    0.000    0.000    0.375    0.000    0.000 
#    0.000    0.000    0.000    0.000    0.000    0.000 
#
# Total GULP energy -356973.761726 kJ/mol
# GULP energy per Si atom -5577.715027 kJ/mol
# Density = 1.957351 g / cm^3
# Si number density = 19.618167 Si / 1000 Ang^3
#
#
#
# Elastic Constant Matrix: (Units=GPa)
#
#
# Indices 1 2 3 4 5 6 
#
# 1 107.8761 46.9587 24.7703 0.0000 0.0000 0.0000
# 2 46.9587 35.7610 12.4296 0.0000 0.0000 0.0000
# 3 24.7703 12.4296 40.9631 0.0000 0.0000 0.0000
# 4 0.0000 0.0000 0.0000 31.0745 0.0000 0.0000
# 5 0.0000 0.0000 0.0000 0.0000 25.5357 0.0000
# 6 0.0000 0.0000 0.0000 0.0000 0.0000 17.4481
#
#
#
# Elastic Compliance Matrix: (Units=1/GPa)
#
#
# Indices 1 2 3 4 5 6 
#
# 1 0.022591 -0.027854 -0.005209 0.000000 0.000000 0.000000
# 2 -0.027854 0.065604 -0.003063 0.000000 0.000000 0.000000
# 3 -0.005209 -0.003063 0.028491 0.000000 0.000000 0.000000
# 4 0.000000 0.000000 0.000000 0.032181 0.000000 0.000000
# 5 0.000000 0.000000 0.000000 0.000000 0.039161 0.000000
# 6 0.000000 0.000000 0.000000 0.000000 0.000000 0.057313
#
#
# Mechanical properties :
#
#
# Convention : Reuss Voigt Hill
#
# Bulk Modulus (GPa) = 22.50518 39.21305 30.85912
# Shear Modulus (GPa) = 15.04190 21.50776 18.27483
#
# Velocity S-wave (km/s) = 2.77200 3.31466 3.05540
# Velocity P-wave (km/s) = 4.66281 5.88904 5.31143
#
# Compressibility (1/GPa) = 0.04443421
#
# Stress axis : x y z
#
# Youngs Moduli (GPa) = 44.26551 15.24292 35.09832
#
# Poissons Ratio (x) = 0.42458 0.18282
# Poissons Ratio (y) = 1.23298 0.10751
# Poissons Ratio (z) = 0.23057 0.04669
#
# Static dielectric constant tensor:
#      x y z
#    x 1.718650 0.000000 0.000000 
#    y 0.000000 1.673570 0.000000 
#    z 0.000000 0.000000 1.727120 
# 
# From -- ./inp_files/35348.got.cif
#   From: 2010.05.17/outbox.cif.g08.bks.cpg/sg53_18_cif.got.tgz:35348.got - 2010.06.03 12:45:16.
