data_PCOD9416974
_publ_section_title
;
Structure prediction by ZEFSAII (Michael W. Deem and Ramdas Pophale) SiO2 
 PCOD9416974
Probable space group: P M N A
;
_chemical_formula_sum "Si O2"
_cell_formula_units_Z 56
_cell_length_a 9.100242
_cell_length_b 16.702972
_cell_length_c 19.842627
_cell_angle_alpha 90.000000
_cell_angle_beta 90.000000
_cell_angle_gamma 90.000000
_cell_volume 3016.100879
_symmetry_space_group_name_H-M "P M N A"
_symmetry_group_IT_number 53
_symmetry_cell_setting 'orthorhombic'
loop_
_space_group_symop_operation_xyz
x,y,z
1/2-x,-y,1/2+z
x,-y,-z
1/2-x,y,1/2-z
-x,-y,-z
1/2+x,y,1/2-z
-x,y,z
1/2+x,-y,1/2+z
loop_
_atom_site_type_symbol
_atom_site_label
_atom_site_fract_x
_atom_site_fract_y
_atom_site_fract_z
Si Si1 0.666766 0.219731 0.683801
Si Si2 0.174453 0.513432 0.578615
Si Si3 0.830730 0.064496 0.050799
Si Si4 0.821966 0.680253 0.911177
Si Si5 0.166517 0.412463 0.816003
Si Si6 0.178301 0.162335 0.176650
Si Si7 0.169647 0.774741 0.037195
O O1 0.750000 0.189990 0.750000
O O2 0.500000 0.188000 0.684805
O O3 0.661740 0.316391 0.688162
O O4 0.736755 0.206202 0.610007
O O5 0.205615 0.500000 0.500000
O O6 0.248674 0.595690 0.603599
O O7 0.244346 0.440941 0.619778
O O8 0.000000 0.516886 0.588464
O O9 0.772142 0.092873 0.123624
O O10 0.000000 0.037278 0.063137
O O11 0.835631 0.145731 0.007481
O O12 0.760176 0.000000 0.000000
O O13 0.786953 0.751848 0.858812
O O14 0.000000 0.673627 0.913067
O O15 0.769468 0.708494 0.985999
O O16 0.250000 0.442928 0.750000
O O17 0.000000 0.442311 0.818762
O O18 0.250000 0.155893 0.250000
O O19 0.000000 0.158131 0.181050
O O20 0.000000 0.750373 0.052003
#
# Coordination Sequence:
#
# PCOD9416974 Si02
#       7
#     8   8   8   8   8   8   8
#     4   9  17  29  46  67  90 118 152 192 235 279
#     4  11  23  35  48  71 101 129 162 207 255 301
#     4   8  14  27  49  75 100 128 163 198 231 274
#     4   9  18  33  51  69  90 123 168 209 245 289
#     4  10  20  34  51  68  90 124 162 200 246 295
#     4   9  18  32  52  77 102 130 165 206 249 294
#     4   8  14  27  47  68  90 119 158 197 230 273
#
# _framework density 18.567018000000001
#
# number of rings (size 3 to 8) (size 9 to 14) (size 15 to 20)
#    0.000    2.857    0.000    3.429    0.000    4.000 
#    0.000    2.857    0.000    1.286    0.000    0.000 
#    0.000    0.000    0.000    0.000    0.000    0.000 
#
# Total GULP energy -311772.562126 kJ/mol
# GULP energy per Si atom -5567.367181 kJ/mol
# Density = 1.852476 g / cm^3
# Si number density = 18.567018 Si / 1000 Ang^3
#
#
#
# Elastic Constant Matrix: (Units=GPa)
#
#
# Indices 1 2 3 4 5 6 
#
# 1 22.1559 6.5557 40.6003 0.0000 0.0000 0.0000
# 2 6.5557 25.8417 1.6901 0.0000 0.0000 0.0000
# 3 40.6003 1.6901 141.1327 0.0000 0.0000 0.0000
# 4 0.0000 0.0000 0.0000 30.1674 0.0000 0.0000
# 5 0.0000 0.0000 0.0000 0.0000 28.6816 0.0000
# 6 0.0000 0.0000 0.0000 0.0000 0.0000 9.2387
#
#
#
# Elastic Compliance Matrix: (Units=1/GPa)
#
#
# Indices 1 2 3 4 5 6 
#
# 1 0.110502 -0.025974 -0.031478 0.000000 0.000000 0.000000
# 2 -0.025974 0.044833 0.006935 0.000000 0.000000 0.000000
# 3 -0.031478 0.006935 0.016058 0.000000 0.000000 0.000000
# 4 0.000000 0.000000 0.000000 0.033148 0.000000 0.000000
# 5 0.000000 0.000000 0.000000 0.000000 0.034866 0.000000
# 6 0.000000 0.000000 0.000000 0.000000 0.000000 0.108240
#
#
# Mechanical properties :
#
#
# Convention : Reuss Voigt Hill
#
# Bulk Modulus (GPa) = 14.21270 31.86916 23.04093
# Shear Modulus (GPa) = 10.59021 22.96983 16.78002
#
# Velocity S-wave (km/s) = 2.39085 3.52110 3.00951
# Velocity P-wave (km/s) = 3.91062 5.80797 4.95104
#
# Compressibility (1/GPa) = 0.07035960
#
# Stress axis : x y z
#
# Youngs Moduli (GPa) = 9.04958 22.30503 62.27502
#
# Poissons Ratio (x) = 0.57936 1.96027
# Poissons Ratio (y) = 0.23506 -0.43189
# Poissons Ratio (z) = 0.28486 -0.15469
#
# Static dielectric constant tensor:
#      x y z
#    x 1.638430 0.000000 0.000000 
#    y 0.000000 1.649770 0.000000 
#    z 0.000000 0.000000 1.683410 
# 
# From -- ./inp_files/31032.got.cif
#   From: 2010.05.17/outbox.cif.g08.bks.cpg/sg53_16_cif.got.tgz:31032.got - 2010.06.03 12:45:16.
