data_PCOD9416550
_publ_section_title
;
Structure prediction by ZEFSAII (Michael W. Deem and Ramdas Pophale) SiO2 
 PCOD9416550
Probable space group: P M N A
;
_chemical_formula_sum "Si O2"
_cell_formula_units_Z 54
_cell_length_a 14.160176
_cell_length_b 5.602331
_cell_length_c 29.835053
_cell_angle_alpha 90.000000
_cell_angle_beta 90.000000
_cell_angle_gamma 90.000000
_cell_volume 2366.814545
_symmetry_space_group_name_H-M "P M N A"
_symmetry_group_IT_number 53
_symmetry_cell_setting 'orthorhombic'
loop_
_space_group_symop_operation_xyz
x,y,z
1/2-x,-y,1/2+z
x,-y,-z
1/2-x,y,1/2-z
-x,-y,-z
1/2+x,y,1/2-z
-x,y,z
1/2+x,-y,1/2+z
loop_
_atom_site_type_symbol
_atom_site_label
_atom_site_fract_x
_atom_site_fract_y
_atom_site_fract_z
Si Si1 0.853739 0.043832 0.774216
Si Si2 0.308025 0.827461 0.536759
Si Si3 0.327443 0.542888 0.075669
Si Si4 0.137861 0.459526 0.260540
Si Si5 0.398334 0.216450 0.148400
Si Si6 0.500000 0.247102 0.972406
Si Si7 0.279420 0.091629 0.630410
Si Si8 0.000000 0.000000 0.000000
O O1 0.750000 0.031177 0.750000
O O2 0.898395 0.281895 0.753588
O O3 0.848124 0.090461 0.827457
O O4 0.895024 0.781945 0.764547
O O5 0.243669 0.596430 0.543169
O O6 0.414702 0.818591 0.518144
O O7 0.259464 0.000000 0.500000
O O8 0.312740 0.951572 0.585909
O O9 0.390032 0.346726 0.100960
O O10 0.402512 0.730491 0.055993
O O11 0.256923 0.657379 0.112106
O O12 0.250000 0.471588 0.250000
O O13 0.116632 0.407038 0.312201
O O14 0.500000 0.100237 0.153723
O O15 0.313201 0.034993 0.150084
O O16 0.500000 0.500000 0.000000
O O17 0.500000 0.000000 0.000000
#
# Coordination Sequence:
#
# PCOD9416550 Si02
#       8
#     8   8   8   8   8   4   8   2
#     4  10  19  36  63  93 130 179 240 294 355 432
#     4   9  23  45  77 107 142 186 252 322 395 472
#     4  11  25  43  67 106 143 197 253 306 373 457
#     4  10  19  37  62  91 129 180 234 293 354 419
#     4  11  23  40  64  99 142 192 244 303 359 448
#     4  12  32  46  68 102 162 213 250 312 380 450
#     4  11  23  38  68 101 141 193 246 304 374 457
#     4   8  20  52  82 110 138 182 254 328 422 466
#
# _framework density 22.815476
#
# number of rings (size 3 to 8) (size 9 to 14) (size 15 to 20)
#    0.444    1.185    3.704    1.778    9.333    0.000 
#    0.000    1.481    3.259    0.000    0.000    0.000 
#    0.000    0.000    0.000    0.000    0.000    0.000 
#
# Total GULP energy -300925.849668 kJ/mol
# GULP energy per Si atom -5572.700920 kJ/mol
# Density = 2.276355 g / cm^3
# Si number density = 22.815476 Si / 1000 Ang^3
#
#
#
# Elastic Constant Matrix: (Units=GPa)
#
#
# Indices 1 2 3 4 5 6 
#
# 1 117.4044 15.2620 16.9485 0.0000 0.0000 0.0000
# 2 15.2620 106.2536 21.5841 0.0000 0.0000 0.0000
# 3 16.9485 21.5841 115.2290 0.0000 0.0000 0.0000
# 4 0.0000 0.0000 0.0000 49.9349 0.0000 0.0000
# 5 0.0000 0.0000 0.0000 0.0000 -5.8955 0.0000
# 6 0.0000 0.0000 0.0000 0.0000 0.0000 6.9058
#
#
#
# Elastic Compliance Matrix: (Units=1/GPa)
#
#
# Indices 1 2 3 4 5 6 
#
# 1 0.008812 -0.001042 -0.001101 0.000000 0.000000 0.000000
# 2 -0.001042 0.009907 -0.001702 0.000000 0.000000 0.000000
# 3 -0.001101 -0.001702 0.009159 0.000000 0.000000 0.000000
# 4 0.000000 0.000000 0.000000 0.020026 0.000000 0.000000
# 5 0.000000 0.000000 0.000000 0.000000 -0.169622 0.000000
# 6 0.000000 0.000000 0.000000 0.000000 0.000000 0.144806
#
#
# Mechanical properties :
#
#
# Convention : Reuss Voigt Hill
#
# Bulk Modulus (GPa) = 49.53628 49.60846 49.57237
# Shear Modulus (GPa) = 133.30242 29.19521 81.24882
#
# Velocity S-wave (km/s) = 7.65200 3.58106 5.97399
# Velocity P-wave (km/s) = 9.99148 6.23612 8.32823
#
# Compressibility (1/GPa) = 0.02018722
#
# Stress axis : x y z
#
# Youngs Moduli (GPa) = 113.48214 100.93910 109.17997
#
# Poissons Ratio (x) = 0.10519 0.12020
# Poissons Ratio (y) = 0.11826 0.18587
# Poissons Ratio (z) = 0.12493 0.17184
#
# Static dielectric constant tensor:
#      x y z
#    x 1.826670 0.000000 0.000000 
#    y 0.000000 1.886160 0.000000 
#    z 0.000000 0.000000 1.918080 
# 
# From -- ./inp_files/38891.got.cif
#   From: 2010.05.17/outbox.cif.g08.bks.cpg/sg53_20_cif.got.tgz:38891.got - 2010.06.03 12:45:16.
