data_PCOD9416890
_publ_section_title
;
Structure prediction by ZEFSAII (Michael W. Deem and Ramdas Pophale) SiO2 
 PCOD9416890
Probable space group: P M N A
;
_chemical_formula_sum "Si O2"
_cell_formula_units_Z 56
_cell_length_a 9.388547
_cell_length_b 19.958837
_cell_length_c 15.829110
_cell_angle_alpha 90.000000
_cell_angle_beta 90.000000
_cell_angle_gamma 90.000000
_cell_volume 2966.129534
_symmetry_space_group_name_H-M "P M N A"
_symmetry_group_IT_number 53
_symmetry_cell_setting 'orthorhombic'
loop_
_space_group_symop_operation_xyz
x,y,z
1/2-x,-y,1/2+z
x,-y,-z
1/2-x,y,1/2-z
-x,-y,-z
1/2+x,y,1/2-z
-x,y,z
1/2+x,-y,1/2+z
loop_
_atom_site_type_symbol
_atom_site_label
_atom_site_fract_x
_atom_site_fract_y
_atom_site_fract_z
Si Si1 0.666357 0.919833 0.002347
Si Si2 0.156966 0.746144 0.367985
Si Si3 0.837795 0.419835 0.993321
Si Si4 0.166280 0.304029 0.437887
Si Si5 0.331274 0.129803 0.666829
Si Si6 0.328566 0.169395 0.161267
Si Si7 0.341078 0.403728 0.825511
O O1 0.500000 0.901032 0.017177
O O2 0.764243 0.898212 0.080425
O O3 0.707648 0.883091 0.914355
O O4 0.673237 0.000000 0.000000
O O5 0.173829 0.728179 0.467497
O O6 0.285626 0.792307 0.339322
O O7 0.149768 0.676570 0.318616
O O8 0.000000 0.779163 0.356937
O O9 0.762563 0.370961 0.061637
O O10 0.000000 0.396027 0.981992
O O11 0.842487 0.500000 0.000000
O O12 0.742197 0.411887 0.911278
O O13 0.205650 0.244246 0.373921
O O14 0.000000 0.321978 0.424995
O O15 0.250000 0.102469 0.750000
O O16 0.500000 0.120286 0.672085
O O17 0.250000 0.156600 0.250000
O O18 0.500000 0.165964 0.173014
O O19 0.250000 0.433068 0.750000
O O20 0.500000 0.431225 0.828890
#
# Coordination Sequence:
#
# PCOD9416890 Si02
#       7
#     8   8   8   8   8   8   8
#     4  10  22  43  66  86 118 161 200 249 311 365
#     4   9  17  33  55  80 112 145 184 228 281 342
#     4  10  21  36  55  81 114 151 193 239 292 357
#     4   9  18  35  59  83 113 152 195 246 296 352
#     4  12  24  36  56  85 119 155 193 238 289 351
#     4  10  21  39  63  92 122 156 204 257 309 367
#     4  10  20  33  52  78 109 144 182 228 279 340
#
# _framework density 18.879823999999999
#
# number of rings (size 3 to 8) (size 9 to 14) (size 15 to 20)
#    0.000    2.000    1.429    3.429    0.000    7.143 
#    0.000    2.143    0.000    1.714    0.000    0.000 
#    0.000    0.000    0.000    0.000    0.000    0.000 
#
# Total GULP energy -312107.174532 kJ/mol
# GULP energy per Si atom -5573.342402 kJ/mol
# Density = 1.883685 g / cm^3
# Si number density = 18.879824 Si / 1000 Ang^3
#
#
#
# Elastic Constant Matrix: (Units=GPa)
#
#
# Indices 1 2 3 4 5 6 
#
# 1 142.3230 45.3812 68.8659 0.0000 0.0000 0.0000
# 2 45.3812 67.3445 31.4334 0.0000 0.0000 0.0000
# 3 68.8659 31.4334 113.0234 0.0000 0.0000 0.0000
# 4 0.0000 0.0000 0.0000 8.0518 0.0000 0.0000
# 5 0.0000 0.0000 0.0000 0.0000 6.7870 0.0000
# 6 0.0000 0.0000 0.0000 0.0000 0.0000 23.1006
#
#
#
# Elastic Compliance Matrix: (Units=1/GPa)
#
#
# Indices 1 2 3 4 5 6 
#
# 1 0.011284 -0.005050 -0.005471 0.000000 0.000000 0.000000
# 2 -0.005050 0.019324 -0.002297 0.000000 0.000000 0.000000
# 3 -0.005471 -0.002297 0.012820 0.000000 0.000000 0.000000
# 4 0.000000 0.000000 0.000000 0.124196 0.000000 0.000000
# 5 0.000000 0.000000 0.000000 0.000000 0.147340 0.000000
# 6 0.000000 0.000000 0.000000 0.000000 0.000000 0.043289
#
#
# Mechanical properties :
#
#
# Convention : Reuss Voigt Hill
#
# Bulk Modulus (GPa) = 56.20586 68.22800 62.21693
# Shear Modulus (GPa) = 12.82643 19.38857 16.10750
#
# Velocity S-wave (km/s) = 2.60930 3.20808 2.92406
# Velocity P-wave (km/s) = 6.23802 7.06674 6.66527
#
# Compressibility (1/GPa) = 0.01779174
#
# Stress axis : x y z
#
# Youngs Moduli (GPa) = 88.62343 51.74787 78.00339
#
# Poissons Ratio (x) = 0.26134 0.42673
# Poissons Ratio (y) = 0.44757 0.17919
# Poissons Ratio (z) = 0.48483 0.11888
#
# Static dielectric constant tensor:
#      x y z
#    x 1.655290 0.000000 0.000000 
#    y 0.000000 1.713420 0.000000 
#    z 0.000000 0.000000 1.573020 
# 
# From -- ./inp_files/20613.got.cif
#   From: 2010.05.17/outbox.cif.g08.bks.cpg/sg53_11_cif.got.tgz:20613.got - 2010.06.03 12:45:16.
