data_PCOD9416913
_publ_section_title
;
Structure prediction by ZEFSAII (Michael W. Deem and Ramdas Pophale) SiO2 
 PCOD9416913
Probable space group: P M N A
;
_chemical_formula_sum "Si O2"
_cell_formula_units_Z 64
_cell_length_a 9.404762
_cell_length_b 24.028281
_cell_length_c 14.875483
_cell_angle_alpha 90.000000
_cell_angle_beta 90.000000
_cell_angle_gamma 90.000000
_cell_volume 3361.565577
_symmetry_space_group_name_H-M "P M N A"
_symmetry_group_IT_number 53
_symmetry_cell_setting 'orthorhombic'
loop_
_space_group_symop_operation_xyz
x,y,z
1/2-x,-y,1/2+z
x,-y,-z
1/2-x,y,1/2-z
-x,-y,-z
1/2+x,y,1/2-z
-x,y,z
1/2+x,-y,1/2+z
loop_
_atom_site_type_symbol
_atom_site_label
_atom_site_fract_x
_atom_site_fract_y
_atom_site_fract_z
Si Si1 0.165340 0.066355 0.996298
Si Si2 0.840550 0.103994 0.333859
Si Si3 0.169857 0.848597 0.155811
Si Si4 0.661082 0.762426 0.835693
Si Si5 0.158804 0.472040 0.599057
Si Si6 0.833045 0.622658 0.022156
Si Si7 0.330044 0.593098 0.838696
Si Si8 0.832830 0.250961 0.980374
O O1 0.201118 0.095633 0.901853
O O2 0.000000 0.080814 0.014913
O O3 0.262795 0.090876 0.073824
O O4 0.178660 0.000000 0.000000
O O5 0.750000 0.082188 0.250000
O O6 0.848196 0.170721 0.325745
O O7 0.000000 0.081408 0.332287
O O8 0.250000 0.847158 0.250000
O O9 0.208145 0.796292 0.091347
O O10 0.000000 0.846164 0.171037
O O11 0.750000 0.741845 0.750000
O O12 0.500000 0.740254 0.836866
O O13 0.741932 0.752328 0.928793
O O14 0.155731 0.500000 0.500000
O O15 0.270379 0.422347 0.591660
O O16 0.188573 0.525879 0.658714
O O17 0.000000 0.450421 0.618280
O O18 0.744595 0.616081 0.929098
O O19 0.000000 0.611731 0.004715
O O20 0.818382 0.686056 0.055043
O O21 0.250000 0.613929 0.750000
O O22 0.500000 0.603592 0.839198
O O23 0.000000 0.241897 0.002702
#
# Coordination Sequence:
#
# PCOD9416913 Si02
#       8
#     8   8   8   8   8   8   8   8
#     4  10  21  38  61  88 117 151 190 234 288 343
#     4  10  20  34  55  83 114 148 184 226 277 336
#     4  10  22  41  63  84 113 150 191 240 285 336
#     4  10  20  33  54  82 110 145 187 229 278 339
#     4   8  16  32  51  72 101 137 176 218 267 321
#     4  10  20  33  53  79 106 139 182 227 277 334
#     4  10  20  34  53  78 109 144 181 223 276 333
#     4  10  21  38  58  81 112 152 193 239 289 337
#
# _framework density 19.03875
#
# number of rings (size 3 to 8) (size 9 to 14) (size 15 to 20)
#    0.000    2.250    1.250    2.250    0.000    7.000 
#    0.000    1.875    0.000    3.000    0.000    0.000 
#    0.000    0.000    0.000    0.000    0.000    0.000 
#
# Total GULP energy -357077.116372 kJ/mol
# GULP energy per Si atom -5579.329943 kJ/mol
# Density = 1.899542 g / cm^3
# Si number density = 19.038750 Si / 1000 Ang^3
#
#
#
# Elastic Constant Matrix: (Units=GPa)
#
#
# Indices 1 2 3 4 5 6 
#
# 1 105.7560 60.6728 71.4833 0.0000 0.0000 0.0000
# 2 60.6728 92.6196 44.7165 0.0000 0.0000 0.0000
# 3 71.4833 44.7165 108.7097 0.0000 0.0000 0.0000
# 4 0.0000 0.0000 0.0000 4.2736 0.0000 0.0000
# 5 0.0000 0.0000 0.0000 0.0000 27.5429 0.0000
# 6 0.0000 0.0000 0.0000 0.0000 0.0000 21.2180
#
#
#
# Elastic Compliance Matrix: (Units=1/GPa)
#
#
# Indices 1 2 3 4 5 6 
#
# 1 0.021940 -0.009243 -0.010625 0.000000 0.000000 0.000000
# 2 -0.009243 0.017366 -0.001066 0.000000 0.000000 0.000000
# 3 -0.010625 -0.001066 0.016624 0.000000 0.000000 0.000000
# 4 0.000000 0.000000 0.000000 0.233994 0.000000 0.000000
# 5 0.000000 0.000000 0.000000 0.000000 0.036307 0.000000
# 6 0.000000 0.000000 0.000000 0.000000 0.000000 0.047130
#
#
# Mechanical properties :
#
#
# Convention : Reuss Voigt Hill
#
# Bulk Modulus (GPa) = 71.10841 73.42560 72.26701
# Shear Modulus (GPa) = 11.90719 19.28778 15.59748
#
# Velocity S-wave (km/s) = 2.50355 3.18634 2.86536
# Velocity P-wave (km/s) = 6.76664 7.22407 6.99909
#
# Compressibility (1/GPa) = 0.01406303
#
# Stress axis : x y z
#
# Youngs Moduli (GPa) = 45.57883 57.58388 60.15469
#
# Poissons Ratio (x) = 0.53222 0.63915
# Poissons Ratio (y) = 0.42127 0.06411
# Poissons Ratio (z) = 0.48428 0.06137
#
# Static dielectric constant tensor:
#      x y z
#    x 1.659090 0.000000 0.000000 
#    y 0.000000 1.689970 0.000000 
#    z 0.000000 0.000000 1.632570 
# 
# From -- ./inp_files/21002.got.cif
#   From: 2010.05.17/outbox.cif.g08.bks.cpg/sg53_11_cif.got.tgz:21002.got - 2010.06.03 12:45:16.
