data_PCOD9416027
_publ_section_title
;
Structure prediction by ZEFSAII (Michael W. Deem and Ramdas Pophale) SiO2 
 PCOD9416027
Probable space group: P M N A
;
_chemical_formula_sum "Si O2"
_cell_formula_units_Z 64
_cell_length_a 8.736536
_cell_length_b 24.785135
_cell_length_c 14.919364
_cell_angle_alpha 90.000000
_cell_angle_beta 90.000000
_cell_angle_gamma 90.000000
_cell_volume 3230.582748
_symmetry_space_group_name_H-M "P M N A"
_symmetry_group_IT_number 53
_symmetry_cell_setting 'orthorhombic'
loop_
_space_group_symop_operation_xyz
x,y,z
1/2-x,-y,1/2+z
x,-y,-z
1/2-x,y,1/2-z
-x,-y,-z
1/2+x,y,1/2-z
-x,y,z
1/2+x,-y,1/2+z
loop_
_atom_site_type_symbol
_atom_site_label
_atom_site_fract_x
_atom_site_fract_y
_atom_site_fract_z
Si Si1 0.683989 0.635738 0.153615
Si Si2 0.320511 0.405079 0.342613
Si Si3 0.315843 0.024081 0.344862
Si Si4 0.816172 0.877979 0.971244
Si Si5 0.817147 0.680109 0.530828
Si Si6 0.178386 0.512647 0.394173
Si Si7 0.682858 0.224210 0.349778
Si Si8 0.182234 0.903789 0.344841
O O1 0.750000 0.649694 0.250000
O O2 0.500000 0.637362 0.156824
O O3 0.724677 0.573702 0.128678
O O4 0.733430 0.674588 0.072402
O O5 0.250000 0.384008 0.250000
O O6 0.500000 0.394029 0.347579
O O7 0.231081 0.375622 0.421996
O O8 0.285826 0.468489 0.348797
O O9 0.250000 0.044791 0.250000
O O10 0.500000 0.020187 0.339559
O O11 0.276063 0.065165 0.424183
O O12 0.246910 0.964658 0.357260
O O13 0.775492 0.830911 0.901561
O O14 0.000000 0.877328 0.984286
O O15 0.736413 0.872133 0.067137
O O16 0.741629 0.727133 0.588447
O O17 0.000000 0.685751 0.533713
O O18 0.185270 0.500000 0.500000
O O19 0.000000 0.504853 0.366445
O O20 0.750000 0.226410 0.250000
O O21 0.500000 0.226918 0.343114
O O22 0.250000 0.883902 0.250000
O O23 0.000000 0.905350 0.338895
#
# Coordination Sequence:
#
# PCOD9416027 Si02
#       8
#     8   8   8   8   8   8   8   8
#     4  10  22  39  62  87 117 155 193 238 289 345
#     4  12  24  37  57  86 117 153 194 237 288 347
#     4  10  19  33  55  84 121 162 200 243 294 354
#     4  10  22  39  59  85 120 158 198 244 299 355
#     4  11  23  43  64  85 115 154 196 242 296 349
#     4  10  19  37  59  84 120 157 190 232 288 345
#     4  11  24  43  66  93 121 152 190 242 297 352
#     4  11  22  36  57  85 120 160 203 248 295 348
#
# _framework density 19.810668
#
# number of rings (size 3 to 8) (size 9 to 14) (size 15 to 20)
#    0.000    1.375    1.250    5.625    0.000    6.250 
#    0.000    0.625    0.000    1.500    0.000    0.000 
#    0.000    0.000    0.000    0.000    0.000    0.000 
#
# Total GULP energy -357790.655785 kJ/mol
# GULP energy per Si atom -5590.478997 kJ/mol
# Density = 1.976558 g / cm^3
# Si number density = 19.810668 Si / 1000 Ang^3
#
#
#
# Elastic Constant Matrix: (Units=GPa)
#
#
# Indices 1 2 3 4 5 6 
#
# 1 48.8621 25.2689 46.9595 0.0000 0.0000 0.0000
# 2 25.2689 54.5813 48.2410 0.0000 0.0000 0.0000
# 3 46.9595 48.2410 182.1274 0.0000 0.0000 0.0000
# 4 0.0000 0.0000 0.0000 28.7313 0.0000 0.0000
# 5 0.0000 0.0000 0.0000 0.0000 33.3753 0.0000
# 6 0.0000 0.0000 0.0000 0.0000 0.0000 38.6982
#
#
#
# Elastic Compliance Matrix: (Units=1/GPa)
#
#
# Indices 1 2 3 4 5 6 
#
# 1 0.030473 -0.009353 -0.005380 0.000000 0.000000 0.000000
# 2 -0.009353 0.026792 -0.004685 0.000000 0.000000 0.000000
# 3 -0.005380 -0.004685 0.008119 0.000000 0.000000 0.000000
# 4 0.000000 0.000000 0.000000 0.034805 0.000000 0.000000
# 5 0.000000 0.000000 0.000000 0.000000 0.029962 0.000000
# 6 0.000000 0.000000 0.000000 0.000000 0.000000 0.025841
#
#
# Mechanical properties :
#
#
# Convention : Reuss Voigt Hill
#
# Bulk Modulus (GPa) = 37.66707 58.50106 48.08406
# Shear Modulus (GPa) = 24.54870 31.16772 27.85821
#
# Velocity S-wave (km/s) = 3.52400 3.97076 3.75403
# Velocity P-wave (km/s) = 5.96765 7.11455 6.56619
#
# Compressibility (1/GPa) = 0.02654839
#
# Stress axis : x y z
#
# Youngs Moduli (GPa) = 32.81616 37.32447 123.17226
#
# Poissons Ratio (x) = 0.34909 0.66263
# Poissons Ratio (y) = 0.30692 0.57707
# Poissons Ratio (z) = 0.17654 0.17487
#
# Static dielectric constant tensor:
#      x y z
#    x 1.665800 0.000000 0.000000 
#    y 0.000000 1.701910 0.000000 
#    z 0.000000 0.000000 1.701500 
# 
# From -- ./inp_files/20838.got.cif
#   From: 2010.05.17/outbox.cif.g08.bks.cpg/sg53_11_cif.got.tgz:20838.got - 2010.06.03 12:45:16.
