data_PCOD9416345
_publ_section_title
;
Structure prediction by ZEFSAII (Michael W. Deem and Ramdas Pophale) SiO2 
 PCOD9416345
Probable space group: P M N A
;
_chemical_formula_sum "Si O2"
_cell_formula_units_Z 64
_cell_length_a 19.429504
_cell_length_b 17.723007
_cell_length_c 10.678825
_cell_angle_alpha 90.000000
_cell_angle_beta 90.000000
_cell_angle_gamma 90.000000
_cell_volume 3677.245224
_symmetry_space_group_name_H-M "P M N A"
_symmetry_group_IT_number 53
_symmetry_cell_setting 'orthorhombic'
loop_
_space_group_symop_operation_xyz
x,y,z
1/2-x,-y,1/2+z
x,-y,-z
1/2-x,y,1/2-z
-x,-y,-z
1/2+x,y,1/2-z
-x,y,z
1/2+x,-y,1/2+z
loop_
_atom_site_type_symbol
_atom_site_label
_atom_site_fract_x
_atom_site_fract_y
_atom_site_fract_z
Si Si1 0.079357 0.302042 0.208546
Si Si2 0.921092 0.588346 0.027916
Si Si3 0.077388 0.943705 0.103121
Si Si4 0.144544 0.815133 0.980865
Si Si5 0.789007 0.677001 0.115668
Si Si6 0.788353 0.119002 0.427776
Si Si7 0.181801 0.958807 0.318738
Si Si8 0.700460 0.294521 0.128583
O O1 0.126035 0.323169 0.327387
O O2 0.000000 0.285153 0.238606
O O3 0.081061 0.367360 0.104081
O O4 0.116455 0.232552 0.136017
O O5 0.854766 0.620238 0.104139
O O6 0.000000 0.601221 0.078976
O O7 0.913636 0.500000 0.000000
O O8 0.083831 0.861652 0.042949
O O9 0.118456 0.946238 0.229788
O O10 0.000000 0.967472 0.125702
O O11 0.107999 0.000000 0.000000
O O12 0.177357 0.758437 0.083038
O O13 0.205921 0.871498 0.942002
O O14 0.750000 0.673754 0.250000
O O15 0.735996 0.670281 0.995953
O O16 0.821329 0.090764 0.557016
O O17 0.808267 0.204113 0.392141
O O18 0.808341 0.048322 0.341905
O O19 0.250000 0.931445 0.250000
O O20 0.750000 0.305574 0.250000
#
# Coordination Sequence:
#
# PCOD9416345 Si02
#       8
#     8   8   8   8   8   8   8   8
#     4  10  20  36  59  87 115 149 190 233 283 336
#     4   9  18  37  64  92 122 158 196 232 279 346
#     4  11  24  37  51  76 105 138 183 239 293 344
#     4  10  19  35  56  78 107 140 188 236 280 335
#     4  10  22  37  59  90 122 153 189 239 290 341
#     4  10  21  32  54  78  99 136 185 237 282 337
#     4  11  21  34  52  75 100 135 184 230 292 346
#     4  11  19  36  58  83 114 148 198 243 284 331
#
# _framework density 17.404333999999999
#
# number of rings (size 3 to 8) (size 9 to 14) (size 15 to 20)
#    0.000    1.750    5.000    1.500    5.250    0.500 
#    2.250    2.500    0.000    0.000    0.000    2.625 
#    0.000    0.000    0.000    0.000    0.000    0.000 
#
# Total GULP energy -356436.672895 kJ/mol
# GULP energy per Si atom -5569.323014 kJ/mol
# Density = 1.736472 g / cm^3
# Si number density = 17.404334 Si / 1000 Ang^3
#
#
#
# Elastic Constant Matrix: (Units=GPa)
#
#
# Indices 1 2 3 4 5 6 
#
# 1 105.2277 31.3343 47.8832 0.0000 0.0000 0.0000
# 2 31.3343 46.8399 16.6490 0.0000 0.0000 0.0000
# 3 47.8832 16.6490 102.7686 0.0000 0.0000 0.0000
# 4 0.0000 0.0000 0.0000 5.5024 0.0000 0.0000
# 5 0.0000 0.0000 0.0000 0.0000 28.8313 0.0000
# 6 0.0000 0.0000 0.0000 0.0000 0.0000 36.8794
#
#
#
# Elastic Compliance Matrix: (Units=1/GPa)
#
#
# Indices 1 2 3 4 5 6 
#
# 1 0.014220 -0.007595 -0.005395 0.000000 0.000000 0.000000
# 2 -0.007595 0.026710 -0.000788 0.000000 0.000000 0.000000
# 3 -0.005395 -0.000788 0.012372 0.000000 0.000000 0.000000
# 4 0.000000 0.000000 0.000000 0.181740 0.000000 0.000000
# 5 0.000000 0.000000 0.000000 0.000000 0.034685 0.000000
# 6 0.000000 0.000000 0.000000 0.000000 0.000000 0.027115
#
#
# Mechanical properties :
#
#
# Convention : Reuss Voigt Hill
#
# Bulk Modulus (GPa) = 38.84208 49.61880 44.23044
# Shear Modulus (GPa) = 15.01591 24.84060 19.92825
#
# Velocity S-wave (km/s) = 2.94048 3.78202 3.38748
# Velocity P-wave (km/s) = 5.82190 6.90238 6.38503
#
# Compressibility (1/GPa) = 0.02574528
#
# Stress axis : x y z
#
# Youngs Moduli (GPa) = 70.32476 37.43879 80.82723
#
# Poissons Ratio (x) = 0.28434 0.43607
# Poissons Ratio (y) = 0.53411 0.06373
# Poissons Ratio (z) = 0.37940 0.02952
#
# Static dielectric constant tensor:
#      x y z
#    x 1.618300 0.000000 0.000000 
#    y 0.000000 1.598050 0.000000 
#    z 0.000000 0.000000 1.596270 
# 
# From -- ./inp_files/17191.got.cif
#   From: 2010.05.17/outbox.cif.g08.bks.cpg/sg53_9_cif.got.tgz:17191.got - 2010.06.03 12:45:16.
