data_PCOD9416594
_publ_section_title
;
Structure prediction by ZEFSAII (Michael W. Deem and Ramdas Pophale) SiO2 
 PCOD9416594
Probable space group: P M N A
;
_chemical_formula_sum "Si O2"
_cell_formula_units_Z 40
_cell_length_a 7.756085
_cell_length_b 12.742117
_cell_length_c 18.468706
_cell_angle_alpha 90.000000
_cell_angle_beta 90.000000
_cell_angle_gamma 90.000000
_cell_volume 1825.242684
_symmetry_space_group_name_H-M "P M N A"
_symmetry_group_IT_number 53
_symmetry_cell_setting 'orthorhombic'
loop_
_space_group_symop_operation_xyz
x,y,z
1/2-x,-y,1/2+z
x,-y,-z
1/2-x,y,1/2-z
-x,-y,-z
1/2+x,y,1/2-z
-x,y,z
1/2+x,-y,1/2+z
loop_
_atom_site_type_symbol
_atom_site_label
_atom_site_fract_x
_atom_site_fract_y
_atom_site_fract_z
Si Si1 0.288738 0.230699 0.091164
Si Si2 0.197795 0.852677 0.437569
Si Si3 0.301385 0.326668 0.666614
Si Si4 0.708885 0.468778 0.081878
Si Si5 0.292772 0.028312 0.168878
O O1 0.500000 0.234271 0.089609
O O2 0.232364 0.350709 0.099215
O O3 0.235384 0.146794 0.151529
O O4 0.227751 0.184210 0.013994
O O5 0.198542 0.753063 0.384286
O O6 0.000000 0.882510 0.454004
O O7 0.275791 0.948861 0.392376
O O8 0.250000 0.318820 0.750000
O O9 0.500000 0.296775 0.658906
O O10 0.274612 0.443867 0.636990
O O11 0.500000 0.471345 0.083981
O O12 0.760567 0.500000 0.000000
O O13 0.250000 0.994641 0.250000
O O14 0.500000 0.026240 0.163528
#
# Coordination Sequence:
#
# PCOD9416594 Si02
#       5
#     8   8   8   8   8
#     4   9  18  35  61  88 113 149 194 236 286 351
#     4  10  19  37  62  86 113 149 195 241 291 345
#     4  12  25  39  58  86 120 154 196 242 294 345
#     4  10  19  37  63  87 116 152 192 237 290 348
#     4  10  21  36  57  84 117 153 192 237 287 347
#
# _framework density 21.914892999999999
#
# number of rings (size 3 to 8) (size 9 to 14) (size 15 to 20)
#    0.000    1.800    2.000    3.000    0.000    6.000 
#    0.000    4.000    0.000    2.400    0.000    0.000 
#    0.000    0.000    0.000    0.000    0.000    0.000 
#
# Total GULP energy -223552.084854 kJ/mol
# GULP energy per Si atom -5588.802121 kJ/mol
# Density = 2.186501 g / cm^3
# Si number density = 21.914893 Si / 1000 Ang^3
#
#
#
# Elastic Constant Matrix: (Units=GPa)
#
#
# Indices 1 2 3 4 5 6 
#
# 1 44.0072 -3.3100 -6.9794 0.0000 0.0000 0.0000
# 2 -3.3100 110.5443 -5.9417 0.0000 0.0000 0.0000
# 3 -6.9794 -5.9417 49.0331 0.0000 0.0000 0.0000
# 4 0.0000 0.0000 0.0000 539.9927 0.0000 0.0000
# 5 0.0000 0.0000 0.0000 0.0000 13.3750 0.0000
# 6 0.0000 0.0000 0.0000 0.0000 0.0000 -0.4449
#
#
#
# Elastic Compliance Matrix: (Units=1/GPa)
#
#
# Indices 1 2 3 4 5 6 
#
# 1 0.023334 0.000883 0.003428 0.000000 0.000000 0.000000
# 2 0.000883 0.009139 0.001233 0.000000 0.000000 0.000000
# 3 0.003428 0.001233 0.021032 0.000000 0.000000 0.000000
# 4 0.000000 0.000000 0.000000 0.001852 0.000000 0.000000
# 5 0.000000 0.000000 0.000000 0.000000 0.074766 0.000000
# 6 0.000000 0.000000 0.000000 0.000000 0.000000 -2.247816
#
#
# Mechanical properties :
#
#
# Convention : Reuss Voigt Hill
#
# Bulk Modulus (GPa) = 15.48152 19.01359 17.24756
# Shear Modulus (GPa) = -2.37276 125.23895 61.43309
#
# Velocity S-wave (km/s) = -1.04167 7.56782 5.30032
# Velocity P-wave (km/s) = 2.37339 9.22266 6.73389
#
# Compressibility (1/GPa) = 0.06459314
#
# Stress axis : x y z
#
# Youngs Moduli (GPa) = 42.85645 109.42279 47.54701
#
# Poissons Ratio (x) = -0.09661 -0.16301
# Poissons Ratio (y) = -0.03784 -0.05863
# Poissons Ratio (z) = -0.14693 -0.13493
#
# Static dielectric constant tensor:
#      x y z
#    x 1.817610 0.000000 0.000000 
#    y 0.000000 1.795560 0.000000 
#    z 0.000000 0.000000 1.769390 
# 
# From -- ./inp_files/25821.got.cif
#   From: 2010.05.17/outbox.cif.g08.bks.cpg/sg53_13_cif.got.tgz:25821.got - 2010.06.03 12:45:16.
