data_PCOD9416470
_publ_section_title
;
Structure prediction by ZEFSAII (Michael W. Deem and Ramdas Pophale) SiO2 
 PCOD9416470
Probable space group: P M N A
;
_chemical_formula_sum "Si O2"
_cell_formula_units_Z 48
_cell_length_a 15.187780
_cell_length_b 5.381761
_cell_length_c 25.059428
_cell_angle_alpha 90.000000
_cell_angle_beta 90.000000
_cell_angle_gamma 90.000000
_cell_volume 2048.282519
_symmetry_space_group_name_H-M "P M N A"
_symmetry_group_IT_number 53
_symmetry_cell_setting 'orthorhombic'
loop_
_space_group_symop_operation_xyz
x,y,z
1/2-x,-y,1/2+z
x,-y,-z
1/2-x,y,1/2-z
-x,-y,-z
1/2+x,y,1/2-z
-x,y,z
1/2+x,-y,1/2+z
loop_
_atom_site_type_symbol
_atom_site_label
_atom_site_fract_x
_atom_site_fract_y
_atom_site_fract_z
Si Si1 0.814269 0.806227 0.952168
Si Si2 0.500000 0.208467 0.201080
Si Si3 0.500000 0.621133 0.576587
Si Si4 0.500000 0.872475 0.355382
Si Si5 0.689611 0.859918 0.346646
Si Si6 0.814838 0.796530 0.711042
Si Si7 0.820111 0.513717 0.602254
Si Si8 0.500000 0.704855 0.130979
O O1 0.907996 0.666261 0.954127
O O2 0.722836 0.652392 0.947929
O O3 0.817948 0.944982 0.895164
O O4 0.809742 0.000000 0.000000
O O5 0.588848 0.176494 0.234968
O O6 0.500000 0.978063 0.157965
O O7 0.500000 0.489004 0.176627
O O8 0.500000 0.338955 0.598008
O O9 0.500000 0.844363 0.621624
O O10 0.591662 0.815278 0.326373
O O11 0.756689 0.965566 0.303645
O O12 0.736340 0.632864 0.374967
O O13 0.750000 0.644447 0.750000
O O14 0.837800 0.695237 0.652165
O O15 0.909070 0.349394 0.598269
#
# Coordination Sequence:
#
# PCOD9416470 Si02
#       8
#     8   4   4   4   8   8   8   4
#     4  10  21  36  57  87 121 158 204 250 302 364
#     4  10  20  39  61  89 116 157 199 241 290 361
#     4  10  19  36  56  85 120 162 200 240 292 364
#     4  10  20  35  58  86 120 156 200 244 301 355
#     4  10  20  37  58  82 118 159 195 246 301 356
#     4  10  22  38  61  87 120 152 199 245 299 360
#     4  10  20  38  60  85 114 159 199 250 303 353
#     4  10  20  38  65  85 113 156 208 243 293 362
#
# _framework density 23.434267999999999
#
# number of rings (size 3 to 8) (size 9 to 14) (size 15 to 20)
#    0.000    2.000    3.333    0.250    0.000    2.000 
#    0.000    3.750    0.000    1.000    0.000    0.000 
#    0.000    0.000    0.000    0.000    0.000    0.000 
#
# Total GULP energy -267511.050134 kJ/mol
# GULP energy per Si atom -5573.146878 kJ/mol
# Density = 2.338093 g / cm^3
# Si number density = 23.434268 Si / 1000 Ang^3
#
#
#
# Elastic Constant Matrix: (Units=GPa)
#
#
# Indices 1 2 3 4 5 6 
#
# 1 186.3373 2.4157 0.4692 0.0000 0.0000 0.0000
# 2 2.4157 63.5718 7.3882 0.0000 0.0000 0.0000
# 3 0.4692 7.3882 52.9286 0.0000 0.0000 0.0000
# 4 0.0000 0.0000 0.0000 19.1146 0.0000 0.0000
# 5 0.0000 0.0000 0.0000 0.0000 0.7409 0.0000
# 6 0.0000 0.0000 0.0000 0.0000 0.0000 52.6338
#
#
#
# Elastic Compliance Matrix: (Units=1/GPa)
#
#
# Indices 1 2 3 4 5 6 
#
# 1 0.005369 -0.000202 -0.000019 0.000000 0.000000 0.000000
# 2 -0.000202 0.015997 -0.002231 0.000000 0.000000 0.000000
# 3 -0.000019 -0.002231 0.019205 0.000000 0.000000 0.000000
# 4 0.000000 0.000000 0.000000 0.052316 0.000000 0.000000
# 5 0.000000 0.000000 0.000000 0.000000 1.349674 0.000000
# 6 0.000000 0.000000 0.000000 0.000000 0.000000 0.018999
#
#
# Mechanical properties :
#
#
# Convention : Reuss Voigt Hill
#
# Bulk Modulus (GPa) = 28.03741 35.93155 31.98448
# Shear Modulus (GPa) = 3.38214 34.00217 18.69216
#
# Velocity S-wave (km/s) = 1.20265 3.81328 2.82732
# Velocity P-wave (km/s) = 3.73078 5.89528 4.93321
#
# Compressibility (1/GPa) = 0.03566663
#
# Stress axis : x y z
#
# Youngs Moduli (GPa) = 186.24484 62.51090 52.06977
#
# Poissons Ratio (x) = 0.01261 0.00101
# Poissons Ratio (y) = 0.03758 0.11618
# Poissons Ratio (z) = 0.00362 0.13948
#
# Static dielectric constant tensor:
#      x y z
#    x 2.077310 0.000000 0.000000 
#    y 0.000000 1.996980 0.000000 
#    z 0.000000 0.000000 2.135570 
# 
# From -- ./inp_files/37033.got.cif
#   From: 2010.05.17/outbox.cif.g08.bks.cpg/sg53_19_cif.got.tgz:37033.got - 2010.06.03 12:45:16.
