data_PCOD9416293
_publ_section_title
;
Structure prediction by ZEFSAII (Michael W. Deem and Ramdas Pophale) SiO2 
 PCOD9416293
Probable space group: P M N A
;
_chemical_formula_sum "Si O2"
_cell_formula_units_Z 64
_cell_length_a 8.731335
_cell_length_b 12.161079
_cell_length_c 31.701518
_cell_angle_alpha 90.000000
_cell_angle_beta 90.000000
_cell_angle_gamma 90.000000
_cell_volume 3366.144999
_symmetry_space_group_name_H-M "P M N A"
_symmetry_group_IT_number 53
_symmetry_cell_setting 'orthorhombic'
loop_
_space_group_symop_operation_xyz
x,y,z
1/2-x,-y,1/2+z
x,-y,-z
1/2-x,y,1/2-z
-x,-y,-z
1/2+x,y,1/2-z
-x,y,z
1/2+x,-y,1/2+z
loop_
_atom_site_type_symbol
_atom_site_label
_atom_site_fract_x
_atom_site_fract_y
_atom_site_fract_z
Si Si1 0.683473 0.634918 0.626577
Si Si2 0.184767 0.620358 0.124031
Si Si3 0.184506 0.239528 0.794709
Si Si4 0.315478 0.240028 0.952359
Si Si5 0.315828 0.764852 0.952381
Si Si6 0.682892 0.004846 0.322371
Si Si7 0.183593 0.997519 0.415754
Si Si8 0.181955 0.766455 0.705763
O O1 0.500000 0.641960 0.629667
O O2 0.729396 0.507046 0.626508
O O3 0.738280 0.692877 0.583730
O O4 0.755444 0.697912 0.666237
O O5 0.235812 0.687047 0.165647
O O6 0.248377 0.678837 0.082448
O O7 0.000000 0.625876 0.122697
O O8 0.250000 0.276670 0.750000
O O9 0.000000 0.243418 0.793248
O O10 0.229516 0.112790 0.803245
O O11 0.500000 0.247315 0.951476
O O12 0.275341 0.114900 0.939479
O O13 0.265493 0.263229 0.000212
O O14 0.500000 0.750361 0.949653
O O15 0.284696 0.893238 0.942628
O O16 0.500000 0.017230 0.318133
O O17 0.729111 0.004143 0.371504
O O18 0.764683 0.107815 0.300964
O O19 0.000000 0.995582 0.407428
O O20 0.250000 0.725800 0.750000
O O21 0.000000 0.761454 0.706725
#
# Coordination Sequence:
#
# PCOD9416293 Si02
#       8
#     8   8   8   8   8   8   8   8
#     4  11  24  42  63  86 117 158 206 252 300 355
#     4  10  23  43  61  83 118 158 201 252 302 351
#     4  10  22  39  60  87 119 153 191 240 293 350
#     4  10  21  37  61  91 121 158 201 245 298 361
#     4  10  21  38  60  89 124 158 197 247 301 356
#     4  11  21  36  61  91 124 157 195 239 294 358
#     4  10  19  34  59  89 122 158 195 241 301 359
#     4  12  25  42  64  91 124 158 197 244 297 356
#
# _framework density 19.012848000000002
#
# number of rings (size 3 to 8) (size 9 to 14) (size 15 to 20)
#    0.000    1.500    2.500    2.625    0.000    6.500 
#    0.000    3.750    0.000    2.250    0.000    0.000 
#    0.000    0.000    0.000    0.000    0.000    0.000 
#
# Total GULP energy -357761.087523 kJ/mol
# GULP energy per Si atom -5590.016993 kJ/mol
# Density = 1.896957 g / cm^3
# Si number density = 19.012848 Si / 1000 Ang^3
#
#
#
# Elastic Constant Matrix: (Units=GPa)
#
#
# Indices 1 2 3 4 5 6 
#
# 1 43.2657 47.8101 47.6326 0.0000 0.0000 0.0000
# 2 47.8101 144.5074 80.8418 0.0000 0.0000 0.0000
# 3 47.6326 80.8418 186.6438 0.0000 0.0000 0.0000
# 4 0.0000 0.0000 0.0000 46.7152 0.0000 0.0000
# 5 0.0000 0.0000 0.0000 0.0000 34.9968 0.0000
# 6 0.0000 0.0000 0.0000 0.0000 0.0000 15.5608
#
#
#
# Elastic Compliance Matrix: (Units=1/GPa)
#
#
# Indices 1 2 3 4 5 6 
#
# 1 0.041046 -0.010189 -0.006062 0.000000 0.000000 0.000000
# 2 -0.010189 0.011662 -0.002451 0.000000 0.000000 0.000000
# 3 -0.006062 -0.002451 0.007967 0.000000 0.000000 0.000000
# 4 0.000000 0.000000 0.000000 0.021406 0.000000 0.000000
# 5 0.000000 0.000000 0.000000 0.000000 0.028574 0.000000
# 6 0.000000 0.000000 0.000000 0.000000 0.000000 0.064264
#
#
# Mechanical properties :
#
#
# Convention : Reuss Voigt Hill
#
# Bulk Modulus (GPa) = 42.97226 80.77625 61.87426
# Shear Modulus (GPa) = 22.71911 32.66339 27.69125
#
# Velocity S-wave (km/s) = 3.46053 4.14933 3.82049
# Velocity P-wave (km/s) = 6.21432 8.09526 7.21634
#
# Compressibility (1/GPa) = 0.02327083
#
# Stress axis : x y z
#
# Youngs Moduli (GPa) = 24.36310 85.74739 125.52526
#
# Poissons Ratio (x) = 0.87365 0.76094
# Poissons Ratio (y) = 0.24823 0.30767
# Poissons Ratio (z) = 0.14769 0.21017
#
# Static dielectric constant tensor:
#      x y z
#    x 1.642490 0.000000 0.000000 
#    y 0.000000 1.646350 0.000000 
#    z 0.000000 0.000000 1.638430 
# 
# From -- ./inp_files/38275.got.cif
#   From: 2010.05.17/outbox.cif.g08.bks.cpg/sg53_20_cif.got.tgz:38275.got - 2010.06.03 12:45:16.
