data_PCOD9416615
_publ_section_title
;
Structure prediction by ZEFSAII (Michael W. Deem and Ramdas Pophale) SiO2 
 PCOD9416615
Probable space group: P M N A
;
_chemical_formula_sum "Si O2"
_cell_formula_units_Z 48
_cell_length_a 14.234244
_cell_length_b 17.711430
_cell_length_c 10.082282
_cell_angle_alpha 90.000000
_cell_angle_beta 90.000000
_cell_angle_gamma 90.000000
_cell_volume 2541.832180
_symmetry_space_group_name_H-M "P M N A"
_symmetry_group_IT_number 53
_symmetry_cell_setting 'orthorhombic'
loop_
_space_group_symop_operation_xyz
x,y,z
1/2-x,-y,1/2+z
x,-y,-z
1/2-x,y,1/2-z
-x,-y,-z
1/2+x,y,1/2-z
-x,y,z
1/2+x,-y,1/2+z
loop_
_atom_site_type_symbol
_atom_site_label
_atom_site_fract_x
_atom_site_fract_y
_atom_site_fract_z
Si Si1 0.681414 0.839275 0.876748
Si Si2 0.233686 0.429970 0.904362
Si Si3 0.390553 0.691257 0.032437
Si Si4 0.804151 0.860375 0.114066
Si Si5 0.500000 0.055073 0.622979
Si Si6 0.500000 0.946059 0.870152
Si Si7 0.106901 0.292010 0.847621
O O1 0.750000 0.829107 0.750000
O O2 0.590493 0.891660 0.856089
O O3 0.645224 0.759205 0.938212
O O4 0.742381 0.882031 0.988890
O O5 0.250000 0.452695 0.750000
O O6 0.321482 0.381114 0.962698
O O7 0.146797 0.372131 0.892574
O O8 0.216558 0.500000 0.000000
O O9 0.500000 0.673473 0.000512
O O10 0.389853 0.716576 0.187636
O O11 0.750000 0.875662 0.250000
O O12 0.823823 0.771280 0.098765
O O13 0.906099 0.896271 0.119092
O O14 0.500000 0.000000 0.500000
O O15 0.500000 0.005037 0.752411
O O16 0.500000 0.000000 0.000000
O O17 0.000000 0.281237 0.890768
#
# Coordination Sequence:
#
# PCOD9416615 Si02
#       7
#     8   8   8   8   4   4   8
#     4  12  25  41  66  94 134 167 213 273 330 381
#     4  10  21  39  63  96 133 164 212 270 317 376
#     4  10  20  39  67  92 121 172 221 253 305 387
#     4  12  22  41  71  92 118 174 226 259 313 391
#     4  12  28  44  62  94 137 164 208 279 336 376
#     4  12  28  46  64  96 131 172 217 270 328 394
#     4  10  19  37  67  97 120 163 226 265 299 380
#
# _framework density 18.884017
#
# number of rings (size 3 to 8) (size 9 to 14) (size 15 to 20)
#    0.000    1.000    5.000    2.500    0.000    5.333 
#    0.000    0.000    0.000    0.000    0.000    0.000 
#    0.000    0.000    0.000    0.000    0.000    0.000 
#
# Total GULP energy -268018.247013 kJ/mol
# GULP energy per Si atom -5583.713479 kJ/mol
# Density = 1.884104 g / cm^3
# Si number density = 18.884017 Si / 1000 Ang^3
#
#
#
# Elastic Constant Matrix: (Units=GPa)
#
#
# Indices 1 2 3 4 5 6 
#
# 1 137.2150 24.0629 41.4082 0.0000 0.0000 0.0000
# 2 24.0629 73.6430 38.2403 0.0000 0.0000 0.0000
# 3 41.4082 38.2403 84.4361 0.0000 0.0000 0.0000
# 4 0.0000 0.0000 0.0000 13.4180 0.0000 0.0000
# 5 0.0000 0.0000 0.0000 0.0000 23.7058 0.0000
# 6 0.0000 0.0000 0.0000 0.0000 0.0000 23.3922
#
#
#
# Elastic Compliance Matrix: (Units=1/GPa)
#
#
# Indices 1 2 3 4 5 6 
#
# 1 0.008591 -0.000810 -0.003846 0.000000 0.000000 0.000000
# 2 -0.000810 0.017831 -0.007678 0.000000 0.000000 0.000000
# 3 -0.003846 -0.007678 0.017207 0.000000 0.000000 0.000000
# 4 0.000000 0.000000 0.000000 0.074527 0.000000 0.000000
# 5 0.000000 0.000000 0.000000 0.000000 0.042184 0.000000
# 6 0.000000 0.000000 0.000000 0.000000 0.000000 0.042749
#
#
# Mechanical properties :
#
#
# Convention : Reuss Voigt Hill
#
# Bulk Modulus (GPa) = 52.74326 55.85743 54.30035
# Shear Modulus (GPa) = 21.36061 24.87538 23.11799
#
# Velocity S-wave (km/s) = 3.36690 3.63336 3.50267
# Velocity P-wave (km/s) = 6.56547 6.87351 6.72126
#
# Compressibility (1/GPa) = 0.01895977
#
# Stress axis : x y z
#
# Youngs Moduli (GPa) = 116.40752 56.08327 58.11659
#
# Poissons Ratio (x) = 0.04542 0.22352
# Poissons Ratio (y) = 0.09427 0.44623
# Poissons Ratio (z) = 0.44772 0.43062
#
# Static dielectric constant tensor:
#      x y z
#    x 11.797430 0.000000 0.000000 
#    y 0.000000 1.650440 0.000000 
#    z 0.000000 0.000000 1.639010 
# 
# From -- ./inp_files/8708.got.cif
#   From: 2010.05.17/outbox.cif.g08.bks.cpg/sg53_5_cif.got.tgz:8708.got - 2010.06.03 12:45:16.
