data_PCOD9416918
_publ_section_title
;
Structure prediction by ZEFSAII (Michael W. Deem and Ramdas Pophale) SiO2 
 PCOD9416918
Probable space group: P M N A
;
_chemical_formula_sum "Si O2"
_cell_formula_units_Z 48
_cell_length_a 8.702898
_cell_length_b 16.478108
_cell_length_c 18.926506
_cell_angle_alpha 90.000000
_cell_angle_beta 90.000000
_cell_angle_gamma 90.000000
_cell_volume 2714.198994
_symmetry_space_group_name_H-M "P M N A"
_symmetry_group_IT_number 53
_symmetry_cell_setting 'orthorhombic'
loop_
_space_group_symop_operation_xyz
x,y,z
1/2-x,-y,1/2+z
x,-y,-z
1/2-x,y,1/2-z
-x,-y,-z
1/2+x,y,1/2-z
-x,y,z
1/2+x,-y,1/2+z
loop_
_atom_site_type_symbol
_atom_site_label
_atom_site_fract_x
_atom_site_fract_y
_atom_site_fract_z
Si Si1 0.315296 0.083265 0.536507
Si Si2 0.315435 0.332912 0.906356
Si Si3 0.183884 0.750393 0.957578
Si Si4 0.316591 0.337639 0.172024
Si Si5 0.183470 0.166020 0.672313
Si Si6 0.816048 0.512489 0.171354
O O1 0.500000 0.079760 0.544904
O O2 0.280023 0.159376 0.485573
O O3 0.244284 0.104349 0.612607
O O4 0.263378 0.000000 0.500000
O O5 0.500000 0.339650 0.908145
O O6 0.274158 0.256640 0.855452
O O7 0.241724 0.414902 0.877526
O O8 0.251319 0.309541 0.982986
O O9 0.259583 0.728650 0.883430
O O10 0.000000 0.741712 0.953475
O O11 0.250000 0.322331 0.250000
O O12 0.500000 0.341815 0.174959
O O13 0.249763 0.425172 0.148694
O O14 0.250000 0.151912 0.750000
O O15 0.000000 0.161728 0.674865
O O16 0.750000 0.527164 0.250000
O O17 0.000000 0.509464 0.173863
#
# Coordination Sequence:
#
# PCOD9416918 Si02
#       6
#     8   8   8   8   8   8
#     4   9  19  37  60  83 109 140 173 214 266 321
#     4  10  20  34  52  78 109 142 179 218 263 313
#     4  10  20  36  57  81 107 136 173 216 265 319
#     4  11  22  38  57  77 104 139 180 223 266 311
#     4  10  20  33  53  80 111 144 178 217 261 313
#     4  11  21  34  52  76 106 142 182 222 266 311
#
# _framework density 17.684775999999999
#
# number of rings (size 3 to 8) (size 9 to 14) (size 15 to 20)
#    0.000    1.833    0.000    6.000    0.000    5.000 
#    0.000    4.167    0.000    0.000    0.000    0.000 
#    0.000    0.000    0.000    0.000    0.000    0.000 
#
# Total GULP energy -268131.393756 kJ/mol
# GULP energy per Si atom -5586.070703 kJ/mol
# Density = 1.764452 g / cm^3
# Si number density = 17.684776 Si / 1000 Ang^3
#
#
#
# Elastic Constant Matrix: (Units=GPa)
#
#
# Indices 1 2 3 4 5 6 
#
# 1 104.9419 48.9450 56.3113 0.0000 0.0000 0.0000
# 2 48.9450 77.9911 77.7253 0.0000 0.0000 0.0000
# 3 56.3113 77.7253 127.4468 0.0000 0.0000 0.0000
# 4 0.0000 0.0000 0.0000 24.3593 0.0000 0.0000
# 5 0.0000 0.0000 0.0000 0.0000 34.8498 0.0000
# 6 0.0000 0.0000 0.0000 0.0000 0.0000 24.2354
#
#
#
# Elastic Compliance Matrix: (Units=1/GPa)
#
#
# Indices 1 2 3 4 5 6 
#
# 1 0.013682 -0.006531 -0.002062 0.000000 0.000000 0.000000
# 2 -0.006531 0.035809 -0.018953 0.000000 0.000000 0.000000
# 3 -0.002062 -0.018953 0.020316 0.000000 0.000000 0.000000
# 4 0.000000 0.000000 0.000000 0.041052 0.000000 0.000000
# 5 0.000000 0.000000 0.000000 0.000000 0.028695 0.000000
# 6 0.000000 0.000000 0.000000 0.000000 0.000000 0.041262
#
#
# Mechanical properties :
#
#
# Convention : Reuss Voigt Hill
#
# Bulk Modulus (GPa) = 67.95936 75.14922 71.55429
# Shear Modulus (GPa) = 20.76297 25.18211 22.97254
#
# Velocity S-wave (km/s) = 3.43017 3.77761 3.60808
# Velocity P-wave (km/s) = 7.36204 7.84940 7.60963
#
# Compressibility (1/GPa) = 0.01471468
#
# Stress axis : x y z
#
# Youngs Moduli (GPa) = 73.09016 27.92570 49.22184
#
# Poissons Ratio (x) = 0.18239 0.10149
# Poissons Ratio (y) = 0.47738 0.93290
# Poissons Ratio (z) = 0.15070 0.52928
#
# Static dielectric constant tensor:
#      x y z
#    x 1.589160 0.000000 0.000000 
#    y 0.000000 1.594250 0.000000 
#    z 0.000000 0.000000 1.587710 
# 
# From -- ./inp_files/20224.got.cif
#   From: 2010.05.17/outbox.cif.g08.bks.cpg/sg53_11_cif.got.tgz:20224.got - 2010.06.03 12:45:16.
