data_PCOD9416989
_publ_section_title
;
Structure prediction by ZEFSAII (Michael W. Deem and Ramdas Pophale) SiO2 
 PCOD9416989
Probable space group: P M N A
;
_chemical_formula_sum "Si O2"
_cell_formula_units_Z 58
_cell_length_a 7.480068
_cell_length_b 13.030830
_cell_length_c 26.771442
_cell_angle_alpha 90.000000
_cell_angle_beta 90.000000
_cell_angle_gamma 90.000000
_cell_volume 2609.452462
_symmetry_space_group_name_H-M "P M N A"
_symmetry_group_IT_number 53
_symmetry_cell_setting 'orthorhombic'
loop_
_space_group_symop_operation_xyz
x,y,z
1/2-x,-y,1/2+z
x,-y,-z
1/2-x,y,1/2-z
-x,-y,-z
1/2+x,y,1/2-z
-x,y,z
1/2+x,-y,1/2+z
loop_
_atom_site_type_symbol
_atom_site_label
_atom_site_fract_x
_atom_site_fract_y
_atom_site_fract_z
Si Si1 0.280836 0.043613 0.585377
Si Si2 0.804175 0.008853 0.194701
Si Si3 0.711968 0.539245 0.804946
Si Si4 0.283956 0.264767 0.544175
Si Si5 0.717486 0.706063 0.566193
Si Si6 0.206251 0.476845 0.912067
Si Si7 0.793562 0.232175 0.324875
Si Si8 0.500000 0.000000 0.000000
O O1 0.500000 0.023762 0.579708
O O2 0.244294 0.164431 0.575783
O O3 0.159390 0.990271 0.543603
O O4 0.216982 0.017607 0.641591
O O5 0.750000 0.974853 0.250000
O O6 0.803326 0.132621 0.195194
O O7 0.000000 0.965034 0.188016
O O8 0.750000 0.497771 0.750000
O O9 0.500000 0.544350 0.812597
O O10 0.787173 0.478076 0.851971
O O11 0.780488 0.657067 0.808033
O O12 0.500000 0.271397 0.542857
O O13 0.223173 0.251970 0.487088
O O14 0.215522 0.372641 0.565861
O O15 0.500000 0.707758 0.568441
O O16 0.779938 0.587231 0.571006
O O17 0.782144 0.764719 0.615032
O O18 0.000000 0.479603 0.928528
O O19 0.000000 0.224720 0.309436
#
# Coordination Sequence:
#
# PCOD9416989 Si02
#       8
#     8   8   8   8   8   8   8   2
#     4  10  25  44  65  97 128 165 212 265 319 381
#     4  11  24  41  63  87 121 162 207 261 315 376
#     4  10  20  34  51  77 109 145 186 240 292 347
#     4   9  18  36  58  81 117 154 192 242 295 353
#     4   9  17  30  54  85 115 152 193 233 285 356
#     4   9  17  32  55  81 110 148 190 232 285 350
#     4  10  21  34  54  83 117 151 194 240 300 367
#     4  12  26  44  72  94 130 168 210 266 328 382
#
# _framework density 22.226883999999998
#
# number of rings (size 3 to 8) (size 9 to 14) (size 15 to 20)
#    0.000    2.207    0.000    2.276    3.862    4.414 
#    1.241    0.690    0.000    4.966    0.000    0.000 
#    0.000    0.000    0.000    0.000    0.000    0.000 
#
# Total GULP energy -323280.028212 kJ/mol
# GULP energy per Si atom -5573.793590 kJ/mol
# Density = 2.217629 g / cm^3
# Si number density = 22.226884 Si / 1000 Ang^3
#
#
#
# Elastic Constant Matrix: (Units=GPa)
#
#
# Indices 1 2 3 4 5 6 
#
# 1 88.8638 3.4420 15.5481 0.0000 0.0000 0.0000
# 2 3.4420 54.0447 38.5516 0.0000 0.0000 0.0000
# 3 15.5481 38.5516 182.4998 0.0000 0.0000 0.0000
# 4 0.0000 0.0000 0.0000 17.1973 0.0000 0.0000
# 5 0.0000 0.0000 0.0000 0.0000 22.9589 0.0000
# 6 0.0000 0.0000 0.0000 0.0000 0.0000 2.0892
#
#
#
# Elastic Compliance Matrix: (Units=1/GPa)
#
#
# Indices 1 2 3 4 5 6 
#
# 1 0.011424 -0.000039 -0.000965 0.000000 0.000000 0.000000
# 2 -0.000039 0.021786 -0.004599 0.000000 0.000000 0.000000
# 3 -0.000965 -0.004599 0.006533 0.000000 0.000000 0.000000
# 4 0.000000 0.000000 0.000000 0.058149 0.000000 0.000000
# 5 0.000000 0.000000 0.000000 0.000000 0.043556 0.000000
# 6 0.000000 0.000000 0.000000 0.000000 0.000000 0.478641
#
#
# Mechanical properties :
#
#
# Convention : Reuss Voigt Hill
#
# Bulk Modulus (GPa) = 35.04235 48.94350 41.99293
# Shear Modulus (GPa) = 7.80266 26.30687 17.05477
#
# Velocity S-wave (km/s) = 1.87566 3.44402 2.77303
# Velocity P-wave (km/s) = 4.52667 6.15490 5.40248
#
# Compressibility (1/GPa) = 0.02853690
#
# Stress axis : x y z
#
# Youngs Moduli (GPa) = 87.53868 45.90068 153.06610
#
# Poissons Ratio (x) = 0.00180 0.14770
# Poissons Ratio (y) = 0.00343 0.70392
# Poissons Ratio (z) = 0.08447 0.21109
#
# Static dielectric constant tensor:
#      x y z
#    x 1.866860 0.000000 0.000000 
#    y 0.000000 1.815530 0.000000 
#    z 0.000000 0.000000 1.840190 
# 
# From -- ./inp_files/34125.got.cif
#   From: 2010.05.17/outbox.cif.g08.bks.cpg/sg53_18_cif.got.tgz:34125.got - 2010.06.03 12:45:16.
