data_PCOD9416648
_publ_section_title
;
Structure prediction by ZEFSAII (Michael W. Deem and Ramdas Pophale) SiO2 
 PCOD9416648
Probable space group: P M N A
;
_chemical_formula_sum "Si O2"
_cell_formula_units_Z 48
_cell_length_a 8.626068
_cell_length_b 15.478594
_cell_length_c 19.391392
_cell_angle_alpha 90.000000
_cell_angle_beta 90.000000
_cell_angle_gamma 90.000000
_cell_volume 2589.127110
_symmetry_space_group_name_H-M "P M N A"
_symmetry_group_IT_number 53
_symmetry_cell_setting 'orthorhombic'
loop_
_space_group_symop_operation_xyz
x,y,z
1/2-x,-y,1/2+z
x,-y,-z
1/2-x,y,1/2-z
-x,-y,-z
1/2+x,y,1/2-z
-x,y,z
1/2+x,-y,1/2+z
loop_
_atom_site_type_symbol
_atom_site_label
_atom_site_fract_x
_atom_site_fract_y
_atom_site_fract_z
Si Si1 0.313530 0.279431 0.421986
Si Si2 0.815583 0.871904 0.673005
Si Si3 0.185962 0.470768 0.422375
Si Si4 0.188414 0.220827 0.924451
Si Si5 0.313592 0.377575 0.672855
Si Si6 0.186841 0.975706 0.079485
O O1 0.500000 0.280305 0.420476
O O2 0.252282 0.210868 0.366975
O O3 0.250225 0.375177 0.409549
O O4 0.263228 0.248779 0.498635
O O5 0.750000 0.876082 0.750000
O O6 0.000000 0.866013 0.674958
O O7 0.764350 0.956251 0.630207
O O8 0.230382 0.500000 0.500000
O O9 0.253722 0.539465 0.368829
O O10 0.000000 0.470360 0.417938
O O11 0.238337 0.292318 0.869379
O O12 0.237456 0.123107 0.908620
O O13 0.000000 0.220152 0.924927
O O14 0.250000 0.376721 0.750000
O O15 0.500000 0.378825 0.673972
O O16 0.000000 0.981361 0.087977
O O17 0.220262 0.000000 0.000000
#
# Coordination Sequence:
#
# PCOD9416648 Si02
#       6
#     8   8   8   8   8   8
#     4  11  21  40  67  94 122 163 209 254 308 372
#     4  12  26  43  62  92 129 166 207 259 316 370
#     4  11  23  39  62  95 128 161 204 257 309 367
#     4   9  19  36  63  93 123 161 206 249 304 367
#     4  11  23  41  62  90 126 166 208 255 311 368
#     4  10  19  38  66  94 125 164 207 253 306 370
#
# _framework density 18.539066999999999
#
# number of rings (size 3 to 8) (size 9 to 14) (size 15 to 20)
#    0.000    1.333    3.333    3.000    0.000    2.333 
#    0.000    6.667    0.000    0.000    0.000    0.000 
#    0.000    0.000    0.000    0.000    0.000    0.000 
#
# Total GULP energy -268355.578313 kJ/mol
# GULP energy per Si atom -5590.741215 kJ/mol
# Density = 1.849687 g / cm^3
# Si number density = 18.539067 Si / 1000 Ang^3
#
#
#
# Elastic Constant Matrix: (Units=GPa)
#
#
# Indices 1 2 3 4 5 6 
#
# 1 71.0043 56.5877 60.0536 0.0000 0.0000 0.0000
# 2 56.5877 213.4539 105.3827 0.0000 0.0000 0.0000
# 3 60.0536 105.3827 174.6649 0.0000 0.0000 0.0000
# 4 0.0000 0.0000 0.0000 33.1173 0.0000 0.0000
# 5 0.0000 0.0000 0.0000 0.0000 23.2611 0.0000
# 6 0.0000 0.0000 0.0000 0.0000 0.0000 26.6498
#
#
#
# Elastic Compliance Matrix: (Units=1/GPa)
#
#
# Indices 1 2 3 4 5 6 
#
# 1 0.021012 -0.002854 -0.005503 0.000000 0.000000 0.000000
# 2 -0.002854 0.007060 -0.003278 0.000000 0.000000 0.000000
# 3 -0.005503 -0.003278 0.009595 0.000000 0.000000 0.000000
# 4 0.000000 0.000000 0.000000 0.030196 0.000000 0.000000
# 5 0.000000 0.000000 0.000000 0.000000 0.042990 0.000000
# 6 0.000000 0.000000 0.000000 0.000000 0.000000 0.037524
#
#
# Mechanical properties :
#
#
# Convention : Reuss Voigt Hill
#
# Bulk Modulus (GPa) = 69.45601 100.35234 84.90417
# Shear Modulus (GPa) = 28.33743 32.41227 30.37485
#
# Velocity S-wave (km/s) = 3.91388 4.18583 4.05214
# Velocity P-wave (km/s) = 7.61384 8.80961 8.23346
#
# Compressibility (1/GPa) = 0.01439760
#
# Stress axis : x y z
#
# Youngs Moduli (GPa) = 47.59210 141.64447 104.21941
#
# Poissons Ratio (x) = 0.40421 0.57348
# Poissons Ratio (y) = 0.13581 0.34167
# Poissons Ratio (z) = 0.26188 0.46436
#
# Static dielectric constant tensor:
#      x y z
#    x 1.627380 0.000000 0.000000 
#    y 0.000000 1.616450 0.000000 
#    z 0.000000 0.000000 1.605420 
# 
# From -- ./inp_files/26207.got.cif
#   From: 2010.05.17/outbox.cif.g08.bks.cpg/sg53_14_cif.got.tgz:26207.got - 2010.06.03 12:45:16.
