data_PCOD9416972
_publ_section_title
;
Structure prediction by ZEFSAII (Michael W. Deem and Ramdas Pophale) SiO2 
 PCOD9416972
Probable space group: P M N A
;
_chemical_formula_sum "Si O2"
_cell_formula_units_Z 64
_cell_length_a 8.563665
_cell_length_b 15.844567
_cell_length_c 23.549647
_cell_angle_alpha 90.000000
_cell_angle_beta 90.000000
_cell_angle_gamma 90.000000
_cell_volume 3195.394231
_symmetry_space_group_name_H-M "P M N A"
_symmetry_group_IT_number 53
_symmetry_cell_setting 'orthorhombic'
loop_
_space_group_symop_operation_xyz
x,y,z
1/2-x,-y,1/2+z
x,-y,-z
1/2-x,y,1/2-z
-x,-y,-z
1/2+x,y,1/2-z
-x,y,z
1/2+x,-y,1/2+z
loop_
_atom_site_type_symbol
_atom_site_label
_atom_site_fract_x
_atom_site_fract_y
_atom_site_fract_z
Si Si1 0.684355 0.454961 0.812894
Si Si2 0.322889 0.404637 0.498783
Si Si3 0.190482 0.200688 0.128044
Si Si4 0.687732 0.971984 0.686520
Si Si5 0.175296 0.382247 0.135762
Si Si6 0.812050 0.119194 0.607211
Si Si7 0.810516 0.218766 0.996589
Si Si8 0.311532 0.727511 0.186193
O O1 0.750000 0.463973 0.750000
O O2 0.500000 0.450327 0.809702
O O3 0.731608 0.535899 0.847530
O O4 0.741449 0.364471 0.835722
O O5 0.251247 0.500000 0.500000
O O6 0.500000 0.414007 0.522847
O O7 0.335564 0.383071 0.432197
O O8 0.254381 0.314640 0.520785
O O9 0.243410 0.291340 0.152100
O O10 0.000000 0.203553 0.128059
O O11 0.238488 0.121052 0.165302
O O12 0.236715 0.197069 0.061540
O O13 0.750000 0.990761 0.750000
O O14 0.500000 0.975147 0.688266
O O15 0.747189 0.036738 0.638542
O O16 0.000000 0.390306 0.159505
O O17 0.749985 0.146709 0.545639
O O18 0.758959 0.196675 0.647172
O O19 0.000000 0.114788 0.605740
O O20 0.000000 0.221875 0.994809
O O21 0.250000 0.736983 0.250000
O O22 0.500000 0.729731 0.187620
#
# Coordination Sequence:
#
# PCOD9416972 Si02
#       8
#     8   8   8   8   8   8   8   8
#     4  10  20  34  50  73 104 141 183 223 270 329
#     4   8  15  28  49  79 111 143 184 228 265 312
#     4   8  18  38  60  82 114 150 186 229 279 337
#     4  11  23  41  63  86 111 143 186 234 288 345
#     4   9  17  32  54  79 108 141 178 224 271 318
#     4  11  23  38  56  83 117 148 184 235 287 340
#     4   9  18  35  58  84 113 151 195 231 275 334
#     4   9  20  36  52  71 104 144 181 225 278 334
#
# _framework density 20.028827
#
# number of rings (size 3 to 8) (size 9 to 14) (size 15 to 20)
#    0.000    2.625    0.000    3.000    1.750    3.500 
#    0.000    8.750    0.000    0.750    0.000    0.000 
#    0.000    0.000    0.000    0.000    0.000    0.000 
#
# Total GULP energy -356652.345652 kJ/mol
# GULP energy per Si atom -5572.692901 kJ/mol
# Density = 1.998324 g / cm^3
# Si number density = 20.028827 Si / 1000 Ang^3
#
#
#
# Elastic Constant Matrix: (Units=GPa)
#
#
# Indices 1 2 3 4 5 6 
#
# 1 19.0109 9.3219 1.0152 0.0000 0.0000 0.0000
# 2 9.3219 72.6377 -3.2477 0.0000 0.0000 0.0000
# 3 1.0152 -3.2477 21.2130 0.0000 0.0000 0.0000
# 4 0.0000 0.0000 0.0000 41.3261 0.0000 0.0000
# 5 0.0000 0.0000 0.0000 0.0000 17.9544 0.0000
# 6 0.0000 0.0000 0.0000 0.0000 0.0000 21.9762
#
#
#
# Elastic Compliance Matrix: (Units=1/GPa)
#
#
# Indices 1 2 3 4 5 6 
#
# 1 0.056442 -0.007415 -0.003836 0.000000 0.000000 0.000000
# 2 -0.007415 0.014836 0.002626 0.000000 0.000000 0.000000
# 3 -0.003836 0.002626 0.047727 0.000000 0.000000 0.000000
# 4 0.000000 0.000000 0.000000 0.024198 0.000000 0.000000
# 5 0.000000 0.000000 0.000000 0.000000 0.055696 0.000000
# 6 0.000000 0.000000 0.000000 0.000000 0.000000 0.045504
#
#
# Mechanical properties :
#
#
# Convention : Reuss Voigt Hill
#
# Bulk Modulus (GPa) = 9.82760 14.11561 11.97161
# Shear Modulus (GPa) = 16.91640 23.30282 20.10961
#
# Velocity S-wave (km/s) = 2.90936 3.41466 3.17209
# Velocity P-wave (km/s) = 4.02532 4.75494 4.40526
#
# Compressibility (1/GPa) = 0.10175422
#
# Stress axis : x y z
#
# Youngs Moduli (GPa) = 17.71729 67.40369 20.95269
#
# Poissons Ratio (x) = 0.49980 0.08038
# Poissons Ratio (y) = 0.13137 -0.05503
# Poissons Ratio (z) = 0.06797 -0.17702
#
# Static dielectric constant tensor:
#      x y z
#    x 1.700570 0.000000 0.000000 
#    y 0.000000 1.764220 0.000000 
#    z 0.000000 0.000000 1.699230 
# 
# From -- ./inp_files/34182.got.cif
#   From: 2010.05.17/outbox.cif.g08.bks.cpg/sg53_18_cif.got.tgz:34182.got - 2010.06.03 12:45:16.
