data_PCOD9416524
_publ_section_title
;
Structure prediction by ZEFSAII (Michael W. Deem and Ramdas Pophale) SiO2 
 PCOD9416524
Probable space group: P M N A
;
_chemical_formula_sum "Si O2"
_cell_formula_units_Z 34
_cell_length_a 9.917086
_cell_length_b 19.089555
_cell_length_c 8.269889
_cell_angle_alpha 90.000000
_cell_angle_beta 90.000000
_cell_angle_gamma 90.000000
_cell_volume 1565.595500
_symmetry_space_group_name_H-M "P M N A"
_symmetry_group_IT_number 53
_symmetry_cell_setting 'orthorhombic'
loop_
_space_group_symop_operation_xyz
x,y,z
1/2-x,-y,1/2+z
x,-y,-z
1/2-x,y,1/2-z
-x,-y,-z
1/2+x,y,1/2-z
-x,y,z
1/2+x,-y,1/2+z
loop_
_atom_site_type_symbol
_atom_site_label
_atom_site_fract_x
_atom_site_fract_y
_atom_site_fract_z
Si Si1 0.279473 0.572884 0.939402
Si Si2 0.500000 0.770077 0.618797
Si Si3 0.500000 0.328936 0.917625
Si Si4 0.218350 0.120701 0.060120
Si Si5 0.500000 0.377056 0.550914
Si Si6 0.500000 0.825438 0.992580
Si Si7 0.000000 0.000000 0.000000
O O1 0.250000 0.571829 0.750000
O O2 0.342441 0.500000 0.000000
O O3 0.371878 0.638240 0.989971
O O4 0.135581 0.580517 0.023858
O O5 0.365362 0.806803 0.549665
O O6 0.500000 0.688880 0.573773
O O7 0.500000 0.794537 0.807248
O O8 0.500000 0.353251 0.734479
O O9 0.500000 0.245559 0.908757
O O10 0.250000 0.106531 0.250000
O O11 0.364749 0.130009 0.980799
O O12 0.118793 0.061040 0.999056
#
# Coordination Sequence:
#
# PCOD9416524 Si02
#       7
#     8   4   4   8   4   4   2
#     4  12  25  43  64  90 125 170 218 264 319 382
#     4   9  18  36  60  85 117 161 209 257 311 372
#     4  12  25  41  63  95 131 164 208 267 325 375
#     4   9  19  36  60  87 119 159 208 255 302 367
#     4  12  24  41  64  94 128 164 209 267 327 382
#     4  10  19  36  61  89 119 161 210 255 307 378
#     4  10  20  38  60  88 122 158 194 248 312 362
#
# _framework density 21.716977
#
# number of rings (size 3 to 8) (size 9 to 14) (size 15 to 20)
#    0.000    1.412    0.000    7.059    0.000    2.353 
#    0.000    4.706    0.000    0.000    0.000    0.000 
#    0.000    0.000    0.000    0.000    0.000    0.000 
#
# Total GULP energy -189609.111558 kJ/mol
# GULP energy per Si atom -5576.738575 kJ/mol
# Density = 2.166755 g / cm^3
# Si number density = 21.716977 Si / 1000 Ang^3
#
#
#
# Elastic Constant Matrix: (Units=GPa)
#
#
# Indices 1 2 3 4 5 6 
#
# 1 185.3037 49.3308 24.2280 0.0000 0.0000 0.0000
# 2 49.3308 107.6380 9.4003 0.0000 0.0000 0.0000
# 3 24.2280 9.4003 74.2229 0.0000 0.0000 0.0000
# 4 0.0000 0.0000 0.0000 -9.1034 0.0000 0.0000
# 5 0.0000 0.0000 0.0000 0.0000 -1.1471 0.0000
# 6 0.0000 0.0000 0.0000 0.0000 0.0000 51.2773
#
#
#
# Elastic Compliance Matrix: (Units=1/GPa)
#
#
# Indices 1 2 3 4 5 6 
#
# 1 0.006358 -0.002763 -0.001725 0.000000 0.000000 0.000000
# 2 -0.002763 0.010595 -0.000440 0.000000 0.000000 0.000000
# 3 -0.001725 -0.000440 0.014092 0.000000 0.000000 0.000000
# 4 0.000000 0.000000 0.000000 -0.109849 0.000000 0.000000
# 5 0.000000 0.000000 0.000000 0.000000 -0.871748 0.000000
# 6 0.000000 0.000000 0.000000 0.000000 0.000000 0.019502
#
#
# Mechanical properties :
#
#
# Convention : Reuss Voigt Hill
#
# Bulk Modulus (GPa) = 47.19663 59.23142 53.21403
# Shear Modulus (GPa) = -5.46967 27.15241 10.84137
#
# Velocity S-wave (km/s) = -1.58874 3.53977 2.23673
# Velocity P-wave (km/s) = 4.29119 6.63627 5.58813
#
# Compressibility (1/GPa) = 0.02118795
#
# Stress axis : x y z
#
# Youngs Moduli (GPa) = 157.28948 94.38291 70.96304
#
# Poissons Ratio (x) = 0.26079 0.12244
# Poissons Ratio (y) = 0.43460 0.03122
# Poissons Ratio (z) = 0.27138 0.04152
#
# Static dielectric constant tensor:
#      x y z
#    x 1.756520 0.000000 0.000000 
#    y 0.000000 1.744610 0.000000 
#    z 0.000000 0.000000 1.781460 
# 
# From -- ./inp_files/6232.got.cif
#   From: 2010.05.17/outbox.cif.g08.bks.cpg/sg53_4_cif.got.tgz:6232.got - 2010.06.03 12:45:16.
