data_PCOD9416188
_publ_section_title
;
Structure prediction by ZEFSAII (Michael W. Deem and Ramdas Pophale) SiO2 
 PCOD9416188
Probable space group: P M N A
;
_chemical_formula_sum "Si O2"
_cell_formula_units_Z 64
_cell_length_a 7.976529
_cell_length_b 25.268915
_cell_length_c 15.661804
_cell_angle_alpha 90.000000
_cell_angle_beta 90.000000
_cell_angle_gamma 90.000000
_cell_volume 3156.765544
_symmetry_space_group_name_H-M "P M N A"
_symmetry_group_IT_number 53
_symmetry_cell_setting 'orthorhombic'
loop_
_space_group_symop_operation_xyz
x,y,z
1/2-x,-y,1/2+z
x,-y,-z
1/2-x,y,1/2-z
-x,-y,-z
1/2+x,y,1/2-z
-x,y,z
1/2+x,-y,1/2+z
loop_
_atom_site_type_symbol
_atom_site_label
_atom_site_fract_x
_atom_site_fract_y
_atom_site_fract_z
Si Si1 0.201597 0.385405 0.656461
Si Si2 0.701597 0.614595 0.843539
Si Si3 0.299956 0.115571 0.349196
Si Si4 0.204183 0.500000 0.600085
Si Si5 0.301150 0.807236 1.000000
Si Si6 0.201998 0.000000 0.849862
Si Si7 0.299956 0.884429 0.349196
Si Si8 0.705944 0.687055 1.000000
O O1 0.250000 0.366918 0.750000
O O2 0.265086 0.445387 0.641399
O O3 0.260318 0.345935 0.582843
O O4 0.000000 0.387619 0.650253
O O5 0.750000 0.633082 0.750000
O O6 0.500000 0.612381 0.849747
O O7 0.765086 0.554613 0.858601
O O8 0.760318 0.654065 0.917157
O O9 0.250000 0.124090 0.250000
O O10 0.500000 0.113068 0.350150
O O11 0.247663 0.160402 0.415351
O O12 0.235802 0.057421 0.380340
O O13 0.246623 0.500000 0.500000
O O14 0.000000 0.500000 0.605244
O O15 0.500000 0.803079 0.000000
O O16 0.252337 0.839598 0.084649
O O17 0.233563 0.747348 1.000000
O O18 0.250000 0.000000 0.750000
O O19 0.264198 0.057421 0.880340
O O20 0.000000 0.000000 0.860152
O O21 0.250000 0.875910 0.250000
O O22 0.500000 0.886932 0.350150
O O23 0.500000 0.687494 1.000000
#
# Coordination Sequence:
#
# PCOD9416188 Si02
#       8
#     8   8   8   8   8   8   8   8
#     4  10  19  34  56  81 106 137 176 218 265 318
#     4  10  19  34  56  81 106 137 176 218 265 318
#     4  10  20  37  59  84 112 144 180 225 277 331
#     4   9  15  28  55  82 105 138 175 209 256 322
#     4  11  23  38  55  79 109 147 192 233 272 322
#     4   8  16  31  54  81 110 140 174 217 272 331
#     4  10  20  37  59  84 112 144 180 225 277 331
#     4   9  20  38  56  73 102 143 186 223 260 314
#
# _framework density 20.273916
#
# number of rings (size 3 to 8) (size 9 to 14) (size 15 to 20)
#    0.000    2.375    1.250    1.500    0.000    2.500 
#    0.000    8.125    0.000    0.750    0.000    0.000 
#    0.000    0.000    0.000    0.000    0.000    0.000 
#
# Total GULP energy -357070.128817 kJ/mol
# GULP energy per Si atom -5579.220763 kJ/mol
# Density = 2.022777 g / cm^3
# Si number density = 20.273916 Si / 1000 Ang^3
#
#
#
# Elastic Constant Matrix: (Units=GPa)
#
#
# Indices 1 2 3 4 5 6 
#
# 1 22.3384 18.0337 7.3819 0.0000 0.0000 0.0000
# 2 18.0337 209.0556 109.6670 0.0000 0.0000 0.0000
# 3 7.3819 109.6670 159.8201 0.0000 0.0000 0.0000
# 4 0.0000 0.0000 0.0000 29.6246 0.0000 0.0000
# 5 0.0000 0.0000 0.0000 0.0000 27.0505 0.0000
# 6 0.0000 0.0000 0.0000 0.0000 0.0000 8.4271
#
#
#
# Elastic Compliance Matrix: (Units=1/GPa)
#
#
# Indices 1 2 3 4 5 6 
#
# 1 0.048215 -0.004673 0.000980 0.000000 0.000000 0.000000
# 2 -0.004673 0.007927 -0.005223 0.000000 0.000000 0.000000
# 3 0.000980 -0.005223 0.009796 0.000000 0.000000 0.000000
# 4 0.000000 0.000000 0.000000 0.033756 0.000000 0.000000
# 5 0.000000 0.000000 0.000000 0.000000 0.036968 0.000000
# 6 0.000000 0.000000 0.000000 0.000000 0.000000 0.118665
#
#
# Mechanical properties :
#
#
# Convention : Reuss Voigt Hill
#
# Bulk Modulus (GPa) = 20.78839 73.48661 47.13750
# Shear Modulus (GPa) = 17.28941 30.09587 23.69264
#
# Velocity S-wave (km/s) = 2.92343 3.85705 3.42223
# Velocity P-wave (km/s) = 4.65524 7.49409 6.23829
#
# Compressibility (1/GPa) = 0.04810378
#
# Stress axis : x y z
#
# Youngs Moduli (GPa) = 20.74057 126.15793 102.08289
#
# Poissons Ratio (x) = 0.58954 -0.10000
# Poissons Ratio (y) = 0.09692 0.53321
# Poissons Ratio (z) = -0.02032 0.65896
#
# Static dielectric constant tensor:
#      x y z
#    x 1.750090 0.000000 0.000000 
#    y 0.000000 1.755530 0.000000 
#    z 0.000000 0.000000 1.627210 
# 
# From -- ./inp_files/21017.got.cif
#   From: 2010.05.17/outbox.cif.g08.bks.cpg/sg53_11_cif.got.tgz:21017.got - 2010.06.03 12:45:16.
