data_PCOD9416461
_publ_section_title
;
Structure prediction by ZEFSAII (Michael W. Deem and Ramdas Pophale) SiO2 
 PCOD9416461
Probable space group: P M N A
;
_chemical_formula_sum "Si O2"
_cell_formula_units_Z 64
_cell_length_a 30.148349
_cell_length_b 7.442660
_cell_length_c 12.699839
_cell_angle_alpha 90.000000
_cell_angle_beta 90.000000
_cell_angle_gamma 90.000000
_cell_volume 2849.639546
_symmetry_space_group_name_H-M "P M N A"
_symmetry_group_IT_number 53
_symmetry_cell_setting 'orthorhombic'
loop_
_space_group_symop_operation_xyz
x,y,z
1/2-x,-y,1/2+z
x,-y,-z
1/2-x,y,1/2-z
-x,-y,-z
1/2+x,y,1/2-z
-x,y,z
1/2+x,-y,1/2+z
loop_
_atom_site_type_symbol
_atom_site_label
_atom_site_fract_x
_atom_site_fract_y
_atom_site_fract_z
Si Si1 0.051167 0.717229 0.523084
Si Si2 0.106200 0.662938 0.720426
Si Si3 0.386845 0.751324 0.165848
Si Si4 0.797020 0.689377 0.780741
Si Si5 0.451810 0.154781 0.648945
Si Si6 0.576090 0.232632 0.435667
Si Si7 0.299024 0.275932 0.743352
Si Si8 0.821862 0.203626 0.995818
O O1 0.050004 0.500000 0.500000
O O2 0.073425 0.752862 0.636600
O O3 0.084414 0.797577 0.436000
O O4 0.000000 0.777494 0.517540
O O5 0.114547 0.465414 0.674611
O O6 0.154219 0.756579 0.741403
O O7 0.082057 0.644477 0.833422
O O8 0.413644 0.812107 0.268105
O O9 0.335837 0.808781 0.180181
O O10 0.750000 0.776996 0.750000
O O11 0.795222 0.488402 0.733988
O O12 0.799872 0.688875 0.907977
O O13 0.500000 0.179068 0.698573
O O14 0.448685 0.276458 0.543709
O O15 0.445025 0.951006 0.608739
O O16 0.626123 0.202103 0.476846
O O17 0.250000 0.197377 0.750000
O O18 0.315322 0.267410 0.622738
O O19 0.804959 0.000000 0.000000
#
# Coordination Sequence:
#
# PCOD9416461 Si02
#       8
#     8   8   8   8   8   8   8   8
#     4   9  18  33  52  75 106 142 178 223 277 325
#     4   9  20  34  58  79 106 144 184 231 276 331
#     4  10  19  36  55  81 108 140 186 232 278 331
#     4   9  20  35  55  82 112 141 183 231 282 336
#     4  11  21  35  55  79 110 146 182 223 281 339
#     4  10  19  36  53  78 109 144 180 221 277 335
#     4  10  20  35  55  82 108 144 184 230 284 337
#     4  11  19  34  56  78 109 147 179 227 280 331
#
# _framework density 22.458981000000001
#
# number of rings (size 3 to 8) (size 9 to 14) (size 15 to 20)
#    0.000    2.125    2.500    1.500    0.000    3.500 
#    0.000    5.000    0.000    1.500    0.000    0.000 
#    0.000    0.000    0.000    0.000    0.000    0.000 
#
# Total GULP energy -356999.693748 kJ/mol
# GULP energy per Si atom -5578.120215 kJ/mol
# Density = 2.240786 g / cm^3
# Si number density = 22.458981 Si / 1000 Ang^3
#
#
#
# Elastic Constant Matrix: (Units=GPa)
#
#
# Indices 1 2 3 4 5 6 
#
# 1 180.0351 3.6373 56.6154 0.0000 0.0000 0.0000
# 2 3.6373 37.1995 -5.5489 0.0000 0.0000 0.0000
# 3 56.6154 -5.5489 96.9783 0.0000 0.0000 0.0000
# 4 0.0000 0.0000 0.0000 6.9176 0.0000 0.0000
# 5 0.0000 0.0000 0.0000 0.0000 33.3336 0.0000
# 6 0.0000 0.0000 0.0000 0.0000 0.0000 2.0497
#
#
#
# Elastic Compliance Matrix: (Units=1/GPa)
#
#
# Indices 1 2 3 4 5 6 
#
# 1 0.006863 -0.001280 -0.004080 0.000000 0.000000 0.000000
# 2 -0.001280 0.027352 0.002312 0.000000 0.000000 0.000000
# 3 -0.004080 0.002312 0.012826 0.000000 0.000000 0.000000
# 4 0.000000 0.000000 0.000000 0.144559 0.000000 0.000000
# 5 0.000000 0.000000 0.000000 0.000000 0.030000 0.000000
# 6 0.000000 0.000000 0.000000 0.000000 0.000000 0.487884
#
#
# Mechanical properties :
#
#
# Convention : Reuss Voigt Hill
#
# Bulk Modulus (GPa) = 24.42237 47.06893 35.74565
# Shear Modulus (GPa) = 6.85657 25.76078 16.30867
#
# Velocity S-wave (km/s) = 1.74916 3.39043 2.69765
# Velocity P-wave (km/s) = 3.87004 6.02743 5.06494
#
# Compressibility (1/GPa) = 0.04094607
#
# Stress axis : x y z
#
# Youngs Moduli (GPa) = 145.70119 36.56024 77.96808
#
# Poissons Ratio (x) = 0.04679 0.31811
# Poissons Ratio (y) = 0.18645 -0.18027
# Poissons Ratio (z) = 0.59446 -0.08453
#
# Static dielectric constant tensor:
#      x y z
#    x 1.849810 0.000000 0.000000 
#    y 0.000000 1.885310 0.000000 
#    z 0.000000 0.000000 1.797870 
# 
# From -- ./inp_files/19021.got.cif
#   From: 2010.05.17/outbox.cif.g08.bks.cpg/sg53_10_cif.got.tgz:19021.got - 2010.06.03 12:45:16.
