data_PCOD9416702
_publ_section_title
;
Structure prediction by ZEFSAII (Michael W. Deem and Ramdas Pophale) SiO2 
 PCOD9416702
Probable space group: P M N A
;
_chemical_formula_sum "Si O2"
_cell_formula_units_Z 64
_cell_length_a 9.714115
_cell_length_b 14.378689
_cell_length_c 21.160099
_cell_angle_alpha 90.000000
_cell_angle_beta 90.000000
_cell_angle_gamma 90.000000
_cell_volume 2955.563035
_symmetry_space_group_name_H-M "P M N A"
_symmetry_group_IT_number 53
_symmetry_cell_setting 'orthorhombic'
loop_
_space_group_symop_operation_xyz
x,y,z
1/2-x,-y,1/2+z
x,-y,-z
1/2-x,y,1/2-z
-x,-y,-z
1/2+x,y,1/2-z
-x,y,z
1/2+x,-y,1/2+z
loop_
_atom_site_type_symbol
_atom_site_label
_atom_site_fract_x
_atom_site_fract_y
_atom_site_fract_z
Si Si1 0.655603 0.232910 0.190904
Si Si2 0.844120 0.993840 0.926046
Si Si3 0.150868 0.773422 0.918967
Si Si4 0.657321 0.994170 0.810380
Si Si5 0.839733 0.486647 0.810714
Si Si6 0.339337 0.466260 0.927965
Si Si7 0.159969 0.712625 0.061082
Si Si8 0.348009 0.258609 0.695130
O O1 0.750000 0.259560 0.250000
O O2 0.500000 0.267553 0.196189
O O3 0.730150 0.262674 0.126388
O O4 0.650419 0.119593 0.190064
O O5 0.856364 0.884128 0.910859
O O6 0.732882 0.025431 0.874704
O O7 0.000000 0.034106 0.920163
O O8 0.803950 0.000000 0.000000
O O9 0.000000 0.734196 0.901906
O O10 0.173694 0.757737 0.992989
O O11 0.750000 0.018828 0.750000
O O12 0.500000 0.027217 0.806085
O O13 0.750000 0.516162 0.750000
O O14 0.758807 0.512651 0.875076
O O15 0.841366 0.372422 0.808567
O O16 0.000000 0.515889 0.809413
O O17 0.500000 0.470086 0.909026
O O18 0.278389 0.363054 0.932616
O O19 0.326600 0.500000 0.000000
O O20 0.176005 0.774026 0.123654
O O21 0.000000 0.675648 0.064377
O O22 0.250000 0.227563 0.750000
O O23 0.500000 0.231927 0.713832
#
# Coordination Sequence:
#
# PCOD9416702 Si02
#       8
#     8   8   8   8   8   8   8   8
#     4   9  16  26  42  65  90 116 148 187 229 270
#     4   9  17  29  46  68  93 122 154 187 227 274
#     4   9  17  30  47  67  92 121 153 189 228 271
#     4   9  16  26  42  64  89 116 149 190 230 269
#     4   9  16  27  45  68  93 120 152 190 229 269
#     4  10  20  32  47  69  96 124 154 189 228 271
#     4   9  18  31  47  67  91 121 154 188 229 273
#     4   8  14  24  39  61  85 109 141 179 217 256
#
# _framework density 21.65408
#
# number of rings (size 3 to 8) (size 9 to 14) (size 15 to 20)
#    0.000    3.000    0.000    2.250    0.000    7.750 
#    0.000    0.000    0.000    1.500    0.000    7.000 
#    0.000    0.000    0.000    0.000    0.000    0.000 
#
# Total GULP energy -357010.740014 kJ/mol
# GULP energy per Si atom -5578.292813 kJ/mol
# Density = 2.160479 g / cm^3
# Si number density = 21.654080 Si / 1000 Ang^3
#
#
#
# Elastic Constant Matrix: (Units=GPa)
#
#
# Indices 1 2 3 4 5 6 
#
# 1 211.4021 20.2135 146.0508 0.0000 0.0000 0.0000
# 2 20.2135 39.1567 0.9529 0.0000 0.0000 0.0000
# 3 146.0508 0.9529 178.9844 0.0000 0.0000 0.0000
# 4 0.0000 0.0000 0.0000 10.7245 0.0000 0.0000
# 5 0.0000 0.0000 0.0000 0.0000 43.1070 0.0000
# 6 0.0000 0.0000 0.0000 0.0000 0.0000 5.2423
#
#
#
# Elastic Compliance Matrix: (Units=1/GPa)
#
#
# Indices 1 2 3 4 5 6 
#
# 1 0.012110 -0.006012 -0.009850 0.000000 0.000000 0.000000
# 2 -0.006012 0.028526 0.004754 0.000000 0.000000 0.000000
# 3 -0.009850 0.004754 0.013599 0.000000 0.000000 0.000000
# 4 0.000000 0.000000 0.000000 0.093245 0.000000 0.000000
# 5 0.000000 0.000000 0.000000 0.000000 0.023198 0.000000
# 6 0.000000 0.000000 0.000000 0.000000 0.000000 0.190757
#
#
# Mechanical properties :
#
#
# Convention : Reuss Voigt Hill
#
# Bulk Modulus (GPa) = 31.23080 84.88640 58.05860
# Shear Modulus (GPa) = 12.67995 29.30315 20.99155
#
# Velocity S-wave (km/s) = 2.42248 3.68263 3.11690
# Velocity P-wave (km/s) = 4.72000 7.57420 6.31059
#
# Compressibility (1/GPa) = 0.03201968
#
# Stress axis : x y z
#
# Youngs Moduli (GPa) = 82.57643 35.05563 73.53417
#
# Poissons Ratio (x) = 0.21074 0.72429
# Poissons Ratio (y) = 0.49643 -0.34956
# Poissons Ratio (z) = 0.81335 -0.16664
#
# Static dielectric constant tensor:
#      x y z
#    x 1.751090 0.000000 0.000000 
#    y 0.000000 1.859380 0.000000 
#    z 0.000000 0.000000 1.798500 
# 
# From -- ./inp_files/31174.got.cif
#   From: 2010.05.17/outbox.cif.g08.bks.cpg/sg53_16_cif.got.tgz:31174.got - 2010.06.03 12:45:16.
