data_PCOD9416570
_publ_section_title
;
Structure prediction by ZEFSAII (Michael W. Deem and Ramdas Pophale) SiO2 
 PCOD9416570
Probable space group: P M N A
;
_chemical_formula_sum "Si O2"
_cell_formula_units_Z 64
_cell_length_a 29.663189
_cell_length_b 12.372702
_cell_length_c 9.004453
_cell_angle_alpha 90.000000
_cell_angle_beta 90.000000
_cell_angle_gamma 90.000000
_cell_volume 3304.758493
_symmetry_space_group_name_H-M "P M N A"
_symmetry_group_IT_number 53
_symmetry_cell_setting 'orthorhombic'
loop_
_space_group_symop_operation_xyz
x,y,z
1/2-x,-y,1/2+z
x,-y,-z
1/2-x,y,1/2-z
-x,-y,-z
1/2+x,y,1/2-z
-x,y,z
1/2+x,-y,1/2+z
loop_
_atom_site_type_symbol
_atom_site_label
_atom_site_fract_x
_atom_site_fract_y
_atom_site_fract_z
Si Si1 0.185643 0.820990 0.608298
Si Si2 0.707652 0.441681 0.347196
Si Si3 0.549859 0.873850 0.561344
Si Si4 0.364777 0.593878 0.876886
Si Si5 0.133905 0.890597 0.097003
Si Si6 0.399334 0.103357 0.931944
Si Si7 0.713047 0.807504 0.565393
Si Si8 0.552214 0.252043 0.134818
O O1 0.169429 0.695397 0.586627
O O2 0.145880 0.883702 0.529231
O O3 0.190228 0.853116 0.782418
O O4 0.235409 0.842555 0.545059
O O5 0.707168 0.500000 0.500000
O O6 0.750000 0.478621 0.250000
O O7 0.661005 0.457451 0.261842
O O8 0.715121 0.316908 0.388284
O O9 0.500000 0.832800 0.520901
O O10 0.593356 0.825206 0.481692
O O11 0.556020 0.840635 0.734931
O O12 0.549641 0.000000 0.500000
O O13 0.412007 0.651817 0.837273
O O14 0.369020 0.500000 0.000000
O O15 0.116419 0.907439 0.263212
O O16 0.181127 0.830747 0.073336
O O17 0.139316 0.000000 0.000000
O O18 0.431110 0.202805 0.977687
O O19 0.423938 0.000000 0.000000
O O20 0.500000 0.284755 0.131177
#
# Coordination Sequence:
#
# PCOD9416570 Si02
#       8
#     8   8   8   8   8   8   8   8
#     4   9  19  36  56  78 109 152 195 238 290 342
#     4  11  21  35  58  89 115 150 190 238 289 347
#     4   9  17  33  57  81 107 143 187 236 289 345
#     4  10  20  38  61  85 120 155 193 240 296 349
#     4  11  22  35  54  82 113 156 194 232 292 352
#     4  11  22  36  55  82 116 148 191 247 290 349
#     4  10  19  37  57  76 115 155 191 240 288 341
#     4  10  22  40  63  86 113 153 199 244 296 355
#
# _framework density 19.366012999999999
#
# number of rings (size 3 to 8) (size 9 to 14) (size 15 to 20)
#    0.000    1.875    2.500    4.875    0.000    4.000 
#    0.000    0.000    0.000    0.375    0.000    0.000 
#    0.000    0.000    0.000    0.000    0.000    0.000 
#
# Total GULP energy -356311.397263 kJ/mol
# GULP energy per Si atom -5567.365582 kJ/mol
# Density = 1.932194 g / cm^3
# Si number density = 19.366013 Si / 1000 Ang^3
#
#
#
# Elastic Constant Matrix: (Units=GPa)
#
#
# Indices 1 2 3 4 5 6 
#
# 1 145.8074 27.0924 43.7431 0.0000 0.0000 0.0000
# 2 27.0924 39.2339 34.9694 0.0000 0.0000 0.0000
# 3 43.7431 34.9694 98.2430 0.0000 0.0000 0.0000
# 4 0.0000 0.0000 0.0000 25.5365 0.0000 0.0000
# 5 0.0000 0.0000 0.0000 0.0000 19.9903 0.0000
# 6 0.0000 0.0000 0.0000 0.0000 0.0000 37.1151
#
#
#
# Elastic Compliance Matrix: (Units=1/GPa)
#
#
# Indices 1 2 3 4 5 6 
#
# 1 0.008239 -0.003544 -0.002407 0.000000 0.000000 0.000000
# 2 -0.003544 0.038856 -0.012253 0.000000 0.000000 0.000000
# 3 -0.002407 -0.012253 0.015612 0.000000 0.000000 0.000000
# 4 0.000000 0.000000 0.000000 0.039160 0.000000 0.000000
# 5 0.000000 0.000000 0.000000 0.000000 0.050024 0.000000
# 6 0.000000 0.000000 0.000000 0.000000 0.000000 0.026943
#
#
# Mechanical properties :
#
#
# Convention : Reuss Voigt Hill
#
# Bulk Modulus (GPa) = 38.02325 54.98825 46.50575
# Shear Modulus (GPa) = 22.32055 28.36034 25.34045
#
# Velocity S-wave (km/s) = 3.39862 3.83095 3.62124
# Velocity P-wave (km/s) = 5.92263 6.92994 6.44599
#
# Compressibility (1/GPa) = 0.02629970
#
# Stress axis : x y z
#
# Youngs Moduli (GPa) = 121.37440 25.73574 64.05344
#
# Poissons Ratio (x) = 0.09121 0.15418
# Poissons Ratio (y) = 0.43014 0.78484
# Poissons Ratio (z) = 0.29215 0.31534
#
# Static dielectric constant tensor:
#      x y z
#    x 1.712890 0.000000 0.000000 
#    y 0.000000 1.804970 0.000000 
#    z 0.000000 0.000000 1.695690 
# 
# From -- ./inp_files/13251.got.cif
#   From: 2010.05.17/outbox.cif.g08.bks.cpg/sg53_7_cif.got.tgz:13251.got - 2010.06.03 12:45:16.
