data_PCOD9416967
_publ_section_title
;
Structure prediction by ZEFSAII (Michael W. Deem and Ramdas Pophale) SiO2 
 PCOD9416967
Probable space group: P M N A
;
_chemical_formula_sum "Si O2"
_cell_formula_units_Z 52
_cell_length_a 9.244897
_cell_length_b 12.154465
_cell_length_c 26.089561
_cell_angle_alpha 90.000000
_cell_angle_beta 90.000000
_cell_angle_gamma 90.000000
_cell_volume 2931.599883
_symmetry_space_group_name_H-M "P M N A"
_symmetry_group_IT_number 53
_symmetry_cell_setting 'orthorhombic'
loop_
_space_group_symop_operation_xyz
x,y,z
1/2-x,-y,1/2+z
x,-y,-z
1/2-x,y,1/2-z
-x,-y,-z
1/2+x,y,1/2-z
-x,y,z
1/2+x,-y,1/2+z
loop_
_atom_site_type_symbol
_atom_site_label
_atom_site_fract_x
_atom_site_fract_y
_atom_site_fract_z
Si Si1 0.250000 0.217495 0.250000
Si Si2 0.166724 0.611197 0.663926
Si Si3 0.824525 0.879969 0.480443
Si Si4 0.324164 0.216478 0.084904
Si Si5 0.826711 0.154340 0.636452
Si Si6 0.673476 0.626094 0.197168
Si Si7 0.165563 0.055099 0.161753
O O1 0.328231 0.301601 0.210837
O O2 0.168709 0.134592 0.211452
O O3 0.227710 0.674301 0.614445
O O4 0.230384 0.493741 0.679267
O O5 0.000000 0.588697 0.651655
O O6 0.784192 0.795275 0.525495
O O7 0.777807 0.855879 0.422748
O O8 0.000000 0.881572 0.478860
O O9 0.777271 0.000000 0.500000
O O10 0.500000 0.209294 0.088965
O O11 0.256296 0.116889 0.117427
O O12 0.800521 0.276489 0.657127
O O13 0.743807 0.061650 0.668986
O O14 0.000000 0.133282 0.639115
O O15 0.750000 0.654845 0.250000
O O16 0.500000 0.618323 0.205284
O O17 0.000000 0.039278 0.146206
#
# Coordination Sequence:
#
# PCOD9416967 Si02
#       7
#     4   8   8   8   8   8   8
#     4  10  20  34  50  70 106 136 170 206 262 314
#     4   9  17  32  53  76 100 130 170 214 258 302
#     4   9  15  29  53  76 100 138 178 207 252 312
#     4   9  17  32  55  78 104 136 171 211 258 311
#     4  10  21  36  53  74 105 142 177 211 253 312
#     4  10  21  37  55  76 103 138 175 213 255 306
#     4  11  22  33  50  79 108 134 170 216 263 307
#
# _framework density 17.737755
#
# number of rings (size 3 to 8) (size 9 to 14) (size 15 to 20)
#    0.000    2.308    2.308    0.923    1.077    2.462 
#    0.000    2.308    0.000    4.615    0.000    0.000 
#    0.000    5.231    0.000    0.000    0.000    0.000 
#
# Total GULP energy -289572.342851 kJ/mol
# GULP energy per Si atom -5568.698901 kJ/mol
# Density = 1.769738 g / cm^3
# Si number density = 17.737755 Si / 1000 Ang^3
#
#
#
# Elastic Constant Matrix: (Units=GPa)
#
#
# Indices 1 2 3 4 5 6 
#
# 1 29.6038 28.1192 18.9356 0.0000 0.0000 0.0000
# 2 28.1192 105.4490 69.4568 0.0000 0.0000 0.0000
# 3 18.9356 69.4568 98.2487 0.0000 0.0000 0.0000
# 4 0.0000 0.0000 0.0000 24.8121 0.0000 0.0000
# 5 0.0000 0.0000 0.0000 0.0000 12.7900 0.0000
# 6 0.0000 0.0000 0.0000 0.0000 0.0000 9.6078
#
#
#
# Elastic Compliance Matrix: (Units=1/GPa)
#
#
# Indices 1 2 3 4 5 6 
#
# 1 0.045244 -0.011830 -0.000357 0.000000 0.000000 0.000000
# 2 -0.011830 0.020840 -0.012453 0.000000 0.000000 0.000000
# 3 -0.000357 -0.012453 0.019051 0.000000 0.000000 0.000000
# 4 0.000000 0.000000 0.000000 0.040303 0.000000 0.000000
# 5 0.000000 0.000000 0.000000 0.000000 0.078186 0.000000
# 6 0.000000 0.000000 0.000000 0.000000 0.000000 0.104082
#
#
# Mechanical properties :
#
#
# Convention : Reuss Voigt Hill
#
# Bulk Modulus (GPa) = 27.88951 51.81384 39.85167
# Shear Modulus (GPa) = 13.55239 17.22796 15.39018
#
# Velocity S-wave (km/s) = 2.76713 3.11988 2.94879
# Velocity P-wave (km/s) = 5.09576 6.50021 5.84035
#
# Compressibility (1/GPa) = 0.03585578
#
# Stress axis : x y z
#
# Youngs Moduli (GPa) = 22.10222 47.98371 52.49135
#
# Poissons Ratio (x) = 0.56764 0.01873
# Poissons Ratio (y) = 0.26147 0.65368
# Poissons Ratio (z) = 0.00789 0.59755
#
# Static dielectric constant tensor:
#      x y z
#    x 1.608330 0.000000 0.000000 
#    y 0.000000 1.634480 0.000000 
#    z 0.000000 0.000000 1.615790 
# 
# From -- ./inp_files/36246.got.cif
#   From: 2010.05.17/outbox.cif.g08.bks.cpg/sg53_19_cif.got.tgz:36246.got - 2010.06.03 12:45:16.
