data_PCOD9416688
_publ_section_title
;
Structure prediction by ZEFSAII (Michael W. Deem and Ramdas Pophale) SiO2 
 PCOD9416688
Probable space group: P M N A
;
_chemical_formula_sum "Si O2"
_cell_formula_units_Z 28
_cell_length_a 29.637147
_cell_length_b 9.309267
_cell_length_c 5.196630
_cell_angle_alpha 90.000000
_cell_angle_beta 90.000000
_cell_angle_gamma 90.000000
_cell_volume 1433.750812
_symmetry_space_group_name_H-M "P M N A"
_symmetry_group_IT_number 53
_symmetry_cell_setting 'orthorhombic'
loop_
_space_group_symop_operation_xyz
x,y,z
1/2-x,-y,1/2+z
x,-y,-z
1/2-x,y,1/2-z
-x,-y,-z
1/2+x,y,1/2-z
-x,y,z
1/2+x,-y,1/2+z
loop_
_atom_site_type_symbol
_atom_site_label
_atom_site_fract_x
_atom_site_fract_y
_atom_site_fract_z
Si Si1 0.645398 0.738621 0.719363
Si Si2 0.299634 0.296817 0.797398
Si Si3 0.450184 0.399439 0.249858
Si Si4 0.679657 0.000000 0.000000
O O1 0.668461 0.695803 0.451243
O O2 0.593121 0.701017 0.732663
O O3 0.673441 0.658206 0.946042
O O4 0.651832 0.906523 0.792698
O O5 0.250000 0.359723 0.750000
O O6 0.293651 0.125994 0.859012
O O7 0.449233 0.500000 0.500000
O O8 0.500000 0.329176 0.238807
O O9 0.445870 0.500000 0.000000
#
# Coordination Sequence:
#
# PCOD9416688 Si02
#       4
#     8   8   8   4
#     4  10  20  33  53  82 111 134 180 222 265 310
#     4  10  20  31  53  81 112 145 178 209 255 318
#     4  10  21  39  62  80  98 136 186 227 267 317
#     4   8  22  28  55  80 112 142 173 218 260 318
#
# _framework density 19.529195000000001
#
# number of rings (size 3 to 8) (size 9 to 14) (size 15 to 20)
#    1.714    0.571    0.000    3.429    4.000    0.000 
#    0.000    0.714    0.000   18.857    0.000    0.000 
#    0.000    0.000    0.000    0.000    0.000    0.000 
#
# Total GULP energy -155889.002373 kJ/mol
# GULP energy per Si atom -5567.464370 kJ/mol
# Density = 1.948475 g / cm^3
# Si number density = 19.529195 Si / 1000 Ang^3
#
#
#
# Elastic Constant Matrix: (Units=GPa)
#
#
# Indices 1 2 3 4 5 6 
#
# 1 135.3485 -9.8082 20.5259 0.0000 0.0000 0.0000
# 2 -9.8082 17.1868 -13.1246 0.0000 0.0000 0.0000
# 3 20.5259 -13.1246 137.5489 0.0000 0.0000 0.0000
# 4 0.0000 0.0000 0.0000 1.7774 0.0000 0.0000
# 5 0.0000 0.0000 0.0000 0.0000 55.0469 0.0000
# 6 0.0000 0.0000 0.0000 0.0000 0.0000 28.6286
#
#
#
# Elastic Compliance Matrix: (Units=1/GPa)
#
#
# Indices 1 2 3 4 5 6 
#
# 1 0.007787 0.003836 -0.000796 0.000000 0.000000 0.000000
# 2 0.003836 0.064647 0.005596 0.000000 0.000000 0.000000
# 3 -0.000796 0.005596 0.007923 0.000000 0.000000 0.000000
# 4 0.000000 0.000000 0.000000 0.562624 0.000000 0.000000
# 5 0.000000 0.000000 0.000000 0.000000 0.018166 0.000000
# 6 0.000000 0.000000 0.000000 0.000000 0.000000 0.034930
#
#
# Mechanical properties :
#
#
# Convention : Reuss Voigt Hill
#
# Bulk Modulus (GPa) = 10.24290 31.69672 20.96981
# Shear Modulus (GPa) = 7.02891 36.58998 21.80944
#
# Velocity S-wave (km/s) = 1.89921 4.33321 3.34542
# Velocity P-wave (km/s) = 3.17264 6.42661 5.06788
#
# Compressibility (1/GPa) = 0.09762858
#
# Stress axis : x y z
#
# Youngs Moduli (GPa) = 128.41864 15.46872 126.21664
#
# Poissons Ratio (x) = -0.05934 0.10047
# Poissons Ratio (y) = -0.49262 -0.70631
# Poissons Ratio (z) = 0.10222 -0.08656
#
# Static dielectric constant tensor:
#      x y z
#    x 1.676620 0.000000 0.000000 
#    y 0.000000 1.719430 0.000000 
#    z 0.000000 0.000000 1.691450 
# 
# From -- ./inp_files/2555.got.cif
#   From: 2010.05.17/outbox.cif.g08.bks.cpg/sg53_2_cif.got.tgz:2555.got - 2010.06.03 12:45:16.
