data_PCOD9416868
_publ_section_title
;
Structure prediction by ZEFSAII (Michael W. Deem and Ramdas Pophale) SiO2 
 PCOD9416868
Probable space group: P M N A
;
_chemical_formula_sum "Si O2"
_cell_formula_units_Z 48
_cell_length_a 9.648139
_cell_length_b 30.511881
_cell_length_c 9.275556
_cell_angle_alpha 90.000000
_cell_angle_beta 90.000000
_cell_angle_gamma 90.000000
_cell_volume 2730.564787
_symmetry_space_group_name_H-M "P M N A"
_symmetry_group_IT_number 53
_symmetry_cell_setting 'orthorhombic'
loop_
_space_group_symop_operation_xyz
x,y,z
1/2-x,-y,1/2+z
x,-y,-z
1/2-x,y,1/2-z
-x,-y,-z
1/2+x,y,1/2-z
-x,y,z
1/2+x,-y,1/2+z
loop_
_atom_site_type_symbol
_atom_site_label
_atom_site_fract_x
_atom_site_fract_y
_atom_site_fract_z
Si Si1 0.833191 0.304586 0.898687
Si Si2 0.500000 0.455277 0.414254
Si Si3 0.000000 0.452580 0.427163
Si Si4 0.663071 0.777835 0.603319
Si Si5 0.666242 0.957266 0.900717
Si Si6 0.753564 0.389868 0.078483
Si Si7 0.332449 0.124380 0.403044
O O1 0.750000 0.302501 0.750000
O O2 0.000000 0.308653 0.877542
O O3 0.807195 0.260816 0.992005
O O4 0.778115 0.346095 0.989204
O O5 0.500000 0.500000 0.500000
O O6 0.500000 0.462922 0.243198
O O7 0.626260 0.424220 0.449391
O O8 0.000000 0.500000 0.500000
O O9 0.875418 0.419924 0.460956
O O10 0.750000 0.772910 0.750000
O O11 0.500000 0.775680 0.641555
O O12 0.686085 0.826472 0.537210
O O13 0.750000 0.964845 0.750000
O O14 0.500000 0.948279 0.878387
O O15 0.749375 0.916239 0.972451
O O16 0.676073 0.000000 0.000000
O O17 0.750000 0.379249 0.250000
O O18 0.250000 0.126977 0.250000
O O19 0.500000 0.116589 0.391068
#
# Coordination Sequence:
#
# PCOD9416868 Si02
#       7
#     8   4   4   8   8   8   8
#     4  11  24  40  57  82 114 146 181 225 274 325
#     4  10  20  36  58  82 114 148 178 220 269 310
#     4  10  22  36  58  88 112 140 184 222 265 324
#     4   9  19  36  58  84 110 140 180 225 274 327
#     4  10  20  33  51  77 109 144 185 231 275 326
#     4  10  21  39  60  82 111 147 183 225 266 317
#     4   9  16  29  52  78 106 140 180 226 272 323
#
# _framework density 17.578780999999999
#
# number of rings (size 3 to 8) (size 9 to 14) (size 15 to 20)
#    0.000    2.167    0.833    3.000    1.167    4.000 
#    0.000    0.833    0.000    4.000    0.000    0.000 
#    0.000    0.000    0.000    0.000    0.000    0.000 
#
# Total GULP energy -267232.459847 kJ/mol
# GULP energy per Si atom -5567.342913 kJ/mol
# Density = 1.753877 g / cm^3
# Si number density = 17.578781 Si / 1000 Ang^3
#
#
#
# Elastic Constant Matrix: (Units=GPa)
#
#
# Indices 1 2 3 4 5 6 
#
# 1 157.5623 92.5668 55.1499 0.0000 0.0000 0.0000
# 2 92.5668 206.2340 83.7778 0.0000 0.0000 0.0000
# 3 55.1499 83.7778 65.3284 0.0000 0.0000 0.0000
# 4 0.0000 0.0000 0.0000 29.6141 0.0000 0.0000
# 5 0.0000 0.0000 0.0000 0.0000 24.0909 0.0000
# 6 0.0000 0.0000 0.0000 0.0000 0.0000 31.1227
#
#
#
# Elastic Compliance Matrix: (Units=1/GPa)
#
#
# Indices 1 2 3 4 5 6 
#
# 1 0.009418 -0.002082 -0.005281 0.000000 0.000000 0.000000
# 2 -0.002082 0.010582 -0.011813 0.000000 0.000000 0.000000
# 3 -0.005281 -0.011813 0.034914 0.000000 0.000000 0.000000
# 4 0.000000 0.000000 0.000000 0.033768 0.000000 0.000000
# 5 0.000000 0.000000 0.000000 0.000000 0.041509 0.000000
# 6 0.000000 0.000000 0.000000 0.000000 0.000000 0.032131
#
#
# Mechanical properties :
#
#
# Convention : Reuss Voigt Hill
#
# Bulk Modulus (GPa) = 60.37507 99.12374 79.74940
# Shear Modulus (GPa) = 24.24887 30.14088 27.19488
#
# Velocity S-wave (km/s) = 3.71811 4.14529 3.93750
# Velocity P-wave (km/s) = 7.26997 8.91190 8.13248
#
# Compressibility (1/GPa) = 0.01656313
#
# Stress axis : x y z
#
# Youngs Moduli (GPa) = 106.17625 94.49868 28.64172
#
# Poissons Ratio (x) = 0.19677 0.15125
# Poissons Ratio (y) = 0.22108 0.33834
# Poissons Ratio (z) = 0.56068 1.11630
#
# Static dielectric constant tensor:
#      x y z
#    x 1.584950 0.000000 0.000000 
#    y 0.000000 1.600740 0.000000 
#    z 0.000000 0.000000 1.550430 
# 
# From -- ./inp_files/6794.got.cif
#   From: 2010.05.17/outbox.cif.g08.bks.cpg/sg53_4_cif.got.tgz:6794.got - 2010.06.03 12:45:16.
