data_PCOD9416884
_publ_section_title
;
Structure prediction by ZEFSAII (Michael W. Deem and Ramdas Pophale) SiO2 
 PCOD9416884
Probable space group: P M N A
;
_chemical_formula_sum "Si O2"
_cell_formula_units_Z 64
_cell_length_a 9.317563
_cell_length_b 23.531391
_cell_length_c 15.479224
_cell_angle_alpha 90.000000
_cell_angle_beta 90.000000
_cell_angle_gamma 90.000000
_cell_volume 3393.900634
_symmetry_space_group_name_H-M "P M N A"
_symmetry_group_IT_number 53
_symmetry_cell_setting 'orthorhombic'
loop_
_space_group_symop_operation_xyz
x,y,z
1/2-x,-y,1/2+z
x,-y,-z
1/2-x,y,1/2-z
-x,-y,-z
1/2+x,y,1/2-z
-x,y,z
1/2+x,-y,1/2+z
loop_
_atom_site_type_symbol
_atom_site_label
_atom_site_fract_x
_atom_site_fract_y
_atom_site_fract_z
Si Si1 0.673741 0.249066 0.010835
Si Si2 0.662321 0.445501 0.325139
Si Si3 0.165319 0.074241 0.835767
Si Si4 0.835067 0.540704 0.414733
Si Si5 0.834542 0.635162 0.991613
Si Si6 0.173531 0.801557 0.154800
Si Si7 0.828600 0.154135 0.343629
Si Si8 0.659028 0.973721 0.904260
O O1 0.500000 0.250880 0.003567
O O2 0.743145 0.309714 0.032916
O O3 0.709679 0.202973 0.086229
O O4 0.745748 0.234607 0.918092
O O5 0.750000 0.415175 0.250000
O O6 0.500000 0.457517 0.298494
O O7 0.747205 0.502868 0.347570
O O8 0.659046 0.406355 0.409221
O O9 0.250000 0.085213 0.750000
O O10 0.189777 0.133814 0.883952
O O11 0.000000 0.070419 0.818371
O O12 0.220934 0.014365 0.867151
O O13 0.838449 0.500000 0.500000
O O14 0.749630 0.598033 0.437109
O O15 0.000000 0.551730 0.390386
O O16 0.000000 0.648699 0.016081
O O17 0.250000 0.795550 0.250000
O O18 0.000000 0.791215 0.162493
O O19 0.750000 0.157250 0.250000
O O20 0.804925 0.092215 0.388924
O O21 0.000000 0.158648 0.328175
O O22 0.500000 0.982442 0.864132
O O23 0.647603 0.000000 0.000000
#
# Coordination Sequence:
#
# PCOD9416884 Si02
#       8
#     8   8   8   8   8   8   8   8
#     4  11  23  40  61  84 113 154 203 249 297 352
#     4  10  20  34  55  84 118 153 189 233 283 336
#     4  10  20  33  52  78 105 134 171 218 275 340
#     4   9  17  32  55  81 109 141 177 218 267 323
#     4  10  21  37  57  82 113 150 192 236 284 339
#     4  10  21  38  60  86 115 147 186 237 298 361
#     4  10  23  40  58  82 115 158 203 250 302 357
#     4  10  20  35  55  79 109 144 184 234 293 353
#
# _framework density 18.857358000000001
#
# number of rings (size 3 to 8) (size 9 to 14) (size 15 to 20)
#    0.000    2.000    0.000    3.375    0.000    8.750 
#    0.000    3.125    0.000    0.000    0.000    0.000 
#    0.000    0.000    0.000    0.000    0.000    0.000 
#
# Total GULP energy -356343.319184 kJ/mol
# GULP energy per Si atom -5567.864362 kJ/mol
# Density = 1.881444 g / cm^3
# Si number density = 18.857358 Si / 1000 Ang^3
#
#
#
# Elastic Constant Matrix: (Units=GPa)
#
#
# Indices 1 2 3 4 5 6 
#
# 1 123.0836 47.4289 39.2051 0.0000 0.0000 0.0000
# 2 47.4289 82.2918 32.8320 0.0000 0.0000 0.0000
# 3 39.2051 32.8320 75.3423 0.0000 0.0000 0.0000
# 4 0.0000 0.0000 0.0000 14.4453 0.0000 0.0000
# 5 0.0000 0.0000 0.0000 0.0000 32.2694 0.0000
# 6 0.0000 0.0000 0.0000 0.0000 0.0000 -20.4181
#
#
#
# Elastic Compliance Matrix: (Units=1/GPa)
#
#
# Indices 1 2 3 4 5 6 
#
# 1 0.011218 -0.005007 -0.003656 0.000000 0.000000 0.000000
# 2 -0.005007 0.016944 -0.004778 0.000000 0.000000 0.000000
# 3 -0.003656 -0.004778 0.017257 0.000000 0.000000 0.000000
# 4 0.000000 0.000000 0.000000 0.069227 0.000000 0.000000
# 5 0.000000 0.000000 0.000000 0.000000 0.030989 0.000000
# 6 0.000000 0.000000 0.000000 0.000000 0.000000 -0.048976
#
#
# Mechanical properties :
#
#
# Convention : Reuss Voigt Hill
#
# Bulk Modulus (GPa) = 53.94426 57.73887 55.84156
# Shear Modulus (GPa) = 38.54429 16.00943 27.27686
#
# Velocity S-wave (km/s) = 4.52596 2.91688 3.80739
# Velocity P-wave (km/s) = 7.48204 6.48301 7.00037
#
# Compressibility (1/GPa) = 0.01853765
#
# Stress axis : x y z
#
# Youngs Moduli (GPa) = 89.13882 59.01732 57.94684
#
# Poissons Ratio (x) = 0.29552 0.21183
# Poissons Ratio (y) = 0.44634 0.27688
# Poissons Ratio (z) = 0.32586 0.28200
#
# Static dielectric constant tensor:
#      x y z
#    x 1.651420 0.000000 0.000000 
#    y 0.000000 1.817310 0.000000 
#    z 0.000000 0.000000 1.665740 
# 
# From -- ./inp_files/20862.got.cif
#   From: 2010.05.17/outbox.cif.g08.bks.cpg/sg53_11_cif.got.tgz:20862.got - 2010.06.03 12:45:16.
