data_PCOD9416396
_publ_section_title
;
Structure prediction by ZEFSAII (Michael W. Deem and Ramdas Pophale) SiO2 
 PCOD9416396
Probable space group: P M N A
;
_chemical_formula_sum "Si O2"
_cell_formula_units_Z 64
_cell_length_a 15.056793
_cell_length_b 22.283939
_cell_length_c 9.402989
_cell_angle_alpha 90.000000
_cell_angle_beta 90.000000
_cell_angle_gamma 90.000000
_cell_volume 3154.934657
_symmetry_space_group_name_H-M "P M N A"
_symmetry_group_IT_number 53
_symmetry_cell_setting 'orthorhombic'
loop_
_space_group_symop_operation_xyz
x,y,z
1/2-x,-y,1/2+z
x,-y,-z
1/2-x,y,1/2-z
-x,-y,-z
1/2+x,y,1/2-z
-x,y,z
1/2+x,-y,1/2+z
loop_
_atom_site_type_symbol
_atom_site_label
_atom_site_fract_x
_atom_site_fract_y
_atom_site_fract_z
Si Si1 0.638495 0.253003 0.459139
Si Si2 0.101007 0.830481 0.211519
Si Si3 0.143300 0.848497 0.749495
Si Si4 0.898919 0.358005 0.441148
Si Si5 0.102525 0.611572 0.888426
Si Si6 0.154622 0.224596 0.501737
Si Si7 0.259456 0.440852 0.921056
Si Si8 0.395489 0.066702 0.503597
O O1 0.597882 0.221398 0.594479
O O2 0.611578 0.212265 0.326555
O O3 0.610286 0.320725 0.445498
O O4 0.744645 0.243874 0.465080
O O5 0.152621 0.800554 0.340040
O O6 0.140259 0.887556 0.124390
O O7 0.000000 0.844318 0.258048
O O8 0.250000 0.853681 0.750000
O O9 0.120853 0.832819 0.588649
O O10 0.111092 0.902157 0.848976
O O11 0.873946 0.379573 0.279917
O O12 0.896347 0.286160 0.465990
O O13 0.828385 0.387446 0.547358
O O14 0.000000 0.378232 0.466241
O O15 0.000000 0.590775 0.896787
O O16 0.169631 0.574194 0.988281
O O17 0.250000 0.448618 0.750000
O O18 0.295958 0.500000 0.000000
O O19 0.500000 0.061533 0.536691
O O20 0.356106 0.000000 0.500000
#
# Coordination Sequence:
#
# PCOD9416396 Si02
#       8
#     8   8   8   8   8   8   8   8
#     4  10  19  35  58  85 123 163 199 245 308 381
#     4  10  21  34  52  84 122 156 205 259 313 380
#     4   9  19  34  56  86 114 156 202 251 307 371
#     4  11  24  41  67 100 135 175 216 269 331 393
#     4  11  23  41  69 100 132 173 220 265 321 393
#     4  11  20  34  58  90 129 158 198 262 328 379
#     4  12  28  49  73  97 131 177 220 273 324 380
#     4   9  19  38  59  77 112 166 216 259 308 377
#
# _framework density 20.285682999999999
#
# number of rings (size 3 to 8) (size 9 to 14) (size 15 to 20)
#    0.000    1.625    2.500    2.250    1.750    2.500 
#    0.000    4.375    0.000    2.250    0.000    0.000 
#    0.000    0.000    0.000    0.000    0.000    0.000 
#
# Total GULP energy -356755.442979 kJ/mol
# GULP energy per Si atom -5574.303797 kJ/mol
# Density = 2.023951 g / cm^3
# Si number density = 20.285683 Si / 1000 Ang^3
#
#
#
# Elastic Constant Matrix: (Units=GPa)
#
#
# Indices 1 2 3 4 5 6 
#
# 1 60.4883 -3.3219 15.3257 0.0000 0.0000 0.0000
# 2 -3.3219 80.0981 22.4424 0.0000 0.0000 0.0000
# 3 15.3257 22.4424 121.3103 0.0000 0.0000 0.0000
# 4 0.0000 0.0000 0.0000 5.6036 0.0000 0.0000
# 5 0.0000 0.0000 0.0000 0.0000 11.9128 0.0000
# 6 0.0000 0.0000 0.0000 0.0000 0.0000 14.7548
#
#
#
# Elastic Compliance Matrix: (Units=1/GPa)
#
#
# Indices 1 2 3 4 5 6 
#
# 1 0.017226 0.001397 -0.002435 0.000000 0.000000 0.000000
# 2 0.001397 0.013280 -0.002633 0.000000 0.000000 0.000000
# 3 -0.002435 -0.002633 0.009038 0.000000 0.000000 0.000000
# 4 0.000000 0.000000 0.000000 0.178458 0.000000 0.000000
# 5 0.000000 0.000000 0.000000 0.000000 0.083943 0.000000
# 6 0.000000 0.000000 0.000000 0.000000 0.000000 0.067774
#
#
# Mechanical properties :
#
#
# Convention : Reuss Voigt Hill
#
# Bulk Modulus (GPa) = 31.05447 36.75432 33.90439
# Shear Modulus (GPa) = 12.89338 21.61762 17.25550
#
# Velocity S-wave (km/s) = 2.52383 3.26798 2.91971
# Velocity P-wave (km/s) = 4.88208 5.69186 5.30245
#
# Compressibility (1/GPa) = 0.03220148
#
# Stress axis : x y z
#
# Youngs Moduli (GPa) = 58.05295 75.29880 110.64327
#
# Poissons Ratio (x) = -0.10516 0.26937
# Poissons Ratio (y) = -0.08107 0.29136
# Poissons Ratio (z) = 0.14133 0.19828
#
# Static dielectric constant tensor:
#      x y z
#    x 1.787840 0.000000 0.000000 
#    y 0.000000 1.713220 0.000000 
#    z 0.000000 0.000000 1.786390 
# 
# From -- ./inp_files/8921.got.cif
#   From: 2010.05.17/outbox.cif.g08.bks.cpg/sg53_5_cif.got.tgz:8921.got - 2010.06.03 12:45:16.
