data_PCOD9416324
_publ_section_title
;
Structure prediction by ZEFSAII (Michael W. Deem and Ramdas Pophale) SiO2 
 PCOD9416324
Probable space group: P M N A
;
_chemical_formula_sum "Si O2"
_cell_formula_units_Z 64
_cell_length_a 9.098387
_cell_length_b 17.803817
_cell_length_c 22.765494
_cell_angle_alpha 90.000000
_cell_angle_beta 90.000000
_cell_angle_gamma 90.000000
_cell_volume 3687.691701
_symmetry_space_group_name_H-M "P M N A"
_symmetry_group_IT_number 53
_symmetry_cell_setting 'orthorhombic'
loop_
_space_group_symop_operation_xyz
x,y,z
1/2-x,-y,1/2+z
x,-y,-z
1/2-x,y,1/2-z
-x,-y,-z
1/2+x,y,1/2-z
-x,y,z
1/2+x,-y,1/2+z
loop_
_atom_site_type_symbol
_atom_site_label
_atom_site_fract_x
_atom_site_fract_y
_atom_site_fract_z
Si Si1 0.824400 0.252107 0.190407
Si Si2 0.668719 0.010694 0.929165
Si Si3 0.330169 0.412100 0.014186
Si Si4 0.323263 0.142984 0.416116
Si Si5 0.825248 0.328306 0.912685
Si Si6 0.176198 0.426161 0.688391
Si Si7 0.172597 0.597373 0.653684
Si Si8 0.823646 0.837371 0.052216
O O1 0.750000 0.222982 0.250000
O O2 0.780568 0.203172 0.133329
O O3 0.769510 0.337104 0.180923
O O4 0.000000 0.250155 0.195654
O O5 0.500000 0.012433 0.909855
O O6 0.748072 0.089979 0.919656
O O7 0.752034 0.938146 0.904403
O O8 0.671014 0.000000 0.000000
O O9 0.500000 0.393468 0.998706
O O10 0.310678 0.400320 0.083278
O O11 0.309589 0.500000 0.000000
O O12 0.221140 0.364011 0.974884
O O13 0.500000 0.136004 0.415194
O O14 0.281643 0.166917 0.482776
O O15 0.740126 0.374209 0.862947
O O16 0.786152 0.240395 0.916114
O O17 0.000000 0.335266 0.904088
O O18 0.250000 0.405877 0.750000
O O19 0.211457 0.513563 0.674518
O O20 0.000000 0.419561 0.690662
O O21 0.000000 0.610303 0.667570
O O22 0.000000 0.846882 0.053854
#
# Coordination Sequence:
#
# PCOD9416324 Si02
#       8
#     8   8   8   8   8   8   8   8
#     4  11  23  37  54  77 107 143 186 228 269 318
#     4   9  17  29  50  81 110 135 168 206 250 308
#     4  10  19  35  54  77 109 142 175 218 274 327
#     4   9  18  34  54  76 107 144 175 211 261 316
#     4  11  22  35  54  82 110 142 181 222 268 319
#     4  11  23  40  57  75 101 138 183 228 273 320
#     4  10  21  37  57  78 105 140 179 223 272 321
#     4   9  18  33  53  79 111 141 173 212 264 323
#
# _framework density 17.355029999999999
#
# number of rings (size 3 to 8) (size 9 to 14) (size 15 to 20)
#    0.000    2.000    1.250    2.625    0.000    7.250 
#    0.000    2.500    0.000    0.750    0.000    3.500 
#    0.000    0.000    0.000    0.000    0.000    0.000 
#
# Total GULP energy -357284.331291 kJ/mol
# GULP energy per Si atom -5582.567676 kJ/mol
# Density = 1.731553 g / cm^3
# Si number density = 17.355030 Si / 1000 Ang^3
#
#
#
# Elastic Constant Matrix: (Units=GPa)
#
#
# Indices 1 2 3 4 5 6 
#
# 1 44.3057 49.4265 27.6122 0.0000 0.0000 0.0000
# 2 49.4265 114.6302 36.2878 0.0000 0.0000 0.0000
# 3 27.6122 36.2878 55.5027 0.0000 0.0000 0.0000
# 4 0.0000 0.0000 0.0000 9.7132 0.0000 0.0000
# 5 0.0000 0.0000 0.0000 0.0000 22.5512 0.0000
# 6 0.0000 0.0000 0.0000 0.0000 0.0000 -198.8941
#
#
#
# Elastic Compliance Matrix: (Units=1/GPa)
#
#
# Indices 1 2 3 4 5 6 
#
# 1 0.050656 -0.017483 -0.013771 0.000000 0.000000 0.000000
# 2 -0.017483 0.017034 -0.002440 0.000000 0.000000 0.000000
# 3 -0.013771 -0.002440 0.026463 0.000000 0.000000 0.000000
# 4 0.000000 0.000000 0.000000 0.102953 0.000000 0.000000
# 5 0.000000 0.000000 0.000000 0.000000 0.044343 0.000000
# 6 0.000000 0.000000 0.000000 0.000000 0.000000 -0.005028
#
#
# Mechanical properties :
#
#
# Convention : Reuss Voigt Hill
#
# Bulk Modulus (GPa) = 37.35910 49.01018 43.18464
# Shear Modulus (GPa) = 15.98828 -26.58513 -5.29843
#
# Velocity S-wave (km/s) = 3.03850 -3.91812 -1.74917
# Velocity P-wave (km/s) = 5.82092 2.79860 4.56702
#
# Compressibility (1/GPa) = 0.02676724
#
# Stress axis : x y z
#
# Youngs Moduli (GPa) = 19.74109 58.70570 37.78872
#
# Poissons Ratio (x) = 1.02632 0.52038
# Poissons Ratio (y) = 0.34512 0.09219
# Poissons Ratio (z) = 0.27185 0.14321
#
# Static dielectric constant tensor:
#      x y z
#    x 1.582970 0.000000 0.000000 
#    y 0.000000 1.574320 0.000000 
#    z 0.000000 0.000000 1.609190 
# 
# From -- ./inp_files/34142.got.cif
#   From: 2010.05.17/outbox.cif.g08.bks.cpg/sg53_18_cif.got.tgz:34142.got - 2010.06.03 12:45:16.
