data_PCOD9416747
_publ_section_title
;
Structure prediction by ZEFSAII (Michael W. Deem and Ramdas Pophale) SiO2 
 PCOD9416747
Probable space group: P M N A
;
_chemical_formula_sum "Si O2"
_cell_formula_units_Z 60
_cell_length_a 9.822893
_cell_length_b 20.016770
_cell_length_c 16.910151
_cell_angle_alpha 90.000000
_cell_angle_beta 90.000000
_cell_angle_gamma 90.000000
_cell_volume 3324.917685
_symmetry_space_group_name_H-M "P M N A"
_symmetry_group_IT_number 53
_symmetry_cell_setting 'orthorhombic'
loop_
_space_group_symop_operation_xyz
x,y,z
1/2-x,-y,1/2+z
x,-y,-z
1/2-x,y,1/2-z
-x,-y,-z
1/2+x,y,1/2-z
-x,y,z
1/2+x,-y,1/2+z
loop_
_atom_site_type_symbol
_atom_site_label
_atom_site_fract_x
_atom_site_fract_y
_atom_site_fract_z
Si Si1 0.340775 0.384369 0.127146
Si Si2 0.750000 0.726115 0.750000
Si Si3 0.661479 0.644101 0.049771
Si Si4 0.661401 0.530000 0.177333
Si Si5 0.163204 0.039975 0.169922
Si Si6 0.840507 0.180262 0.108994
Si Si7 0.837011 0.233375 0.942419
Si Si8 0.159723 0.108549 0.828364
O O1 0.500000 0.396561 0.114415
O O2 0.325819 0.325081 0.190659
O O3 0.286399 0.455061 0.158345
O O4 0.286818 0.366976 0.040131
O O5 0.676489 0.775767 0.688195
O O6 0.500000 0.661340 0.048369
O O7 0.675461 0.577124 0.101096
O O8 0.750662 0.703522 0.085963
O O9 0.750000 0.556523 0.250000
O O10 0.500000 0.527677 0.197540
O O11 0.250000 0.041485 0.250000
O O12 0.209936 0.104689 0.121091
O O13 0.000000 0.047439 0.185246
O O14 0.183114 0.965631 0.135446
O O15 0.000000 0.173894 0.092841
O O16 0.785109 0.215982 0.031055
O O17 0.814658 0.168192 0.888953
O O18 0.000000 0.247726 0.943002
O O19 0.250000 0.115142 0.750000
O O20 0.000000 0.111044 0.806283
#
# Coordination Sequence:
#
# PCOD9416747 Si02
#       8
#     8   4   8   8   8   8   8   8
#     4  10  20  35  56  80 109 144 178 215 264 325
#     4  12  18  32  56  82 108 138 176 216 268 320
#     4  10  21  38  58  80 107 144 183 222 267 317
#     4  10  21  38  59  82 109 141 182 224 265 318
#     4   9  17  32  52  77 106 141 180 219 261 313
#     4  10  20  32  51  80 112 141 174 216 266 323
#     4  10  21  37  54  79 111 142 177 223 273 318
#     4   9  19  35  57  78 103 141 184 225 267 315
#
# _framework density 18.045559000000001
#
# number of rings (size 3 to 8) (size 9 to 14) (size 15 to 20)
#    0.000    2.133    2.667    0.800    0.000    3.733 
#    0.000    6.667    0.000    1.600    0.000    4.667 
#    0.000    0.000    0.000    0.000    0.000    0.000 
#
# Total GULP energy -334113.036604 kJ/mol
# GULP energy per Si atom -5568.550610 kJ/mol
# Density = 1.800449 g / cm^3
# Si number density = 18.045559 Si / 1000 Ang^3
#
#
#
# Elastic Constant Matrix: (Units=GPa)
#
#
# Indices 1 2 3 4 5 6 
#
# 1 25.3231 31.5558 19.8949 0.0000 0.0000 0.0000
# 2 31.5558 113.1149 36.5443 0.0000 0.0000 0.0000
# 3 19.8949 36.5443 67.9123 0.0000 0.0000 0.0000
# 4 0.0000 0.0000 0.0000 15.1332 0.0000 0.0000
# 5 0.0000 0.0000 0.0000 0.0000 23.5174 0.0000
# 6 0.0000 0.0000 0.0000 0.0000 0.0000 26.4408
#
#
#
# Elastic Compliance Matrix: (Units=1/GPa)
#
#
# Indices 1 2 3 4 5 6 
#
# 1 0.067372 -0.015032 -0.011648 0.000000 0.000000 0.000000
# 2 -0.015032 0.014055 -0.003159 0.000000 0.000000 0.000000
# 3 -0.011648 -0.003159 0.019837 0.000000 0.000000 0.000000
# 4 0.000000 0.000000 0.000000 0.066080 0.000000 0.000000
# 5 0.000000 0.000000 0.000000 0.000000 0.042522 0.000000
# 6 0.000000 0.000000 0.000000 0.000000 0.000000 0.037820
#
#
# Mechanical properties :
#
#
# Convention : Reuss Voigt Hill
#
# Bulk Modulus (GPa) = 24.04657 42.48225 33.26441
# Shear Modulus (GPa) = 15.56534 20.90864 18.23699
#
# Velocity S-wave (km/s) = 2.94012 3.40760 3.18246
# Velocity P-wave (km/s) = 4.98800 6.25101 5.65488
#
# Compressibility (1/GPa) = 0.04158596
#
# Stress axis : x y z
#
# Youngs Moduli (GPa) = 14.84290 71.15041 50.41014
#
# Poissons Ratio (x) = 1.06952 0.58717
# Poissons Ratio (y) = 0.22312 0.15927
# Poissons Ratio (z) = 0.17289 0.22480
#
# Static dielectric constant tensor:
#      x y z
#    x 1.603090 0.000000 0.000000 
#    y 0.000000 1.651940 0.000000 
#    z 0.000000 0.000000 1.621070 
# 
# From -- ./inp_files/26567.got.cif
#   From: 2010.05.17/outbox.cif.g08.bks.cpg/sg53_14_cif.got.tgz:26567.got - 2010.06.03 12:45:16.
