data_PCOD9416681
_publ_section_title
;
Structure prediction by ZEFSAII (Michael W. Deem and Ramdas Pophale) SiO2 
 PCOD9416681
Probable space group: P M N A
;
_chemical_formula_sum "Si O2"
_cell_formula_units_Z 56
_cell_length_a 9.154522
_cell_length_b 20.348334
_cell_length_c 13.854738
_cell_angle_alpha 90.000000
_cell_angle_beta 90.000000
_cell_angle_gamma 90.000000
_cell_volume 2580.850498
_symmetry_space_group_name_H-M "P M N A"
_symmetry_group_IT_number 53
_symmetry_cell_setting 'orthorhombic'
loop_
_space_group_symop_operation_xyz
x,y,z
1/2-x,-y,1/2+z
x,-y,-z
1/2-x,y,1/2-z
-x,-y,-z
1/2+x,y,1/2-z
-x,y,z
1/2+x,-y,1/2+z
loop_
_atom_site_type_symbol
_atom_site_label
_atom_site_fract_x
_atom_site_fract_y
_atom_site_fract_z
Si Si1 0.173675 0.851208 0.051802
Si Si2 0.339766 0.028016 0.891056
Si Si3 0.829746 0.313748 0.343308
Si Si4 0.332958 0.557343 0.624906
Si Si5 0.329384 0.119857 0.154071
Si Si6 0.665561 0.589003 0.396005
Si Si7 0.325377 0.280904 0.935624
O O1 0.246342 0.861668 0.945129
O O2 0.243678 0.785219 0.095620
O O3 0.000000 0.846048 0.043161
O O4 0.219590 0.915520 0.113525
O O5 0.500000 0.058019 0.873451
O O6 0.327962 0.959569 0.836182
O O7 0.337760 0.000000 0.000000
O O8 0.750000 0.285450 0.250000
O O9 0.786875 0.390498 0.343831
O O10 0.787838 0.287892 0.449408
O O11 0.000000 0.304282 0.332298
O O12 0.500000 0.569368 0.660032
O O13 0.291589 0.482079 0.645596
O O14 0.340543 0.571571 0.510038
O O15 0.250000 0.144901 0.250000
O O16 0.500000 0.140171 0.146934
O O17 0.500000 0.604706 0.364576
O O18 0.767411 0.652407 0.385496
O O19 0.500000 0.275705 0.926691
#
# Coordination Sequence:
#
# PCOD9416681 Si02
#       7
#     8   8   8   8   8   8   8
#     4  11  21  32  49  71  97 130 165 200 238 285
#     4   8  16  32  51  70  95 125 156 195 240 282
#     4  10  20  31  44  62  87 121 157 191 228 273
#     4   8  14  26  44  63  85 111 141 182 226 267
#     4  10  20  34  52  74 100 128 159 197 239 283
#     4   8  14  26  44  65  86 110 142 181 225 267
#     4  10  20  32  45  64  92 124 157 193 231 274
#
# _framework density 21.698271999999999
#
# number of rings (size 3 to 8) (size 9 to 14) (size 15 to 20)
#    0.000    2.714    0.000    4.286    0.000    6.000 
#    0.000    4.286    0.000    0.000    0.000    1.000 
#    0.000    2.286    0.000    0.000    0.000    0.000 
#
# Total GULP energy -312309.788963 kJ/mol
# GULP energy per Si atom -5576.960517 kJ/mol
# Density = 2.164889 g / cm^3
# Si number density = 21.698272 Si / 1000 Ang^3
#
#
#
# Elastic Constant Matrix: (Units=GPa)
#
#
# Indices 1 2 3 4 5 6 
#
# 1 107.2536 74.6177 7.5027 0.0000 0.0000 0.0000
# 2 74.6177 158.4661 -8.0076 0.0000 0.0000 0.0000
# 3 7.5027 -8.0076 15.8804 0.0000 0.0000 0.0000
# 4 0.0000 0.0000 0.0000 -8.6149 0.0000 0.0000
# 5 0.0000 0.0000 0.0000 0.0000 2.3947 0.0000
# 6 0.0000 0.0000 0.0000 0.0000 0.0000 -2.9526
#
#
#
# Elastic Compliance Matrix: (Units=1/GPa)
#
#
# Indices 1 2 3 4 5 6 
#
# 1 0.015648 -0.007944 -0.011399 0.000000 0.000000 0.000000
# 2 -0.007944 0.010509 0.009052 0.000000 0.000000 0.000000
# 3 -0.011399 0.009052 0.072921 0.000000 0.000000 0.000000
# 4 0.000000 0.000000 0.000000 -0.116078 0.000000 0.000000
# 5 0.000000 0.000000 0.000000 0.000000 0.417581 0.000000
# 6 0.000000 0.000000 0.000000 0.000000 0.000000 -0.338685
#
#
# Mechanical properties :
#
#
# Convention : Reuss Voigt Hill
#
# Bulk Modulus (GPa) = 12.73953 47.75841 30.24897
# Shear Modulus (GPa) = 46.02271 11.99793 29.01032
#
# Velocity S-wave (km/s) = 4.61046 2.35403 3.66045
# Velocity P-wave (km/s) = 5.85028 5.42647 5.64236
#
# Compressibility (1/GPa) = 0.07849586
#
# Stress axis : x y z
#
# Youngs Moduli (GPa) = 63.90597 95.15947 13.71351
#
# Poissons Ratio (x) = 0.75597 0.15632
# Poissons Ratio (y) = 0.50769 -0.12414
# Poissons Ratio (z) = 0.72845 -0.86141
#
# Static dielectric constant tensor:
#      x y z
#    x 1.745500 0.000000 0.000000 
#    y 0.000000 1.814180 0.000000 
#    z 0.000000 0.000000 1.854140 
# 
# From -- ./inp_files/26697.got.cif
#   From: 2010.05.17/outbox.cif.g08.bks.cpg/sg53_14_cif.got.tgz:26697.got - 2010.06.03 12:45:16.
