data_PCOD9416049
_publ_section_title
;
Structure prediction by ZEFSAII (Michael W. Deem and Ramdas Pophale) SiO2 
 PCOD9416049
Probable space group: P M N A
;
_chemical_formula_sum "Si O2"
_cell_formula_units_Z 64
_cell_length_a 9.110845
_cell_length_b 21.843526
_cell_length_c 17.681837
_cell_angle_alpha 90.000000
_cell_angle_beta 90.000000
_cell_angle_gamma 90.000000
_cell_volume 3518.915067
_symmetry_space_group_name_H-M "P M N A"
_symmetry_group_IT_number 53
_symmetry_cell_setting 'orthorhombic'
loop_
_space_group_symop_operation_xyz
x,y,z
1/2-x,-y,1/2+z
x,-y,-z
1/2-x,y,1/2-z
-x,-y,-z
1/2+x,y,1/2-z
-x,y,z
1/2+x,-y,1/2+z
loop_
_atom_site_type_symbol
_atom_site_label
_atom_site_fract_x
_atom_site_fract_y
_atom_site_fract_z
Si Si1 0.171668 0.098051 0.570276
Si Si2 0.173138 0.114970 0.390605
Si Si3 0.675751 0.431754 0.475003
Si Si4 0.326322 0.001732 0.672559
Si Si5 0.326580 0.747705 0.906334
Si Si6 0.672499 0.620982 0.827873
Si Si7 0.324768 0.306770 0.553607
Si Si8 0.174672 0.779715 0.331044
O O1 0.193996 0.106314 0.480918
O O2 0.199246 0.161120 0.615269
O O3 0.000000 0.081465 0.581756
O O4 0.271792 0.045622 0.605475
O O5 0.269018 0.066113 0.346300
O O6 0.210482 0.185607 0.374828
O O7 0.000000 0.104708 0.374257
O O8 0.715320 0.500000 0.500000
O O9 0.500000 0.429501 0.462800
O O10 0.756766 0.414259 0.398070
O O11 0.709728 0.377946 0.535406
O O12 0.250000 0.023101 0.750000
O O13 0.500000 0.003453 0.680458
O O14 0.500000 0.749642 0.928604
O O15 0.307134 0.692993 0.847138
O O16 0.233195 0.730209 0.980125
O O17 0.750000 0.605304 0.750000
O O18 0.500000 0.608869 0.823749
O O19 0.500000 0.300078 0.560774
O O20 0.244520 0.278106 0.625651
O O21 0.250000 0.788870 0.250000
O O22 0.000000 0.772259 0.322294
#
# Coordination Sequence:
#
# PCOD9416049 Si02
#       8
#     8   8   8   8   8   8   8   8
#     4  10  21  39  62  83 108 144 183 227 281 339
#     4  10  20  38  61  84 111 145 183 225 281 339
#     4   9  19  37  60  85 115 152 193 234 278 330
#     4  12  26  41  56  78 109 145 187 235 284 334
#     4   9  18  35  57  82 111 147 183 223 275 333
#     4  10  20  34  56  85 119 152 191 235 280 331
#     4  10  19  33  56  84 113 145 182 226 274 328
#     4  11  22  37  57  84 114 147 185 230 283 334
#
# _framework density 18.187422999999999
#
# number of rings (size 3 to 8) (size 9 to 14) (size 15 to 20)
#    0.000    1.875    1.250    3.000    0.000    6.250 
#    0.000    1.875    0.000    0.000    0.000    0.000 
#    0.000    0.000    0.000    0.000    0.000    0.000 
#
# Total GULP energy -357519.887665 kJ/mol
# GULP energy per Si atom -5586.248245 kJ/mol
# Density = 1.814603 g / cm^3
# Si number density = 18.187423 Si / 1000 Ang^3
#
#
#
# Elastic Constant Matrix: (Units=GPa)
#
#
# Indices 1 2 3 4 5 6 
#
# 1 64.9746 46.8145 30.0387 0.0000 0.0000 0.0000
# 2 46.8145 96.4299 7.5572 0.0000 0.0000 0.0000
# 3 30.0387 7.5572 44.9219 0.0000 0.0000 0.0000
# 4 0.0000 0.0000 0.0000 10.5986 0.0000 0.0000
# 5 0.0000 0.0000 0.0000 0.0000 28.1052 0.0000
# 6 0.0000 0.0000 0.0000 0.0000 0.0000 22.5265
#
#
#
# Elastic Compliance Matrix: (Units=1/GPa)
#
#
# Indices 1 2 3 4 5 6 
#
# 1 0.037649 -0.016523 -0.022396 0.000000 0.000000 0.000000
# 2 -0.016523 0.017760 0.008061 0.000000 0.000000 0.000000
# 3 -0.022396 0.008061 0.035881 0.000000 0.000000 0.000000
# 4 0.000000 0.000000 0.000000 0.094352 0.000000 0.000000
# 5 0.000000 0.000000 0.000000 0.000000 0.035581 0.000000
# 6 0.000000 0.000000 0.000000 0.000000 0.000000 0.044392
#
#
# Mechanical properties :
#
#
# Convention : Reuss Voigt Hill
#
# Bulk Modulus (GPa) = 33.81343 41.68301 37.74822
# Shear Modulus (GPa) = 14.82851 20.37379 17.60115
#
# Velocity S-wave (km/s) = 2.85847 3.35059 3.11427
# Velocity P-wave (km/s) = 5.43383 6.15930 5.80790
#
# Compressibility (1/GPa) = 0.02957405
#
# Stress axis : x y z
#
# Youngs Moduli (GPa) = 26.56101 56.30670 27.87022
#
# Poissons Ratio (x) = 0.93034 0.62418
# Poissons Ratio (y) = 0.43886 -0.22465
# Poissons Ratio (z) = 0.59486 -0.45387
#
# Static dielectric constant tensor:
#      x y z
#    x 1.604350 0.000000 0.000000 
#    y 0.000000 1.628200 0.000000 
#    z 0.000000 0.000000 1.600100 
# 
# From -- ./inp_files/20901.got.cif
#   From: 2010.05.17/outbox.cif.g08.bks.cpg/sg53_11_cif.got.tgz:20901.got - 2010.06.03 12:45:16.
