data_PCOD9416917
_publ_section_title
;
Structure prediction by ZEFSAII (Michael W. Deem and Ramdas Pophale) SiO2 
 PCOD9416917
Probable space group: P M N A
;
_chemical_formula_sum "Si O2"
_cell_formula_units_Z 64
_cell_length_a 9.618694
_cell_length_b 23.371077
_cell_length_c 15.022873
_cell_angle_alpha 90.000000
_cell_angle_beta 90.000000
_cell_angle_gamma 90.000000
_cell_volume 3377.130405
_symmetry_space_group_name_H-M "P M N A"
_symmetry_group_IT_number 53
_symmetry_cell_setting 'orthorhombic'
loop_
_space_group_symop_operation_xyz
x,y,z
1/2-x,-y,1/2+z
x,-y,-z
1/2-x,y,1/2-z
-x,-y,-z
1/2+x,y,1/2-z
-x,y,z
1/2+x,-y,1/2+z
loop_
_atom_site_type_symbol
_atom_site_label
_atom_site_fract_x
_atom_site_fract_y
_atom_site_fract_z
Si Si1 0.159684 0.068530 0.500907
Si Si2 0.837236 0.578271 0.832899
Si Si3 0.159996 0.378028 0.498045
Si Si4 0.334549 0.845603 0.842531
Si Si5 0.655823 0.539921 0.410866
Si Si6 0.655309 0.222492 0.671693
Si Si7 0.155291 0.088037 0.828214
Si Si8 0.159562 0.241090 0.500456
O O1 0.194227 0.099787 0.407510
O O2 0.265040 0.085372 0.578502
O O3 0.000000 0.085769 0.522741
O O4 0.162873 0.000000 0.500000
O O5 0.750000 0.599868 0.750000
O O6 0.759393 0.603210 0.917998
O O7 0.828901 0.509052 0.837265
O O8 0.000000 0.593384 0.831217
O O9 0.228671 0.411277 0.581494
O O10 0.161894 0.309706 0.498542
O O11 0.000000 0.396899 0.486061
O O12 0.250000 0.845485 0.750000
O O13 0.500000 0.845578 0.822906
O O14 0.305964 0.790899 0.907560
O O15 0.662161 0.500000 0.500000
O O16 0.500000 0.564704 0.407385
O O17 0.750000 0.248532 0.750000
O O18 0.500000 0.247436 0.667423
O O19 0.640038 0.155231 0.692829
O O20 0.734943 0.224991 0.578336
O O21 0.250000 0.061785 0.750000
O O22 0.000000 0.062928 0.832219
O O23 0.000000 0.223778 0.522596
#
# Coordination Sequence:
#
# PCOD9416917 Si02
#       8
#     8   8   8   8   8   8   8   8
#     4  10  21  38  60  85 114 151 193 238 292 345
#     4  10  20  34  53  77 107 142 182 229 279 330
#     4  10  20  33  53  80 108 140 183 228 277 333
#     4  10  22  40  60  81 114 154 193 239 284 338
#     4   8  16  32  51  72 100 135 172 212 265 319
#     4  10  20  34  57  85 110 141 182 229 282 342
#     4  10  20  34  56  85 113 143 181 228 282 339
#     4  10  21  38  58  82 114 154 194 237 287 339
#
# _framework density 18.951000000000001
#
# number of rings (size 3 to 8) (size 9 to 14) (size 15 to 20)
#    0.000    2.250    1.250    2.250    0.000    7.000 
#    0.000    3.125    0.000    1.500    0.000    0.000 
#    0.000    0.000    0.000    0.000    0.000    0.000 
#
# Total GULP energy -356496.811531 kJ/mol
# GULP energy per Si atom -5570.262680 kJ/mol
# Density = 1.890787 g / cm^3
# Si number density = 18.951000 Si / 1000 Ang^3
#
#
#
# Elastic Constant Matrix: (Units=GPa)
#
#
# Indices 1 2 3 4 5 6 
#
# 1 166.5890 34.4645 82.2997 0.0000 0.0000 0.0000
# 2 34.4645 62.6302 0.7228 0.0000 0.0000 0.0000
# 3 82.2997 0.7228 96.8873 0.0000 0.0000 0.0000
# 4 0.0000 0.0000 0.0000 3.4224 0.0000 0.0000
# 5 0.0000 0.0000 0.0000 0.0000 16.7482 0.0000
# 6 0.0000 0.0000 0.0000 0.0000 0.0000 20.8650
#
#
#
# Elastic Compliance Matrix: (Units=1/GPa)
#
#
# Indices 1 2 3 4 5 6 
#
# 1 0.012758 -0.006896 -0.010786 0.000000 0.000000 0.000000
# 2 -0.006896 0.019696 0.005711 0.000000 0.000000 0.000000
# 3 -0.010786 0.005711 0.019440 0.000000 0.000000 0.000000
# 4 0.000000 0.000000 0.000000 0.292194 0.000000 0.000000
# 5 0.000000 0.000000 0.000000 0.000000 0.059708 0.000000
# 6 0.000000 0.000000 0.000000 0.000000 0.000000 0.047927
#
#
# Mechanical properties :
#
#
# Convention : Reuss Voigt Hill
#
# Bulk Modulus (GPa) = 35.77536 62.34228 49.05882
# Shear Modulus (GPa) = 10.30968 22.11509 16.21239
#
# Velocity S-wave (km/s) = 2.33495 3.41979 2.92805
# Velocity P-wave (km/s) = 5.11743 6.96859 6.11348
#
# Compressibility (1/GPa) = 0.02795220
#
# Stress axis : x y z
#
# Youngs Moduli (GPa) = 78.38346 50.77289 51.43961
#
# Poissons Ratio (x) = 0.35013 0.55480
# Poissons Ratio (y) = 0.54053 -0.29376
# Poissons Ratio (z) = 0.84540 -0.28995
#
# Static dielectric constant tensor:
#      x y z
#    x 1.677360 0.000000 0.000000 
#    y 0.000000 1.685580 0.000000 
#    z 0.000000 0.000000 1.684880 
# 
# From -- ./inp_files/21023.got.cif
#   From: 2010.05.17/outbox.cif.g08.bks.cpg/sg53_11_cif.got.tgz:21023.got - 2010.06.03 12:45:16.
