data_PCOD9416808
_publ_section_title
;
Structure prediction by ZEFSAII (Michael W. Deem and Ramdas Pophale) SiO2 
 PCOD9416808
Probable space group: P M N A
;
_chemical_formula_sum "Si O2"
_cell_formula_units_Z 40
_cell_length_a 8.652921
_cell_length_b 26.992321
_cell_length_c 9.712288
_cell_angle_alpha 90.000000
_cell_angle_beta 90.000000
_cell_angle_gamma 90.000000
_cell_volume 2268.425501
_symmetry_space_group_name_H-M "P M N A"
_symmetry_group_IT_number 53
_symmetry_cell_setting 'orthorhombic'
loop_
_space_group_symop_operation_xyz
x,y,z
1/2-x,-y,1/2+z
x,-y,-z
1/2-x,y,1/2-z
-x,-y,-z
1/2+x,y,1/2-z
-x,y,z
1/2+x,-y,1/2+z
loop_
_atom_site_type_symbol
_atom_site_label
_atom_site_fract_x
_atom_site_fract_y
_atom_site_fract_z
Si Si1 0.313690 0.757734 0.595424
Si Si2 0.185474 0.045995 0.596332
Si Si3 0.185909 0.848459 0.095905
Si Si4 0.685168 0.453820 0.094829
Si Si5 0.814693 0.648784 0.905797
O O1 0.250000 0.762548 0.750000
O O2 0.500000 0.758836 0.603312
O O3 0.263135 0.803084 0.500208
O O4 0.271244 0.703075 0.537379
O O5 0.250000 0.038472 0.750000
O O6 0.252506 0.098395 0.545132
O O7 0.000000 0.049466 0.602225
O O8 0.228646 0.000000 0.500000
O O9 0.250000 0.841841 0.250000
O O10 0.000000 0.849751 0.100501
O O11 0.750000 0.459224 0.250000
O O12 0.500000 0.451998 0.102849
O O13 0.745315 0.401580 0.033802
O O14 0.731641 0.500000 0.000000
O O15 0.750000 0.649751 0.750000
O O16 0.000000 0.644723 0.903429
#
# Coordination Sequence:
#
# PCOD9416808 Si02
#       5
#     8   8   8   8   8
#     4   9  19  33  51  76 101 127 163 205 244 288
#     4  10  21  36  54  76 101 131 167 204 245 292
#     4  10  20  35  53  74 102 134 166 200 244 294
#     4  10  20  33  50  73  99 128 164 203 245 293
#     4   9  16  29  49  71  97 128 162 200 244 290
#
# _framework density 17.633375999999998
#
# number of rings (size 3 to 8) (size 9 to 14) (size 15 to 20)
#    0.000    2.400    0.000    4.800    0.000    6.400 
#    0.000    5.000    0.000    4.800    0.000    0.000 
#    0.000    0.000    0.000    0.000    0.000    0.000 
#
# Total GULP energy -222991.049806 kJ/mol
# GULP energy per Si atom -5574.776245 kJ/mol
# Density = 1.759324 g / cm^3
# Si number density = 17.633376 Si / 1000 Ang^3
#
#
#
# Elastic Constant Matrix: (Units=GPa)
#
#
# Indices 1 2 3 4 5 6 
#
# 1 45.8054 51.0773 20.7623 0.0000 0.0000 0.0000
# 2 51.0773 226.1872 80.7134 0.0000 0.0000 0.0000
# 3 20.7623 80.7134 49.0598 0.0000 0.0000 0.0000
# 4 0.0000 0.0000 0.0000 42.1291 0.0000 0.0000
# 5 0.0000 0.0000 0.0000 0.0000 5.4054 0.0000
# 6 0.0000 0.0000 0.0000 0.0000 0.0000 43.3053
#
#
#
# Elastic Compliance Matrix: (Units=1/GPa)
#
#
# Indices 1 2 3 4 5 6 
#
# 1 0.029452 -0.005335 -0.003687 0.000000 0.000000 0.000000
# 2 -0.005335 0.011673 -0.016947 0.000000 0.000000 0.000000
# 3 -0.003687 -0.016947 0.049825 0.000000 0.000000 0.000000
# 4 0.000000 0.000000 0.000000 0.023737 0.000000 0.000000
# 5 0.000000 0.000000 0.000000 0.000000 0.185000 0.000000
# 6 0.000000 0.000000 0.000000 0.000000 0.000000 0.023092
#
#
# Mechanical properties :
#
#
# Convention : Reuss Voigt Hill
#
# Bulk Modulus (GPa) = 25.63304 69.57316 47.60310
# Shear Modulus (GPa) = 12.89588 29.40125 21.14857
#
# Velocity S-wave (km/s) = 2.70725 4.08777 3.46692
# Velocity P-wave (km/s) = 4.93361 7.86262 6.56359
#
# Compressibility (1/GPa) = 0.03901215
#
# Stress axis : x y z
#
# Youngs Moduli (GPa) = 33.95381 85.66474 20.07022
#
# Poissons Ratio (x) = 0.45704 0.07399
# Poissons Ratio (y) = 0.18115 0.34013
# Poissons Ratio (z) = 0.12517 1.45178
#
# Static dielectric constant tensor:
#      x y z
#    x 1.594660 0.000000 0.000000 
#    y 0.000000 1.647490 0.000000 
#    z 0.000000 0.000000 1.589010 
# 
# From -- ./inp_files/13983.got.cif
#   From: 2010.05.17/outbox.cif.g08.bks.cpg/sg53_7_cif.got.tgz:13983.got - 2010.06.03 12:45:16.
