data_PCOD9416601
_publ_section_title
;
Structure prediction by ZEFSAII (Michael W. Deem and Ramdas Pophale) SiO2 
 PCOD9416601
Probable space group: P M N A
;
_chemical_formula_sum "Si O2"
_cell_formula_units_Z 64
_cell_length_a 7.777190
_cell_length_b 14.710945
_cell_length_c 26.069445
_cell_angle_alpha 90.000000
_cell_angle_beta 90.000000
_cell_angle_gamma 90.000000
_cell_volume 2982.600363
_symmetry_space_group_name_H-M "P M N A"
_symmetry_group_IT_number 53
_symmetry_cell_setting 'orthorhombic'
loop_
_space_group_symop_operation_xyz
x,y,z
1/2-x,-y,1/2+z
x,-y,-z
1/2-x,y,1/2-z
-x,-y,-z
1/2+x,y,1/2-z
-x,y,z
1/2+x,-y,1/2+z
loop_
_atom_site_type_symbol
_atom_site_label
_atom_site_fract_x
_atom_site_fract_y
_atom_site_fract_z
Si Si1 0.795996 0.181125 0.694907
Si Si2 0.210528 0.730017 0.410680
Si Si3 0.793415 0.783481 0.807674
Si Si4 0.293710 0.470272 0.943515
Si Si5 0.294558 0.344301 0.400964
Si Si6 0.304337 0.023528 0.445928
Si Si7 0.700115 0.795586 0.981110
Si Si8 0.205946 0.984797 0.835980
O O1 0.750000 0.222876 0.750000
O O2 0.728133 0.231211 0.643766
O O3 0.000000 0.181010 0.690782
O O4 0.737337 0.076227 0.694696
O O5 0.268278 0.627637 0.423713
O O6 0.260980 0.790163 0.460215
O O7 0.000000 0.730127 0.410409
O O8 0.750000 0.754229 0.750000
O O9 0.731764 0.714647 0.852114
O O10 0.728429 0.887667 0.815740
O O11 0.000000 0.785970 0.811545
O O12 0.500000 0.462903 0.948053
O O13 0.252812 0.550171 0.903401
O O14 0.226757 0.500000 0.000000
O O15 0.500000 0.336407 0.403114
O O16 0.218583 0.300102 0.452713
O O17 0.500000 0.988119 0.447349
O O18 0.304449 0.132739 0.447384
O O19 0.220847 0.995965 0.392900
O O20 0.219375 0.000000 0.500000
O O21 0.500000 0.820939 0.980212
O O22 0.000000 0.974200 0.841215
#
# Coordination Sequence:
#
# PCOD9416601 Si02
#       8
#     8   8   8   8   8   8   8   8
#     4  11  23  40  60  83 113 151 195 243 287 332
#     4   9  20  38  59  85 117 149 186 235 288 340
#     4  10  22  39  58  80 114 152 192 239 284 337
#     4  10  19  37  63  88 116 151 190 232 283 348
#     4  11  22  38  57  85 121 151 185 237 291 341
#     4  10  20  34  52  79 119 159 189 230 291 346
#     4  11  20  34  57  84 115 152 191 231 281 344
#     4  10  20  37  57  82 115 152 193 237 284 336
#
# _framework density 21.457785000000001
#
# number of rings (size 3 to 8) (size 9 to 14) (size 15 to 20)
#    0.000    1.750    2.500    2.250    0.000    3.500 
#    0.000    3.750    0.000    3.000    0.000    0.000 
#    0.000    0.000    0.000    0.000    0.000    0.000 
#
# Total GULP energy -357405.298151 kJ/mol
# GULP energy per Si atom -5584.457784 kJ/mol
# Density = 2.140895 g / cm^3
# Si number density = 21.457785 Si / 1000 Ang^3
#
#
#
# Elastic Constant Matrix: (Units=GPa)
#
#
# Indices 1 2 3 4 5 6 
#
# 1 40.7023 3.4621 3.7604 0.0000 0.0000 0.0000
# 2 3.4621 86.6094 42.7749 0.0000 0.0000 0.0000
# 3 3.7604 42.7749 168.2530 0.0000 0.0000 0.0000
# 4 0.0000 0.0000 0.0000 10.7063 0.0000 0.0000
# 5 0.0000 0.0000 0.0000 0.0000 20.5197 0.0000
# 6 0.0000 0.0000 0.0000 0.0000 0.0000 18.6625
#
#
#
# Elastic Compliance Matrix: (Units=1/GPa)
#
#
# Indices 1 2 3 4 5 6 
#
# 1 0.024670 -0.000816 -0.000344 0.000000 0.000000 0.000000
# 2 -0.000816 0.013231 -0.003345 0.000000 0.000000 0.000000
# 3 -0.000344 -0.003345 0.006802 0.000000 0.000000 0.000000
# 4 0.000000 0.000000 0.000000 0.093403 0.000000 0.000000
# 5 0.000000 0.000000 0.000000 0.000000 0.048734 0.000000
# 6 0.000000 0.000000 0.000000 0.000000 0.000000 0.053583
#
#
# Mechanical properties :
#
#
# Convention : Reuss Voigt Hill
#
# Bulk Modulus (GPa) = 28.01811 43.95107 35.98459
# Shear Modulus (GPa) = 19.13281 26.34885 22.74083
#
# Velocity S-wave (km/s) = 2.98929 3.50800 3.25898
# Velocity P-wave (km/s) = 5.00001 6.07743 5.56486
#
# Compressibility (1/GPa) = 0.03569120
#
# Stress axis : x y z
#
# Youngs Moduli (GPa) = 40.53535 75.58014 147.02351
#
# Poissons Ratio (x) = 0.06170 0.05055
# Poissons Ratio (y) = 0.03309 0.49186
# Poissons Ratio (z) = 0.01394 0.25285
#
# Static dielectric constant tensor:
#      x y z
#    x 1.798070 0.000000 0.000000 
#    y 0.000000 1.822230 0.000000 
#    z 0.000000 0.000000 1.861760 
# 
# From -- ./inp_files/34305.got.cif
#   From: 2010.05.17/outbox.cif.g08.bks.cpg/sg53_18_cif.got.tgz:34305.got - 2010.06.03 12:45:16.
