data_PCOD9416342
_publ_section_title
;
Structure prediction by ZEFSAII (Michael W. Deem and Ramdas Pophale) SiO2 
 PCOD9416342
Probable space group: P M N A
;
_chemical_formula_sum "Si O2"
_cell_formula_units_Z 40
_cell_length_a 9.035261
_cell_length_b 12.983961
_cell_length_c 20.520173
_cell_angle_alpha 90.000000
_cell_angle_beta 90.000000
_cell_angle_gamma 90.000000
_cell_volume 2407.292832
_symmetry_space_group_name_H-M "P M N A"
_symmetry_group_IT_number 53
_symmetry_cell_setting 'orthorhombic'
loop_
_space_group_symop_operation_xyz
x,y,z
1/2-x,-y,1/2+z
x,-y,-z
1/2-x,y,1/2-z
-x,-y,-z
1/2+x,y,1/2-z
-x,y,z
1/2+x,-y,1/2+z
loop_
_atom_site_type_symbol
_atom_site_label
_atom_site_fract_x
_atom_site_fract_y
_atom_site_fract_z
Si Si1 0.177864 0.052419 0.430416
Si Si2 0.823968 0.734225 0.954929
Si Si3 0.821099 0.693198 0.404517
Si Si4 0.322447 0.887489 0.180400
Si Si5 0.829472 0.531482 0.576773
O O1 0.258766 0.161247 0.425363
O O2 0.000000 0.068169 0.429636
O O3 0.214171 0.000000 0.500000
O O4 0.217989 0.974277 0.372632
O O5 0.769637 0.632243 0.916860
O O6 0.000000 0.737197 0.958293
O O7 0.755643 0.724168 0.027699
O O8 0.781697 0.776560 0.350180
O O9 0.783158 0.574616 0.388397
O O10 0.000000 0.696740 0.414797
O O11 0.250000 0.904336 0.250000
O O12 0.500000 0.889467 0.186783
O O13 0.826403 0.500000 0.500000
O O14 0.000000 0.555830 0.593012
#
# Coordination Sequence:
#
# PCOD9416342 Si02
#       5
#     8   8   8   8   8
#     4  10  19  35  56  73  99 140 182 214 250 313
#     4  11  20  28  46  78 110 132 163 218 269 300
#     4   9  17  33  52  71  99 138 176 205 247 313
#     4  10  21  36  55  77 103 136 172 216 263 313
#     4   8  15  28  48  70  97 133 171 203 240 304
#
# _framework density 16.616174999999998
#
# number of rings (size 3 to 8) (size 9 to 14) (size 15 to 20)
#    0.000    2.400    2.000    3.000    0.000    5.600 
#    0.000    0.000    0.000    1.200    0.000    2.800 
#    0.000    0.000    0.000    0.000    0.000    0.000 
#
# Total GULP energy -223005.621830 kJ/mol
# GULP energy per Si atom -5575.140546 kJ/mol
# Density = 1.657836 g / cm^3
# Si number density = 16.616175 Si / 1000 Ang^3
#
#
#
# Elastic Constant Matrix: (Units=GPa)
#
#
# Indices 1 2 3 4 5 6 
#
# 1 43.4268 61.7024 33.0565 0.0000 0.0000 0.0000
# 2 61.7024 167.0186 67.2424 0.0000 0.0000 0.0000
# 3 33.0565 67.2424 90.5533 0.0000 0.0000 0.0000
# 4 0.0000 0.0000 0.0000 16.9378 0.0000 0.0000
# 5 0.0000 0.0000 0.0000 0.0000 19.9388 0.0000
# 6 0.0000 0.0000 0.0000 0.0000 0.0000 -0.1925
#
#
#
# Elastic Compliance Matrix: (Units=1/GPa)
#
#
# Indices 1 2 3 4 5 6 
#
# 1 0.051102 -0.016216 -0.006613 0.000000 0.000000 0.000000
# 2 -0.016216 0.013687 -0.004244 0.000000 0.000000 0.000000
# 3 -0.006613 -0.004244 0.016608 0.000000 0.000000 0.000000
# 4 0.000000 0.000000 0.000000 0.059039 0.000000 0.000000
# 5 0.000000 0.000000 0.000000 0.000000 0.050154 0.000000
# 6 0.000000 0.000000 0.000000 0.000000 0.000000 -5.195754
#
#
# Mechanical properties :
#
#
# Convention : Reuss Voigt Hill
#
# Bulk Modulus (GPa) = 36.69557 69.44460 53.07008
# Shear Modulus (GPa) = -1.01175 16.60333 7.79579
#
# Velocity S-wave (km/s) = -0.78116 3.16448 2.16838
# Velocity P-wave (km/s) = 4.61720 7.43210 6.18687
#
# Compressibility (1/GPa) = 0.02725125
#
# Stress axis : x y z
#
# Youngs Moduli (GPa) = 19.56878 73.06337 60.21038
#
# Poissons Ratio (x) = 1.18482 0.39816
# Poissons Ratio (y) = 0.31734 0.25551
# Poissons Ratio (z) = 0.12941 0.31005
#
# Static dielectric constant tensor:
#      x y z
#    x 1.549680 0.000000 0.000000 
#    y 0.000000 1.590060 0.000000 
#    z 0.000000 0.000000 1.532720 
# 
# From -- ./inp_files/30357.got.cif
#   From: 2010.05.17/outbox.cif.g08.bks.cpg/sg53_16_cif.got.tgz:30357.got - 2010.06.03 12:45:16.
