data_PCOD9416767
_publ_section_title
;
Structure prediction by ZEFSAII (Michael W. Deem and Ramdas Pophale) SiO2 
 PCOD9416767
Probable space group: P M N A
;
_chemical_formula_sum "Si O2"
_cell_formula_units_Z 64
_cell_length_a 8.750413
_cell_length_b 19.599999
_cell_length_c 23.867800
_cell_angle_alpha 90.000000
_cell_angle_beta 90.000000
_cell_angle_gamma 90.000000
_cell_volume 4093.520696
_symmetry_space_group_name_H-M "P M N A"
_symmetry_group_IT_number 53
_symmetry_cell_setting 'orthorhombic'
loop_
_space_group_symop_operation_xyz
x,y,z
1/2-x,-y,1/2+z
x,-y,-z
1/2-x,y,1/2-z
-x,-y,-z
1/2+x,y,1/2-z
-x,y,z
1/2+x,-y,1/2+z
loop_
_atom_site_type_symbol
_atom_site_label
_atom_site_fract_x
_atom_site_fract_y
_atom_site_fract_z
Si Si1 0.683621 0.243508 0.129627
Si Si2 0.684735 0.391055 0.976654
Si Si3 0.183617 0.976270 0.590408
Si Si4 0.684181 0.386805 0.188369
Si Si5 0.318003 0.109002 0.311769
Si Si6 0.685450 0.477467 0.087191
Si Si7 0.183437 0.108400 0.521948
Si Si8 0.181299 0.249181 0.004377
O O1 0.500000 0.237051 0.128214
O O2 0.724086 0.313391 0.161662
O O3 0.753145 0.179007 0.161695
O O4 0.743748 0.247111 0.066250
O O5 0.500000 0.384225 0.975442
O O6 0.725564 0.426654 0.036103
O O7 0.759733 0.317409 0.974272
O O8 0.732826 0.446283 0.929856
O O9 0.265867 0.950361 0.645751
O O10 0.220074 0.925452 0.538557
O O11 0.000000 0.973372 0.598194
O O12 0.223442 0.051801 0.568447
O O13 0.750000 0.393871 0.250000
O O14 0.500000 0.389593 0.190925
O O15 0.738427 0.445235 0.145287
O O16 0.250000 0.099605 0.250000
O O17 0.500000 0.112715 0.308871
O O18 0.500000 0.478387 0.088070
O O19 0.265458 0.180393 0.526386
O O20 0.000000 0.117750 0.523264
O O21 0.000000 0.250556 0.010024
#
# Coordination Sequence:
#
# PCOD9416767 Si02
#       8
#     8   8   8   8   8   8   8   8
#     4  11  21  35  51  67  97 137 177 211 239 282
#     4   9  16  31  53  69  90 126 166 206 245 291
#     4   9  18  34  54  75  97 128 168 209 248 294
#     4  10  20  33  49  70  95 128 167 205 242 287
#     4  12  24  36  51  73 102 137 174 210 247 291
#     4   8  15  30  51  71  89 122 170 207 240 289
#     4   9  18  33  54  74  98 131 166 202 248 301
#     4  12  22  30  46  76 107 132 161 200 251 304
#
# _framework density 15.634463999999999
#
# number of rings (size 3 to 8) (size 9 to 14) (size 15 to 20)
#    0.000    2.000    2.500    4.500    0.000    2.500 
#    0.000    3.125    0.000    0.000    0.000    0.875 
#    0.000    2.000    0.000    0.000    0.000    0.000 
#
# Total GULP energy -357151.371004 kJ/mol
# GULP energy per Si atom -5580.490172 kJ/mol
# Density = 1.559888 g / cm^3
# Si number density = 15.634464 Si / 1000 Ang^3
#
#
#
# Elastic Constant Matrix: (Units=GPa)
#
#
# Indices 1 2 3 4 5 6 
#
# 1 54.0383 52.1757 37.5926 0.0000 0.0000 0.0000
# 2 52.1757 144.6551 69.7143 0.0000 0.0000 0.0000
# 3 37.5926 69.7143 94.8506 0.0000 0.0000 0.0000
# 4 0.0000 0.0000 0.0000 18.2947 0.0000 0.0000
# 5 0.0000 0.0000 0.0000 0.0000 23.4236 0.0000
# 6 0.0000 0.0000 0.0000 0.0000 0.0000 49.4659
#
#
#
# Elastic Compliance Matrix: (Units=1/GPa)
#
#
# Indices 1 2 3 4 5 6 
#
# 1 0.030591 -0.008038 -0.006216 0.000000 0.000000 0.000000
# 2 -0.008038 0.012817 -0.006235 0.000000 0.000000 0.000000
# 3 -0.006216 -0.006235 0.017589 0.000000 0.000000 0.000000
# 4 0.000000 0.000000 0.000000 0.054661 0.000000 0.000000
# 5 0.000000 0.000000 0.000000 0.000000 0.042692 0.000000
# 6 0.000000 0.000000 0.000000 0.000000 0.000000 0.020216
#
#
# Mechanical properties :
#
#
# Convention : Reuss Voigt Hill
#
# Bulk Modulus (GPa) = 49.95280 68.05656 59.00468
# Shear Modulus (GPa) = 22.10277 27.17426 24.63852
#
# Velocity S-wave (km/s) = 3.76403 4.17358 3.97408
# Velocity P-wave (km/s) = 7.13515 8.17614 7.67332
#
# Compressibility (1/GPa) = 0.02001890
#
# Stress axis : x y z
#
# Youngs Moduli (GPa) = 32.68963 78.02244 56.85365
#
# Poissons Ratio (x) = 0.62713 0.35343
# Poissons Ratio (y) = 0.26276 0.35446
# Poissons Ratio (z) = 0.20321 0.48644
#
# Static dielectric constant tensor:
#      x y z
#    x 1.522140 0.000000 0.000000 
#    y 0.000000 1.526820 0.000000 
#    z 0.000000 0.000000 1.499940 
# 
# From -- ./inp_files/34527.got.cif
#   From: 2010.05.17/outbox.cif.g08.bks.cpg/sg53_18_cif.got.tgz:34527.got - 2010.06.03 12:45:16.
