data_PCOD9416535
_publ_section_title
;
Structure prediction by ZEFSAII (Michael W. Deem and Ramdas Pophale) SiO2 
 PCOD9416535
Probable space group: P M N A
;
_chemical_formula_sum "Si O2"
_cell_formula_units_Z 32
_cell_length_a 7.514150
_cell_length_b 11.101009
_cell_length_c 21.192261
_cell_angle_alpha 90.000000
_cell_angle_beta 90.000000
_cell_angle_gamma 90.000000
_cell_volume 1767.744966
_symmetry_space_group_name_H-M "P M N A"
_symmetry_group_IT_number 53
_symmetry_cell_setting 'orthorhombic'
loop_
_space_group_symop_operation_xyz
x,y,z
1/2-x,-y,1/2+z
x,-y,-z
1/2-x,y,1/2-z
-x,-y,-z
1/2+x,y,1/2-z
-x,y,z
1/2+x,-y,1/2+z
loop_
_atom_site_type_symbol
_atom_site_label
_atom_site_fract_x
_atom_site_fract_y
_atom_site_fract_z
Si Si1 0.000000 0.449357 0.902307
Si Si2 0.211160 0.317636 0.676752
Si Si3 0.212285 0.041921 0.677274
Si Si4 0.287468 0.101023 0.054027
Si Si5 0.500000 0.696853 0.532666
O O1 0.173878 0.407526 0.864504
O O2 0.000000 0.590958 0.915798
O O3 0.000000 0.373547 0.966800
O O4 0.250000 0.342153 0.750000
O O5 0.274601 0.179231 0.666085
O O6 0.000000 0.324898 0.664668
O O7 0.250000 0.007882 0.750000
O O8 0.000000 0.046947 0.671479
O O9 0.272486 0.953995 0.621604
O O10 0.500000 0.126192 0.055877
O O11 0.171521 0.217486 0.038536
O O12 0.259313 0.000000 0.000000
#
# Coordination Sequence:
#
# PCOD9416535 Si02
#       5
#     4   8   8   8   4
#     4  11  24  40  58  86 116 157 207 240 286 344
#     4  10  19  36  62  89 117 148 191 249 293 339
#     4   9  19  32  56  89 116 145 187 240 301 356
#     4  10  21  39  61  87 119 153 195 241 301 363
#     4  11  25  40  58  84 119 161 201 240 284 354
#
# _framework density 18.102160000000001
#
# number of rings (size 3 to 8) (size 9 to 14) (size 15 to 20)
#    0.000    2.000    1.250    1.875    3.500    4.000 
#    0.000    3.750    0.000    0.000    0.000    0.000 
#    0.000    0.000    0.000    0.000    0.000    0.000 
#
# Total GULP energy -178641.652883 kJ/mol
# GULP energy per Si atom -5582.551653 kJ/mol
# Density = 1.806096 g / cm^3
# Si number density = 18.102160 Si / 1000 Ang^3
#
#
#
# Elastic Constant Matrix: (Units=GPa)
#
#
# Indices 1 2 3 4 5 6 
#
# 1 102.6036 60.4907 34.4457 0.0000 0.0000 0.0000
# 2 60.4907 125.1946 61.3855 0.0000 0.0000 0.0000
# 3 34.4457 61.3855 71.7515 0.0000 0.0000 0.0000
# 4 0.0000 0.0000 0.0000 32.4148 0.0000 0.0000
# 5 0.0000 0.0000 0.0000 0.0000 24.8678 0.0000
# 6 0.0000 0.0000 0.0000 0.0000 0.0000 6.4657
#
#
#
# Elastic Compliance Matrix: (Units=1/GPa)
#
#
# Indices 1 2 3 4 5 6 
#
# 1 0.013731 -0.005861 -0.001578 0.000000 0.000000 0.000000
# 2 -0.005861 0.016261 -0.011098 0.000000 0.000000 0.000000
# 3 -0.001578 -0.011098 0.024189 0.000000 0.000000 0.000000
# 4 0.000000 0.000000 0.000000 0.030850 0.000000 0.000000
# 5 0.000000 0.000000 0.000000 0.000000 0.040213 0.000000
# 6 0.000000 0.000000 0.000000 0.000000 0.000000 0.154663
#
#
# Mechanical properties :
#
#
# Convention : Reuss Voigt Hill
#
# Bulk Modulus (GPa) = 58.45268 68.02149 63.23708
# Shear Modulus (GPa) = 15.49506 22.29818 18.89662
#
# Velocity S-wave (km/s) = 2.92889 3.51350 3.23443
# Velocity P-wave (km/s) = 6.61803 7.35647 6.99700
#
# Compressibility (1/GPa) = 0.01710786
#
# Stress axis : x y z
#
# Youngs Moduli (GPa) = 72.82622 61.49644 41.34073
#
# Poissons Ratio (x) = 0.36043 0.06522
# Poissons Ratio (y) = 0.42684 0.45881
# Poissons Ratio (z) = 0.11490 0.68250
#
# Static dielectric constant tensor:
#      x y z
#    x 1.627650 0.000000 0.000000 
#    y 0.000000 1.591920 0.000000 
#    z 0.000000 0.000000 1.641950 
# 
# From -- ./inp_files/30053.got.cif
#   From: 2010.05.17/outbox.cif.g08.bks.cpg/sg53_16_cif.got.tgz:30053.got - 2010.06.03 12:45:16.
