data_PCOD9416823
_publ_section_title
;
Structure prediction by ZEFSAII (Michael W. Deem and Ramdas Pophale) SiO2 
 PCOD9416823
Probable space group: P M N A
;
_chemical_formula_sum "Si O2"
_cell_formula_units_Z 56
_cell_length_a 10.079422
_cell_length_b 14.811777
_cell_length_c 19.714932
_cell_angle_alpha 90.000000
_cell_angle_beta 90.000000
_cell_angle_gamma 90.000000
_cell_volume 2943.324034
_symmetry_space_group_name_H-M "P M N A"
_symmetry_group_IT_number 53
_symmetry_cell_setting 'orthorhombic'
loop_
_space_group_symop_operation_xyz
x,y,z
1/2-x,-y,1/2+z
x,-y,-z
1/2-x,y,1/2-z
-x,-y,-z
1/2+x,y,1/2-z
-x,y,z
1/2+x,-y,1/2+z
loop_
_atom_site_type_symbol
_atom_site_label
_atom_site_fract_x
_atom_site_fract_y
_atom_site_fract_z
Si Si1 0.140836 0.045383 0.701648
Si Si2 0.156812 0.894514 0.978437
Si Si3 0.655817 0.650892 0.812049
Si Si4 0.339740 0.508475 0.922476
Si Si5 0.350597 0.144442 0.143398
Si Si6 0.841998 0.350176 0.683368
Si Si7 0.350123 0.179654 0.914292
O O1 0.250000 0.083793 0.750000
O O2 0.149613 0.085894 0.626974
O O3 0.000000 0.072625 0.730838
O O4 0.148473 0.938029 0.695925
O O5 0.233991 0.877213 0.908705
O O6 0.000000 0.875558 0.974722
O O7 0.235091 0.830600 0.031209
O O8 0.171463 0.000000 0.000000
O O9 0.750000 0.622888 0.750000
O O10 0.500000 0.630038 0.798017
O O11 0.693953 0.599713 0.881654
O O12 0.667150 0.757926 0.823758
O O13 0.500000 0.505890 0.927466
O O14 0.303758 0.427714 0.871047
O O15 0.289130 0.500000 0.000000
O O16 0.500000 0.143392 0.111690
O O17 0.750000 0.352953 0.750000
O O18 0.828370 0.257035 0.641512
O O19 0.000000 0.360735 0.700154
O O20 0.500000 0.193696 0.942639
#
# Coordination Sequence:
#
# PCOD9416823 Si02
#       7
#     8   8   8   8   8   8   8
#     4  10  20  33  50  75 107 142 184 230 275 328
#     4  11  23  37  55  82 113 150 190 237 291 336
#     4  10  21  37  61  88 116 153 193 239 290 341
#     4   9  19  36  59  89 118 149 194 240 283 340
#     4  10  21  36  56  81 110 150 193 230 278 342
#     4  10  21  37  61  88 116 153 193 239 290 341
#     4  10  21  36  56  81 110 150 193 230 278 342
#
# _framework density 19.026108000000001
#
# number of rings (size 3 to 8) (size 9 to 14) (size 15 to 20)
#    0.000    2.000    1.429    1.714    2.000    2.857 
#    0.000    0.000    0.000    0.857    0.000    0.000 
#    0.000    0.000    0.000    0.000    0.000    0.000 
#
# Total GULP energy -312204.492615 kJ/mol
# GULP energy per Si atom -5575.080225 kJ/mol
# Density = 1.898280 g / cm^3
# Si number density = 19.026108 Si / 1000 Ang^3
#
#
#
# Elastic Constant Matrix: (Units=GPa)
#
#
# Indices 1 2 3 4 5 6 
#
# 1 128.6187 3.2159 64.3961 0.0000 0.0000 0.0000
# 2 3.2159 50.8904 -5.3485 0.0000 0.0000 0.0000
# 3 64.3961 -5.3485 69.4838 0.0000 0.0000 0.0000
# 4 0.0000 0.0000 0.0000 19.7459 0.0000 0.0000
# 5 0.0000 0.0000 0.0000 0.0000 37.8078 0.0000
# 6 0.0000 0.0000 0.0000 0.0000 0.0000 11.4474
#
#
#
# Elastic Compliance Matrix: (Units=1/GPa)
#
#
# Indices 1 2 3 4 5 6 
#
# 1 0.014790 -0.002395 -0.013891 0.000000 0.000000 0.000000
# 2 -0.002395 0.020198 0.003774 0.000000 0.000000 0.000000
# 3 -0.013891 0.003774 0.027556 0.000000 0.000000 0.000000
# 4 0.000000 0.000000 0.000000 0.050643 0.000000 0.000000
# 5 0.000000 0.000000 0.000000 0.000000 0.026450 0.000000
# 6 0.000000 0.000000 0.000000 0.000000 0.000000 0.087356
#
#
# Mechanical properties :
#
#
# Convention : Reuss Voigt Hill
#
# Bulk Modulus (GPa) = 26.65198 41.50220 34.07709
# Shear Modulus (GPa) = 18.90192 26.24885 22.57539
#
# Velocity S-wave (km/s) = 3.15536 3.71836 3.44837
# Velocity P-wave (km/s) = 5.22624 6.34788 5.81417
#
# Compressibility (1/GPa) = 0.03752066
#
# Stress axis : x y z
#
# Youngs Moduli (GPa) = 67.61458 49.50977 36.28933
#
# Poissons Ratio (x) = 0.11855 0.50410
# Poissons Ratio (y) = 0.16190 -0.13695
# Poissons Ratio (z) = 0.93924 -0.18685
#
# Static dielectric constant tensor:
#      x y z
#    x 1.669350 0.000000 0.000000 
#    y 0.000000 1.691150 0.000000 
#    z 0.000000 0.000000 1.670680 
# 
# From -- ./inp_files/30815.got.cif
#   From: 2010.05.17/outbox.cif.g08.bks.cpg/sg53_16_cif.got.tgz:30815.got - 2010.06.03 12:45:16.
