data_PCOD9416777
_publ_section_title
;
Structure prediction by ZEFSAII (Michael W. Deem and Ramdas Pophale) SiO2 
 PCOD9416777
Probable space group: P M N A
;
_chemical_formula_sum "Si O2"
_cell_formula_units_Z 64
_cell_length_a 8.724781
_cell_length_b 27.988720
_cell_length_c 15.200179
_cell_angle_alpha 90.000000
_cell_angle_beta 90.000000
_cell_angle_gamma 90.000000
_cell_volume 3711.814589
_symmetry_space_group_name_H-M "P M N A"
_symmetry_group_IT_number 53
_symmetry_cell_setting 'orthorhombic'
loop_
_space_group_symop_operation_xyz
x,y,z
1/2-x,-y,1/2+z
x,-y,-z
1/2-x,y,1/2-z
-x,-y,-z
1/2+x,y,1/2-z
-x,y,z
1/2+x,-y,1/2+z
loop_
_atom_site_type_symbol
_atom_site_label
_atom_site_fract_x
_atom_site_fract_y
_atom_site_fract_z
Si Si1 0.684829 0.610671 0.530406
Si Si2 0.817001 0.920255 0.344547
Si Si3 0.184738 0.696379 0.845117
Si Si4 0.183550 0.424388 0.842945
Si Si5 0.684741 0.806057 0.654887
Si Si6 0.683818 0.110298 0.475543
Si Si7 0.816895 0.530543 0.655705
Si Si8 0.683552 0.032569 0.154849
O O1 0.500000 0.606050 0.538142
O O2 0.731936 0.659083 0.580003
O O3 0.722517 0.607614 0.427356
O O4 0.760455 0.566390 0.580971
O O5 0.750000 0.905980 0.250000
O O6 0.748786 0.891775 0.426378
O O7 0.000000 0.916317 0.343235
O O8 0.778191 0.976592 0.357801
O O9 0.250000 0.682049 0.750000
O O10 0.232845 0.751196 0.862218
O O11 0.000000 0.695714 0.840133
O O12 0.250000 0.407189 0.750000
O O13 0.251662 0.477329 0.858798
O O14 0.000000 0.428470 0.836062
O O15 0.750000 0.820369 0.750000
O O16 0.500000 0.807039 0.660012
O O17 0.732108 0.842841 0.579393
O O18 0.500000 0.108557 0.478120
O O19 0.746057 0.065047 0.420976
O O20 0.750000 0.546887 0.750000
O O21 0.000000 0.528967 0.659711
O O22 0.750000 0.047058 0.250000
O O23 0.500000 0.037435 0.155156
#
# Coordination Sequence:
#
# PCOD9416777 Si02
#       8
#     8   8   8   8   8   8   8   8
#     4  10  20  33  51  73  97 128 164 202 244 289
#     4  10  21  36  52  71  98 132 169 208 248 290
#     4   9  18  34  53  74 100 128 158 194 241 291
#     4  10  20  34  50  69  96 129 165 203 241 283
#     4   9  19  34  52  75 102 130 160 197 241 291
#     4  11  21  32  50  75 101 132 168 204 245 294
#     4  11  21  32  48  71 101 133 163 198 239 286
#     4  10  20  33  49  72 102 134 167 204 246 293
#
# _framework density 17.242241
#
# number of rings (size 3 to 8) (size 9 to 14) (size 15 to 20)
#    0.000    2.000    0.000    4.875    0.000    9.000 
#    0.000    0.000    0.000    0.750    0.000    1.750 
#    0.000    0.000    0.000    0.000    0.000    0.000 
#
# Total GULP energy -357400.875474 kJ/mol
# GULP energy per Si atom -5584.388679 kJ/mol
# Density = 1.720300 g / cm^3
# Si number density = 17.242241 Si / 1000 Ang^3
#
#
#
# Elastic Constant Matrix: (Units=GPa)
#
#
# Indices 1 2 3 4 5 6 
#
# 1 42.3105 31.1857 49.7038 0.0000 0.0000 0.0000
# 2 31.1857 71.1666 84.1138 0.0000 0.0000 0.0000
# 3 49.7038 84.1138 179.1987 0.0000 0.0000 0.0000
# 4 0.0000 0.0000 0.0000 27.9676 0.0000 0.0000
# 5 0.0000 0.0000 0.0000 0.0000 32.0467 0.0000
# 6 0.0000 0.0000 0.0000 0.0000 0.0000 11.6202
#
#
#
# Elastic Compliance Matrix: (Units=1/GPa)
#
#
# Indices 1 2 3 4 5 6 
#
# 1 0.037627 -0.009329 -0.006058 0.000000 0.000000 0.000000
# 2 -0.009329 0.033874 -0.013313 0.000000 0.000000 0.000000
# 3 -0.006058 -0.013313 0.013509 0.000000 0.000000 0.000000
# 4 0.000000 0.000000 0.000000 0.035756 0.000000 0.000000
# 5 0.000000 0.000000 0.000000 0.000000 0.031205 0.000000
# 6 0.000000 0.000000 0.000000 0.000000 0.000000 0.086057
#
#
# Mechanical properties :
#
#
# Convention : Reuss Voigt Hill
#
# Bulk Modulus (GPa) = 36.21558 69.18692 52.70125
# Shear Modulus (GPa) = 16.41342 22.83840 19.62591
#
# Velocity S-wave (km/s) = 3.08868 3.64340 3.37745
# Velocity P-wave (km/s) = 5.81116 7.61004 6.77061
#
# Compressibility (1/GPa) = 0.02761242
#
# Stress axis : x y z
#
# Youngs Moduli (GPa) = 26.57677 29.52124 74.02250
#
# Poissons Ratio (x) = 0.27539 0.44841
# Poissons Ratio (y) = 0.24792 0.98543
# Poissons Ratio (z) = 0.16100 0.39300
#
# Static dielectric constant tensor:
#      x y z
#    x 1.578790 0.000000 0.000000 
#    y 0.000000 1.579520 0.000000 
#    z 0.000000 0.000000 1.580190 
# 
# From -- ./inp_files/21064.got.cif
#   From: 2010.05.17/outbox.cif.g08.bks.cpg/sg53_11_cif.got.tgz:21064.got - 2010.06.03 12:45:16.
