data_PCOD9416162
_publ_section_title
;
Structure prediction by ZEFSAII (Michael W. Deem and Ramdas Pophale) SiO2 
 PCOD9416162
Probable space group: P M N A
;
_chemical_formula_sum "Si O2"
_cell_formula_units_Z 48
_cell_length_a 16.012617
_cell_length_b 14.732110
_cell_length_c 9.326163
_cell_angle_alpha 90.000000
_cell_angle_beta 90.000000
_cell_angle_gamma 90.000000
_cell_volume 2200.038448
_symmetry_space_group_name_H-M "P M N A"
_symmetry_group_IT_number 53
_symmetry_cell_setting 'orthorhombic'
loop_
_space_group_symop_operation_xyz
x,y,z
1/2-x,-y,1/2+z
x,-y,-z
1/2-x,y,1/2-z
-x,-y,-z
1/2+x,y,1/2-z
-x,y,z
1/2+x,-y,1/2+z
loop_
_atom_site_type_symbol
_atom_site_label
_atom_site_fract_x
_atom_site_fract_y
_atom_site_fract_z
Si Si1 0.602136 0.423488 0.386156
Si Si2 0.095007 0.240320 0.971169
Si Si3 0.159481 0.243753 0.671808
Si Si4 0.651944 0.861458 0.713592
Si Si5 0.169031 0.039125 0.653379
Si Si6 0.099054 0.319694 0.384636
O O1 0.629599 0.500000 0.500000
O O2 0.500000 0.427269 0.385164
O O3 0.630870 0.330349 0.458511
O O4 0.625344 0.404190 0.219163
O O5 0.098091 0.258565 0.804050
O O6 0.000000 0.228465 0.017641
O O7 0.142428 0.156154 0.043218
O O8 0.250000 0.250583 0.750000
O O9 0.137070 0.140341 0.627763
O O10 0.147403 0.307155 0.534398
O O11 0.750000 0.860241 0.750000
O O12 0.612836 0.774993 0.796446
O O13 0.618002 0.958798 0.767016
O O14 0.250000 0.052553 0.750000
O O15 0.191839 0.000000 0.500000
O O16 0.000000 0.328420 0.413257
#
# Coordination Sequence:
#
# PCOD9416162 Si02
#       6
#     8   8   8   8   8   8
#     4   8  16  34  60  84 108 145 190 231 283 358
#     4  10  21  36  55  82 115 144 183 240 298 351
#     4  11  22  36  55  79 113 156 201 244 290 345
#     4  10  19  34  56  78 107 149 202 243 288 347
#     4  10  21  34  53  78 110 149 206 252 281 337
#     4  10  19  34  55  83 117 150 192 248 298 346
#
# _framework density 21.817800999999999
#
# number of rings (size 3 to 8) (size 9 to 14) (size 15 to 20)
#    0.000    2.167    1.667    3.000    7.000    0.000 
#    0.000    5.833    0.000   10.000    0.000    0.000 
#    0.000    0.000    0.000    0.000    0.000    8.667 
#
# Total GULP energy -267309.697945 kJ/mol
# GULP energy per Si atom -5568.952041 kJ/mol
# Density = 2.176814 g / cm^3
# Si number density = 21.817801 Si / 1000 Ang^3
#
#
#
# Elastic Constant Matrix: (Units=GPa)
#
#
# Indices 1 2 3 4 5 6 
#
# 1 41.3358 16.9538 14.8461 0.0000 0.0000 0.0000
# 2 16.9538 72.9329 60.9708 0.0000 0.0000 0.0000
# 3 14.8461 60.9708 177.2218 0.0000 0.0000 0.0000
# 4 0.0000 0.0000 0.0000 48.3643 0.0000 0.0000
# 5 0.0000 0.0000 0.0000 0.0000 30.7941 0.0000
# 6 0.0000 0.0000 0.0000 0.0000 0.0000 8.9082
#
#
#
# Elastic Compliance Matrix: (Units=1/GPa)
#
#
# Indices 1 2 3 4 5 6 
#
# 1 0.026744 -0.006098 -0.000143 0.000000 0.000000 0.000000
# 2 -0.006098 0.020637 -0.006589 0.000000 0.000000 0.000000
# 3 -0.000143 -0.006589 0.007921 0.000000 0.000000 0.000000
# 4 0.000000 0.000000 0.000000 0.020676 0.000000 0.000000
# 5 0.000000 0.000000 0.000000 0.000000 0.032474 0.000000
# 6 0.000000 0.000000 0.000000 0.000000 0.000000 0.112256
#
#
# Mechanical properties :
#
#
# Convention : Reuss Voigt Hill
#
# Bulk Modulus (GPa) = 33.73358 53.00354 43.36856
# Shear Modulus (GPa) = 19.51224 30.86131 25.18677
#
# Velocity S-wave (km/s) = 2.99377 3.76507 3.40135
# Velocity P-wave (km/s) = 5.23883 6.57628 5.94528
#
# Compressibility (1/GPa) = 0.02964406
#
# Stress axis : x y z
#
# Youngs Moduli (GPa) = 37.39115 48.45641 126.23896
#
# Poissons Ratio (x) = 0.29548 0.01799
# Poissons Ratio (y) = 0.22800 0.83180
# Poissons Ratio (z) = 0.00533 0.31928
#
# Static dielectric constant tensor:
#      x y z
#    x 1.853880 0.000000 0.000000 
#    y 0.000000 1.869170 0.000000 
#    z 0.000000 0.000000 1.943950 
# 
# From -- ./inp_files/10024.got.cif
#   From: 2010.05.17/outbox.cif.g08.bks.cpg/sg53_6_cif.got.tgz:10024.got - 2010.06.03 12:45:16.
