data_PCOD9416555
_publ_section_title
;
Structure prediction by ZEFSAII (Michael W. Deem and Ramdas Pophale) SiO2 
 PCOD9416555
Probable space group: P M N A
;
_chemical_formula_sum "Si O2"
_cell_formula_units_Z 44
_cell_length_a 27.238189
_cell_length_b 15.678630
_cell_length_c 5.067647
_cell_angle_alpha 90.000000
_cell_angle_beta 90.000000
_cell_angle_gamma 90.000000
_cell_volume 2164.176594
_symmetry_space_group_name_H-M "P M N A"
_symmetry_group_IT_number 53
_symmetry_cell_setting 'orthorhombic'
loop_
_space_group_symop_operation_xyz
x,y,z
1/2-x,-y,1/2+z
x,-y,-z
1/2-x,y,1/2-z
-x,-y,-z
1/2+x,y,1/2-z
-x,y,z
1/2+x,-y,1/2+z
loop_
_atom_site_type_symbol
_atom_site_label
_atom_site_fract_x
_atom_site_fract_y
_atom_site_fract_z
Si Si1 0.655181 0.162839 0.169309
Si Si2 0.652561 0.557227 0.242854
Si Si3 0.444781 0.339868 0.848018
Si Si4 0.055081 0.218967 0.152467
Si Si5 0.194067 0.258170 0.822870
Si Si6 0.716890 0.000000 0.000000
O O1 0.599307 0.156249 0.271484
O O2 0.681949 0.219351 0.392574
O O3 0.683237 0.074995 0.117391
O O4 0.659778 0.213534 0.895495
O O5 0.650820 0.500000 0.500000
O O6 0.598028 0.591883 0.178372
O O7 0.684074 0.641416 0.302401
O O8 0.670863 0.500000 0.000000
O O9 0.500000 0.374941 0.812276
O O10 0.438259 0.266339 0.626266
O O11 0.442135 0.294186 0.130556
O O12 0.000000 0.182027 0.162802
O O13 0.250000 0.239794 0.750000
O O14 0.750000 0.970633 0.250000
#
# Coordination Sequence:
#
# PCOD9416555 Si02
#       6
#     8   8   8   8   8   4
#     4  12  22  43  67  93 127 163 202 258 313 379
#     4  12  24  38  59  87 125 158 211 267 311 364
#     4  10  20  37  59  87 120 159 207 258 310 369
#     4  10  19  36  64  91 119 160 207 248 304 379
#     4  12  25  42  65  88 119 171 216 252 312 378
#     4  12  26  42  65 102 133 160 206 266 320 368
#
# _framework density 20.331057999999999
#
# number of rings (size 3 to 8) (size 9 to 14) (size 15 to 20)
#    0.000    0.727    3.636    5.455    0.000    1.455 
#    0.000    0.455    0.000    0.000    0.000    7.636 
#    0.000    0.000    0.000    0.000    0.000    0.000 
#
# Total GULP energy -246112.666614 kJ/mol
# GULP energy per Si atom -5593.469696 kJ/mol
# Density = 2.028478 g / cm^3
# Si number density = 20.331058 Si / 1000 Ang^3
#
#
#
# Elastic Constant Matrix: (Units=GPa)
#
#
# Indices 1 2 3 4 5 6 
#
# 1 91.0194 37.5060 13.1717 0.0000 0.0000 0.0000
# 2 37.5060 102.9977 25.8143 0.0000 0.0000 0.0000
# 3 13.1717 25.8143 100.7920 0.0000 0.0000 0.0000
# 4 0.0000 0.0000 0.0000 23.3306 0.0000 0.0000
# 5 0.0000 0.0000 0.0000 0.0000 28.4992 0.0000
# 6 0.0000 0.0000 0.0000 0.0000 0.0000 3.9291
#
#
#
# Elastic Compliance Matrix: (Units=1/GPa)
#
#
# Indices 1 2 3 4 5 6 
#
# 1 0.012952 -0.004586 -0.000518 0.000000 0.000000 0.000000
# 2 -0.004586 0.011999 -0.002474 0.000000 0.000000 0.000000
# 3 -0.000518 -0.002474 0.010623 0.000000 0.000000 0.000000
# 4 0.000000 0.000000 0.000000 0.042862 0.000000 0.000000
# 5 0.000000 0.000000 0.000000 0.000000 0.035089 0.000000
# 6 0.000000 0.000000 0.000000 0.000000 0.000000 0.254514
#
#
# Mechanical properties :
#
#
# Convention : Reuss Voigt Hill
#
# Bulk Modulus (GPa) = 48.97852 49.75478 49.36665
# Shear Modulus (GPa) = 12.82053 25.70625 19.26339
#
# Velocity S-wave (km/s) = 2.51388 3.55967 3.08147
# Velocity P-wave (km/s) = 5.70692 6.43587 6.08233
#
# Compressibility (1/GPa) = 0.02041711
#
# Stress axis : x y z
#
# Youngs Moduli (GPa) = 77.21099 83.33973 94.13829
#
# Poissons Ratio (x) = 0.38223 0.04875
# Poissons Ratio (y) = 0.35412 0.23288
# Poissons Ratio (z) = 0.03999 0.20616
#
# Static dielectric constant tensor:
#      x y z
#    x 1.788100 0.000000 0.000000 
#    y 0.000000 1.680790 0.000000 
#    z 0.000000 0.000000 1.601740 
# 
# From -- ./inp_files/4408.got.cif
#   From: 2010.05.17/outbox.cif.g08.bks.cpg/sg53_3_cif.got.tgz:4408.got - 2010.06.03 12:45:16.
