data_PCOD9416578
_publ_section_title
;
Structure prediction by ZEFSAII (Michael W. Deem and Ramdas Pophale) SiO2 
 PCOD9416578
Probable space group: P M N A
;
_chemical_formula_sum "Si O2"
_cell_formula_units_Z 64
_cell_length_a 9.058624
_cell_length_b 23.575649
_cell_length_c 14.840313
_cell_angle_alpha 90.000000
_cell_angle_beta 90.000000
_cell_angle_gamma 90.000000
_cell_volume 3169.340873
_symmetry_space_group_name_H-M "P M N A"
_symmetry_group_IT_number 53
_symmetry_cell_setting 'orthorhombic'
loop_
_space_group_symop_operation_xyz
x,y,z
1/2-x,-y,1/2+z
x,-y,-z
1/2-x,y,1/2-z
-x,-y,-z
1/2+x,y,1/2-z
-x,y,z
1/2+x,-y,1/2+z
loop_
_atom_site_type_symbol
_atom_site_label
_atom_site_fract_x
_atom_site_fract_y
_atom_site_fract_z
Si Si1 0.824237 0.644177 0.155910
Si Si2 0.174455 0.404167 0.340704
Si Si3 0.171456 0.972413 0.843138
Si Si4 0.329102 0.889794 0.973446
Si Si5 0.677630 0.684298 0.534024
Si Si6 0.670403 0.513616 0.393579
Si Si7 0.672321 0.219216 0.153324
Si Si8 0.328269 0.890495 0.343136
O O1 0.750000 0.658266 0.250000
O O2 0.792548 0.578583 0.128811
O O3 0.000000 0.648012 0.165906
O O4 0.781505 0.683369 0.071379
O O5 0.250000 0.381159 0.250000
O O6 0.253224 0.372043 0.422350
O O7 0.216967 0.470057 0.348765
O O8 0.000000 0.395462 0.340294
O O9 0.250000 0.954783 0.750000
O O10 0.248510 0.943118 0.927813
O O11 0.000000 0.955856 0.840710
O O12 0.180014 0.040594 0.847611
O O13 0.500000 0.903220 0.991849
O O14 0.321111 0.840201 0.899409
O O15 0.251857 0.870885 0.065985
O O16 0.500000 0.682676 0.541454
O O17 0.745273 0.735428 0.590599
O O18 0.674529 0.500000 0.500000
O O19 0.500000 0.502645 0.363860
O O20 0.750000 0.215799 0.250000
O O21 0.500000 0.235100 0.164387
O O22 0.250000 0.872991 0.250000
O O23 0.500000 0.874267 0.342538
#
# Coordination Sequence:
#
# PCOD9416578 Si02
#       8
#     8   8   8   8   8   8   8   8
#     4  10  22  39  62  88 118 155 193 238 290 343
#     4  12  24  37  57  86 118 154 194 236 287 347
#     4  10  20  34  55  86 123 162 204 249 298 356
#     4  11  23  38  59  87 121 159 201 247 301 360
#     4  11  23  43  65  86 114 153 195 241 298 350
#     4  10  19  37  59  84 121 157 191 236 286 343
#     4  11  25  44  65  92 120 151 191 243 298 354
#     4  10  21  37  58  86 122 162 205 250 298 351
#
# _framework density 20.193473999999998
#
# number of rings (size 3 to 8) (size 9 to 14) (size 15 to 20)
#    0.000    1.375    1.250    4.500    0.000    8.750 
#    0.000    0.625    0.000    1.500    0.000    0.000 
#    0.000    0.000    0.000    0.000    0.000    0.000 
#
# Total GULP energy -357878.050668 kJ/mol
# GULP energy per Si atom -5591.844542 kJ/mol
# Density = 2.014751 g / cm^3
# Si number density = 20.193474 Si / 1000 Ang^3
#
#
#
# Elastic Constant Matrix: (Units=GPa)
#
#
# Indices 1 2 3 4 5 6 
#
# 1 136.4562 27.9358 75.3181 0.0000 0.0000 0.0000
# 2 27.9358 21.0970 15.4786 0.0000 0.0000 0.0000
# 3 75.3181 15.4786 169.6759 0.0000 0.0000 0.0000
# 4 0.0000 0.0000 0.0000 20.6538 0.0000 0.0000
# 5 0.0000 0.0000 0.0000 0.0000 38.0363 0.0000
# 6 0.0000 0.0000 0.0000 0.0000 0.0000 148.6467
#
#
#
# Elastic Compliance Matrix: (Units=1/GPa)
#
#
# Indices 1 2 3 4 5 6 
#
# 1 0.012425 -0.013296 -0.004303 0.000000 0.000000 0.000000
# 2 -0.013296 0.065028 -0.000030 0.000000 0.000000 0.000000
# 3 -0.004303 -0.000030 0.007806 0.000000 0.000000 0.000000
# 4 0.000000 0.000000 0.000000 0.048417 0.000000 0.000000
# 5 0.000000 0.000000 0.000000 0.000000 0.026291 0.000000
# 6 0.000000 0.000000 0.000000 0.000000 0.000000 0.006727
#
#
# Mechanical properties :
#
#
# Convention : Reuss Voigt Hill
#
# Bulk Modulus (GPa) = 19.99914 62.74379 41.37147
# Shear Modulus (GPa) = 22.87071 55.36714 39.11892
#
# Velocity S-wave (km/s) = 3.36903 5.24193 4.40615
# Velocity P-wave (km/s) = 5.00591 8.23261 6.81304
#
# Compressibility (1/GPa) = 0.05000214
#
# Stress axis : x y z
#
# Youngs Moduli (GPa) = 80.48135 15.37789 128.10331
#
# Poissons Ratio (x) = 0.20447 0.55117
# Poissons Ratio (y) = 1.07010 0.00385
# Poissons Ratio (z) = 0.34627 0.00046
#
# Static dielectric constant tensor:
#      x y z
#    x 1.680540 0.000000 0.000000 
#    y 0.000000 1.735320 0.000000 
#    z 0.000000 0.000000 1.727090 
# 
# From -- ./inp_files/20835.got.cif
#   From: 2010.05.17/outbox.cif.g08.bks.cpg/sg53_11_cif.got.tgz:20835.got - 2010.06.03 12:45:16.
