data_PCOD9416025
_publ_section_title
;
Structure prediction by ZEFSAII (Michael W. Deem and Ramdas Pophale) SiO2 
 PCOD9416025
Probable space group: P M N A
;
_chemical_formula_sum "Si O2"
_cell_formula_units_Z 64
_cell_length_a 7.960426
_cell_length_b 12.192753
_cell_length_c 32.815969
_cell_angle_alpha 90.000000
_cell_angle_beta 90.000000
_cell_angle_gamma 90.000000
_cell_volume 3185.101805
_symmetry_space_group_name_H-M "P M N A"
_symmetry_group_IT_number 53
_symmetry_cell_setting 'orthorhombic'
loop_
_space_group_symop_operation_xyz
x,y,z
1/2-x,-y,1/2+z
x,-y,-z
1/2-x,y,1/2-z
-x,-y,-z
1/2+x,y,1/2-z
-x,y,z
1/2+x,-y,1/2+z
loop_
_atom_site_type_symbol
_atom_site_label
_atom_site_fract_x
_atom_site_fract_y
_atom_site_fract_z
Si Si1 0.804124 0.999624 0.546251
Si Si2 0.693689 0.624659 0.007755
Si Si3 0.192385 0.228432 0.921355
Si Si4 0.202153 0.561959 0.794722
Si Si5 0.799698 0.814019 0.794907
Si Si6 0.794234 0.571454 0.127210
Si Si7 0.700373 0.842637 0.881549
Si Si8 0.195576 0.634429 0.923352
O O1 0.790213 0.120694 0.565362
O O2 0.000000 0.969696 0.541429
O O3 0.730660 0.000000 0.500000
O O4 0.734847 0.918917 0.581372
O O5 0.500000 0.624035 0.021226
O O6 0.801417 0.690931 0.039702
O O7 0.750756 0.500000 0.000000
O O8 0.706805 0.675948 0.962862
O O9 0.259776 0.306578 0.885227
O O10 0.000000 0.197102 0.912670
O O11 0.250000 0.521450 0.750000
O O12 0.266771 0.687622 0.797780
O O13 0.261496 0.480828 0.830242
O O14 0.000000 0.567285 0.798054
O O15 0.750000 0.855807 0.750000
O O16 0.738944 0.877313 0.835194
O O17 0.000000 0.810495 0.796488
O O18 0.741416 0.482304 0.093177
O O19 0.000000 0.572710 0.126486
O O20 0.500000 0.832768 0.885151
O O21 0.783363 0.724014 0.888354
O O22 0.000000 0.624182 0.933911
#
# Coordination Sequence:
#
# PCOD9416025 Si02
#       8
#     8   8   8   8   8   8   8   8
#     4  10  23  43  61  78 111 153 193 245 298 343
#     4  11  22  34  49  75 110 145 179 222 273 329
#     4  11  22  37  59  82 106 143 190 235 277 333
#     4   9  17  32  51  77 113 150 180 216 270 330
#     4  10  19  33  55  84 118 154 189 235 289 345
#     4   9  18  33  52  78 113 144 174 221 278 327
#     4  11  22  36  57  84 115 152 193 238 290 344
#     4  11  20  34  54  78 111 147 184 227 276 332
#
# _framework density 20.093548999999999
#
# number of rings (size 3 to 8) (size 9 to 14) (size 15 to 20)
#    0.000    1.750    2.500    2.625    0.000    3.250 
#    0.000    1.250    0.000    0.750    0.000    3.500 
#    0.000    0.000    0.000    0.000    0.000    0.000 
#
# Total GULP energy -357146.670241 kJ/mol
# GULP energy per Si atom -5580.416723 kJ/mol
# Density = 2.004781 g / cm^3
# Si number density = 20.093549 Si / 1000 Ang^3
#
#
#
# Elastic Constant Matrix: (Units=GPa)
#
#
# Indices 1 2 3 4 5 6 
#
# 1 39.7316 -1.6766 6.1021 0.0000 0.0000 0.0000
# 2 -1.6766 61.3093 27.9304 0.0000 0.0000 0.0000
# 3 6.1021 27.9304 135.5922 0.0000 0.0000 0.0000
# 4 0.0000 0.0000 0.0000 28.0737 0.0000 0.0000
# 5 0.0000 0.0000 0.0000 0.0000 23.2166 0.0000
# 6 0.0000 0.0000 0.0000 0.0000 0.0000 15.4386
#
#
#
# Elastic Compliance Matrix: (Units=1/GPa)
#
#
# Indices 1 2 3 4 5 6 
#
# 1 0.025444 0.001344 -0.001422 0.000000 0.000000 0.000000
# 2 0.001344 0.018071 -0.003783 0.000000 0.000000 0.000000
# 3 -0.001422 -0.003783 0.008218 0.000000 0.000000 0.000000
# 4 0.000000 0.000000 0.000000 0.035621 0.000000 0.000000
# 5 0.000000 0.000000 0.000000 0.000000 0.043073 0.000000
# 6 0.000000 0.000000 0.000000 0.000000 0.000000 0.064773
#
#
# Mechanical properties :
#
#
# Convention : Reuss Voigt Hill
#
# Bulk Modulus (GPa) = 22.72170 33.48276 28.10223
# Shear Modulus (GPa) = 22.97887 26.96427 24.97157
#
# Velocity S-wave (km/s) = 3.38538 3.66722 3.52911
# Velocity P-wave (km/s) = 5.15883 5.88481 5.53374
#
# Compressibility (1/GPa) = 0.04401080
#
# Stress axis : x y z
#
# Youngs Moduli (GPa) = 39.30207 55.33786 121.68018
#
# Poissons Ratio (x) = -0.07435 0.17301
# Poissons Ratio (y) = -0.05280 0.46030
# Poissons Ratio (z) = 0.05588 0.20933
#
# Static dielectric constant tensor:
#      x y z
#    x 1.716470 0.000000 0.000000 
#    y 0.000000 1.724700 0.000000 
#    z 0.000000 0.000000 1.772870 
# 
# From -- ./inp_files/38113.got.cif
#   From: 2010.05.17/outbox.cif.g08.bks.cpg/sg53_20_cif.got.tgz:38113.got - 2010.06.03 12:45:16.
