data_PCOD9416437
_publ_section_title
;
Structure prediction by ZEFSAII (Michael W. Deem and Ramdas Pophale) SiO2 
 PCOD9416437
Probable space group: P M N A
;
_chemical_formula_sum "Si O2"
_cell_formula_units_Z 48
_cell_length_a 14.905822
_cell_length_b 14.778480
_cell_length_c 9.933428
_cell_angle_alpha 90.000000
_cell_angle_beta 90.000000
_cell_angle_gamma 90.000000
_cell_volume 2188.189084
_symmetry_space_group_name_H-M "P M N A"
_symmetry_group_IT_number 53
_symmetry_cell_setting 'orthorhombic'
loop_
_space_group_symop_operation_xyz
x,y,z
1/2-x,-y,1/2+z
x,-y,-z
1/2-x,y,1/2-z
-x,-y,-z
1/2+x,y,1/2-z
-x,y,z
1/2+x,-y,1/2+z
loop_
_atom_site_type_symbol
_atom_site_label
_atom_site_fract_x
_atom_site_fract_y
_atom_site_fract_z
Si Si1 0.110058 0.436425 0.122068
Si Si2 0.108515 0.241000 0.207112
Si Si3 0.397903 0.067221 0.886811
Si Si4 0.896747 0.442605 0.635396
Si Si5 0.389714 0.742842 0.022577
Si Si6 0.665220 0.960418 0.649696
O O1 0.139066 0.331851 0.130105
O O2 0.141251 0.491028 0.253024
O O3 0.000000 0.432541 0.120954
O O4 0.138927 0.500000 0.000000
O O5 0.135027 0.249739 0.364952
O O6 0.141079 0.145526 0.149270
O O7 0.000000 0.238709 0.204538
O O8 0.500000 0.082170 0.931894
O O9 0.357351 0.166735 0.901549
O O10 0.400178 0.021877 0.741321
O O11 0.359360 0.000000 0.000000
O O12 0.900572 0.500000 0.500000
O O13 0.855085 0.346461 0.597576
O O14 0.000000 0.424427 0.680204
O O15 0.500000 0.734708 0.023076
O O16 0.750000 0.969245 0.750000
O O17 0.669410 0.000000 0.500000
#
# Coordination Sequence:
#
# PCOD9416437 Si02
#       6
#     8   8   8   8   8   8
#     4   9  17  28  47  81 123 152 178 227 285 339
#     4  10  19  35  60  88 117 154 191 235 297 354
#     4  10  19  35  60  88 118 152 190 239 292 348
#     4   9  14  23  41  72 110 146 181 215 261 329
#     4   9  16  27  52  85 117 150 185 226 279 345
#     4  12  27  43  60  83 113 153 200 250 299 356
#
# _framework density 21.935949000000001
#
# number of rings (size 3 to 8) (size 9 to 14) (size 15 to 20)
#    0.000    2.167    3.333    1.000    0.000    2.667 
#    0.000    3.333    0.000    0.000    4.333    0.000 
#    0.000    0.000    0.000    0.000    0.000    0.000 
#
# Total GULP energy -267705.638372 kJ/mol
# GULP energy per Si atom -5577.200799 kJ/mol
# Density = 2.188602 g / cm^3
# Si number density = 21.935949 Si / 1000 Ang^3
#
#
#
# Elastic Constant Matrix: (Units=GPa)
#
#
# Indices 1 2 3 4 5 6 
#
# 1 26.0218 6.9536 3.7472 0.0000 0.0000 0.0000
# 2 6.9536 225.7035 75.3755 0.0000 0.0000 0.0000
# 3 3.7472 75.3755 135.9843 0.0000 0.0000 0.0000
# 4 0.0000 0.0000 0.0000 28.5819 0.0000 0.0000
# 5 0.0000 0.0000 0.0000 0.0000 2.5570 0.0000
# 6 0.0000 0.0000 0.0000 0.0000 0.0000 -2.8227
#
#
#
# Elastic Compliance Matrix: (Units=1/GPa)
#
#
# Indices 1 2 3 4 5 6 
#
# 1 0.038776 -0.001028 -0.000499 0.000000 0.000000 0.000000
# 2 -0.001028 0.005464 -0.003001 0.000000 0.000000 0.000000
# 3 -0.000499 -0.003001 0.009031 0.000000 0.000000 0.000000
# 4 0.000000 0.000000 0.000000 0.034987 0.000000 0.000000
# 5 0.000000 0.000000 0.000000 0.000000 0.391085 0.000000
# 6 0.000000 0.000000 0.000000 0.000000 0.000000 -0.354270
#
#
# Mechanical properties :
#
#
# Convention : Reuss Voigt Hill
#
# Bulk Modulus (GPa) = 22.61604 62.20691 42.41147
# Shear Modulus (GPa) = 33.58723 25.77211 29.67967
#
# Velocity S-wave (km/s) = 3.91724 3.43137 3.68233
# Velocity P-wave (km/s) = 5.54906 6.64222 6.12010
#
# Compressibility (1/GPa) = 0.04421641
#
# Stress axis : x y z
#
# Youngs Moduli (GPa) = 25.78921 183.00560 110.73336
#
# Poissons Ratio (x) = 0.18815 0.05522
# Poissons Ratio (y) = 0.02651 0.33226
# Poissons Ratio (z) = 0.01286 0.54911
#
# Static dielectric constant tensor:
#      x y z
#    x 1.920540 0.000000 0.000000 
#    y 0.000000 1.832570 0.000000 
#    z 0.000000 0.000000 1.727010 
# 
# From -- ./inp_files/9901.got.cif
#   From: 2010.05.17/outbox.cif.g08.bks.cpg/sg53_5_cif.got.tgz:9901.got - 2010.06.03 12:45:16.
