data_PCOD9416505
_publ_section_title
;
Structure prediction by ZEFSAII (Michael W. Deem and Ramdas Pophale) SiO2 
 PCOD9416505
Probable space group: P M N A
;
_chemical_formula_sum "Si O2"
_cell_formula_units_Z 64
_cell_length_a 20.599762
_cell_length_b 8.212259
_cell_length_c 20.492039
_cell_angle_alpha 90.000000
_cell_angle_beta 90.000000
_cell_angle_gamma 90.000000
_cell_volume 3466.650141
_symmetry_space_group_name_H-M "P M N A"
_symmetry_group_IT_number 53
_symmetry_cell_setting 'orthorhombic'
loop_
_space_group_symop_operation_xyz
x,y,z
1/2-x,-y,1/2+z
x,-y,-z
1/2-x,y,1/2-z
-x,-y,-z
1/2+x,y,1/2-z
-x,y,z
1/2+x,-y,1/2+z
loop_
_atom_site_type_symbol
_atom_site_label
_atom_site_fract_x
_atom_site_fract_y
_atom_site_fract_z
Si Si1 0.929443 0.408476 0.785385
Si Si2 0.751610 0.546934 0.570345
Si Si3 0.103198 0.511689 0.924261
Si Si4 0.571320 0.965434 0.242405
Si Si5 0.574452 0.883842 0.616145
Si Si6 0.213998 0.929945 0.930803
Si Si7 0.189574 0.561062 0.706318
Si Si8 0.203975 0.047767 0.308573
O O1 0.923817 0.408823 0.864046
O O2 0.928004 0.220928 0.765120
O O3 0.873857 0.504052 0.745646
O O4 0.000000 0.480317 0.768739
O O5 0.779616 0.500000 0.500000
O O6 0.679927 0.468516 0.575839
O O7 0.731317 0.737785 0.570874
O O8 0.797007 0.505617 0.631832
O O9 0.085761 0.694236 0.900397
O O10 0.081513 0.500000 0.000000
O O11 0.500000 0.003726 0.215200
O O12 0.581121 0.076925 0.306955
O O13 0.631495 0.983705 0.194908
O O14 0.500000 0.929771 0.597505
O O15 0.637535 0.963266 0.582302
O O16 0.257786 0.998851 0.873214
O O17 0.231838 0.000000 0.000000
O O18 0.250000 0.503579 0.750000
O O19 0.195266 0.757199 0.701194
O O20 0.250000 0.989270 0.250000
#
# Coordination Sequence:
#
# PCOD9416505 Si02
#       8
#     8   8   8   8   8   8   8   8
#     4  11  23  36  53  82 113 140 182 231 275 325
#     4   9  19  35  55  80 109 139 178 227 272 318
#     4  10  20  36  54  76 107 150 194 228 264 315
#     4  10  22  37  54  81 112 143 182 229 278 326
#     4  10  20  35  53  73 107 154 190 220 267 319
#     4  10  21  35  53  80 109 142 183 224 266 323
#     4  10  19  36  60  81 106 142 185 227 271 323
#     4  10  19  37  59  78 107 144 185 225 269 325
#
# _framework density 18.461627
#
# number of rings (size 3 to 8) (size 9 to 14) (size 15 to 20)
#    0.000    2.000    2.500    1.125    0.000    7.250 
#    0.000    1.250    0.000    0.750    0.000    0.000 
#    0.000    0.000    0.000    0.000    0.000    0.000 
#
# Total GULP energy -356727.269928 kJ/mol
# GULP energy per Si atom -5573.863593 kJ/mol
# Density = 1.841961 g / cm^3
# Si number density = 18.461627 Si / 1000 Ang^3
#
#
#
# Elastic Constant Matrix: (Units=GPa)
#
#
# Indices 1 2 3 4 5 6 
#
# 1 132.0275 19.5064 74.6969 0.0000 0.0000 0.0000
# 2 19.5064 9.5642 14.7694 0.0000 0.0000 0.0000
# 3 74.6969 14.7694 125.2091 0.0000 0.0000 0.0000
# 4 0.0000 0.0000 0.0000 25.8844 0.0000 0.0000
# 5 0.0000 0.0000 0.0000 0.0000 19.3098 0.0000
# 6 0.0000 0.0000 0.0000 0.0000 0.0000 1.9358
#
#
#
# Elastic Compliance Matrix: (Units=1/GPa)
#
#
# Indices 1 2 3 4 5 6 
#
# 1 0.013729 -0.018772 -0.005976 0.000000 0.000000 0.000000
# 2 -0.018772 0.153510 -0.006909 0.000000 0.000000 0.000000
# 3 -0.005976 -0.006909 0.012367 0.000000 0.000000 0.000000
# 4 0.000000 0.000000 0.000000 0.038633 0.000000 0.000000
# 5 0.000000 0.000000 0.000000 0.000000 0.051787 0.000000
# 6 0.000000 0.000000 0.000000 0.000000 0.000000 0.516594
#
#
# Mechanical properties :
#
#
# Convention : Reuss Voigt Hill
#
# Bulk Modulus (GPa) = 8.59900 53.86068 31.22984
# Shear Modulus (GPa) = 5.62622 19.94786 12.78704
#
# Velocity S-wave (km/s) = 1.74761 3.29067 2.63464
# Velocity P-wave (km/s) = 2.95636 6.60876 5.11936
#
# Compressibility (1/GPa) = 0.11629260
#
# Stress axis : x y z
#
# Youngs Moduli (GPa) = 72.84086 6.51422 80.86231
#
# Poissons Ratio (x) = 0.12228 0.48322
# Poissons Ratio (y) = 1.36733 0.55868
# Poissons Ratio (z) = 0.43529 0.04501
#
# Static dielectric constant tensor:
#      x y z
#    x 1.656460 0.000000 0.000000 
#    y 0.000000 1.683240 0.000000 
#    z 0.000000 0.000000 1.638680 
# 
# From -- ./inp_files/32856.got.cif
#   From: 2010.05.17/outbox.cif.g08.bks.cpg/sg53_17_cif.got.tgz:32856.got - 2010.06.03 12:45:16.
