data_PCOD9416776
_publ_section_title
;
Structure prediction by ZEFSAII (Michael W. Deem and Ramdas Pophale) SiO2 
 PCOD9416776
Probable space group: P M N A
;
_chemical_formula_sum "Si O2"
_cell_formula_units_Z 64
_cell_length_a 9.414908
_cell_length_b 22.195692
_cell_length_c 18.207289
_cell_angle_alpha 90.000000
_cell_angle_beta 90.000000
_cell_angle_gamma 90.000000
_cell_volume 3804.784432
_symmetry_space_group_name_H-M "P M N A"
_symmetry_group_IT_number 53
_symmetry_cell_setting 'orthorhombic'
loop_
_space_group_symop_operation_xyz
x,y,z
1/2-x,-y,1/2+z
x,-y,-z
1/2-x,y,1/2-z
-x,-y,-z
1/2+x,y,1/2-z
-x,y,z
1/2+x,-y,1/2+z
loop_
_atom_site_type_symbol
_atom_site_label
_atom_site_fract_x
_atom_site_fract_y
_atom_site_fract_z
Si Si1 0.169852 0.871424 0.322717
Si Si2 0.330174 0.932998 0.022465
Si Si3 0.663518 0.494304 0.910731
Si Si4 0.666127 0.176325 0.457152
Si Si5 0.168348 0.612820 0.906204
Si Si6 0.666855 0.759592 0.386324
Si Si7 0.670700 0.736596 0.674381
Si Si8 0.168869 0.375325 0.919192
O O1 0.250000 0.893221 0.250000
O O2 0.200496 0.913822 0.393238
O O3 0.234753 0.805588 0.341862
O O4 0.000000 0.868284 0.312652
O O5 0.500000 0.929359 0.013432
O O6 0.256107 0.882883 0.972599
O O7 0.284413 0.000000 0.000000
O O8 0.500000 0.493182 0.887571
O O9 0.744671 0.553756 0.884171
O O10 0.743585 0.432579 0.891180
O O11 0.666956 0.500000 0.000000
O O12 0.500000 0.160621 0.450220
O O13 0.677938 0.219146 0.528775
O O14 0.710490 0.213707 0.386108
O O15 0.205930 0.671006 0.858669
O O16 0.000000 0.600980 0.899136
O O17 0.193504 0.627576 0.992515
O O18 0.500000 0.766330 0.365234
O O19 0.705839 0.689166 0.383889
O O20 0.750000 0.746548 0.750000
O O21 0.500000 0.738777 0.683398
O O22 0.000000 0.384997 0.909234
#
# Coordination Sequence:
#
# PCOD9416776 Si02
#       8
#     8   8   8   8   8   8   8   8
#     4  10  20  34  53  78 107 138 169 204 248 298
#     4   9  19  36  57  81 108 138 171 207 249 294
#     4   9  17  26  38  63  95 122 153 201 254 300
#     4   9  17  32  52  75 102 130 167 211 250 295
#     4   9  16  29  46  63  89 126 167 208 251 305
#     4   9  16  29  51  75  99 129 165 208 253 299
#     4  10  20  33  49  71  99 133 173 216 260 307
#     4   9  15  26  46  69  92 124 162 201 251 305
#
# _framework density 16.820927000000001
#
# number of rings (size 3 to 8) (size 9 to 14) (size 15 to 20)
#    0.000    2.750    1.250    0.750    0.000    3.750 
#    0.000    0.625    0.000    3.750    0.000    3.500 
#    0.000    0.000    0.000    0.000    0.000    0.000 
#
# Total GULP energy -356764.200101 kJ/mol
# GULP energy per Si atom -5574.440627 kJ/mol
# Density = 1.678264 g / cm^3
# Si number density = 16.820927 Si / 1000 Ang^3
#
#
#
# Elastic Constant Matrix: (Units=GPa)
#
#
# Indices 1 2 3 4 5 6 
#
# 1 51.8650 64.4848 43.3565 0.0000 0.0000 0.0000
# 2 64.4848 153.7176 50.9856 0.0000 0.0000 0.0000
# 3 43.3565 50.9856 75.0819 0.0000 0.0000 0.0000
# 4 0.0000 0.0000 0.0000 12.7567 0.0000 0.0000
# 5 0.0000 0.0000 0.0000 0.0000 23.8499 0.0000
# 6 0.0000 0.0000 0.0000 0.0000 0.0000 19.9459
#
#
#
# Elastic Compliance Matrix: (Units=1/GPa)
#
#
# Indices 1 2 3 4 5 6 
#
# 1 0.060542 -0.017814 -0.022864 0.000000 0.000000 0.000000
# 2 -0.017814 0.013638 0.001026 0.000000 0.000000 0.000000
# 3 -0.022864 0.001026 0.025825 0.000000 0.000000 0.000000
# 4 0.000000 0.000000 0.000000 0.078390 0.000000 0.000000
# 5 0.000000 0.000000 0.000000 0.000000 0.041929 0.000000
# 6 0.000000 0.000000 0.000000 0.000000 0.000000 0.050136
#
#
# Mechanical properties :
#
#
# Convention : Reuss Voigt Hill
#
# Bulk Modulus (GPa) = 48.30589 66.47981 57.39285
# Shear Modulus (GPa) = 14.01877 19.43300 16.72589
#
# Velocity S-wave (km/s) = 2.89002 3.40264 3.15675
# Velocity P-wave (km/s) = 6.31794 7.41924 6.89063
#
# Compressibility (1/GPa) = 0.02070141
#
# Stress axis : x y z
#
# Youngs Moduli (GPa) = 16.51744 73.32292 38.72203
#
# Poissons Ratio (x) = 1.30618 0.88532
# Poissons Ratio (y) = 0.29424 -0.03971
# Poissons Ratio (z) = 0.37765 -0.07519
#
# Static dielectric constant tensor:
#      x y z
#    x 1.557340 0.000000 0.000000 
#    y 0.000000 1.553200 0.000000 
#    z 0.000000 0.000000 1.562330 
# 
# From -- ./inp_files/26955.got.cif
#   From: 2010.05.17/outbox.cif.g08.bks.cpg/sg53_14_cif.got.tgz:26955.got - 2010.06.03 12:45:16.
