data_PCOD9416542
_publ_section_title
;
Structure prediction by ZEFSAII (Michael W. Deem and Ramdas Pophale) SiO2 
 PCOD9416542
Probable space group: P M N A
;
_chemical_formula_sum "Si O2"
_cell_formula_units_Z 44
_cell_length_a 31.608398
_cell_length_b 8.573142
_cell_length_c 9.109553
_cell_angle_alpha 90.000000
_cell_angle_beta 90.000000
_cell_angle_gamma 90.000000
_cell_volume 2468.536592
_symmetry_space_group_name_H-M "P M N A"
_symmetry_group_IT_number 53
_symmetry_cell_setting 'orthorhombic'
loop_
_space_group_symop_operation_xyz
x,y,z
1/2-x,-y,1/2+z
x,-y,-z
1/2-x,y,1/2-z
-x,-y,-z
1/2+x,y,1/2-z
-x,y,z
1/2+x,-y,1/2+z
loop_
_atom_site_type_symbol
_atom_site_label
_atom_site_fract_x
_atom_site_fract_y
_atom_site_fract_z
Si Si1 0.500000 0.018466 0.749986
Si Si2 0.705466 0.554663 0.830524
Si Si3 0.129107 0.659421 0.307527
Si Si4 0.000000 0.752994 0.505711
Si Si5 0.654024 0.853041 0.905764
Si Si6 0.070254 0.500000 0.500000
Si Si7 0.596851 0.967002 0.334721
O O1 0.500000 0.884105 0.872092
O O2 0.545877 0.010942 0.673281
O O3 0.500000 0.176636 0.843639
O O4 0.750000 0.550426 0.750000
O O5 0.672338 0.427567 0.764936
O O6 0.686025 0.730113 0.830813
O O7 0.710048 0.500000 0.000000
O O8 0.133876 0.749194 0.464059
O O9 0.097175 0.523676 0.353064
O O10 0.110075 0.788960 0.201880
O O11 0.040822 0.647836 0.521244
O O12 0.620999 0.926092 0.787926
O O13 0.672715 0.000000 0.000000
O O14 0.611135 0.000000 0.500000
#
# Coordination Sequence:
#
# PCOD9416542 Si02
#       7
#     4   8   8   4   8   4   8
#     4  11  21  34  51  82 116 151 194 233 281 344
#     4  10  21  38  62  88 114 146 188 243 293 346
#     4  10  19  36  63  83 110 151 193 239 286 343
#     4  10  22  28  59  90 107 150 200 241 269 345
#     4   9  19  37  60  83 108 147 192 230 282 340
#     4  11  16  34  56  90 112 136 200 246 278 321
#     4  11  23  37  55  82 119 156 187 237 295 348
#
# _framework density 17.824325000000002
#
# number of rings (size 3 to 8) (size 9 to 14) (size 15 to 20)
#    0.000    1.818    4.545    1.364    5.091    1.455 
#    0.000    9.091    0.000    1.091    0.000    0.000 
#    0.000    0.000    0.000    0.000    0.000    0.000 
#
# Total GULP energy -245040.936832 kJ/mol
# GULP energy per Si atom -5569.112201 kJ/mol
# Density = 1.778376 g / cm^3
# Si number density = 17.824325 Si / 1000 Ang^3
#
#
#
# Elastic Constant Matrix: (Units=GPa)
#
#
# Indices 1 2 3 4 5 6 
#
# 1 121.8047 47.7200 31.0925 0.0000 0.0000 0.0000
# 2 47.7200 88.2261 28.0696 0.0000 0.0000 0.0000
# 3 31.0925 28.0696 63.8891 0.0000 0.0000 0.0000
# 4 0.0000 0.0000 0.0000 20.3850 0.0000 0.0000
# 5 0.0000 0.0000 0.0000 0.0000 9.3986 0.0000
# 6 0.0000 0.0000 0.0000 0.0000 0.0000 36.3854
#
#
#
# Elastic Compliance Matrix: (Units=1/GPa)
#
#
# Indices 1 2 3 4 5 6 
#
# 1 0.010942 -0.004911 -0.003168 0.000000 0.000000 0.000000
# 2 -0.004911 0.015380 -0.004367 0.000000 0.000000 0.000000
# 3 -0.003168 -0.004367 0.019113 0.000000 0.000000 0.000000
# 4 0.000000 0.000000 0.000000 0.049056 0.000000 0.000000
# 5 0.000000 0.000000 0.000000 0.000000 0.106399 0.000000
# 6 0.000000 0.000000 0.000000 0.000000 0.000000 0.027484
#
#
# Mechanical properties :
#
#
# Convention : Reuss Voigt Hill
#
# Bulk Modulus (GPa) = 48.67746 54.18714 51.43230
# Shear Modulus (GPa) = 19.22244 24.36966 21.79605
#
# Velocity S-wave (km/s) = 3.28752 3.70160 3.50069
# Velocity P-wave (km/s) = 6.46369 6.98110 6.72737
#
# Compressibility (1/GPa) = 0.02054339
#
# Stress axis : x y z
#
# Youngs Moduli (GPa) = 91.38789 65.01894 52.32169
#
# Poissons Ratio (x) = 0.31929 0.16574
# Poissons Ratio (y) = 0.44878 0.22851
# Poissons Ratio (z) = 0.28949 0.28396
#
# Static dielectric constant tensor:
#      x y z
#    x 1.631380 0.000000 0.000000 
#    y 0.000000 1.655050 0.000000 
#    z 0.000000 0.000000 1.596090 
# 
# From -- ./inp_files/12947.got.cif
#   From: 2010.05.17/outbox.cif.g08.bks.cpg/sg53_7_cif.got.tgz:12947.got - 2010.06.03 12:45:16.
