data_PCOD9416789
_publ_section_title
;
Structure prediction by ZEFSAII (Michael W. Deem and Ramdas Pophale) SiO2 
 PCOD9416789
Probable space group: P M N A
;
_chemical_formula_sum "Si O2"
_cell_formula_units_Z 40
_cell_length_a 18.231209
_cell_length_b 7.449582
_cell_length_c 17.259409
_cell_angle_alpha 90.000000
_cell_angle_beta 90.000000
_cell_angle_gamma 90.000000
_cell_volume 2344.084673
_symmetry_space_group_name_H-M "P M N A"
_symmetry_group_IT_number 53
_symmetry_cell_setting 'orthorhombic'
loop_
_space_group_symop_operation_xyz
x,y,z
1/2-x,-y,1/2+z
x,-y,-z
1/2-x,y,1/2-z
-x,-y,-z
1/2+x,y,1/2-z
-x,y,z
1/2+x,-y,1/2+z
loop_
_atom_site_type_symbol
_atom_site_label
_atom_site_fract_x
_atom_site_fract_y
_atom_site_fract_z
Si Si1 0.792230 0.771533 0.670860
Si Si2 0.792579 0.578850 0.168353
Si Si3 0.415149 0.486077 0.220091
Si Si4 0.082869 0.324656 0.555064
Si Si5 0.727543 0.889112 0.067729
O O1 0.750000 0.810145 0.750000
O O2 0.744223 0.605298 0.635627
O O3 0.870790 0.688186 0.691276
O O4 0.796163 0.954774 0.625910
O O5 0.750000 0.612853 0.250000
O O6 0.874119 0.551612 0.201903
O O7 0.776118 0.739193 0.110034
O O8 0.500000 0.451795 0.233492
O O9 0.409163 0.619672 0.145880
O O10 0.086720 0.500000 0.500000
O O11 0.152890 0.202978 0.536530
O O12 0.000000 0.249536 0.544679
O O13 0.766924 0.000000 0.000000
#
# Coordination Sequence:
#
# PCOD9416789 Si02
#       5
#     8   8   8   8   8
#     4   9  19  33  53  77 103 132 173 223 258 313
#     4   9  18  36  52  72 105 135 178 227 259 311
#     4   9  17  34  57  74 101 145 174 213 270 317
#     4  10  20  33  49  75 113 145 172 205 253 322
#     4  12  22  30  54  78 105 144 177 217 270 309
#
# _framework density 17.064230999999999
#
# number of rings (size 3 to 8) (size 9 to 14) (size 15 to 20)
#    0.000    2.600    4.000    1.800    0.000    1.200 
#    0.000    0.000    0.000    0.600    0.000    5.600 
#    0.000    0.000    0.000    0.000    0.000    0.000 
#
# Total GULP energy -222726.887564 kJ/mol
# GULP energy per Si atom -5568.172189 kJ/mol
# Density = 1.702539 g / cm^3
# Si number density = 17.064231 Si / 1000 Ang^3
#
#
#
# Elastic Constant Matrix: (Units=GPa)
#
#
# Indices 1 2 3 4 5 6 
#
# 1 93.0591 23.8779 16.7947 0.0000 0.0000 0.0000
# 2 23.8779 81.5403 29.7912 0.0000 0.0000 0.0000
# 3 16.7947 29.7912 18.1175 0.0000 0.0000 0.0000
# 4 0.0000 0.0000 0.0000 20.0112 0.0000 0.0000
# 5 0.0000 0.0000 0.0000 0.0000 18.8141 0.0000
# 6 0.0000 0.0000 0.0000 0.0000 0.0000 13.8906
#
#
#
# Elastic Compliance Matrix: (Units=1/GPa)
#
#
# Indices 1 2 3 4 5 6 
#
# 1 0.012977 0.001490 -0.014479 0.000000 0.000000 0.000000
# 2 0.001490 0.030890 -0.052174 0.000000 0.000000 0.000000
# 3 -0.014479 -0.052174 0.154409 0.000000 0.000000 0.000000
# 4 0.000000 0.000000 0.000000 0.049972 0.000000 0.000000
# 5 0.000000 0.000000 0.000000 0.000000 0.053152 0.000000
# 6 0.000000 0.000000 0.000000 0.000000 0.000000 0.071991
#
#
# Mechanical properties :
#
#
# Convention : Reuss Voigt Hill
#
# Bulk Modulus (GPa) = 14.71707 37.07163 25.89435
# Shear Modulus (GPa) = 9.49910 18.69339 14.09625
#
# Velocity S-wave (km/s) = 2.36194 3.31338 2.87726
# Velocity P-wave (km/s) = 4.01019 6.03406 5.12306
#
# Compressibility (1/GPa) = 0.06794829
#
# Stress axis : x y z
#
# Youngs Moduli (GPa) = 77.06131 32.37344 6.47632
#
# Poissons Ratio (x) = -0.04824 0.09377
# Poissons Ratio (y) = -0.11483 0.33790
# Poissons Ratio (z) = 1.11581 1.68905
#
# Static dielectric constant tensor:
#      x y z
#    x 1.578700 0.000000 0.000000 
#    y 0.000000 1.597060 0.000000 
#    z 0.000000 0.000000 1.633980 
# 
# From -- ./inp_files/28843.got.cif
#   From: 2010.05.17/outbox.cif.g08.bks.cpg/sg53_15_cif.got.tgz:28843.got - 2010.06.03 12:45:16.
