data_PCOD9416044
_publ_section_title
;
Structure prediction by ZEFSAII (Michael W. Deem and Ramdas Pophale) SiO2 
 PCOD9416044
Probable space group: P M N A
;
_chemical_formula_sum "Si O2"
_cell_formula_units_Z 64
_cell_length_a 8.940196
_cell_length_b 20.758278
_cell_length_c 19.814770
_cell_angle_alpha 90.000000
_cell_angle_beta 90.000000
_cell_angle_gamma 90.000000
_cell_volume 3677.285926
_symmetry_space_group_name_H-M "P M N A"
_symmetry_group_IT_number 53
_symmetry_cell_setting 'orthorhombic'
loop_
_space_group_symop_operation_xyz
x,y,z
1/2-x,-y,1/2+z
x,-y,-z
1/2-x,y,1/2-z
-x,-y,-z
1/2+x,y,1/2-z
-x,y,z
1/2+x,-y,1/2+z
loop_
_atom_site_type_symbol
_atom_site_label
_atom_site_fract_x
_atom_site_fract_y
_atom_site_fract_z
Si Si1 0.179354 0.639816 0.678033
Si Si2 0.821359 0.684362 0.957845
Si Si3 0.820555 0.488448 0.679126
Si Si4 0.820980 0.988520 0.821441
Si Si5 0.819528 0.816764 0.033206
Si Si6 0.678972 0.140408 0.679116
Si Si7 0.178239 0.432404 0.538590
Si Si8 0.178232 0.063394 0.455089
O O1 0.250000 0.658322 0.750000
O O2 0.244629 0.678970 0.615263
O O3 0.217957 0.563860 0.666806
O O4 0.000000 0.645058 0.680392
O O5 0.000000 0.681980 0.949612
O O6 0.781761 0.749607 0.997557
O O7 0.765629 0.623948 0.001697
O O8 0.750000 0.468880 0.750000
O O9 0.774357 0.445475 0.615604
O O10 0.000000 0.485705 0.683658
O O11 0.750000 0.969439 0.750000
O O12 0.753347 0.948473 0.882810
O O13 0.000000 0.982678 0.819633
O O14 0.783678 0.064590 0.831651
O O15 0.773782 0.821631 0.111919
O O16 0.000000 0.824545 0.031381
O O17 0.745626 0.875205 0.992798
O O18 0.750000 0.161128 0.750000
O O19 0.500000 0.144841 0.685354
O O20 0.199090 0.500000 0.500000
O O21 0.000000 0.418267 0.536544
O O22 0.000000 0.069756 0.447960
O O23 0.209391 0.000000 0.500000
#
# Coordination Sequence:
#
# PCOD9416044 Si02
#       8
#     8   8   8   8   8   8   8   8
#     4  10  19  35  57  82 112 145 185 230 279 337
#     4  11  23  37  56  84 115 149 190 234 278 332
#     4   9  18  32  53  80 109 143 181 228 279 332
#     4  10  19  33  56  83 114 148 184 229 283 333
#     4  10  22  40  57  79 114 153 190 228 280 337
#     4   9  18  33  55  80 107 143 184 227 274 330
#     4  10  19  36  57  79 110 147 185 228 281 334
#     4  11  22  35  56  86 114 141 184 233 276 330
#
# _framework density 17.404140999999999
#
# number of rings (size 3 to 8) (size 9 to 14) (size 15 to 20)
#    0.000    2.000    2.500    1.500    0.000    3.750 
#    0.000    1.250    0.000    6.000    0.000    0.000 
#    0.000    0.000    0.000    0.000    0.000    0.000 
#
# Total GULP energy -357256.344911 kJ/mol
# GULP energy per Si atom -5582.130389 kJ/mol
# Density = 1.736453 g / cm^3
# Si number density = 17.404141 Si / 1000 Ang^3
#
#
#
# Elastic Constant Matrix: (Units=GPa)
#
#
# Indices 1 2 3 4 5 6 
#
# 1 39.2093 44.8375 59.4315 0.0000 0.0000 0.0000
# 2 44.8375 83.2718 70.8765 0.0000 0.0000 0.0000
# 3 59.4315 70.8765 192.7319 0.0000 0.0000 0.0000
# 4 0.0000 0.0000 0.0000 26.6410 0.0000 0.0000
# 5 0.0000 0.0000 0.0000 0.0000 35.8637 0.0000
# 6 0.0000 0.0000 0.0000 0.0000 0.0000 -15.4030
#
#
#
# Elastic Compliance Matrix: (Units=1/GPa)
#
#
# Indices 1 2 3 4 5 6 
#
# 1 0.085834 -0.034482 -0.013787 0.000000 0.000000 0.000000
# 2 -0.034482 0.031333 -0.000890 0.000000 0.000000 0.000000
# 3 -0.013787 -0.000890 0.009767 0.000000 0.000000 0.000000
# 4 0.000000 0.000000 0.000000 0.037536 0.000000 0.000000
# 5 0.000000 0.000000 0.000000 0.000000 0.027883 0.000000
# 6 0.000000 0.000000 0.000000 0.000000 0.000000 -0.064922
#
#
# Mechanical properties :
#
#
# Convention : Reuss Voigt Hill
#
# Bulk Modulus (GPa) = 34.94540 73.94490 54.44515
# Shear Modulus (GPa) = 21.25057 18.75816 20.00437
#
# Velocity S-wave (km/s) = 3.49808 3.28655 3.39396
# Velocity P-wave (km/s) = 6.03637 7.54858 6.83443
#
# Compressibility (1/GPa) = 0.02861607
#
# Stress axis : x y z
#
# Youngs Moduli (GPa) = 11.65039 31.91554 102.38330
#
# Poissons Ratio (x) = 1.10051 1.41160
# Poissons Ratio (y) = 0.40173 0.09107
# Poissons Ratio (z) = 0.16063 0.02839
#
# Static dielectric constant tensor:
#      x y z
#    x 1.580020 0.000000 0.000000 
#    y 0.000000 1.566510 0.000000 
#    z 0.000000 0.000000 1.589460 
# 
# From -- ./inp_files/26770.got.cif
#   From: 2010.05.17/outbox.cif.g08.bks.cpg/sg53_14_cif.got.tgz:26770.got - 2010.06.03 12:45:16.
