data_PCOD9416125
_publ_section_title
;
Structure prediction by ZEFSAII (Michael W. Deem and Ramdas Pophale) SiO2 
 PCOD9416125
Probable space group: P M N A
;
_chemical_formula_sum "Si O2"
_cell_formula_units_Z 56
_cell_length_a 8.727817
_cell_length_b 20.095314
_cell_length_c 18.789192
_cell_angle_alpha 90.000000
_cell_angle_beta 90.000000
_cell_angle_gamma 90.000000
_cell_volume 3295.402999
_symmetry_space_group_name_H-M "P M N A"
_symmetry_group_IT_number 53
_symmetry_cell_setting 'orthorhombic'
loop_
_space_group_symop_operation_xyz
x,y,z
1/2-x,-y,1/2+z
x,-y,-z
1/2-x,y,1/2-z
-x,-y,-z
1/2+x,y,1/2-z
-x,y,z
1/2+x,-y,1/2+z
loop_
_atom_site_type_symbol
_atom_site_label
_atom_site_fract_x
_atom_site_fract_y
_atom_site_fract_z
Si Si1 0.817186 0.652326 0.972297
Si Si2 0.315004 0.567546 0.668948
Si Si3 0.317200 0.862850 0.825531
Si Si4 0.315644 0.015512 0.827671
Si Si5 0.683714 0.203329 0.034034
Si Si6 0.324655 0.455240 0.928413
Si Si7 0.682758 0.929496 0.464573
O O1 0.768875 0.620822 0.894386
O O2 0.754266 0.726112 0.984610
O O3 0.000000 0.651953 0.971048
O O4 0.761124 0.608453 0.039390
O O5 0.250000 0.577696 0.750000
O O6 0.500000 0.567725 0.673311
O O7 0.256584 0.497836 0.633812
O O8 0.250000 0.845994 0.750000
O O9 0.500000 0.863300 0.821381
O O10 0.269019 0.811471 0.884786
O O11 0.271695 0.938542 0.844574
O O12 0.250000 0.028660 0.750000
O O13 0.500000 0.021012 0.830266
O O14 0.234449 0.062483 0.883632
O O15 0.500000 0.206185 0.028719
O O16 0.741332 0.137250 0.994276
O O17 0.500000 0.440411 0.907623
O O18 0.329363 0.500000 0.000000
O O19 0.500000 0.925178 0.472888
O O20 0.734309 0.000000 0.500000
#
# Coordination Sequence:
#
# PCOD9416125 Si02
#       7
#     8   8   8   8   8   8   8
#     4  10  21  36  53  77 110 147 184 223 269 322
#     4  10  20  34  55  83 115 148 182 222 264 311
#     4   9  19  32  48  70  99 134 172 214 264 321
#     4  10  19  34  54  76 102 132 170 219 274 327
#     4  11  22  36  53  76 106 144 184 226 276 327
#     4   9  17  32  55  80 106 139 179 220 260 309
#     4  11  22  35  54  79 105 137 181 233 281 329
#
# _framework density 16.993369000000001
#
# number of rings (size 3 to 8) (size 9 to 14) (size 15 to 20)
#    0.000    2.000    1.429    2.571    0.000    6.286 
#    0.000    2.857    0.000    0.857    0.000    6.000 
#    0.000    0.000    0.000    0.000    0.000    0.000 
#
# Total GULP energy -312031.942236 kJ/mol
# GULP energy per Si atom -5571.998968 kJ/mol
# Density = 1.695469 g / cm^3
# Si number density = 16.993369 Si / 1000 Ang^3
#
#
#
# Elastic Constant Matrix: (Units=GPa)
#
#
# Indices 1 2 3 4 5 6 
#
# 1 45.5068 36.3506 13.7277 0.0000 0.0000 0.0000
# 2 36.3506 118.8606 39.0913 0.0000 0.0000 0.0000
# 3 13.7277 39.0913 43.5680 0.0000 0.0000 0.0000
# 4 0.0000 0.0000 0.0000 23.0983 0.0000 0.0000
# 5 0.0000 0.0000 0.0000 0.0000 29.1559 0.0000
# 6 0.0000 0.0000 0.0000 0.0000 0.0000 29.9104
#
#
#
# Elastic Compliance Matrix: (Units=1/GPa)
#
#
# Indices 1 2 3 4 5 6 
#
# 1 0.029165 -0.008366 -0.001683 0.000000 0.000000 0.000000
# 2 -0.008366 0.014335 -0.010226 0.000000 0.000000 0.000000
# 3 -0.001683 -0.010226 0.032658 0.000000 0.000000 0.000000
# 4 0.000000 0.000000 0.000000 0.043293 0.000000 0.000000
# 5 0.000000 0.000000 0.000000 0.000000 0.034298 0.000000
# 6 0.000000 0.000000 0.000000 0.000000 0.000000 0.033433
#
#
# Mechanical properties :
#
#
# Convention : Reuss Voigt Hill
#
# Bulk Modulus (GPa) = 28.08357 42.91942 35.50150
# Shear Modulus (GPa) = 20.86789 24.35064 22.60926
#
# Velocity S-wave (km/s) = 3.50809 3.78954 3.65153
# Velocity P-wave (km/s) = 5.74204 6.66775 6.22213
#
# Compressibility (1/GPa) = 0.03560801
#
# Stress axis : x y z
#
# Youngs Moduli (GPa) = 34.28755 69.76000 30.62011
#
# Poissons Ratio (x) = 0.58360 0.05154
# Poissons Ratio (y) = 0.28684 0.31312
# Poissons Ratio (z) = 0.05772 0.71336
#
# Static dielectric constant tensor:
#      x y z
#    x 1.576860 0.000000 0.000000 
#    y 0.000000 1.589360 0.000000 
#    z 0.000000 0.000000 1.623640 
# 
# From -- ./inp_files/26645.got.cif
#   From: 2010.05.17/outbox.cif.g08.bks.cpg/sg53_14_cif.got.tgz:26645.got - 2010.06.03 12:45:16.
