data_PCOD9416530
_publ_section_title
;
Structure prediction by ZEFSAII (Michael W. Deem and Ramdas Pophale) SiO2 
 PCOD9416530
Probable space group: P M N A
;
_chemical_formula_sum "Si O2"
_cell_formula_units_Z 64
_cell_length_a 7.590311
_cell_length_b 14.896104
_cell_length_c 26.380909
_cell_angle_alpha 90.000000
_cell_angle_beta 90.000000
_cell_angle_gamma 90.000000
_cell_volume 2982.785494
_symmetry_space_group_name_H-M "P M N A"
_symmetry_group_IT_number 53
_symmetry_cell_setting 'orthorhombic'
loop_
_space_group_symop_operation_xyz
x,y,z
1/2-x,-y,1/2+z
x,-y,-z
1/2-x,y,1/2-z
-x,-y,-z
1/2+x,y,1/2-z
-x,y,z
1/2+x,-y,1/2+z
loop_
_atom_site_type_symbol
_atom_site_label
_atom_site_fract_x
_atom_site_fract_y
_atom_site_fract_z
Si Si1 0.706117 0.095863 0.017453
Si Si2 0.784048 0.383936 0.099651
Si Si3 0.713742 0.915262 0.635166
Si Si4 0.288998 0.737914 0.691455
Si Si5 0.216167 0.409422 0.901586
Si Si6 0.288682 0.707771 0.308018
Si Si7 0.207121 0.293591 0.996468
Si Si8 0.211332 0.910037 0.191558
O O1 0.500000 0.094552 0.005549
O O2 0.732185 0.103146 0.077718
O O3 0.776498 0.186534 0.992089
O O4 0.783132 0.000000 0.000000
O O5 0.724986 0.336541 0.151527
O O6 0.729480 0.487211 0.095171
O O7 0.000000 0.382558 0.100050
O O8 0.722917 0.327733 0.050637
O O9 0.500000 0.916086 0.636020
O O10 0.774677 0.835145 0.671914
O O11 0.777788 0.011588 0.655112
O O12 0.250000 0.721135 0.750000
O O13 0.500000 0.739812 0.686895
O O14 0.275078 0.362061 0.849731
O O15 0.277855 0.349884 0.949135
O O16 0.000000 0.409225 0.901663
O O17 0.250000 0.683197 0.250000
O O18 0.500000 0.711798 0.312757
O O19 0.220421 0.809184 0.317386
O O20 0.000000 0.314014 0.997752
O O21 0.250000 0.933425 0.250000
O O22 0.000000 0.906928 0.185812
#
# Coordination Sequence:
#
# PCOD9416530 Si02
#       8
#     8   8   8   8   8   8   8   8
#     4  11  25  40  54  80 116 148 175 216 279 339
#     4   9  17  33  54  83 115 139 178 233 280 321
#     4  10  20  36  57  80 106 139 186 233 268 321
#     4  10  20  34  53  81 113 148 187 229 277 330
#     4   9  18  31  56  86 109 139 183 232 276 324
#     4   9  18  33  50  76 108 142 178 218 270 321
#     4  10  19  36  62  85 106 141 186 230 274 321
#     4   9  18  31  50  75 105 137 176 221 264 317
#
# _framework density 21.456455999999999
#
# number of rings (size 3 to 8) (size 9 to 14) (size 15 to 20)
#    0.000    2.375    1.250    1.125    1.750    4.000 
#    0.000    0.625    0.000    3.000    0.000    0.000 
#    0.000    0.000    0.000    0.000    0.000    0.000 
#
# Total GULP energy -357425.947219 kJ/mol
# GULP energy per Si atom -5584.780425 kJ/mol
# Density = 2.140762 g / cm^3
# Si number density = 21.456456 Si / 1000 Ang^3
#
#
#
# Elastic Constant Matrix: (Units=GPa)
#
#
# Indices 1 2 3 4 5 6 
#
# 1 40.2982 0.8444 0.1273 0.0000 0.0000 0.0000
# 2 0.8444 156.4196 92.9603 0.0000 0.0000 0.0000
# 3 0.1273 92.9603 130.6048 0.0000 0.0000 0.0000
# 4 0.0000 0.0000 0.0000 34.5941 0.0000 0.0000
# 5 0.0000 0.0000 0.0000 0.0000 15.3711 0.0000
# 6 0.0000 0.0000 0.0000 0.0000 0.0000 -7.6514
#
#
#
# Elastic Compliance Matrix: (Units=1/GPa)
#
#
# Indices 1 2 3 4 5 6 
#
# 1 0.024819 -0.000207 0.000123 0.000000 0.000000 0.000000
# 2 -0.000207 0.011082 -0.007887 0.000000 0.000000 0.000000
# 3 0.000123 -0.007887 0.013271 0.000000 0.000000 0.000000
# 4 0.000000 0.000000 0.000000 0.028907 0.000000 0.000000
# 5 0.000000 0.000000 0.000000 0.000000 0.065057 0.000000
# 6 0.000000 0.000000 0.000000 0.000000 0.000000 -0.130695
#
#
# Mechanical properties :
#
#
# Convention : Reuss Voigt Hill
#
# Bulk Modulus (GPa) = 30.09463 57.24296 43.66879
# Shear Modulus (GPa) = 126.71554 24.02214 75.36884
#
# Velocity S-wave (km/s) = 7.69320 3.34964 5.93318
# Velocity P-wave (km/s) = 9.64210 6.45730 8.20569
#
# Compressibility (1/GPa) = 0.03322852
#
# Stress axis : x y z
#
# Youngs Moduli (GPa) = 40.29183 90.23929 75.35489
#
# Poissons Ratio (x) = 0.01870 -0.00929
# Poissons Ratio (y) = 0.00835 0.59435
# Poissons Ratio (z) = -0.00497 0.71175
#
# Static dielectric constant tensor:
#      x y z
#    x 1.815340 0.000000 0.000000 
#    y 0.000000 1.767010 0.000000 
#    z 0.000000 0.000000 1.738510 
# 
# From -- ./inp_files/34240.got.cif
#   From: 2010.05.17/outbox.cif.g08.bks.cpg/sg53_18_cif.got.tgz:34240.got - 2010.06.03 12:45:16.
