data_PCOD9416775
_publ_section_title
;
Structure prediction by ZEFSAII (Michael W. Deem and Ramdas Pophale) SiO2 
 PCOD9416775
Probable space group: P M N A
;
_chemical_formula_sum "Si O2"
_cell_formula_units_Z 64
_cell_length_a 9.214885
_cell_length_b 23.554813
_cell_length_c 16.541924
_cell_angle_alpha 90.000000
_cell_angle_beta 90.000000
_cell_angle_gamma 90.000000
_cell_volume 3590.505544
_symmetry_space_group_name_H-M "P M N A"
_symmetry_group_IT_number 53
_symmetry_cell_setting 'orthorhombic'
loop_
_space_group_symop_operation_xyz
x,y,z
1/2-x,-y,1/2+z
x,-y,-z
1/2-x,y,1/2-z
-x,-y,-z
1/2+x,y,1/2-z
-x,y,z
1/2+x,-y,1/2+z
loop_
_atom_site_type_symbol
_atom_site_label
_atom_site_fract_x
_atom_site_fract_y
_atom_site_fract_z
Si Si1 0.176419 0.872864 0.495515
Si Si2 0.169642 0.570183 0.917009
Si Si3 0.826814 0.926477 0.666558
Si Si4 0.669633 0.370952 0.937466
Si Si5 0.669834 0.472585 0.832292
Si Si6 0.826631 0.061876 0.666542
Si Si7 0.171656 0.687491 0.833062
Si Si8 0.327084 0.743291 0.986673
O O1 0.223599 0.897310 0.582913
O O2 0.224320 0.907032 0.415585
O O3 0.216678 0.806739 0.490369
O O4 0.000000 0.877042 0.495890
O O5 0.261422 0.514691 0.897611
O O6 0.190619 0.620071 0.850666
O O7 0.000000 0.556389 0.921596
O O8 0.226722 0.599450 0.997945
O O9 0.750000 0.907738 0.750000
O O10 0.000000 0.916983 0.674553
O O11 0.802632 0.994183 0.657775
O O12 0.500000 0.379743 0.961464
O O13 0.690200 0.406803 0.856578
O O14 0.696245 0.303855 0.943443
O O15 0.750000 0.485308 0.750000
O O16 0.500000 0.484039 0.825537
O O17 0.750000 0.080259 0.750000
O O18 0.000000 0.070816 0.674294
O O19 0.250000 0.702657 0.750000
O O20 0.243586 0.720811 0.907797
O O21 0.000000 0.698721 0.829624
O O22 0.500000 0.744084 0.968977
#
# Coordination Sequence:
#
# PCOD9416775 Si02
#       8
#     8   8   8   8   8   8   8   8
#     4   9  17  31  53  76  98 132 174 210 247 295
#     4  10  20  33  52  76  98 122 154 193 238 291
#     4   9  17  30  49  75 106 137 167 202 247 298
#     4   9  19  35  52  69  93 126 159 194 238 287
#     4  11  22  34  49  71  97 123 154 194 241 290
#     4   9  17  31  51  75 103 133 168 209 252 299
#     4  10  20  33  49  71  99 129 160 196 241 291
#     4   9  18  34  53  70  92 126 168 206 240 285
#
# _framework density 17.824788000000002
#
# number of rings (size 3 to 8) (size 9 to 14) (size 15 to 20)
#    0.000    2.500    0.000    2.250    0.000    7.000 
#    0.000    3.750    0.000    3.000    0.000    0.000 
#    0.000    0.000    0.000    0.000    0.000    0.000 
#
# Total GULP energy -356748.515949 kJ/mol
# GULP energy per Si atom -5574.195562 kJ/mol
# Density = 1.778422 g / cm^3
# Si number density = 17.824788 Si / 1000 Ang^3
#
#
#
# Elastic Constant Matrix: (Units=GPa)
#
#
# Indices 1 2 3 4 5 6 
#
# 1 33.6742 34.7675 27.3962 0.0000 0.0000 0.0000
# 2 34.7675 87.9982 48.1940 0.0000 0.0000 0.0000
# 3 27.3962 48.1940 81.9210 0.0000 0.0000 0.0000
# 4 0.0000 0.0000 0.0000 1599.1252 0.0000 0.0000
# 5 0.0000 0.0000 0.0000 0.0000 24.8247 0.0000
# 6 0.0000 0.0000 0.0000 0.0000 0.0000 15.9755
#
#
#
# Elastic Compliance Matrix: (Units=1/GPa)
#
#
# Indices 1 2 3 4 5 6 
#
# 1 0.053532 -0.016739 -0.008055 0.000000 0.000000 0.000000
# 2 -0.016739 0.022000 -0.007345 0.000000 0.000000 0.000000
# 3 -0.008055 -0.007345 0.019221 0.000000 0.000000 0.000000
# 4 0.000000 0.000000 0.000000 0.000625 0.000000 0.000000
# 5 0.000000 0.000000 0.000000 0.000000 0.040283 0.000000
# 6 0.000000 0.000000 0.000000 0.000000 0.000000 0.062596
#
#
# Mechanical properties :
#
#
# Convention : Reuss Voigt Hill
#
# Bulk Modulus (GPa) = 32.81215 47.14542 39.97879
# Shear Modulus (GPa) = 18.33577 334.20078 176.26827
#
# Velocity S-wave (km/s) = 3.21076 13.70763 9.95510
# Velocity P-wave (km/s) = 5.67393 16.64449 12.43448
#
# Compressibility (1/GPa) = 0.03047652
#
# Stress axis : x y z
#
# Youngs Moduli (GPa) = 18.68057 45.45548 52.02531
#
# Poissons Ratio (x) = 0.76086 0.41906
# Poissons Ratio (y) = 0.31269 0.38210
# Poissons Ratio (z) = 0.15047 0.33385
#
# Static dielectric constant tensor:
#      x y z
#    x 1.595760 0.000000 0.000000 
#    y 0.000000 1.625240 0.000000 
#    z 0.000000 0.000000 1.604520 
# 
# From -- ./inp_files/20886.got.cif
#   From: 2010.05.17/outbox.cif.g08.bks.cpg/sg53_11_cif.got.tgz:20886.got - 2010.06.03 12:45:16.
