data_PCOD9416143
_publ_section_title
;
Structure prediction by ZEFSAII (Michael W. Deem and Ramdas Pophale) SiO2 
 PCOD9416143
Probable space group: P M N A
;
_chemical_formula_sum "Si O2"
_cell_formula_units_Z 64
_cell_length_a 27.539781
_cell_length_b 6.876260
_cell_length_c 17.646445
_cell_angle_alpha 90.000000
_cell_angle_beta 90.000000
_cell_angle_gamma 90.000000
_cell_volume 3341.719545
_symmetry_space_group_name_H-M "P M N A"
_symmetry_group_IT_number 53
_symmetry_cell_setting 'orthorhombic'
loop_
_space_group_symop_operation_xyz
x,y,z
1/2-x,-y,1/2+z
x,-y,-z
1/2-x,y,1/2-z
-x,-y,-z
1/2+x,y,1/2-z
-x,y,z
1/2+x,-y,1/2+z
loop_
_atom_site_type_symbol
_atom_site_label
_atom_site_fract_x
_atom_site_fract_y
_atom_site_fract_z
Si Si1 0.132461 0.039397 0.586647
Si Si2 0.794154 0.387869 0.924857
Si Si3 0.875102 0.072958 0.920468
Si Si4 0.053817 0.969971 0.209220
Si Si5 0.110709 0.285078 0.298856
Si Si6 0.809970 0.237402 0.172443
Si Si7 0.056780 0.323800 0.649784
Si Si8 0.732901 0.905225 0.167748
O O1 0.090331 0.203528 0.590370
O O2 0.176547 0.092238 0.644830
O O3 0.148280 0.000000 0.500000
O O4 0.113524 0.840841 0.624500
O O5 0.802924 0.552623 0.862940
O O6 0.756043 0.231554 0.895558
O O7 0.842209 0.260058 0.936967
O O8 0.778865 0.500000 0.000000
O O9 0.843124 0.901443 0.881203
O O10 0.914387 0.117517 0.857500
O O11 0.895301 0.000000 0.000000
O O12 0.054103 0.821926 0.278998
O O13 0.000000 0.003613 0.181530
O O14 0.075446 0.169862 0.241530
O O15 0.161959 0.272113 0.252407
O O16 0.087278 0.489880 0.321632
O O17 0.759521 0.115927 0.169590
O O18 0.000000 0.365107 0.627435
O O19 0.750000 0.824239 0.250000
#
# Coordination Sequence:
#
# PCOD9416143 Si02
#       8
#     8   8   8   8   8   8   8   8
#     4  11  26  44  61  92 133 163 201 268 326 378
#     4  11  23  37  62  90 120 167 208 249 303 361
#     4  10  19  34  54  83 124 160 208 253 296 364
#     4   9  19  35  58  88 120 157 202 259 316 366
#     4  10  20  39  65  88 118 162 209 259 316 377
#     4  10  21  37  60  87 120 166 212 254 302 371
#     4  10  22  42  69  94 119 159 215 269 322 382
#     4  11  25  43  63  91 128 166 210 256 308 383
#
# _framework density 19.151817999999999
#
# number of rings (size 3 to 8) (size 9 to 14) (size 15 to 20)
#    0.000    1.750    2.500    1.125    5.250    3.000 
#    0.000    0.625    0.000    0.375    0.000    0.000 
#    0.000    0.000    0.000    0.000    0.000    0.000 
#
# Total GULP energy -356672.425384 kJ/mol
# GULP energy per Si atom -5573.006647 kJ/mol
# Density = 1.910823 g / cm^3
# Si number density = 19.151818 Si / 1000 Ang^3
#
#
#
# Elastic Constant Matrix: (Units=GPa)
#
#
# Indices 1 2 3 4 5 6 
#
# 1 89.4638 22.2378 16.8809 0.0000 0.0000 0.0000
# 2 22.2378 98.2848 11.1151 0.0000 0.0000 0.0000
# 3 16.8809 11.1151 73.4295 0.0000 0.0000 0.0000
# 4 0.0000 0.0000 0.0000 12.0422 0.0000 0.0000
# 5 0.0000 0.0000 0.0000 0.0000 10.9129 0.0000
# 6 0.0000 0.0000 0.0000 0.0000 0.0000 11.8088
#
#
#
# Elastic Compliance Matrix: (Units=1/GPa)
#
#
# Indices 1 2 3 4 5 6 
#
# 1 0.012259 -0.002498 -0.002440 0.000000 0.000000 0.000000
# 2 -0.002498 0.010861 -0.001070 0.000000 0.000000 0.000000
# 3 -0.002440 -0.001070 0.014341 0.000000 0.000000 0.000000
# 4 0.000000 0.000000 0.000000 0.083041 0.000000 0.000000
# 5 0.000000 0.000000 0.000000 0.000000 0.091635 0.000000
# 6 0.000000 0.000000 0.000000 0.000000 0.000000 0.084683
#
#
# Mechanical properties :
#
#
# Convention : Reuss Voigt Hill
#
# Bulk Modulus (GPa) = 39.29942 40.18287 39.74114
# Shear Modulus (GPa) = 15.75713 21.01573 18.38643
#
# Velocity S-wave (km/s) = 2.87147 3.31618 3.10181
# Velocity P-wave (km/s) = 5.61768 5.97407 5.79861
#
# Compressibility (1/GPa) = 0.02544567
#
# Stress axis : x y z
#
# Youngs Moduli (GPa) = 81.57271 92.07562 69.72808
#
# Poissons Ratio (x) = 0.22998 0.17015
# Poissons Ratio (y) = 0.20375 0.07459
# Poissons Ratio (z) = 0.19905 0.09850
#
# Static dielectric constant tensor:
#      x y z
#    x 1.699040 0.000000 0.000000 
#    y 0.000000 1.640290 0.000000 
#    z 0.000000 0.000000 1.682900 
# 
# From -- ./inp_files/29835.got.cif
#   From: 2010.05.17/outbox.cif.g08.bks.cpg/sg53_15_cif.got.tgz:29835.got - 2010.06.03 12:45:16.
