data_PCOD9416499
_publ_section_title
;
Structure prediction by ZEFSAII (Michael W. Deem and Ramdas Pophale) SiO2 
 PCOD9416499
Probable space group: P M N A
;
_chemical_formula_sum "Si O2"
_cell_formula_units_Z 40
_cell_length_a 33.028449
_cell_length_b 5.177821
_cell_length_c 11.463786
_cell_angle_alpha 90.000000
_cell_angle_beta 90.000000
_cell_angle_gamma 90.000000
_cell_volume 1960.483912
_symmetry_space_group_name_H-M "P M N A"
_symmetry_group_IT_number 53
_symmetry_cell_setting 'orthorhombic'
loop_
_space_group_symop_operation_xyz
x,y,z
1/2-x,-y,1/2+z
x,-y,-z
1/2-x,y,1/2-z
-x,-y,-z
1/2+x,y,1/2-z
-x,y,z
1/2+x,-y,1/2+z
loop_
_atom_site_type_symbol
_atom_site_label
_atom_site_fract_x
_atom_site_fract_y
_atom_site_fract_z
Si Si1 0.664197 0.012069 0.722078
Si Si2 0.081128 0.203172 0.868366
Si Si3 0.952947 0.294650 0.131059
Si Si4 0.264668 0.752450 0.571841
Si Si5 0.320859 0.462787 0.135848
O O1 0.626576 0.103868 0.643519
O O2 0.676486 0.268146 0.794173
O O3 0.699785 0.889424 0.643844
O O4 0.654188 0.772036 0.806989
O O5 0.072873 0.479283 0.811733
O O6 0.053316 0.983096 0.812538
O O7 0.065612 0.249109 0.000939
O O8 0.000000 0.362600 0.123291
O O9 0.280524 0.500000 0.500000
O O10 0.225887 0.634361 0.636874
O O11 0.247969 0.000000 0.500000
O O12 0.331184 0.500000 0.000000
#
# Coordination Sequence:
#
# PCOD9416499 Si02
#       5
#     8   8   8   8   8
#     4  12  24  40  62  88 121 152 205 270 305 353
#     4  10  20  33  55  86 119 155 197 225 287 346
#     4  10  19  36  59  85 132 168 185 216 283 389
#     4  11  24  41  62  86 117 159 207 251 327 385
#     4  11  24  43  61  79 111 162 216 265 312 356
#
# _framework density 20.403127000000001
#
# number of rings (size 3 to 8) (size 9 to 14) (size 15 to 20)
#    0.000    1.200    0.000    9.000    2.800    3.200 
#    0.000    0.000    0.000    0.000    0.000    0.000 
#    0.000   92.800    0.000    0.000    0.000    0.000 
#
# Total GULP energy -223075.232027 kJ/mol
# GULP energy per Si atom -5576.880801 kJ/mol
# Density = 2.035669 g / cm^3
# Si number density = 20.403127 Si / 1000 Ang^3
#
#
#
# Elastic Constant Matrix: (Units=GPa)
#
#
# Indices 1 2 3 4 5 6 
#
# 1 102.8246 46.5789 34.5943 0.0000 0.0000 0.0000
# 2 46.5789 215.0092 40.6223 0.0000 0.0000 0.0000
# 3 34.5943 40.6223 45.5686 0.0000 0.0000 0.0000
# 4 0.0000 0.0000 0.0000 38.9141 0.0000 0.0000
# 5 0.0000 0.0000 0.0000 0.0000 16.2291 0.0000
# 6 0.0000 0.0000 0.0000 0.0000 0.0000 36.1234
#
#
#
# Elastic Compliance Matrix: (Units=1/GPa)
#
#
# Indices 1 2 3 4 5 6 
#
# 1 0.013302 -0.001171 -0.009055 0.000000 0.000000 0.000000
# 2 -0.001171 0.005696 -0.004189 0.000000 0.000000 0.000000
# 3 -0.009055 -0.004189 0.032553 0.000000 0.000000 0.000000
# 4 0.000000 0.000000 0.000000 0.025698 0.000000 0.000000
# 5 0.000000 0.000000 0.000000 0.000000 0.061618 0.000000
# 6 0.000000 0.000000 0.000000 0.000000 0.000000 0.027683
#
#
# Mechanical properties :
#
#
# Convention : Reuss Voigt Hill
#
# Bulk Modulus (GPa) = 44.00956 67.44373 55.72664
# Shear Modulus (GPa) = 24.63632 34.36045 29.49839
#
# Velocity S-wave (km/s) = 3.47865 4.10820 3.80646
# Velocity P-wave (km/s) = 6.14422 7.45858 6.83308
#
# Compressibility (1/GPa) = 0.02272234
#
# Stress axis : x y z
#
# Youngs Moduli (GPa) = 75.17605 175.56042 30.71904
#
# Poissons Ratio (x) = 0.20558 0.27815
# Poissons Ratio (y) = 0.08803 0.12868
# Poissons Ratio (z) = 0.68070 0.73538
#
# Static dielectric constant tensor:
#      x y z
#    x 1.738270 0.000000 0.000000 
#    y 0.000000 0.213880 0.000000 
#    z 0.000000 0.000000 1.245590 
# 
# From -- ./inp_files/18592.got.cif
#   From: 2010.05.17/outbox.cif.g08.bks.cpg/sg53_10_cif.got.tgz:18592.got - 2010.06.03 12:45:16.
