data_PCOD9416473
_publ_section_title
;
Structure prediction by ZEFSAII (Michael W. Deem and Ramdas Pophale) SiO2 
 PCOD9416473
Probable space group: P M N A
;
_chemical_formula_sum "Si O2"
_cell_formula_units_Z 56
_cell_length_a 15.079762
_cell_length_b 17.018745
_cell_length_c 10.245206
_cell_angle_alpha 90.000000
_cell_angle_beta 90.000000
_cell_angle_gamma 90.000000
_cell_volume 2629.315572
_symmetry_space_group_name_H-M "P M N A"
_symmetry_group_IT_number 53
_symmetry_cell_setting 'orthorhombic'
loop_
_space_group_symop_operation_xyz
x,y,z
1/2-x,-y,1/2+z
x,-y,-z
1/2-x,y,1/2-z
-x,-y,-z
1/2+x,y,1/2-z
-x,y,z
1/2+x,-y,1/2+z
loop_
_atom_site_type_symbol
_atom_site_label
_atom_site_fract_x
_atom_site_fract_y
_atom_site_fract_z
Si Si1 0.139196 0.067149 0.101472
Si Si2 0.155562 0.241156 0.479443
Si Si3 0.643811 0.931534 0.901475
Si Si4 0.893751 0.508032 0.148726
Si Si5 0.134029 0.764328 0.001364
Si Si6 0.603117 0.344851 0.257372
Si Si7 0.643243 0.319370 0.756325
O O1 0.247690 0.068328 0.100842
O O2 0.113799 0.055058 0.252486
O O3 0.105153 0.151246 0.051276
O O4 0.111831 0.000000 0.000000
O O5 0.116622 0.154914 0.451551
O O6 0.259459 0.229944 0.507812
O O7 0.150919 0.291967 0.348608
O O8 0.115739 0.288951 0.601222
O O9 0.615769 0.000000 0.000000
O O10 0.861205 0.433034 0.230081
O O11 0.877357 0.591169 0.216705
O O12 0.000000 0.498412 0.139906
O O13 0.858800 0.500000 0.000000
O O14 0.104763 0.737028 0.143955
O O15 0.109502 0.697324 0.897542
O O16 0.500000 0.347169 0.218646
O O17 0.750000 0.314244 0.750000
#
# Coordination Sequence:
#
# PCOD9416473 Si02
#       7
#     8   8   8   8   8   8   8
#     4   9  17  28  49  80 109 143 180 220 263 319
#     4  10  21  36  54  84 117 144 178 230 282 325
#     4   9  17  29  48  78 113 144 175 217 274 322
#     4  10  21  39  59  79 107 144 189 232 270 326
#     4  10  19  36  57  81 114 148 183 224 273 331
#     4  11  22  37  59  81 104 146 191 228 270 327
#     4  10  22  36  55  85 114 144 181 229 284 334
#
# _framework density 21.29832
#
# number of rings (size 3 to 8) (size 9 to 14) (size 15 to 20)
#    0.000    2.143    2.857    0.429    2.000    2.286 
#    0.000    1.429    0.000    0.857    0.000    0.000 
#    0.000    0.000    0.000    0.000    0.000    0.000 
#
# Total GULP energy -312768.192145 kJ/mol
# GULP energy per Si atom -5585.146288 kJ/mol
# Density = 2.124984 g / cm^3
# Si number density = 21.298320 Si / 1000 Ang^3
#
#
#
# Elastic Constant Matrix: (Units=GPa)
#
#
# Indices 1 2 3 4 5 6 
#
# 1 36.8332 4.6467 -6.3294 0.0000 0.0000 0.0000
# 2 4.6467 177.6307 90.4131 0.0000 0.0000 0.0000
# 3 -6.3294 90.4131 134.8112 0.0000 0.0000 0.0000
# 4 0.0000 0.0000 0.0000 34.2170 0.0000 0.0000
# 5 0.0000 0.0000 0.0000 0.0000 -3.1899 0.0000
# 6 0.0000 0.0000 0.0000 0.0000 0.0000 145.5258
#
#
#
# Elastic Compliance Matrix: (Units=1/GPa)
#
#
# Indices 1 2 3 4 5 6 
#
# 1 0.027886 -0.002119 0.002731 0.000000 0.000000 0.000000
# 2 -0.002119 0.008709 -0.005940 0.000000 0.000000 0.000000
# 3 0.002731 -0.005940 0.011530 0.000000 0.000000 0.000000
# 4 0.000000 0.000000 0.000000 0.029225 0.000000 0.000000
# 5 0.000000 0.000000 0.000000 0.000000 -0.313488 0.000000
# 6 0.000000 0.000000 0.000000 0.000000 0.000000 0.006872
#
#
# Mechanical properties :
#
#
# Convention : Reuss Voigt Hill
#
# Bulk Modulus (GPa) = 26.69029 58.52622 42.60826
# Shear Modulus (GPa) = -24.25770 52.68021 14.21125
#
# Velocity S-wave (km/s) = -3.37849 4.97877 2.58592
# Velocity P-wave (km/s) = 1.63098 7.78394 5.38190
#
# Compressibility (1/GPa) = 0.03746681
#
# Stress axis : x y z
#
# Youngs Moduli (GPa) = 35.86026 114.82997 86.73231
#
# Poissons Ratio (x) = 0.24336 -0.23683
# Poissons Ratio (y) = 0.07600 0.51519
# Poissons Ratio (z) = -0.09792 0.68209
#
# Static dielectric constant tensor:
#      x y z
#    x 1.967580 0.000000 0.000000 
#    y 0.000000 1.743680 0.000000 
#    z 0.000000 0.000000 1.737790 
# 
# From -- ./inp_files/11058.got.cif
#   From: 2010.05.17/outbox.cif.g08.bks.cpg/sg53_6_cif.got.tgz:11058.got - 2010.06.03 12:45:16.
