data_PCOD9416723
_publ_section_title
;
Structure prediction by ZEFSAII (Michael W. Deem and Ramdas Pophale) SiO2 
 PCOD9416723
Probable space group: P M N A
;
_chemical_formula_sum "Si O2"
_cell_formula_units_Z 64
_cell_length_a 8.427298
_cell_length_b 24.222516
_cell_length_c 13.889895
_cell_angle_alpha 90.000000
_cell_angle_beta 90.000000
_cell_angle_gamma 90.000000
_cell_volume 2835.349276
_symmetry_space_group_name_H-M "P M N A"
_symmetry_group_IT_number 53
_symmetry_cell_setting 'orthorhombic'
loop_
_space_group_symop_operation_xyz
x,y,z
1/2-x,-y,1/2+z
x,-y,-z
1/2-x,y,1/2-z
-x,-y,-z
1/2+x,y,1/2-z
-x,y,z
1/2+x,-y,1/2+z
loop_
_atom_site_type_symbol
_atom_site_label
_atom_site_fract_x
_atom_site_fract_y
_atom_site_fract_z
Si Si1 0.190258 0.910829 0.859469
Si Si2 0.817941 0.329413 0.849796
Si Si3 0.310765 0.799398 0.955089
Si Si4 0.683985 0.435713 0.106747
Si Si5 0.309876 0.681713 0.934963
Si Si6 0.690183 0.846727 0.358537
Si Si7 0.191906 0.030395 0.860779
Si Si8 0.680360 0.451773 0.598757
O O1 0.250000 0.910112 0.750000
O O2 0.249526 0.855148 0.907379
O O3 0.242566 0.970714 0.902133
O O4 0.000000 0.910380 0.862800
O O5 0.750000 0.305969 0.750000
O O6 0.815093 0.396235 0.840602
O O7 0.000000 0.311478 0.861163
O O8 0.729436 0.320244 0.950849
O O9 0.500000 0.799021 0.951562
O O10 0.252411 0.742654 0.905671
O O11 0.256876 0.803195 0.066075
O O12 0.500000 0.438972 0.135420
O O13 0.750725 0.373411 0.119210
O O14 0.778200 0.489084 0.144015
O O15 0.701070 0.442624 0.990659
O O16 0.500000 0.679054 0.924840
O O17 0.750000 0.839280 0.250000
O O18 0.500000 0.844941 0.359472
O O19 0.742256 0.908547 0.393792
O O20 0.250000 0.029189 0.750000
O O21 0.000000 0.030771 0.864520
O O22 0.500000 0.453383 0.560922
#
# Coordination Sequence:
#
# PCOD9416723 Si02
#       8
#     8   8   8   8   8   8   8   8
#     4  10  20  37  60  85 110 138 174 224 282 337
#     4  10  20  32  49  72 101 135 171 210 256 306
#     4  11  23  38  55  79 110 147 190 233 273 323
#     4   9  15  26  46  68  88 117 153 194 242 291
#     4   9  20  36  51  69  98 134 176 218 256 303
#     4  10  20  36  56  80 111 148 186 226 273 328
#     4   8  16  31  53  79 108 139 174 218 272 331
#     4   9  16  26  42  68  95 118 147 190 241 294
#
# _framework density 22.572175999999999
#
# number of rings (size 3 to 8) (size 9 to 14) (size 15 to 20)
#    0.000    2.500    0.000    3.000    0.000    5.000 
#    0.000    2.500    0.000    0.750    0.000    1.750 
#    0.000    0.000    0.000    0.000    0.000    0.000 
#
# Total GULP energy -356857.990855 kJ/mol
# GULP energy per Si atom -5575.906107 kJ/mol
# Density = 2.252080 g / cm^3
# Si number density = 22.572176 Si / 1000 Ang^3
#
#
#
# Elastic Constant Matrix: (Units=GPa)
#
#
# Indices 1 2 3 4 5 6 
#
# 1 28.8848 16.7636 -7.2879 0.0000 0.0000 0.0000
# 2 16.7636 168.6553 3.1884 0.0000 0.0000 0.0000
# 3 -7.2879 3.1884 29.5323 0.0000 0.0000 0.0000
# 4 0.0000 0.0000 0.0000 2.4499 0.0000 0.0000
# 5 0.0000 0.0000 0.0000 0.0000 14.1616 0.0000
# 6 0.0000 0.0000 0.0000 0.0000 0.0000 30.8523
#
#
#
# Elastic Compliance Matrix: (Units=1/GPa)
#
#
# Indices 1 2 3 4 5 6 
#
# 1 0.039594 -0.004129 0.010217 0.000000 0.000000 0.000000
# 2 -0.004129 0.006372 -0.001707 0.000000 0.000000 0.000000
# 3 0.010217 -0.001707 0.036567 0.000000 0.000000 0.000000
# 4 0.000000 0.000000 0.000000 0.408172 0.000000 0.000000
# 5 0.000000 0.000000 0.000000 0.000000 0.070613 0.000000
# 6 0.000000 0.000000 0.000000 0.000000 0.000000 0.032412
#
#
# Mechanical properties :
#
#
# Convention : Reuss Voigt Hill
#
# Bulk Modulus (GPa) = 10.95348 28.04452 19.49900
# Shear Modulus (GPa) = 8.12480 23.78667 15.95573
#
# Velocity S-wave (km/s) = 1.89929 3.24976 2.66160
# Velocity P-wave (km/s) = 3.11013 5.15098 4.25473
#
# Compressibility (1/GPa) = 0.09129518
#
# Stress axis : x y z
#
# Youngs Moduli (GPa) = 25.25630 156.93932 27.34729
#
# Poissons Ratio (x) = 0.64794 -0.27940
# Poissons Ratio (y) = 0.10427 0.04668
# Poissons Ratio (z) = -0.25804 0.26786
#
# Static dielectric constant tensor:
#      x y z
#    x 1.791000 0.000000 0.000000 
#    y 0.000000 1.946370 0.000000 
#    z 0.000000 0.000000 1.837880 
# 
# From -- ./inp_files/20963.got.cif
#   From: 2010.05.17/outbox.cif.g08.bks.cpg/sg53_11_cif.got.tgz:20963.got - 2010.06.03 12:45:16.
