data_PCOD9416242
_publ_section_title
;
Structure prediction by ZEFSAII (Michael W. Deem and Ramdas Pophale) SiO2 
 PCOD9416242
Probable space group: P M N A
;
_chemical_formula_sum "Si O2"
_cell_formula_units_Z 64
_cell_length_a 8.983313
_cell_length_b 24.301444
_cell_length_c 15.088195
_cell_angle_alpha 90.000000
_cell_angle_beta 90.000000
_cell_angle_gamma 90.000000
_cell_volume 3293.865795
_symmetry_space_group_name_H-M "P M N A"
_symmetry_group_IT_number 53
_symmetry_cell_setting 'orthorhombic'
loop_
_space_group_symop_operation_xyz
x,y,z
1/2-x,-y,1/2+z
x,-y,-z
1/2-x,y,1/2-z
-x,-y,-z
1/2+x,y,1/2-z
-x,y,z
1/2+x,-y,1/2+z
loop_
_atom_site_type_symbol
_atom_site_label
_atom_site_fract_x
_atom_site_fract_y
_atom_site_fract_z
Si Si1 0.832487 0.109167 0.836983
Si Si2 0.167336 0.241397 0.837705
Si Si3 0.321546 0.463717 0.156098
Si Si4 0.821247 0.063098 0.491330
Si Si5 0.179648 0.848299 0.652504
Si Si6 0.678911 0.409420 0.843887
Si Si7 0.320121 0.251169 0.460440
Si Si8 0.320225 0.363097 0.030004
O O1 0.750000 0.087287 0.750000
O O2 0.840591 0.175142 0.828550
O O3 0.000000 0.087596 0.841905
O O4 0.745334 0.095209 0.925563
O O5 0.250000 0.262140 0.750000
O O6 0.000000 0.264027 0.837431
O O7 0.231071 0.248882 0.936286
O O8 0.250000 0.449013 0.250000
O O9 0.500000 0.463179 0.164484
O O10 0.279120 0.526863 0.135535
O O11 0.282743 0.418900 0.082498
O O12 0.782017 0.095970 0.401941
O O13 0.000000 0.063679 0.497582
O O14 0.770765 0.000000 0.500000
O O15 0.250000 0.848657 0.750000
O O16 0.246325 0.797473 0.596006
O O17 0.000000 0.843551 0.657268
O O18 0.750000 0.394805 0.750000
O O19 0.500000 0.407047 0.836596
O O20 0.723108 0.372528 0.927381
O O21 0.500000 0.245980 0.457965
O O22 0.263851 0.310848 0.429695
O O23 0.500000 0.355269 0.034182
#
# Coordination Sequence:
#
# PCOD9416242 Si02
#       8
#     8   8   8   8   8   8   8   8
#     4  10  19  34  57  85 116 150 188 230 281 337
#     4   9  19  34  55  81 109 143 183 229 278 337
#     4   9  18  34  56  80 108 144 189 238 289 346
#     4  10  22  40  62  91 124 155 192 239 290 346
#     4  11  24  43  67  89 117 158 200 243 290 343
#     4   9  18  34  56  81 112 150 189 235 289 349
#     4  11  23  40  59  84 118 153 197 246 292 344
#     4  10  21  36  55  81 113 151 194 236 289 350
#
# _framework density 19.430057000000001
#
# number of rings (size 3 to 8) (size 9 to 14) (size 15 to 20)
#    0.000    2.125    1.250    1.500    0.000    6.250 
#    0.000    5.000    0.000    3.750    0.000    0.000 
#    0.000    0.000    0.000    0.000    0.000    0.000 
#
# Total GULP energy -357174.579857 kJ/mol
# GULP energy per Si atom -5580.852810 kJ/mol
# Density = 1.938583 g / cm^3
# Si number density = 19.430057 Si / 1000 Ang^3
#
#
#
# Elastic Constant Matrix: (Units=GPa)
#
#
# Indices 1 2 3 4 5 6 
#
# 1 24.2370 39.1000 41.4154 0.0000 0.0000 0.0000
# 2 39.1000 106.6356 57.0121 0.0000 0.0000 0.0000
# 3 41.4154 57.0121 136.1256 0.0000 0.0000 0.0000
# 4 0.0000 0.0000 0.0000 -2.0383 0.0000 0.0000
# 5 0.0000 0.0000 0.0000 0.0000 28.1623 0.0000
# 6 0.0000 0.0000 0.0000 0.0000 0.0000 30.9320
#
#
#
# Elastic Compliance Matrix: (Units=1/GPa)
#
#
# Indices 1 2 3 4 5 6 
#
# 1 0.168973 -0.044418 -0.032806 0.000000 0.000000 0.000000
# 2 -0.044418 0.023760 0.003563 0.000000 0.000000 0.000000
# 3 -0.032806 0.003563 0.015835 0.000000 0.000000 0.000000
# 4 0.000000 0.000000 0.000000 -0.490599 0.000000 0.000000
# 5 0.000000 0.000000 0.000000 0.000000 0.035508 0.000000
# 6 0.000000 0.000000 0.000000 0.000000 0.000000 0.032329
#
#
# Mechanical properties :
#
#
# Convention : Reuss Voigt Hill
#
# Bulk Modulus (GPa) = 16.32764 60.22812 38.27788
# Shear Modulus (GPa) = -107.62573 20.04259 -43.79157
#
# Velocity S-wave (km/s) = -7.45061 3.21522 -4.75258
# Velocity P-wave (km/s) = 8.09901 6.69688 3.22069
#
# Compressibility (1/GPa) = 0.06124585
#
# Stress axis : x y z
#
# Youngs Moduli (GPa) = 5.91810 42.08841 63.15138
#
# Poissons Ratio (x) = 1.86947 2.07174
# Poissons Ratio (y) = 0.26287 -0.22500
# Poissons Ratio (z) = 0.19415 -0.14996
#
# Static dielectric constant tensor:
#      x y z
#    x 1.663670 0.000000 0.000000 
#    y 0.000000 1.691120 0.000000 
#    z 0.000000 0.000000 1.665540 
# 
# From -- ./inp_files/20853.got.cif
#   From: 2010.05.17/outbox.cif.g08.bks.cpg/sg53_11_cif.got.tgz:20853.got - 2010.06.03 12:45:16.
