data_PCOD9416116
_publ_section_title
;
Structure prediction by ZEFSAII (Michael W. Deem and Ramdas Pophale) SiO2 
 PCOD9416116
Probable space group: P M N A
;
_chemical_formula_sum "Si O2"
_cell_formula_units_Z 56
_cell_length_a 8.967695
_cell_length_b 19.037138
_cell_length_c 18.983822
_cell_angle_alpha 90.000000
_cell_angle_beta 90.000000
_cell_angle_gamma 90.000000
_cell_volume 3240.903802
_symmetry_space_group_name_H-M "P M N A"
_symmetry_group_IT_number 53
_symmetry_cell_setting 'orthorhombic'
loop_
_space_group_symop_operation_xyz
x,y,z
1/2-x,-y,1/2+z
x,-y,-z
1/2-x,y,1/2-z
-x,-y,-z
1/2+x,y,1/2-z
-x,y,z
1/2+x,-y,1/2+z
loop_
_atom_site_type_symbol
_atom_site_label
_atom_site_fract_x
_atom_site_fract_y
_atom_site_fract_z
Si Si1 0.820597 0.924669 0.827882
Si Si2 0.181244 0.799058 0.584275
Si Si3 0.327763 0.500003 0.585722
Si Si4 0.319306 0.930245 0.172373
Si Si5 0.819211 0.204392 0.580307
Si Si6 0.673214 0.357314 0.913908
Si Si7 0.327229 0.642450 0.914538
O O1 0.750000 0.917523 0.750000
O O2 0.763571 0.859150 0.872936
O O3 0.000000 0.928219 0.824392
O O4 0.751629 0.997686 0.856747
O O5 0.220541 0.805193 0.501553
O O6 0.224122 0.719975 0.608206
O O7 0.000000 0.805143 0.590519
O O8 0.313492 0.500000 0.500000
O O9 0.500000 0.498783 0.603469
O O10 0.252980 0.427880 0.610777
O O11 0.257405 0.573271 0.610390
O O12 0.250000 0.921557 0.250000
O O13 0.500000 0.936234 0.175707
O O14 0.277535 0.862623 0.126177
O O15 0.764653 0.280715 0.607090
O O16 0.000000 0.209054 0.581649
O O17 0.500000 0.361992 0.893994
O O18 0.679505 0.356428 0.999702
O O19 0.500000 0.635214 0.895421
#
# Coordination Sequence:
#
# PCOD9416116 Si02
#       7
#     8   8   8   8   8   8   8
#     4  11  22  36  52  71  94 123 157 193 234 280
#     4   9  17  32  51  72  96 123 157 196 237 281
#     4   9  15  21  32  55  88 122 152 184 226 271
#     4  10  19  34  53  72  94 123 159 196 234 278
#     4   8  16  30  50  72  95 125 159 194 235 284
#     4   8  13  24  40  59  84 117 156 190 222 269
#     4   8  14  24  40  60  85 118 153 187 224 270
#
# _framework density 17.279129000000001
#
# number of rings (size 3 to 8) (size 9 to 14) (size 15 to 20)
#    0.000    3.000    0.000    4.714    0.000    2.857 
#    0.000    7.857    0.000    0.000    0.000    1.000 
#    0.000    2.286    0.000    0.000    0.000    0.000 
#
# Total GULP energy -311793.735593 kJ/mol
# GULP energy per Si atom -5567.745278 kJ/mol
# Density = 1.723980 g / cm^3
# Si number density = 17.279129 Si / 1000 Ang^3
#
#
#
# Elastic Constant Matrix: (Units=GPa)
#
#
# Indices 1 2 3 4 5 6 
#
# 1 75.6321 85.2356 20.3168 0.0000 0.0000 0.0000
# 2 85.2356 230.0843 51.1755 0.0000 0.0000 0.0000
# 3 20.3168 51.1755 21.2545 0.0000 0.0000 0.0000
# 4 0.0000 0.0000 0.0000 -11.4496 0.0000 0.0000
# 5 0.0000 0.0000 0.0000 0.0000 14.1403 0.0000
# 6 0.0000 0.0000 0.0000 0.0000 0.0000 19.7386
#
#
#
# Elastic Compliance Matrix: (Units=1/GPa)
#
#
# Indices 1 2 3 4 5 6 
#
# 1 0.022795 -0.007747 -0.003137 0.000000 0.000000 0.000000
# 2 -0.007747 0.011990 -0.021464 0.000000 0.000000 0.000000
# 3 -0.003137 -0.021464 0.101729 0.000000 0.000000 0.000000
# 4 0.000000 0.000000 0.000000 -0.087339 0.000000 0.000000
# 5 0.000000 0.000000 0.000000 0.000000 0.070720 0.000000
# 6 0.000000 0.000000 0.000000 0.000000 0.000000 0.050662
#
#
# Mechanical properties :
#
#
# Convention : Reuss Voigt Hill
#
# Bulk Modulus (GPa) = 13.92427 71.15854 42.54140
# Shear Modulus (GPa) = 19.29072 15.83539 17.56306
#
# Velocity S-wave (km/s) = 3.34491 3.03057 3.19161
# Velocity P-wave (km/s) = 4.79519 7.31553 6.18509
#
# Compressibility (1/GPa) = 0.07181707
#
# Stress axis : x y z
#
# Youngs Moduli (GPa) = 43.86931 83.40194 9.83008
#
# Poissons Ratio (x) = 0.64609 0.03084
# Poissons Ratio (y) = 0.33984 0.21100
# Poissons Ratio (z) = 0.13763 1.79017
#
# Static dielectric constant tensor:
#      x y z
#    x 1.577280 0.000000 0.000000 
#    y 0.000000 1.623710 0.000000 
#    z 0.000000 0.000000 1.569130 
# 
# From -- ./inp_files/31001.got.cif
#   From: 2010.05.17/outbox.cif.g08.bks.cpg/sg53_16_cif.got.tgz:31001.got - 2010.06.03 12:45:16.
