data_PCOD9416755
_publ_section_title
;
Structure prediction by ZEFSAII (Michael W. Deem and Ramdas Pophale) SiO2 
 PCOD9416755
Probable space group: P M N A
;
_chemical_formula_sum "Si O2"
_cell_formula_units_Z 58
_cell_length_a 15.554990
_cell_length_b 11.532847
_cell_length_c 14.410343
_cell_angle_alpha 90.000000
_cell_angle_beta 90.000000
_cell_angle_gamma 90.000000
_cell_volume 2585.119270
_symmetry_space_group_name_H-M "P M N A"
_symmetry_group_IT_number 53
_symmetry_cell_setting 'orthorhombic'
loop_
_space_group_symop_operation_xyz
x,y,z
1/2-x,-y,1/2+z
x,-y,-z
1/2-x,y,1/2-z
-x,-y,-z
1/2+x,y,1/2-z
-x,y,z
1/2+x,-y,1/2+z
loop_
_atom_site_type_symbol
_atom_site_label
_atom_site_fract_x
_atom_site_fract_y
_atom_site_fract_z
Si Si1 0.356728 0.330191 0.420455
Si Si2 0.239579 0.757556 0.093316
Si Si3 0.401127 0.300509 0.120796
Si Si4 0.595356 0.125262 0.949850
Si Si5 0.396415 0.060056 0.600254
Si Si6 0.401683 0.858292 0.724399
Si Si7 0.228984 0.499407 0.611806
Si Si8 0.500000 0.500000 0.500000
O O1 0.283854 0.270730 0.484787
O O2 0.401423 0.233238 0.359444
O O3 0.309271 0.423905 0.354494
O O4 0.424853 0.401284 0.480528
O O5 0.151271 0.819999 0.119452
O O6 0.263967 0.634406 0.138474
O O7 0.318609 0.845791 0.106141
O O8 0.500000 0.319253 0.149857
O O9 0.404327 0.233220 0.022916
O O10 0.358779 0.207130 0.190301
O O11 0.355091 0.423783 0.126611
O O12 0.500000 0.125566 0.904744
O O13 0.603253 0.000000 0.000000
O O14 0.500000 0.071187 0.601071
O O15 0.374634 0.000000 0.500000
O O16 0.365598 0.973929 0.680897
O O17 0.500000 0.885560 0.752746
O O18 0.238752 0.500000 0.500000
#
# Coordination Sequence:
#
# PCOD9416755 Si02
#       8
#     8   8   8   8   8   8   8   2
#     4  11  20  32  53  86 117 157 193 242 293 358
#     4  11  20  34  56  85 121 148 206 256 296 357
#     4  10  21  39  61  85 117 155 195 258 317 360
#     4  10  21  37  58  83 110 152 205 259 306 354
#     4  10  20  32  55  91 129 161 197 245 303 367
#     4  10  21  36  57  88 121 152 200 240 299 374
#     4  10  20  35  52  87 117 147 203 251 295 360
#     4  12  20  32  56  82 126 164 192 240 300 348
#
# _framework density 22.436102000000002
#
# number of rings (size 3 to 8) (size 9 to 14) (size 15 to 20)
#    0.000    1.655    6.897    0.414    0.966    1.379 
#    0.000    0.000    0.000    3.310    0.000    3.862 
#    0.000    0.000    0.000    0.000    0.000    0.000 
#
# Total GULP energy -322879.294697 kJ/mol
# GULP energy per Si atom -5566.884391 kJ/mol
# Density = 2.238504 g / cm^3
# Si number density = 22.436102 Si / 1000 Ang^3
#
#
#
# Elastic Constant Matrix: (Units=GPa)
#
#
# Indices 1 2 3 4 5 6 
#
# 1 105.7369 43.1274 -3.3904 0.0000 0.0000 0.0000
# 2 43.1274 128.2127 -4.1473 0.0000 0.0000 0.0000
# 3 -3.3904 -4.1473 23.9315 0.0000 0.0000 0.0000
# 4 0.0000 0.0000 0.0000 15.2913 0.0000 0.0000
# 5 0.0000 0.0000 0.0000 0.0000 2.9567 0.0000
# 6 0.0000 0.0000 0.0000 0.0000 0.0000 36.2472
#
#
#
# Elastic Compliance Matrix: (Units=1/GPa)
#
#
# Indices 1 2 3 4 5 6 
#
# 1 0.010981 -0.003664 0.000921 0.000000 0.000000 0.000000
# 2 -0.003664 0.009066 0.001052 0.000000 0.000000 0.000000
# 3 0.000921 0.001052 0.042099 0.000000 0.000000 0.000000
# 4 0.000000 0.000000 0.000000 0.065397 0.000000 0.000000
# 5 0.000000 0.000000 0.000000 0.000000 0.338215 0.000000
# 6 0.000000 0.000000 0.000000 0.000000 0.000000 0.027588
#
#
# Mechanical properties :
#
#
# Convention : Reuss Voigt Hill
#
# Bulk Modulus (GPa) = 17.01731 36.56226 26.78979
# Shear Modulus (GPa) = 9.68398 25.71848 17.70123
#
# Velocity S-wave (km/s) = 2.07981 3.38938 2.81189
# Velocity P-wave (km/s) = 3.65633 5.62572 4.74434
#
# Compressibility (1/GPa) = 0.05876370
#
# Stress axis : x y z
#
# Youngs Moduli (GPa) = 91.06269 110.30131 23.75371
#
# Poissons Ratio (x) = 0.40415 -0.02187
# Poissons Ratio (y) = 0.33366 -0.02499
# Poissons Ratio (z) = -0.08385 -0.11604
#
# Static dielectric constant tensor:
#      x y z
#    x 1.872180 0.000000 0.000000 
#    y 0.000000 1.858820 0.000000 
#    z 0.000000 0.000000 1.950330 
# 
# From -- ./inp_files/28478.got.cif
#   From: 2010.05.17/outbox.cif.g08.bks.cpg/sg53_15_cif.got.tgz:28478.got - 2010.06.03 12:45:16.
