data_PCOD9416469
_publ_section_title
;
Structure prediction by ZEFSAII (Michael W. Deem and Ramdas Pophale) SiO2 
 PCOD9416469
Probable space group: P M N A
;
_chemical_formula_sum "Si O2"
_cell_formula_units_Z 54
_cell_length_a 15.656928
_cell_length_b 29.070304
_cell_length_c 5.240323
_cell_angle_alpha 90.000000
_cell_angle_beta 90.000000
_cell_angle_gamma 90.000000
_cell_volume 2385.141695
_symmetry_space_group_name_H-M "P M N A"
_symmetry_group_IT_number 53
_symmetry_cell_setting 'orthorhombic'
loop_
_space_group_symop_operation_xyz
x,y,z
1/2-x,-y,1/2+z
x,-y,-z
1/2-x,y,1/2-z
-x,-y,-z
1/2+x,y,1/2-z
-x,y,z
1/2+x,-y,1/2+z
loop_
_atom_site_type_symbol
_atom_site_label
_atom_site_fract_x
_atom_site_fract_y
_atom_site_fract_z
Si Si1 0.397676 0.630791 0.772117
Si Si2 0.897062 0.867706 0.832621
Si Si3 0.000000 0.468815 0.754172
Si Si4 0.904160 0.910390 0.331380
Si Si5 0.398106 0.311054 0.724313
Si Si6 0.000000 0.000000 0.500000
Si Si7 0.826502 0.553711 0.426741
Si Si8 0.696455 0.221553 0.508718
O O1 0.500000 0.621050 0.787812
O O2 0.376363 0.666859 0.001045
O O3 0.345440 0.584732 0.829332
O O4 0.379872 0.653004 0.501171
O O5 0.860239 0.883361 0.560824
O O6 0.869581 0.817172 0.915312
O O7 0.000000 0.871584 0.805894
O O8 0.866949 0.902811 0.052838
O O9 0.000000 0.500000 0.500000
O O10 0.086621 0.441172 0.736525
O O11 0.000000 0.500000 0.000000
O O12 0.000000 0.888621 0.303890
O O13 0.926597 0.962265 0.410197
O O14 0.500000 0.302109 0.727231
O O15 0.349318 0.265447 0.636667
O O16 0.814670 0.500000 0.500000
O O17 0.750000 0.568630 0.250000
O O18 0.750000 0.233214 0.250000
O O19 0.750000 0.202402 0.750000
#
# Coordination Sequence:
#
# PCOD9416469 Si02
#       8
#     8   8   4   8   8   2   8   8
#     4  10  22  42  67  94 122 160 205 255 314 377
#     4  10  19  36  56  85 119 158 199 255 309 364
#     4  10  22  40  62  86 119 158 200 252 296 358
#     4   8  17  28  52  84 123 146 198 253 318 350
#     4  10  23  44  68  93 122 162 207 255 311 377
#     4   8  16  30  52  94 126 150 204 274 322 350
#     4  11  24  42  64  97 130 169 212 260 317 377
#     4  12  25  40  61  90 124 164 205 253 314 376
#
# _framework density 22.640165
#
# number of rings (size 3 to 8) (size 9 to 14) (size 15 to 20)
#    0.444    1.481    0.741    2.667    0.000    6.519 
#    0.000    5.926    0.000    0.000    0.000   10.370 
#    0.000    0.000    0.000    0.000    0.000    0.000 
#
# Total GULP energy -301216.816972 kJ/mol
# GULP energy per Si atom -5578.089203 kJ/mol
# Density = 2.258864 g / cm^3
# Si number density = 22.640165 Si / 1000 Ang^3
#
#
#
# Elastic Constant Matrix: (Units=GPa)
#
#
# Indices 1 2 3 4 5 6 
#
# 1 60.0922 9.2293 25.3787 0.0000 0.0000 0.0000
# 2 9.2293 70.1942 -1.5673 0.0000 0.0000 0.0000
# 3 25.3787 -1.5673 106.2576 0.0000 0.0000 0.0000
# 4 0.0000 0.0000 0.0000 13.1266 0.0000 0.0000
# 5 0.0000 0.0000 0.0000 0.0000 17.8589 0.0000
# 6 0.0000 0.0000 0.0000 0.0000 0.0000 -9.3533
#
#
#
# Elastic Compliance Matrix: (Units=1/GPa)
#
#
# Indices 1 2 3 4 5 6 
#
# 1 0.018969 -0.002596 -0.004569 0.000000 0.000000 0.000000
# 2 -0.002596 0.014606 0.000836 0.000000 0.000000 0.000000
# 3 -0.004569 0.000836 0.010515 0.000000 0.000000 0.000000
# 4 0.000000 0.000000 0.000000 0.076181 0.000000 0.000000
# 5 0.000000 0.000000 0.000000 0.000000 0.055995 0.000000
# 6 0.000000 0.000000 0.000000 0.000000 0.000000 -0.106914
#
#
# Mechanical properties :
#
#
# Convention : Reuss Voigt Hill
#
# Bulk Modulus (GPa) = 31.81566 33.62504 32.72035
# Shear Modulus (GPa) = 54.06065 17.89332 35.97698
#
# Velocity S-wave (km/s) = 4.89183 2.81434 3.99065
# Velocity P-wave (km/s) = 6.78159 5.04429 5.97641
#
# Compressibility (1/GPa) = 0.03143106
#
# Stress axis : x y z
#
# Youngs Moduli (GPa) = 52.71639 68.46412 95.10518
#
# Poissons Ratio (x) = 0.17774 0.43453
# Poissons Ratio (y) = 0.13686 -0.07946
# Poissons Ratio (z) = 0.24086 -0.05720
#
# Static dielectric constant tensor:
#      x y z
#    x 1.885450 0.000000 0.000000 
#    y 0.000000 1.819570 0.000000 
#    z 0.000000 0.000000 1.877660 
# 
# From -- ./inp_files/1485.got.cif
#   From: 2010.05.17/outbox.cif.g08.bks.cpg/sg53_1_cif.got.tgz:1485.got - 2010.06.03 12:45:16.
