data_PCOD9416181
_publ_section_title
;
Structure prediction by ZEFSAII (Michael W. Deem and Ramdas Pophale) SiO2 
 PCOD9416181
Probable space group: P M N A
;
_chemical_formula_sum "Si O2"
_cell_formula_units_Z 64
_cell_length_a 8.805219
_cell_length_b 12.846090
_cell_length_c 29.893402
_cell_angle_alpha 90.000000
_cell_angle_beta 90.000000
_cell_angle_gamma 90.000000
_cell_volume 3381.321492
_symmetry_space_group_name_H-M "P M N A"
_symmetry_group_IT_number 53
_symmetry_cell_setting 'orthorhombic'
loop_
_space_group_symop_operation_xyz
x,y,z
1/2-x,-y,1/2+z
x,-y,-z
1/2-x,y,1/2-z
-x,-y,-z
1/2+x,y,1/2-z
-x,y,z
1/2+x,-y,1/2+z
loop_
_atom_site_type_symbol
_atom_site_label
_atom_site_fract_x
_atom_site_fract_y
_atom_site_fract_z
Si Si1 0.322729 0.026735 0.450991
Si Si2 0.816526 0.482224 0.049491
Si Si3 0.816621 0.033868 0.644218
Si Si4 0.324297 0.252847 0.414773
Si Si5 0.676310 0.187985 0.174164
Si Si6 0.317247 0.759015 0.199661
Si Si7 0.178249 0.608579 0.793701
Si Si8 0.816684 0.572910 0.140403
O O1 0.500000 0.994122 0.450138
O O2 0.246957 0.977969 0.406371
O O3 0.318850 0.151900 0.446114
O O4 0.258507 0.000000 0.500000
O O5 0.791207 0.362472 0.062773
O O6 0.764242 0.559243 0.089084
O O7 0.000000 0.495601 0.048084
O O8 0.754893 0.500000 0.000000
O O9 0.767402 0.930908 0.672115
O O10 0.000000 0.030082 0.641199
O O11 0.773773 0.136996 0.671574
O O12 0.500000 0.258225 0.396699
O O13 0.205410 0.228335 0.376083
O O14 0.500000 0.189454 0.186351
O O15 0.763909 0.274139 0.201982
O O16 0.250000 0.758666 0.250000
O O17 0.500000 0.755537 0.202953
O O18 0.258551 0.662187 0.170075
O O19 0.250000 0.557733 0.750000
O O20 0.216370 0.538270 0.836322
O O21 0.000000 0.609170 0.788625
O O22 0.000000 0.587322 0.141244
#
# Coordination Sequence:
#
# PCOD9416181 Si02
#       8
#     8   8   8   8   8   8   8   8
#     4   9  18  31  53  86 117 150 196 246 290 339
#     4   9  17  31  54  83 112 148 190 233 282 336
#     4   9  21  39  57  81 114 152 193 237 289 350
#     4   9  16  31  51  74 109 148 183 229 284 334
#     4  10  19  34  56  80 107 143 183 226 279 335
#     4  11  24  42  62  84 114 154 198 247 300 354
#     4  11  22  36  55  83 113 143 181 226 277 334
#     4  10  21  38  59  84 114 149 192 236 284 342
#
# _framework density 18.927512
#
# number of rings (size 3 to 8) (size 9 to 14) (size 15 to 20)
#    0.000    2.250    1.250    1.500    0.000    5.250 
#    0.000    3.750    0.000    1.500    0.000    0.000 
#    0.000    0.000    0.000    0.000    0.000    0.000 
#
# Total GULP energy -356756.669260 kJ/mol
# GULP energy per Si atom -5574.322957 kJ/mol
# Density = 1.888443 g / cm^3
# Si number density = 18.927512 Si / 1000 Ang^3
#
#
#
# Elastic Constant Matrix: (Units=GPa)
#
#
# Indices 1 2 3 4 5 6 
#
# 1 21.0602 36.2685 30.6128 0.0000 0.0000 0.0000
# 2 36.2685 119.2986 71.0881 0.0000 0.0000 0.0000
# 3 30.6128 71.0881 137.3102 0.0000 0.0000 0.0000
# 4 0.0000 0.0000 0.0000 21.2139 0.0000 0.0000
# 5 0.0000 0.0000 0.0000 0.0000 20.9424 0.0000
# 6 0.0000 0.0000 0.0000 0.0000 0.0000 7.8597
#
#
#
# Elastic Compliance Matrix: (Units=1/GPa)
#
#
# Indices 1 2 3 4 5 6 
#
# 1 0.108923 -0.026961 -0.010326 0.000000 0.000000 0.000000
# 2 -0.026961 0.018796 -0.003720 0.000000 0.000000 0.000000
# 3 -0.010326 -0.003720 0.011511 0.000000 0.000000 0.000000
# 4 0.000000 0.000000 0.000000 0.047139 0.000000 0.000000
# 5 0.000000 0.000000 0.000000 0.000000 0.047750 0.000000
# 6 0.000000 0.000000 0.000000 0.000000 0.000000 0.127231
#
#
# Mechanical properties :
#
#
# Convention : Reuss Voigt Hill
#
# Bulk Modulus (GPa) = 17.47767 61.51194 39.49481
# Shear Modulus (GPa) = 10.81232 19.31652 15.06442
#
# Velocity S-wave (km/s) = 2.39267 3.19807 2.82423
# Velocity P-wave (km/s) = 4.10941 6.79751 5.61664
#
# Compressibility (1/GPa) = 0.05721587
#
# Stress axis : x y z
#
# Youngs Moduli (GPa) = 9.18077 53.20396 86.87560
#
# Poissons Ratio (x) = 1.43445 0.89705
# Poissons Ratio (y) = 0.24753 0.32317
# Poissons Ratio (z) = 0.09480 0.19791
#
# Static dielectric constant tensor:
#      x y z
#    x 1.648870 0.000000 0.000000 
#    y 0.000000 1.658960 0.000000 
#    z 0.000000 0.000000 1.686600 
# 
# From -- ./inp_files/38303.got.cif
#   From: 2010.05.17/outbox.cif.g08.bks.cpg/sg53_20_cif.got.tgz:38303.got - 2010.06.03 12:45:16.
