data_PCOD9416672
_publ_section_title
;
Structure prediction by ZEFSAII (Michael W. Deem and Ramdas Pophale) SiO2 
 PCOD9416672
Probable space group: P M N A
;
_chemical_formula_sum "Si O2"
_cell_formula_units_Z 48
_cell_length_a 24.058705
_cell_length_b 4.922803
_cell_length_c 23.639384
_cell_angle_alpha 90.000000
_cell_angle_beta 90.000000
_cell_angle_gamma 90.000000
_cell_volume 2799.760351
_symmetry_space_group_name_H-M "P M N A"
_symmetry_group_IT_number 53
_symmetry_cell_setting 'orthorhombic'
loop_
_space_group_symop_operation_xyz
x,y,z
1/2-x,-y,1/2+z
x,-y,-z
1/2-x,y,1/2-z
-x,-y,-z
1/2+x,y,1/2-z
-x,y,z
1/2+x,-y,1/2+z
loop_
_atom_site_type_symbol
_atom_site_label
_atom_site_fract_x
_atom_site_fract_y
_atom_site_fract_z
Si Si1 0.721719 0.839058 0.187811
Si Si2 0.935372 0.013113 0.770785
Si Si3 0.064223 0.060843 0.901108
Si Si4 0.869695 0.586741 0.938179
Si Si5 0.718333 0.350618 0.346678
Si Si6 0.365563 0.527590 0.755694
O O1 0.750000 0.845430 0.250000
O O2 0.731210 0.141856 0.164853
O O3 0.758233 0.652000 0.146960
O O4 0.666333 0.661843 0.198634
O O5 0.930550 0.940007 0.837322
O O6 0.899765 0.802842 0.733046
O O7 0.000000 0.009896 0.755161
O O8 0.910033 0.313986 0.768397
O O9 0.083767 0.819883 0.941881
O O10 0.000000 0.137202 0.909358
O O11 0.103121 0.322629 0.908804
O O12 0.821005 0.709561 0.899263
O O13 0.850241 0.500000 0.000000
O O14 0.679896 0.371532 0.290387
#
# Coordination Sequence:
#
# PCOD9416672 Si02
#       6
#     8   8   8   8   8   8
#     4  10  20  30  51  72  89 117 152 198 257 294
#     4  11  20  32  50  71  97 130 162 201 254 298
#     4  11  22  37  51  66  91 129 174 222 264 297
#     4  12  24  36  51  69  93 131 170 219 270 299
#     4  11  19  34  47  68  95 118 157 210 246 300
#     4  11  19  33  51  71  96 122 160 203 247 302
#
# _framework density 17.144324000000001
#
# number of rings (size 3 to 8) (size 9 to 14) (size 15 to 20)
#    0.000    1.000    3.333    7.000    0.000    4.667 
#    0.000    0.000    0.000    0.000    0.000    0.000 
#    0.000    0.000    0.000    0.000    0.000   58.333 
#
# Total GULP energy -267596.852774 kJ/mol
# GULP energy per Si atom -5574.934433 kJ/mol
# Density = 1.710530 g / cm^3
# Si number density = 17.144324 Si / 1000 Ang^3
#
#
#
# Elastic Constant Matrix: (Units=GPa)
#
#
# Indices 1 2 3 4 5 6 
#
# 1 61.6015 25.5576 23.9529 0.0000 0.0000 0.0000
# 2 25.5576 103.1789 6.2229 0.0000 0.0000 0.0000
# 3 23.9529 6.2229 34.2621 0.0000 0.0000 0.0000
# 4 0.0000 0.0000 0.0000 17.5533 0.0000 0.0000
# 5 0.0000 0.0000 0.0000 0.0000 13.6895 0.0000
# 6 0.0000 0.0000 0.0000 0.0000 0.0000 31.4707
#
#
#
# Elastic Compliance Matrix: (Units=1/GPa)
#
#
# Indices 1 2 3 4 5 6 
#
# 1 0.024723 -0.005138 -0.016351 0.000000 0.000000 0.000000
# 2 -0.005138 0.010867 0.001618 0.000000 0.000000 0.000000
# 3 -0.016351 0.001618 0.040324 0.000000 0.000000 0.000000
# 4 0.000000 0.000000 0.000000 0.056969 0.000000 0.000000
# 5 0.000000 0.000000 0.000000 0.000000 0.073049 0.000000
# 6 0.000000 0.000000 0.000000 0.000000 0.000000 0.031776
#
#
# Mechanical properties :
#
#
# Convention : Reuss Voigt Hill
#
# Bulk Modulus (GPa) = 27.64510 34.50104 31.07307
# Shear Modulus (GPa) = 17.27084 22.09663 19.68374
#
# Velocity S-wave (km/s) = 3.17737 3.59396 3.39207
# Velocity P-wave (km/s) = 5.44250 6.11471 5.78837
#
# Compressibility (1/GPa) = 0.03617278
#
# Stress axis : x y z
#
# Youngs Moduli (GPa) = 40.44867 92.02228 24.79926
#
# Poissons Ratio (x) = 0.47278 0.40549
# Poissons Ratio (y) = 0.20781 -0.04013
# Poissons Ratio (z) = 0.66136 -0.14890
#
# Static dielectric constant tensor:
#      x y z
#    x 1.622010 0.000000 0.000000 
#    y 0.000000 1.616100 0.000000 
#    z 0.000000 0.000000 1.580380 
# 
# From -- ./inp_files/37122.got.cif
#   From: 2010.05.17/outbox.cif.g08.bks.cpg/sg53_19_cif.got.tgz:37122.got - 2010.06.03 12:45:16.
