data_PCOD9416892
_publ_section_title
;
Structure prediction by ZEFSAII (Michael W. Deem and Ramdas Pophale) SiO2 
 PCOD9416892
Probable space group: P M N A
;
_chemical_formula_sum "Si O2"
_cell_formula_units_Z 58
_cell_length_a 7.906368
_cell_length_b 21.115517
_cell_length_c 17.345501
_cell_angle_alpha 90.000000
_cell_angle_beta 90.000000
_cell_angle_gamma 90.000000
_cell_volume 2895.780187
_symmetry_space_group_name_H-M "P M N A"
_symmetry_group_IT_number 53
_symmetry_cell_setting 'orthorhombic'
loop_
_space_group_symop_operation_xyz
x,y,z
1/2-x,-y,1/2+z
x,-y,-z
1/2-x,y,1/2-z
-x,-y,-z
1/2+x,y,1/2-z
-x,y,z
1/2+x,-y,1/2+z
loop_
_atom_site_type_symbol
_atom_site_label
_atom_site_fract_x
_atom_site_fract_y
_atom_site_fract_z
Si Si1 0.802834 0.895817 0.011148
Si Si2 0.207650 0.464010 0.078607
Si Si3 0.199192 0.185643 0.834750
Si Si4 0.695447 0.305258 0.920623
Si Si5 0.701927 0.660411 0.662717
Si Si6 0.806607 0.578674 0.169033
Si Si7 0.299507 0.772769 0.933831
Si Si8 0.000000 0.000000 0.500000
O O1 0.768354 0.862736 0.094847
O O2 0.000000 0.918328 0.011675
O O3 0.786875 0.840244 0.946912
O O4 0.652676 0.945401 0.998003
O O5 0.264192 0.393680 0.102490
O O6 0.272916 0.512361 0.144341
O O7 0.000000 0.461663 0.076394
O O8 0.258379 0.500000 0.000000
O O9 0.250000 0.162112 0.750000
O O10 0.290413 0.251509 0.854920
O O11 0.000000 0.198738 0.835049
O O12 0.500000 0.320979 0.932981
O O13 0.785933 0.368938 0.896206
O O14 0.766479 0.271510 0.996273
O O15 0.750000 0.643151 0.750000
O O16 0.500000 0.662856 0.657309
O O17 0.770564 0.729868 0.640710
O O18 0.750000 0.605966 0.250000
O O19 0.000000 0.563733 0.179037
O O20 0.500000 0.782348 0.945268
#
# Coordination Sequence:
#
# PCOD9416892 Si02
#       8
#     8   8   8   8   8   8   8   2
#     4  10  22  39  63  98 126 165 208 245 302 358
#     4   9  19  35  54  76 104 143 194 251 313 372
#     4  10  20  33  55  85 121 159 197 243 287 351
#     4  10  20  33  52  78 113 148 192 235 292 352
#     4  11  22  37  59  86 114 153 203 260 319 381
#     4  11  21  33  49  70 104 147 186 234 289 355
#     4  10  20  38  61  88 118 150 193 251 301 351
#     4  12  22  40  68  94 132 164 204 258 282 370
#
# _framework density 20.029145
#
# number of rings (size 3 to 8) (size 9 to 14) (size 15 to 20)
#    0.000    1.793    0.690    3.931    1.931    2.759 
#    0.000    2.069    0.000    5.793    3.586    0.000 
#    0.000    0.000    0.000    0.000    0.000    0.000 
#
# Total GULP energy -323038.629666 kJ/mol
# GULP energy per Si atom -5569.631546 kJ/mol
# Density = 1.998356 g / cm^3
# Si number density = 20.029145 Si / 1000 Ang^3
#
#
#
# Elastic Constant Matrix: (Units=GPa)
#
#
# Indices 1 2 3 4 5 6 
#
# 1 67.1422 28.9194 7.7863 0.0000 0.0000 0.0000
# 2 28.9194 106.8478 26.0791 0.0000 0.0000 0.0000
# 3 7.7863 26.0791 55.9723 0.0000 0.0000 0.0000
# 4 0.0000 0.0000 0.0000 -6.3038 0.0000 0.0000
# 5 0.0000 0.0000 0.0000 0.0000 19.7364 0.0000
# 6 0.0000 0.0000 0.0000 0.0000 0.0000 24.8610
#
#
#
# Elastic Compliance Matrix: (Units=1/GPa)
#
#
# Indices 1 2 3 4 5 6 
#
# 1 0.016862 -0.004504 -0.000247 0.000000 0.000000 0.000000
# 2 -0.004504 0.011763 -0.004854 0.000000 0.000000 0.000000
# 3 -0.000247 -0.004854 0.020162 0.000000 0.000000 0.000000
# 4 0.000000 0.000000 0.000000 -0.158635 0.000000 0.000000
# 5 0.000000 0.000000 0.000000 0.000000 0.050668 0.000000
# 6 0.000000 0.000000 0.000000 0.000000 0.000000 0.040224
#
#
# Mechanical properties :
#
#
# Convention : Reuss Voigt Hill
#
# Bulk Modulus (GPa) = 33.81010 39.50356 36.65683
# Shear Modulus (GPa) = 494.45296 18.80392 256.62844
#
# Velocity S-wave (km/s) = 15.72904 3.06735 11.33162
# Velocity P-wave (km/s) = 18.62223 5.68425 13.76768
#
# Compressibility (1/GPa) = 0.02957696
#
# Stress axis : x y z
#
# Youngs Moduli (GPa) = 59.30424 85.01368 49.59813
#
# Poissons Ratio (x) = 0.38286 0.01227
# Poissons Ratio (y) = 0.26708 0.24076
# Poissons Ratio (z) = 0.01467 0.41267
#
# Static dielectric constant tensor:
#      x y z
#    x 1.711470 0.000000 0.000000 
#    y 0.000000 1.699730 0.000000 
#    z 0.000000 0.000000 1.800670 
# 
# From -- ./inp_files/26619.got.cif
#   From: 2010.05.17/outbox.cif.g08.bks.cpg/sg53_14_cif.got.tgz:26619.got - 2010.06.03 12:45:16.
