data_PCOD9416916
_publ_section_title
;
Structure prediction by ZEFSAII (Michael W. Deem and Ramdas Pophale) SiO2 
 PCOD9416916
Probable space group: P M N A
;
_chemical_formula_sum "Si O2"
_cell_formula_units_Z 56
_cell_length_a 8.776646
_cell_length_b 19.471743
_cell_length_c 18.707070
_cell_angle_alpha 90.000000
_cell_angle_beta 90.000000
_cell_angle_gamma 90.000000
_cell_volume 3196.974571
_symmetry_space_group_name_H-M "P M N A"
_symmetry_group_IT_number 53
_symmetry_cell_setting 'orthorhombic'
loop_
_space_group_symop_operation_xyz
x,y,z
1/2-x,-y,1/2+z
x,-y,-z
1/2-x,y,1/2-z
-x,-y,-z
1/2+x,y,1/2-z
-x,y,z
1/2+x,-y,1/2+z
loop_
_atom_site_type_symbol
_atom_site_label
_atom_site_fract_x
_atom_site_fract_y
_atom_site_fract_z
Si Si1 0.682262 0.556237 0.330110
Si Si2 0.182269 0.290512 0.829609
Si Si3 0.816766 0.071784 0.465818
Si Si4 0.317813 0.213787 0.959069
Si Si5 0.681858 0.860521 0.672450
Si Si6 0.682519 0.717378 0.597244
Si Si7 0.818170 0.583603 0.669686
O O1 0.750000 0.558371 0.250000
O O2 0.500000 0.547614 0.327378
O O3 0.716169 0.632265 0.359337
O O4 0.757010 0.488295 0.362884
O O5 0.250000 0.285187 0.750000
O O6 0.254030 0.235505 0.882645
O O7 0.000000 0.283829 0.826110
O O8 0.780739 0.135808 0.517839
O O9 0.744689 0.089800 0.389371
O O10 0.000000 0.069632 0.457290
O O11 0.766357 0.000000 0.500000
O O12 0.500000 0.221776 0.961114
O O13 0.241480 0.261745 0.019152
O O14 0.750000 0.874791 0.750000
O O15 0.500000 0.865161 0.674836
O O16 0.722113 0.782665 0.647720
O O17 0.500000 0.709547 0.597030
O O18 0.760214 0.648801 0.625852
O O19 0.750000 0.589352 0.750000
O O20 0.000000 0.582148 0.674072
#
# Coordination Sequence:
#
# PCOD9416916 Si02
#       7
#     8   8   8   8   8   8   8
#     4   9  17  30  48  70  97 131 170 213 260 306
#     4  10  20  35  56  79 103 133 172 217 261 307
#     4   9  19  37  59  81 108 141 173 208 255 310
#     4  10  20  35  56  80 105 133 167 208 256 311
#     4  10  20  33  53  80 108 140 177 216 255 301
#     4  10  20  34  51  73 104 139 174 213 258 307
#     4  11  20  30  47  72 102 136 175 217 259 305
#
# _framework density 17.516560999999999
#
# number of rings (size 3 to 8) (size 9 to 14) (size 15 to 20)
#    0.000    2.143    0.000    4.714    0.000    5.429 
#    0.000    1.429    0.000    4.286    0.000    0.000 
#    0.000    0.000    0.000    0.000    0.000    0.000 
#
# Total GULP energy -312471.888814 kJ/mol
# GULP energy per Si atom -5579.855157 kJ/mol
# Density = 1.747669 g / cm^3
# Si number density = 17.516561 Si / 1000 Ang^3
#
#
#
# Elastic Constant Matrix: (Units=GPa)
#
#
# Indices 1 2 3 4 5 6 
#
# 1 77.3012 51.3266 43.1238 0.0000 0.0000 0.0000
# 2 51.3266 110.5994 74.4798 0.0000 0.0000 0.0000
# 3 43.1238 74.4798 104.3790 0.0000 0.0000 0.0000
# 4 0.0000 0.0000 0.0000 24.7238 0.0000 0.0000
# 5 0.0000 0.0000 0.0000 0.0000 29.7821 0.0000
# 6 0.0000 0.0000 0.0000 0.0000 0.0000 23.5735
#
#
#
# Elastic Compliance Matrix: (Units=1/GPa)
#
#
# Indices 1 2 3 4 5 6 
#
# 1 0.019183 -0.006863 -0.003028 0.000000 0.000000 0.000000
# 2 -0.006863 0.019861 -0.011336 0.000000 0.000000 0.000000
# 3 -0.003028 -0.011336 0.018920 0.000000 0.000000 0.000000
# 4 0.000000 0.000000 0.000000 0.040447 0.000000 0.000000
# 5 0.000000 0.000000 0.000000 0.000000 0.033577 0.000000
# 6 0.000000 0.000000 0.000000 0.000000 0.000000 0.042421
#
#
# Mechanical properties :
#
#
# Convention : Reuss Voigt Hill
#
# Bulk Modulus (GPa) = 64.47815 70.01554 67.24684
# Shear Modulus (GPa) = 22.51925 23.83918 23.17922
#
# Velocity S-wave (km/s) = 3.58941 3.69311 3.64163
# Velocity P-wave (km/s) = 7.35311 7.63173 7.49371
#
# Compressibility (1/GPa) = 0.01550913
#
# Stress axis : x y z
#
# Youngs Moduli (GPa) = 52.13061 50.35112 52.85298
#
# Poissons Ratio (x) = 0.34556 0.16004
# Poissons Ratio (y) = 0.35777 0.59915
# Poissons Ratio (z) = 0.15786 0.57078
#
# Static dielectric constant tensor:
#      x y z
#    x 1.593390 0.000000 0.000000 
#    y 0.000000 1.612200 0.000000 
#    z 0.000000 0.000000 1.586050 
# 
# From -- ./inp_files/20595.got.cif
#   From: 2010.05.17/outbox.cif.g08.bks.cpg/sg53_11_cif.got.tgz:20595.got - 2010.06.03 12:45:16.
