data_PCOD9416095
_publ_section_title
;
Structure prediction by ZEFSAII (Michael W. Deem and Ramdas Pophale) SiO2 
 PCOD9416095
Probable space group: P M N A
;
_chemical_formula_sum "Si O2"
_cell_formula_units_Z 64
_cell_length_a 8.809117
_cell_length_b 17.529573
_cell_length_c 21.699904
_cell_angle_alpha 90.000000
_cell_angle_beta 90.000000
_cell_angle_gamma 90.000000
_cell_volume 3350.900467
_symmetry_space_group_name_H-M "P M N A"
_symmetry_group_IT_number 53
_symmetry_cell_setting 'orthorhombic'
loop_
_space_group_symop_operation_xyz
x,y,z
1/2-x,-y,1/2+z
x,-y,-z
1/2-x,y,1/2-z
-x,-y,-z
1/2+x,y,1/2-z
-x,y,z
1/2+x,-y,1/2+z
loop_
_atom_site_type_symbol
_atom_site_label
_atom_site_fract_x
_atom_site_fract_y
_atom_site_fract_z
Si Si1 0.820558 0.135972 0.123118
Si Si2 0.681863 0.422150 0.080225
Si Si3 0.816870 0.708942 0.680634
Si Si4 0.331268 0.843050 0.304464
Si Si5 0.322404 0.879862 0.009984
Si Si6 0.830235 0.746666 0.073183
Si Si7 0.180396 0.422730 0.942910
Si Si8 0.679575 0.021055 0.869532
O O1 0.741272 0.210999 0.151402
O O2 0.773914 0.121009 0.052016
O O3 0.000000 0.144614 0.129558
O O4 0.762174 0.056126 0.150507
O O5 0.500000 0.418597 0.072870
O O6 0.724584 0.359915 0.132540
O O7 0.734288 0.509173 0.092111
O O8 0.760307 0.411180 0.013266
O O9 0.750000 0.699164 0.750000
O O10 0.000000 0.710751 0.684637
O O11 0.250000 0.799317 0.250000
O O12 0.500000 0.868858 0.288494
O O13 0.340959 0.790686 0.363412
O O14 0.226340 0.913817 0.322154
O O15 0.500000 0.891836 0.996339
O O16 0.292571 0.794883 0.035787
O O17 0.277797 0.941642 0.062932
O O18 0.792961 0.659708 0.085575
O O19 0.000000 0.749719 0.043092
O O20 0.000000 0.438875 0.943955
O O21 0.500000 0.008591 0.871559
#
# Coordination Sequence:
#
# PCOD9416095 Si02
#       8
#     8   8   8   8   8   8   8   8
#     4  12  24  37  57  83 111 145 185 229 277 330
#     4  10  21  37  58  85 115 146 180 224 277 329
#     4  11  25  44  63  83 111 149 193 238 284 335
#     4  10  20  36  55  76 105 141 182 224 269 322
#     4  10  20  34  55  83 115 149 183 225 278 332
#     4   9  19  34  53  80 112 144 179 221 269 323
#     4  10  19  33  58  89 117 146 181 222 270 326
#     4  10  21  37  56  80 110 144 185 232 281 330
#
# _framework density 19.099343000000001
#
# number of rings (size 3 to 8) (size 9 to 14) (size 15 to 20)
#    0.000    1.750    0.000    5.250    0.000    9.000 
#    0.000    3.125    0.000    3.000    0.000    0.000 
#    0.000    0.000    0.000    0.000    0.000    0.000 
#
# Total GULP energy -356861.103740 kJ/mol
# GULP energy per Si atom -5575.954746 kJ/mol
# Density = 1.905587 g / cm^3
# Si number density = 19.099343 Si / 1000 Ang^3
#
#
#
# Elastic Constant Matrix: (Units=GPa)
#
#
# Indices 1 2 3 4 5 6 
#
# 1 77.8372 39.6797 30.4790 0.0000 0.0000 0.0000
# 2 39.6797 139.5894 27.3464 0.0000 0.0000 0.0000
# 3 30.4790 27.3464 47.0163 0.0000 0.0000 0.0000
# 4 0.0000 0.0000 0.0000 0.9890 0.0000 0.0000
# 5 0.0000 0.0000 0.0000 0.0000 -7.2922 0.0000
# 6 0.0000 0.0000 0.0000 0.0000 0.0000 29.2226
#
#
#
# Elastic Compliance Matrix: (Units=1/GPa)
#
#
# Indices 1 2 3 4 5 6 
#
# 1 0.018456 -0.003276 -0.010059 0.000000 0.000000 0.000000
# 2 -0.003276 0.008667 -0.002917 0.000000 0.000000 0.000000
# 3 -0.010059 -0.002917 0.029487 0.000000 0.000000 0.000000
# 4 0.000000 0.000000 0.000000 1.011100 0.000000 0.000000
# 5 0.000000 0.000000 0.000000 0.000000 -0.137133 0.000000
# 6 0.000000 0.000000 0.000000 0.000000 0.000000 0.034220
#
#
# Mechanical properties :
#
#
# Convention : Reuss Voigt Hill
#
# Bulk Modulus (GPa) = 41.48445 51.05032 46.26739
# Shear Modulus (GPa) = 4.97346 15.71307 10.34326
#
# Velocity S-wave (km/s) = 1.61544 2.87139 2.32965
# Velocity P-wave (km/s) = 5.02464 6.14655 5.61369
#
# Compressibility (1/GPa) = 0.02410542
#
# Stress axis : x y z
#
# Youngs Moduli (GPa) = 54.18264 115.38655 33.91320
#
# Poissons Ratio (x) = 0.37797 0.34114
# Poissons Ratio (y) = 0.17748 0.09893
# Poissons Ratio (z) = 0.54503 0.33661
#
# Static dielectric constant tensor:
#      x y z
#    x 1.677760 0.000000 0.000000 
#    y 0.000000 1.689400 0.000000 
#    z 0.000000 0.000000 1.682780 
# 
# From -- ./inp_files/31212.got.cif
#   From: 2010.05.17/outbox.cif.g08.bks.cpg/sg53_16_cif.got.tgz:31212.got - 2010.06.03 12:45:16.
