data_PCOD9416792
_publ_section_title
;
Structure prediction by ZEFSAII (Michael W. Deem and Ramdas Pophale) SiO2 
 PCOD9416792
Probable space group: P M N A
;
_chemical_formula_sum "Si O2"
_cell_formula_units_Z 64
_cell_length_a 8.698445
_cell_length_b 15.254710
_cell_length_c 30.362980
_cell_angle_alpha 90.000000
_cell_angle_beta 90.000000
_cell_angle_gamma 90.000000
_cell_volume 4028.932313
_symmetry_space_group_name_H-M "P M N A"
_symmetry_group_IT_number 53
_symmetry_cell_setting 'orthorhombic'
loop_
_space_group_symop_operation_xyz
x,y,z
1/2-x,-y,1/2+z
x,-y,-z
1/2-x,y,1/2-z
-x,-y,-z
1/2+x,y,1/2-z
-x,y,z
1/2+x,-y,1/2+z
loop_
_atom_site_type_symbol
_atom_site_label
_atom_site_fract_x
_atom_site_fract_y
_atom_site_fract_z
Si Si1 0.816970 0.539872 0.890559
Si Si2 0.184746 0.211606 0.884011
Si Si3 0.683823 0.326476 0.040178
Si Si4 0.185793 0.048583 0.935846
Si Si5 0.815411 0.370121 0.559309
Si Si6 0.816289 0.500548 0.702541
Si Si7 0.185949 0.132966 0.030804
Si Si8 0.183485 0.293222 0.703125
O O1 0.763335 0.620449 0.920733
O O2 0.751417 0.452719 0.914410
O O3 0.752427 0.545176 0.840891
O O4 0.000000 0.534229 0.888979
O O5 0.236437 0.113996 0.897624
O O6 0.251827 0.281866 0.918478
O O7 0.242461 0.240242 0.836490
O O8 0.000000 0.215700 0.886138
O O9 0.500000 0.332570 0.044776
O O10 0.735982 0.225484 0.039472
O O11 0.724822 0.368411 0.992484
O O12 0.000000 0.044156 0.934685
O O13 0.236974 0.947782 0.937920
O O14 0.222991 0.097395 0.981794
O O15 0.000000 0.371797 0.563227
O O16 0.750000 0.529036 0.750000
O O17 0.778872 0.396657 0.697750
O O18 0.000000 0.509668 0.702916
O O19 0.000000 0.143172 0.033283
O O20 0.250000 0.265164 0.750000
O O21 0.000000 0.285013 0.702251
#
# Coordination Sequence:
#
# PCOD9416792 Si02
#       8
#     8   8   8   8   8   8   8   8
#     4  12  24  36  53  74  98 135 178 213 253 305
#     4  11  19  30  51  76 102 135 172 207 248 302
#     4  11  23  36  50  71 103 138 174 217 261 300
#     4   8  16  29  50  75 100 130 166 208 249 293
#     4  11  22  35  48  69 103 140 173 211 253 297
#     4  10  20  35  54  75 103 132 165 209 255 300
#     4   9  16  32  52  72  98 131 171 210 248 294
#     4  10  20  33  50  72 101 134 166 207 254 300
#
# _framework density 15.885102
#
# number of rings (size 3 to 8) (size 9 to 14) (size 15 to 20)
#    0.000    1.750    2.500    4.125    0.000    4.000 
#    0.000    2.500    0.000    0.000    0.000    0.875 
#    0.000    2.000    0.000    0.000    0.000    0.000 
#
# Total GULP energy -357201.875931 kJ/mol
# GULP energy per Si atom -5581.279311 kJ/mol
# Density = 1.584895 g / cm^3
# Si number density = 15.885102 Si / 1000 Ang^3
#
#
#
# Elastic Constant Matrix: (Units=GPa)
#
#
# Indices 1 2 3 4 5 6 
#
# 1 47.2021 19.2646 46.2874 0.0000 0.0000 0.0000
# 2 19.2646 63.0284 45.0646 0.0000 0.0000 0.0000
# 3 46.2874 45.0646 133.4423 0.0000 0.0000 0.0000
# 4 0.0000 0.0000 0.0000 23.7997 0.0000 0.0000
# 5 0.0000 0.0000 0.0000 0.0000 25.3257 0.0000
# 6 0.0000 0.0000 0.0000 0.0000 0.0000 7.1323
#
#
#
# Elastic Compliance Matrix: (Units=1/GPa)
#
#
# Indices 1 2 3 4 5 6 
#
# 1 0.032394 -0.002462 -0.010405 0.000000 0.000000 0.000000
# 2 -0.002462 0.021103 -0.006273 0.000000 0.000000 0.000000
# 3 -0.010405 -0.006273 0.013222 0.000000 0.000000 0.000000
# 4 0.000000 0.000000 0.000000 0.042017 0.000000 0.000000
# 5 0.000000 0.000000 0.000000 0.000000 0.039486 0.000000
# 6 0.000000 0.000000 0.000000 0.000000 0.000000 0.140207
#
#
# Mechanical properties :
#
#
# Convention : Reuss Voigt Hill
#
# Bulk Modulus (GPa) = 35.16268 51.65623 43.40945
# Shear Modulus (GPa) = 14.87266 20.12195 17.49731
#
# Velocity S-wave (km/s) = 3.06316 3.56296 3.32247
# Velocity P-wave (km/s) = 5.89019 7.03673 6.48883
#
# Compressibility (1/GPa) = 0.02843924
#
# Stress axis : x y z
#
# Youngs Moduli (GPa) = 30.87025 47.38594 75.63413
#
# Poissons Ratio (x) = 0.11664 0.78698
# Poissons Ratio (y) = 0.07599 0.47445
# Poissons Ratio (z) = 0.32121 0.29725
#
# Static dielectric constant tensor:
#      x y z
#    x 1.531700 0.000000 0.000000 
#    y 0.000000 1.522870 0.000000 
#    z 0.000000 0.000000 1.516960 
# 
# From -- ./inp_files/38461.got.cif
#   From: 2010.05.17/outbox.cif.g08.bks.cpg/sg53_20_cif.got.tgz:38461.got - 2010.06.03 12:45:16.
