data_PCOD9416643
_publ_section_title
;
Structure prediction by ZEFSAII (Michael W. Deem and Ramdas Pophale) SiO2 
 PCOD9416643
Probable space group: P M N A
;
_chemical_formula_sum "Si O2"
_cell_formula_units_Z 64
_cell_length_a 8.753768
_cell_length_b 24.455624
_cell_length_c 15.293475
_cell_angle_alpha 90.000000
_cell_angle_beta 90.000000
_cell_angle_gamma 90.000000
_cell_volume 3274.009675
_symmetry_space_group_name_H-M "P M N A"
_symmetry_group_IT_number 53
_symmetry_cell_setting 'orthorhombic'
loop_
_space_group_symop_operation_xyz
x,y,z
1/2-x,-y,1/2+z
x,-y,-z
1/2-x,y,1/2-z
-x,-y,-z
1/2+x,y,1/2-z
-x,y,z
1/2+x,-y,1/2+z
loop_
_atom_site_type_symbol
_atom_site_label
_atom_site_fract_x
_atom_site_fract_y
_atom_site_fract_z
Si Si1 0.683287 0.811740 0.983422
Si Si2 0.683228 0.400130 0.348395
Si Si3 0.182914 0.512253 0.348092
Si Si4 0.819433 0.107102 0.158179
Si Si5 0.179237 0.994994 0.395163
Si Si6 0.683139 0.635038 0.151958
Si Si7 0.816341 0.127678 0.657138
Si Si8 0.682973 0.693743 0.513563
O O1 0.500000 0.808698 0.980288
O O2 0.730780 0.831805 0.079947
O O3 0.754599 0.753287 0.962693
O O4 0.740450 0.858073 0.917581
O O5 0.750000 0.393203 0.250000
O O6 0.500000 0.402985 0.341707
O O7 0.744949 0.457575 0.387547
O O8 0.726610 0.350639 0.412442
O O9 0.250000 0.512631 0.250000
O O10 0.219965 0.573063 0.381044
O O11 0.000000 0.506449 0.346742
O O12 0.750000 0.125484 0.250000
O O13 0.776983 0.043554 0.145261
O O14 0.000000 0.114574 0.156081
O O15 0.000000 0.002423 0.371066
O O16 0.188664 0.000000 0.500000
O O17 0.229783 0.934682 0.366077
O O18 0.750000 0.641986 0.250000
O O19 0.500000 0.639921 0.157061
O O20 0.749589 0.675808 0.080106
O O21 0.750000 0.143583 0.750000
O O22 0.000000 0.127691 0.660253
O O23 0.500000 0.694603 0.508244
#
# Coordination Sequence:
#
# PCOD9416643 Si02
#       8
#     8   8   8   8   8   8   8   8
#     4  11  24  45  65  85 117 160 205 255 308 355
#     4  10  21  37  59  86 119 155 194 240 299 358
#     4   9  17  31  55  86 119 152 193 239 294 357
#     4  12  25  41  64  94 125 161 204 248 302 363
#     4  10  19  38  64  92 129 163 195 243 299 355
#     4  10  21  38  61  89 120 158 198 246 301 357
#     4  10  22  39  63  91 121 158 197 241 297 354
#     4  11  25  42  60  87 119 156 203 254 301 359
#
# _framework density 19.547895
#
# number of rings (size 3 to 8) (size 9 to 14) (size 15 to 20)
#    0.000    1.625    1.250    4.125    0.000    7.750 
#    0.000    5.000    0.000    0.000    0.000    0.000 
#    0.000    0.000    0.000    0.000    0.000    0.000 
#
# Total GULP energy -357634.295666 kJ/mol
# GULP energy per Si atom -5588.035870 kJ/mol
# Density = 1.950340 g / cm^3
# Si number density = 19.547895 Si / 1000 Ang^3
#
#
#
# Elastic Constant Matrix: (Units=GPa)
#
#
# Indices 1 2 3 4 5 6 
#
# 1 43.2922 9.0346 8.7707 0.0000 0.0000 0.0000
# 2 9.0346 44.1689 -16.5079 0.0000 0.0000 0.0000
# 3 8.7707 -16.5079 55.4407 0.0000 0.0000 0.0000
# 4 0.0000 0.0000 0.0000 -12.7668 0.0000 0.0000
# 5 0.0000 0.0000 0.0000 0.0000 14.9317 0.0000
# 6 0.0000 0.0000 0.0000 0.0000 0.0000 38.9658
#
#
#
# Elastic Compliance Matrix: (Units=1/GPa)
#
#
# Indices 1 2 3 4 5 6 
#
# 1 0.026008 -0.007716 -0.006412 0.000000 0.000000 0.000000
# 2 -0.007716 0.027765 0.009488 0.000000 0.000000 0.000000
# 3 -0.006412 0.009488 0.021877 0.000000 0.000000 0.000000
# 4 0.000000 0.000000 0.000000 -0.078328 0.000000 0.000000
# 5 0.000000 0.000000 0.000000 0.000000 0.066972 0.000000
# 6 0.000000 0.000000 0.000000 0.000000 0.000000 0.025664
#
#
# Mechanical properties :
#
#
# Convention : Reuss Voigt Hill
#
# Bulk Modulus (GPa) = 15.06735 16.16627 15.61681
# Shear Modulus (GPa) = 41.19955 17.66645 29.43300
#
# Velocity S-wave (km/s) = 4.59586 3.00951 3.88453
# Velocity P-wave (km/s) = 5.99060 4.51267 5.30337
#
# Compressibility (1/GPa) = 0.06636869
#
# Stress axis : x y z
#
# Youngs Moduli (GPa) = 38.44941 36.01687 45.71051
#
# Poissons Ratio (x) = 0.27792 0.29310
# Poissons Ratio (y) = 0.29669 -0.43370
# Poissons Ratio (z) = 0.24654 -0.34173
#
# Static dielectric constant tensor:
#      x y z
#    x 1.653470 0.000000 0.000000 
#    y 0.000000 1.682870 0.000000 
#    z 0.000000 0.000000 1.660460 
# 
# From -- ./inp_files/20843.got.cif
#   From: 2010.05.17/outbox.cif.g08.bks.cpg/sg53_11_cif.got.tgz:20843.got - 2010.06.03 12:45:16.
