data_PCOD9416417
_publ_section_title
;
Structure prediction by ZEFSAII (Michael W. Deem and Ramdas Pophale) SiO2 
 PCOD9416417
Probable space group: P M N A
;
_chemical_formula_sum "Si O2"
_cell_formula_units_Z 48
_cell_length_a 8.664766
_cell_length_b 10.536793
_cell_length_c 28.972167
_cell_angle_alpha 90.000000
_cell_angle_beta 90.000000
_cell_angle_gamma 90.000000
_cell_volume 2645.125406
_symmetry_space_group_name_H-M "P M N A"
_symmetry_group_IT_number 53
_symmetry_cell_setting 'orthorhombic'
loop_
_space_group_symop_operation_xyz
x,y,z
1/2-x,-y,1/2+z
x,-y,-z
1/2-x,y,1/2-z
-x,-y,-z
1/2+x,y,1/2-z
-x,y,z
1/2+x,-y,1/2+z
loop_
_atom_site_type_symbol
_atom_site_label
_atom_site_fract_x
_atom_site_fract_y
_atom_site_fract_z
Si Si1 0.683032 0.758791 0.605889
Si Si2 0.315025 0.002801 0.945512
Si Si3 0.815062 0.849580 0.699880
Si Si4 0.312125 0.260599 0.894521
Si Si5 0.685753 0.146181 0.799589
Si Si6 0.312958 0.485431 0.053603
O O1 0.500000 0.749774 0.608144
O O2 0.733013 0.887638 0.580066
O O3 0.750799 0.768507 0.657549
O O4 0.750020 0.640913 0.577295
O O5 0.500000 0.988535 0.937971
O O6 0.267864 0.138264 0.924723
O O7 0.286438 0.000000 0.000000
O O8 0.750000 0.812875 0.750000
O O9 0.000000 0.843087 0.700334
O O10 0.770355 0.998285 0.692179
O O11 0.500000 0.263663 0.894303
O O12 0.261299 0.232137 0.842271
O O13 0.260804 0.391132 0.917594
O O14 0.750000 0.184786 0.750000
O O15 0.500000 0.149460 0.798086
O O16 0.500000 0.480289 0.054527
O O17 0.266909 0.500000 0.000000
#
# Coordination Sequence:
#
# PCOD9416417 Si02
#       6
#     8   8   8   8   8   8
#     4  12  24  37  55  84 122 158 193 234 289 350
#     4  10  19  35  60  85 109 142 191 246 292 340
#     4  10  19  35  59  86 117 149 190 239 290 344
#     4   9  17  33  56  83 109 139 184 239 291 337
#     4   9  17  31  53  81 112 141 176 227 283 337
#     4  10  21  39  62  83 108 151 202 245 291 344
#
# _framework density 18.146588999999999
#
# number of rings (size 3 to 8) (size 9 to 14) (size 15 to 20)
#    0.000    2.000    1.667    3.000    0.000    4.000 
#    0.000    2.500    0.000    2.000    0.000    0.000 
#    0.000    0.000    0.000    0.000    0.000    0.000 
#
# Total GULP energy -268010.926153 kJ/mol
# GULP energy per Si atom -5583.560962 kJ/mol
# Density = 1.810529 g / cm^3
# Si number density = 18.146589 Si / 1000 Ang^3
#
#
#
# Elastic Constant Matrix: (Units=GPa)
#
#
# Indices 1 2 3 4 5 6 
#
# 1 31.4859 22.0076 43.6398 0.0000 0.0000 0.0000
# 2 22.0076 91.0405 52.1807 0.0000 0.0000 0.0000
# 3 43.6398 52.1807 140.3316 0.0000 0.0000 0.0000
# 4 0.0000 0.0000 0.0000 34.1848 0.0000 0.0000
# 5 0.0000 0.0000 0.0000 0.0000 26.7475 0.0000
# 6 0.0000 0.0000 0.0000 0.0000 0.0000 -498.1180
#
#
#
# Elastic Compliance Matrix: (Units=1/GPa)
#
#
# Indices 1 2 3 4 5 6 
#
# 1 0.057312 -0.004625 -0.016103 0.000000 0.000000 0.000000
# 2 -0.004625 0.014332 -0.003891 0.000000 0.000000 0.000000
# 3 -0.016103 -0.003891 0.013581 0.000000 0.000000 0.000000
# 4 0.000000 0.000000 0.000000 0.029253 0.000000 0.000000
# 5 0.000000 0.000000 0.000000 0.000000 0.037387 0.000000
# 6 0.000000 0.000000 0.000000 0.000000 0.000000 -0.002008
#
#
# Mechanical properties :
#
#
# Convention : Reuss Voigt Hill
#
# Bulk Modulus (GPa) = 27.78784 55.39046 41.58915
# Shear Modulus (GPa) = 23.68665 -77.76847 -27.04091
#
# Velocity S-wave (km/s) = 3.61681 -6.55353 -3.86442
# Velocity P-wave (km/s) = 5.72608 5.16477 1.74830
#
# Compressibility (1/GPa) = 0.03598697
#
# Stress axis : x y z
#
# Youngs Moduli (GPa) = 17.44847 69.77249 73.63497
#
# Poissons Ratio (x) = 0.32267 1.18574
# Poissons Ratio (y) = 0.08069 0.28652
# Poissons Ratio (z) = 0.28097 0.27150
#
# Static dielectric constant tensor:
#      x y z
#    x 1.611680 0.000000 0.000000 
#    y 0.000000 1.599050 0.000000 
#    z 0.000000 0.000000 1.617730 
# 
# From -- ./inp_files/36147.got.cif
#   From: 2010.05.17/outbox.cif.g08.bks.cpg/sg53_19_cif.got.tgz:36147.got - 2010.06.03 12:45:16.
