data_PCOD9416255
_publ_section_title
;
Structure prediction by ZEFSAII (Michael W. Deem and Ramdas Pophale) SiO2 
 PCOD9416255
Probable space group: P M N A
;
_chemical_formula_sum "Si O2"
_cell_formula_units_Z 48
_cell_length_a 15.890582
_cell_length_b 15.256242
_cell_length_c 9.522298
_cell_angle_alpha 90.000000
_cell_angle_beta 90.000000
_cell_angle_gamma 90.000000
_cell_volume 2308.496080
_symmetry_space_group_name_H-M "P M N A"
_symmetry_group_IT_number 53
_symmetry_cell_setting 'orthorhombic'
loop_
_space_group_symop_operation_xyz
x,y,z
1/2-x,-y,1/2+z
x,-y,-z
1/2-x,y,1/2-z
-x,-y,-z
1/2+x,y,1/2-z
-x,y,z
1/2+x,-y,1/2+z
loop_
_atom_site_type_symbol
_atom_site_label
_atom_site_fract_x
_atom_site_fract_y
_atom_site_fract_z
Si Si1 0.905480 0.597020 0.936484
Si Si2 0.092303 0.100284 0.048038
Si Si3 0.839701 0.834654 0.673792
Si Si4 0.761063 0.645903 0.404818
Si Si5 0.757314 0.848599 0.401949
Si Si6 0.403297 0.638955 0.883285
O O1 0.891530 0.595471 0.769215
O O2 0.000000 0.635311 0.958747
O O3 0.906254 0.500000 0.000000
O O4 0.826885 0.643068 0.011503
O O5 0.109418 0.109571 0.213474
O O6 0.000000 0.134422 0.015117
O O7 0.164445 0.150692 0.966119
O O8 0.097997 0.000000 0.000000
O O9 0.750000 0.814280 0.750000
O O10 0.817138 0.882149 0.527121
O O11 0.885638 0.742610 0.645128
O O12 0.750000 0.605562 0.250000
O O13 0.785258 0.748002 0.382158
O O14 0.835058 0.608547 0.502484
O O15 0.750000 0.893145 0.250000
O O16 0.500000 0.626298 0.928626
#
# Coordination Sequence:
#
# PCOD9416255 Si02
#       6
#     8   8   8   8   8   8
#     4  10  21  36  55  80 108 141 182 224 267 317
#     4  10  20  33  50  75 105 137 177 222 268 318
#     4   9  17  32  55  79 104 140 181 219 265 320
#     4  10  21  36  55  81 110 141 180 224 270 322
#     4   9  19  35  53  77 105 135 177 221 265 318
#     4  10  19  34  58  83 109 142 181 224 270 324
#
# _framework density 20.792757000000002
#
# number of rings (size 3 to 8) (size 9 to 14) (size 15 to 20)
#    0.000    2.333    0.000    4.000    0.000    6.000 
#    0.000    7.500    0.000    5.500    0.000    0.000 
#    0.000    0.000    0.000    0.000    0.000    0.000 
#
# Total GULP energy -267726.719404 kJ/mol
# GULP energy per Si atom -5577.639988 kJ/mol
# Density = 2.074543 g / cm^3
# Si number density = 20.792757 Si / 1000 Ang^3
#
#
#
# Elastic Constant Matrix: (Units=GPa)
#
#
# Indices 1 2 3 4 5 6 
#
# 1 111.0782 4.9612 71.4114 0.0000 0.0000 0.0000
# 2 4.9612 40.0737 21.6332 0.0000 0.0000 0.0000
# 3 71.4114 21.6332 182.0940 0.0000 0.0000 0.0000
# 4 0.0000 0.0000 0.0000 2.4426 0.0000 0.0000
# 5 0.0000 0.0000 0.0000 0.0000 19.0543 0.0000
# 6 0.0000 0.0000 0.0000 0.0000 0.0000 -59.0765
#
#
#
# Elastic Compliance Matrix: (Units=1/GPa)
#
#
# Indices 1 2 3 4 5 6 
#
# 1 0.012086 0.001135 -0.004875 0.000000 0.000000 0.000000
# 2 0.001135 0.026771 -0.003626 0.000000 0.000000 0.000000
# 3 -0.004875 -0.003626 0.007834 0.000000 0.000000 0.000000
# 4 0.000000 0.000000 0.000000 0.409402 0.000000 0.000000
# 5 0.000000 0.000000 0.000000 0.000000 0.052482 0.000000
# 6 0.000000 0.000000 0.000000 0.000000 0.000000 -0.016927
#
#
# Mechanical properties :
#
#
# Convention : Reuss Voigt Hill
#
# Bulk Modulus (GPa) = 31.28846 58.80640 45.04743
# Shear Modulus (GPa) = 9.67062 8.16674 8.91868
#
# Velocity S-wave (km/s) = 2.15895 1.98399 2.07331
# Velocity P-wave (km/s) = 4.61467 5.79585 5.23865
#
# Compressibility (1/GPa) = 0.03196067
#
# Stress axis : x y z
#
# Youngs Moduli (GPa) = 82.74207 37.35419 127.64823
#
# Poissons Ratio (x) = -0.04240 0.62222
# Poissons Ratio (y) = -0.09393 0.46280
# Poissons Ratio (z) = 0.40333 0.13543
#
# Static dielectric constant tensor:
#      x y z
#    x 1.741180 0.000000 0.000000 
#    y 0.000000 1.769830 0.000000 
#    z 0.000000 0.000000 1.749020 
# 
# From -- ./inp_files/8664.got.cif
#   From: 2010.05.17/outbox.cif.g08.bks.cpg/sg53_5_cif.got.tgz:8664.got - 2010.06.03 12:45:16.
