data_PCOD9416984
_publ_section_title
;
Structure prediction by ZEFSAII (Michael W. Deem and Ramdas Pophale) SiO2 
 PCOD9416984
Probable space group: P M N A
;
_chemical_formula_sum "Si O2"
_cell_formula_units_Z 48
_cell_length_a 9.966971
_cell_length_b 7.876742
_cell_length_c 27.831095
_cell_angle_alpha 90.000000
_cell_angle_beta 90.000000
_cell_angle_gamma 90.000000
_cell_volume 2184.942986
_symmetry_space_group_name_H-M "P M N A"
_symmetry_group_IT_number 53
_symmetry_cell_setting 'orthorhombic'
loop_
_space_group_symop_operation_xyz
x,y,z
1/2-x,-y,1/2+z
x,-y,-z
1/2-x,y,1/2-z
-x,-y,-z
1/2+x,y,1/2-z
-x,y,z
1/2+x,-y,1/2+z
loop_
_atom_site_type_symbol
_atom_site_label
_atom_site_fract_x
_atom_site_fract_y
_atom_site_fract_z
Si Si1 0.150528 0.202742 0.423495
Si Si2 0.845405 0.424343 0.130548
Si Si3 0.658402 0.726259 0.296542
Si Si4 0.854932 0.676462 0.472565
Si Si5 0.150567 0.925118 0.054853
Si Si6 0.847532 0.116785 0.206382
O O1 0.230551 0.371034 0.407035
O O2 0.134978 0.201610 0.480966
O O3 0.000000 0.192716 0.402776
O O4 0.250902 0.046925 0.415612
O O5 0.815642 0.593404 0.160774
O O6 0.000000 0.431265 0.111533
O O7 0.839915 0.264811 0.167338
O O8 0.750000 0.689934 0.250000
O O9 0.500000 0.706967 0.284490
O O10 0.681704 0.923519 0.310260
O O11 0.842983 0.500000 0.500000
O O12 0.723487 0.743354 0.446348
O O13 0.000000 0.682251 0.446667
O O14 0.000000 0.919142 0.074631
O O15 0.138315 0.000000 0.000000
O O16 0.750000 0.156951 0.250000
O O17 0.000000 0.114156 0.224578
#
# Coordination Sequence:
#
# PCOD9416984 Si02
#       6
#     8   8   8   8   8   8
#     4  10  20  34  52  74 101 135 171 210 259 311
#     4  10  20  34  51  73 107 141 169 212 263 309
#     4   9  18  33  53  76 102 135 172 213 258 305
#     4   9  18  34  54  75 102 133 169 214 259 307
#     4   9  17  31  52  74  97 127 166 207 248 301
#     4   9  18  33  53  76 102 133 173 212 256 308
#
# _framework density 21.968536
#
# number of rings (size 3 to 8) (size 9 to 14) (size 15 to 20)
#    0.000    2.667    0.000    1.500    0.000    4.333 
#    3.000    0.000    0.000    0.000    0.000    0.000 
#    0.000    0.000    0.000    0.000    0.000    0.000 
#
# Total GULP energy -267731.172085 kJ/mol
# GULP energy per Si atom -5577.732752 kJ/mol
# Density = 2.191853 g / cm^3
# Si number density = 21.968536 Si / 1000 Ang^3
#
#
#
# Elastic Constant Matrix: (Units=GPa)
#
#
# Indices 1 2 3 4 5 6 
#
# 1 137.7971 35.5539 34.8483 0.0000 0.0000 0.0000
# 2 35.5539 54.5970 2.3012 0.0000 0.0000 0.0000
# 3 34.8483 2.3012 48.2381 0.0000 0.0000 0.0000
# 4 0.0000 0.0000 0.0000 30.4637 0.0000 0.0000
# 5 0.0000 0.0000 0.0000 0.0000 22.4707 0.0000
# 6 0.0000 0.0000 0.0000 0.0000 0.0000 20.0517
#
#
#
# Elastic Compliance Matrix: (Units=1/GPa)
#
#
# Indices 1 2 3 4 5 6 
#
# 1 0.010924 -0.006795 -0.007568 0.000000 0.000000 0.000000
# 2 -0.006795 0.022579 0.003832 0.000000 0.000000 0.000000
# 3 -0.007568 0.003832 0.026015 0.000000 0.000000 0.000000
# 4 0.000000 0.000000 0.000000 0.032826 0.000000 0.000000
# 5 0.000000 0.000000 0.000000 0.000000 0.044502 0.000000
# 6 0.000000 0.000000 0.000000 0.000000 0.000000 0.049871
#
#
# Mechanical properties :
#
#
# Convention : Reuss Voigt Hill
#
# Bulk Modulus (GPa) = 26.00342 42.89320 34.44831
# Shear Modulus (GPa) = 22.66564 25.79247 24.22905
#
# Velocity S-wave (km/s) = 3.21554 3.43018 3.32459
# Velocity P-wave (km/s) = 5.06445 5.93763 5.51833
#
# Compressibility (1/GPa) = 0.03845648
#
# Stress axis : x y z
#
# Youngs Moduli (GPa) = 91.54107 44.28818 38.43968
#
# Poissons Ratio (x) = 0.30093 0.29090
# Poissons Ratio (y) = 0.62201 -0.14729
# Poissons Ratio (z) = 0.69275 -0.16970
#
# Static dielectric constant tensor:
#      x y z
#    x 1.836510 0.000000 0.000000 
#    y 0.000000 1.855800 0.000000 
#    z 0.000000 0.000000 1.821570 
# 
# From -- ./inp_files/37778.got.cif
#   From: 2010.05.17/outbox.cif.g08.bks.cpg/sg53_19_cif.got.tgz:37778.got - 2010.06.03 12:45:16.
