data_PCOD9416954
_publ_section_title
;
Structure prediction by ZEFSAII (Michael W. Deem and Ramdas Pophale) SiO2 
 PCOD9416954
Probable space group: P M N A
;
_chemical_formula_sum "Si O2"
_cell_formula_units_Z 56
_cell_length_a 15.140328
_cell_length_b 8.537352
_cell_length_c 20.947158
_cell_angle_alpha 90.000000
_cell_angle_beta 90.000000
_cell_angle_gamma 90.000000
_cell_volume 2707.594233
_symmetry_space_group_name_H-M "P M N A"
_symmetry_group_IT_number 53
_symmetry_cell_setting 'orthorhombic'
loop_
_space_group_symop_operation_xyz
x,y,z
1/2-x,-y,1/2+z
x,-y,-z
1/2-x,y,1/2-z
-x,-y,-z
1/2+x,y,1/2-z
-x,y,z
1/2+x,-y,1/2+z
loop_
_atom_site_type_symbol
_atom_site_label
_atom_site_fract_x
_atom_site_fract_y
_atom_site_fract_z
Si Si1 0.402960 0.755379 0.648677
Si Si2 0.397899 0.092587 0.714427
Si Si3 0.100022 0.919686 0.367818
Si Si4 0.776341 0.578561 0.936080
Si Si5 0.599865 0.273381 0.095093
Si Si6 0.153830 0.587952 0.730479
Si Si7 0.739570 0.691655 0.160739
O O1 0.500000 0.751913 0.619752
O O2 0.332101 0.717545 0.594917
O O3 0.399946 0.627893 0.706345
O O4 0.388718 0.924019 0.680823
O O5 0.500000 0.149264 0.703105
O O6 0.390455 0.063891 0.790628
O O7 0.317923 0.201094 0.689033
O O8 0.175475 0.796186 0.382882
O O9 0.000000 0.864438 0.380504
O O10 0.111629 0.086377 0.401403
O O11 0.676439 0.640656 0.943560
O O12 0.778702 0.445059 0.882251
O O13 0.810347 0.500000 0.000000
O O14 0.500000 0.308466 0.074590
O O15 0.612966 0.331636 0.168444
O O16 0.250000 0.656071 0.750000
O O17 0.175717 0.409205 0.709198
#
# Coordination Sequence:
#
# PCOD9416954 Si02
#       7
#     8   8   8   8   8   8   8
#     4  11  22  39  63  87 121 163 202 243 299 365
#     4  10  21  36  59  94 128 157 185 233 305 378
#     4  10  20  33  56  93 128 153 182 231 305 380
#     4  11  26  44  59  82 116 163 220 261 296 341
#     4  10  20  37  62  88 120 158 196 243 301 370
#     4  11  19  34  55  94 122 155 189 228 304 369
#     4  11  23  36  58  88 123 156 191 246 305 351
#
# _framework density 20.682568
#
# number of rings (size 3 to 8) (size 9 to 14) (size 15 to 20)
#    0.000    1.429    4.286    2.571    0.000    4.000 
#    0.000    2.857    0.000    3.429    0.000    0.000 
#    0.000    0.000    0.000    0.000    0.000    0.000 
#
# Total GULP energy -312497.308599 kJ/mol
# GULP energy per Si atom -5580.309082 kJ/mol
# Density = 2.063549 g / cm^3
# Si number density = 20.682568 Si / 1000 Ang^3
#
#
#
# Elastic Constant Matrix: (Units=GPa)
#
#
# Indices 1 2 3 4 5 6 
#
# 1 87.3743 36.8176 -5.0740 0.0000 0.0000 0.0000
# 2 36.8176 70.1746 3.0076 0.0000 0.0000 0.0000
# 3 -5.0740 3.0076 3.0170 0.0000 0.0000 0.0000
# 4 0.0000 0.0000 0.0000 3.3877 0.0000 0.0000
# 5 0.0000 0.0000 0.0000 0.0000 4.7173 0.0000
# 6 0.0000 0.0000 0.0000 0.0000 0.0000 13.3252
#
#
#
# Elastic Compliance Matrix: (Units=1/GPa)
#
#
# Indices 1 2 3 4 5 6 
#
# 1 0.018962 -0.011820 0.043674 0.000000 0.000000 0.000000
# 2 -0.011820 0.022255 -0.042065 0.000000 0.000000 0.000000
# 3 0.043674 -0.042065 0.446841 0.000000 0.000000 0.000000
# 4 0.000000 0.000000 0.000000 0.295186 0.000000 0.000000
# 5 0.000000 0.000000 0.000000 0.000000 0.211988 0.000000
# 6 0.000000 0.000000 0.000000 0.000000 0.000000 0.075046
#
#
# Mechanical properties :
#
#
# Convention : Reuss Voigt Hill
#
# Bulk Modulus (GPa) = 2.13842 25.56315 13.85079
# Shear Modulus (GPa) = 4.01098 12.67367 8.34233
#
# Velocity S-wave (km/s) = 1.39410 2.47811 2.01054
# Velocity P-wave (km/s) = 1.90461 4.53592 3.47866
#
# Compressibility (1/GPa) = 0.46763453
#
# Stress axis : x y z
#
# Youngs Moduli (GPa) = 52.73684 44.93438 2.23793
#
# Poissons Ratio (x) = 0.53114 -0.09774
# Poissons Ratio (y) = 0.62337 0.09414
# Poissons Ratio (z) = -2.30322 1.89016
#
# Static dielectric constant tensor:
#      x y z
#    x 1.775610 0.000000 0.000000 
#    y 0.000000 1.732520 0.000000 
#    z 0.000000 0.000000 1.746380 
# 
# From -- ./inp_files/32464.got.cif
#   From: 2010.05.17/outbox.cif.g08.bks.cpg/sg53_17_cif.got.tgz:32464.got - 2010.06.03 12:45:16.
