data_PCOD9416361
_publ_section_title
;
Structure prediction by ZEFSAII (Michael W. Deem and Ramdas Pophale) SiO2 
 PCOD9416361
Probable space group: P M N A
;
_chemical_formula_sum "Si O2"
_cell_formula_units_Z 64
_cell_length_a 14.984422
_cell_length_b 17.478929
_cell_length_c 11.702742
_cell_angle_alpha 90.000000
_cell_angle_beta 90.000000
_cell_angle_gamma 90.000000
_cell_volume 3065.084446
_symmetry_space_group_name_H-M "P M N A"
_symmetry_group_IT_number 53
_symmetry_cell_setting 'orthorhombic'
loop_
_space_group_symop_operation_xyz
x,y,z
1/2-x,-y,1/2+z
x,-y,-z
1/2-x,y,1/2-z
-x,-y,-z
1/2+x,y,1/2-z
-x,y,z
1/2+x,-y,1/2+z
loop_
_atom_site_type_symbol
_atom_site_label
_atom_site_fract_x
_atom_site_fract_y
_atom_site_fract_z
Si Si1 0.395949 0.819332 0.185163
Si Si2 0.892748 0.469529 0.680878
Si Si3 0.602240 0.280558 0.432309
Si Si4 0.348233 0.352482 0.202351
Si Si5 0.897209 0.139837 0.942229
Si Si6 0.390371 0.424591 0.569047
Si Si7 0.891811 0.671656 0.457737
Si Si8 0.765940 0.959749 0.380725
O O1 0.500000 0.834866 0.154088
O O2 0.393875 0.813806 0.322418
O O3 0.368987 0.738871 0.129678
O O4 0.331770 0.887912 0.145263
O O5 0.874109 0.559390 0.680767
O O6 0.861821 0.435107 0.801427
O O7 0.859569 0.412037 0.583576
O O8 0.000000 0.463980 0.678192
O O9 0.500000 0.272941 0.472663
O O10 0.599662 0.310304 0.303418
O O11 0.638751 0.196690 0.459208
O O12 0.643509 0.348646 0.507378
O O13 0.250000 0.352693 0.250000
O O14 0.356873 0.310367 0.082910
O O15 0.830646 0.071099 0.919452
O O16 0.000000 0.115906 0.962613
O O17 0.363072 0.500000 0.500000
O O18 0.500000 0.423343 0.566419
O O19 0.000000 0.668389 0.465264
O O20 0.750000 0.995167 0.250000
O O21 0.799334 0.000000 0.500000
#
# Coordination Sequence:
#
# PCOD9416361 Si02
#       8
#     8   8   8   8   8   8   8   8
#     4   9  19  39  66  94 122 155 204 254 300 361
#     4  10  19  37  59  76 101 149 205 249 297 354
#     4  10  19  35  57  79 108 148 194 243 299 355
#     4  12  25  36  46  76 118 158 192 250 308 357
#     4   9  19  37  64  94 122 158 202 246 296 360
#     4   9  15  27  52  78  98 130 184 243 292 341
#     4  10  21  39  62  81 106 152 208 253 297 360
#     4  10  22  42  67  97 131 167 200 245 307 372
#
# _framework density 20.880338999999999
#
# number of rings (size 3 to 8) (size 9 to 14) (size 15 to 20)
#    0.000    2.125    1.250    2.250    1.750    4.500 
#    6.750    1.875    0.000    0.000    0.000    0.000 
#    0.000    0.000    0.000    0.000    0.000    0.000 
#
# Total GULP energy -356965.426367 kJ/mol
# GULP energy per Si atom -5577.584787 kJ/mol
# Density = 2.083281 g / cm^3
# Si number density = 20.880339 Si / 1000 Ang^3
#
#
#
# Elastic Constant Matrix: (Units=GPa)
#
#
# Indices 1 2 3 4 5 6 
#
# 1 48.7046 16.2231 4.0287 0.0000 0.0000 0.0000
# 2 16.2231 40.6471 34.7964 0.0000 0.0000 0.0000
# 3 4.0287 34.7964 137.9124 0.0000 0.0000 0.0000
# 4 0.0000 0.0000 0.0000 33.2797 0.0000 0.0000
# 5 0.0000 0.0000 0.0000 0.0000 21.8347 0.0000
# 6 0.0000 0.0000 0.0000 0.0000 0.0000 -120.5876
#
#
#
# Elastic Compliance Matrix: (Units=1/GPa)
#
#
# Indices 1 2 3 4 5 6 
#
# 1 0.024195 -0.011545 0.002206 0.000000 0.000000 0.000000
# 2 -0.011545 0.036889 -0.008970 0.000000 0.000000 0.000000
# 3 0.002206 -0.008970 0.009450 0.000000 0.000000 0.000000
# 4 0.000000 0.000000 0.000000 0.030048 0.000000 0.000000
# 5 0.000000 0.000000 0.000000 0.000000 0.045799 0.000000
# 6 0.000000 0.000000 0.000000 0.000000 0.000000 -0.008293
#
#
# Mechanical properties :
#
#
# Convention : Reuss Voigt Hill
#
# Bulk Modulus (GPa) = 29.48530 37.48451 33.48491
# Shear Modulus (GPa) = 26.87995 -1.61359 12.63318
#
# Velocity S-wave (km/s) = 3.59183 -0.88003 2.46240
# Velocity P-wave (km/s) = 5.59941 4.11806 4.91487
#
# Compressibility (1/GPa) = 0.03391520
#
# Stress axis : x y z
#
# Youngs Moduli (GPa) = 41.33055 27.10828 105.82264
#
# Poissons Ratio (x) = 0.31298 -0.23347
# Poissons Ratio (y) = 0.47718 0.94924
# Poissons Ratio (z) = -0.09118 0.24317
#
# Static dielectric constant tensor:
#      x y z
#    x 1.783460 0.000000 0.000000 
#    y 0.000000 1.758620 0.000000 
#    z 0.000000 0.000000 1.765820 
# 
# From -- ./inp_files/16203.got.cif
#   From: 2010.05.17/outbox.cif.g08.bks.cpg/sg53_9_cif.got.tgz:16203.got - 2010.06.03 12:45:16.
