data_PCOD9416266
_publ_section_title
;
Structure prediction by ZEFSAII (Michael W. Deem and Ramdas Pophale) SiO2 
 PCOD9416266
Probable space group: P M N A
;
_chemical_formula_sum "Si O2"
_cell_formula_units_Z 56
_cell_length_a 8.794947
_cell_length_b 13.709839
_cell_length_c 24.632562
_cell_angle_alpha 90.000000
_cell_angle_beta 90.000000
_cell_angle_gamma 90.000000
_cell_volume 2970.128000
_symmetry_space_group_name_H-M "P M N A"
_symmetry_group_IT_number 53
_symmetry_cell_setting 'orthorhombic'
loop_
_space_group_symop_operation_xyz
x,y,z
1/2-x,-y,1/2+z
x,-y,-z
1/2-x,y,1/2-z
-x,-y,-z
1/2+x,y,1/2-z
-x,y,z
1/2+x,-y,1/2+z
loop_
_atom_site_type_symbol
_atom_site_label
_atom_site_fract_x
_atom_site_fract_y
_atom_site_fract_z
Si Si1 0.818652 0.668292 0.585783
Si Si2 0.317156 0.972593 0.807359
Si Si3 0.182965 0.152775 0.618874
Si Si4 0.680041 0.737969 0.479126
Si Si5 0.818459 0.243110 0.192444
Si Si6 0.318526 0.443983 0.916530
Si Si7 0.680997 0.337712 0.808858
O O1 0.758405 0.736871 0.537779
O O2 0.739274 0.693695 0.642231
O O3 0.785192 0.555734 0.570604
O O4 0.000000 0.677724 0.591431
O O5 0.250000 0.009482 0.750000
O O6 0.500000 0.964132 0.802957
O O7 0.244917 0.866610 0.816243
O O8 0.281030 0.048739 0.854924
O O9 0.259415 0.179503 0.561963
O O10 0.229898 0.236691 0.662100
O O11 0.000000 0.160337 0.612483
O O12 0.500000 0.743515 0.484664
O O13 0.728880 0.635782 0.450951
O O14 0.750000 0.277089 0.250000
O O15 0.000000 0.241461 0.195521
O O16 0.500000 0.426948 0.925299
O O17 0.285664 0.421109 0.853258
O O18 0.750000 0.351989 0.750000
O O19 0.500000 0.332777 0.802695
#
# Coordination Sequence:
#
# PCOD9416266 Si02
#       7
#     8   8   8   8   8   8   8
#     4  11  22  39  61  80 105 145 187 227 275 325
#     4  10  19  34  58  85 112 145 184 224 270 323
#     4   9  19  35  54  77 109 147 183 220 266 325
#     4  11  22  35  55  84 114 142 179 227 273 324
#     4  11  23  40  60  84 114 144 181 227 272 322
#     4   9  20  37  55  76 106 146 186 225 272 327
#     4   9  17  30  47  73 107 139 174 215 264 317
#
# _framework density 18.854405
#
# number of rings (size 3 to 8) (size 9 to 14) (size 15 to 20)
#    0.000    2.000    0.000    6.000    0.000    6.857 
#    0.000    2.143    0.000    4.286    0.000    0.000 
#    0.000    0.000    0.000    0.000    0.000    0.000 
#
# Total GULP energy -312760.146385 kJ/mol
# GULP energy per Si atom -5585.002614 kJ/mol
# Density = 1.881149 g / cm^3
# Si number density = 18.854405 Si / 1000 Ang^3
#
#
#
# Elastic Constant Matrix: (Units=GPa)
#
#
# Indices 1 2 3 4 5 6 
#
# 1 77.7248 22.6552 35.3522 0.0000 0.0000 0.0000
# 2 22.6552 25.0907 5.5665 0.0000 0.0000 0.0000
# 3 35.3522 5.5665 84.1997 0.0000 0.0000 0.0000
# 4 0.0000 0.0000 0.0000 22.6511 0.0000 0.0000
# 5 0.0000 0.0000 0.0000 0.0000 27.6504 0.0000
# 6 0.0000 0.0000 0.0000 0.0000 0.0000 25.0686
#
#
#
# Elastic Compliance Matrix: (Units=1/GPa)
#
#
# Indices 1 2 3 4 5 6 
#
# 1 0.021653 -0.017795 -0.007915 0.000000 0.000000 0.000000
# 2 -0.017795 0.055073 0.003831 0.000000 0.000000 0.000000
# 3 -0.007915 0.003831 0.014946 0.000000 0.000000 0.000000
# 4 0.000000 0.000000 0.000000 0.044148 0.000000 0.000000
# 5 0.000000 0.000000 0.000000 0.000000 0.036166 0.000000
# 6 0.000000 0.000000 0.000000 0.000000 0.000000 0.039891
#
#
# Mechanical properties :
#
#
# Convention : Reuss Voigt Hill
#
# Bulk Modulus (GPa) = 20.87074 34.90698 27.88886
# Shear Modulus (GPa) = 18.40900 23.30343 20.85621
#
# Velocity S-wave (km/s) = 3.12809 3.51945 3.32952
# Velocity P-wave (km/s) = 4.91325 5.92195 5.44103
#
# Compressibility (1/GPa) = 0.04791398
#
# Stress axis : x y z
#
# Youngs Moduli (GPa) = 46.18368 18.15764 66.90589
#
# Poissons Ratio (x) = 0.32311 0.52954
# Poissons Ratio (y) = 0.82184 -0.25628
# Poissons Ratio (z) = 0.36553 -0.06955
#
# Static dielectric constant tensor:
#      x y z
#    x 1.629850 0.000000 0.000000 
#    y 0.000000 1.651510 0.000000 
#    z 0.000000 0.000000 1.654970 
# 
# From -- ./inp_files/30770.got.cif
#   From: 2010.05.17/outbox.cif.g08.bks.cpg/sg53_16_cif.got.tgz:30770.got - 2010.06.03 12:45:16.
