data_PCOD9416561
_publ_section_title
;
Structure prediction by ZEFSAII (Michael W. Deem and Ramdas Pophale) SiO2 
 PCOD9416561
Probable space group: P M N A
;
_chemical_formula_sum "Si O2"
_cell_formula_units_Z 48
_cell_length_a 15.647083
_cell_length_b 19.574551
_cell_length_c 8.280057
_cell_angle_alpha 90.000000
_cell_angle_beta 90.000000
_cell_angle_gamma 90.000000
_cell_volume 2536.054146
_symmetry_space_group_name_H-M "P M N A"
_symmetry_group_IT_number 53
_symmetry_cell_setting 'orthorhombic'
loop_
_space_group_symop_operation_xyz
x,y,z
1/2-x,-y,1/2+z
x,-y,-z
1/2-x,y,1/2-z
-x,-y,-z
1/2+x,y,1/2-z
-x,y,z
1/2+x,-y,1/2+z
loop_
_atom_site_type_symbol
_atom_site_label
_atom_site_fract_x
_atom_site_fract_y
_atom_site_fract_z
Si Si1 0.000000 0.422337 0.441239
Si Si2 0.846743 0.327259 0.945105
Si Si3 0.596938 0.824953 0.052771
Si Si4 0.346743 0.327259 0.945105
Si Si5 0.250000 0.922208 0.445200
Si Si6 0.903062 0.175047 0.947228
Si Si7 0.500000 0.422337 0.441239
O O1 0.000000 0.500000 0.500000
O O2 0.083551 0.381799 0.500925
O O3 0.000000 0.421824 0.250000
O O4 0.846324 0.326565 0.750000
O O5 0.750000 0.341675 0.000271
O O6 0.874600 0.251095 0.997648
O O7 0.916449 0.381799 0.999075
O O8 0.500000 0.838697 0.000115
O O9 0.625400 0.748905 0.002352
O O10 0.666141 0.880594 0.999585
O O11 0.597310 0.824935 0.250000
O O12 0.250000 0.920771 0.250000
O O13 0.333859 0.880594 0.500415
O O14 0.250000 0.000000 0.500000
O O15 0.000000 0.161303 0.999885
O O16 0.500000 0.500000 0.500000
#
# Coordination Sequence:
#
# PCOD9416561 Si02
#       7
#     4   8   8   8   8   8   4
#     4  12  26  42  60  86 123 160 191 236 291 348
#     4  10  19  36  65  93 114 146 196 247 292 346
#     4   9  16  30  57  84 107 143 192 234 278 344
#     4  10  19  36  65  93 114 146 196 247 292 346
#     4  10  20  34  52  80 113 150 189 234 287 340
#     4   9  16  30  57  84 107 143 192 234 278 344
#     4  12  26  42  60  86 123 160 191 236 291 348
#
# _framework density 18.927040000000002
#
# number of rings (size 3 to 8) (size 9 to 14) (size 15 to 20)
#    0.000    2.000    3.333    1.500    0.000    2.000 
#    0.000    1.667    0.000    0.000    0.000    0.000 
#    0.000    0.000    0.000    0.000    0.000    0.000 
#
# Total GULP energy -268020.594728 kJ/mol
# GULP energy per Si atom -5583.762390 kJ/mol
# Density = 1.888396 g / cm^3
# Si number density = 18.927040 Si / 1000 Ang^3
#
#
#
# Elastic Constant Matrix: (Units=GPa)
#
#
# Indices 1 2 3 4 5 6 
#
# 1 243.3396 132.5199 26.9049 0.0000 0.0000 0.0000
# 2 132.5199 198.9617 19.1466 0.0000 0.0000 0.0000
# 3 26.9049 19.1466 16.4234 0.0000 0.0000 0.0000
# 4 0.0000 0.0000 0.0000 28.8559 0.0000 0.0000
# 5 0.0000 0.0000 0.0000 0.0000 10.3188 0.0000
# 6 0.0000 0.0000 0.0000 0.0000 0.0000 35.6678
#
#
#
# Elastic Compliance Matrix: (Units=1/GPa)
#
#
# Indices 1 2 3 4 5 6 
#
# 1 0.007075 -0.004052 -0.006867 0.000000 0.000000 0.000000
# 2 -0.004052 0.007981 -0.002667 0.000000 0.000000 0.000000
# 3 -0.006867 -0.002667 0.075248 0.000000 0.000000 0.000000
# 4 0.000000 0.000000 0.000000 0.034655 0.000000 0.000000
# 5 0.000000 0.000000 0.000000 0.000000 0.096911 0.000000
# 6 0.000000 0.000000 0.000000 0.000000 0.000000 0.028037
#
#
# Mechanical properties :
#
#
# Convention : Reuss Voigt Hill
#
# Bulk Modulus (GPa) = 15.83970 90.65194 53.24582
# Shear Modulus (GPa) = 16.77154 33.64537 25.20845
#
# Velocity S-wave (km/s) = 2.98000 4.22077 3.65345
# Velocity P-wave (km/s) = 4.49750 8.47070 6.78160
#
# Compressibility (1/GPa) = 0.06313250
#
# Stress axis : x y z
#
# Youngs Moduli (GPa) = 141.33759 125.29077 13.28933
#
# Poissons Ratio (x) = 0.50764 0.09126
# Poissons Ratio (y) = 0.57265 0.03545
# Poissons Ratio (z) = 0.97060 0.33420
#
# Static dielectric constant tensor:
#      x y z
#    x 1.665970 0.000000 0.000000 
#    y 0.000000 1.557760 0.000000 
#    z 0.000000 0.000000 1.663220 
# 
# From -- ./inp_files/8701.got.cif
#   From: 2010.05.17/outbox.cif.g08.bks.cpg/sg53_5_cif.got.tgz:8701.got - 2010.06.03 12:45:16.
