data_PCOD9416540
_publ_section_title
;
Structure prediction by ZEFSAII (Michael W. Deem and Ramdas Pophale) SiO2 
 PCOD9416540
Probable space group: P M N A
;
_chemical_formula_sum "Si O2"
_cell_formula_units_Z 48
_cell_length_a 26.761381
_cell_length_b 8.917504
_cell_length_c 10.041705
_cell_angle_alpha 90.000000
_cell_angle_beta 90.000000
_cell_angle_gamma 90.000000
_cell_volume 2396.399899
_symmetry_space_group_name_H-M "P M N A"
_symmetry_group_IT_number 53
_symmetry_cell_setting 'orthorhombic'
loop_
_space_group_symop_operation_xyz
x,y,z
1/2-x,-y,1/2+z
x,-y,-z
1/2-x,y,1/2-z
-x,-y,-z
1/2+x,y,1/2-z
-x,y,z
1/2+x,-y,1/2+z
loop_
_atom_site_type_symbol
_atom_site_label
_atom_site_fract_x
_atom_site_fract_y
_atom_site_fract_z
Si Si1 0.642301 0.349889 0.777084
Si Si2 0.185734 0.827147 0.510890
Si Si3 0.554373 0.393313 0.606801
Si Si4 0.556409 0.869384 0.598694
Si Si5 0.150319 0.704194 0.781313
Si Si6 0.198049 0.826554 0.041775
O O1 0.653212 0.286468 0.922414
O O2 0.584659 0.343804 0.733855
O O3 0.651480 0.527730 0.755976
O O4 0.672834 0.241445 0.674716
O O5 0.181124 0.784566 0.664810
O O6 0.242097 0.814583 0.455804
O O7 0.169535 0.000000 0.500000
O O8 0.582515 0.500000 0.500000
O O9 0.500000 0.460506 0.639977
O O10 0.548355 0.253652 0.513308
O O11 0.500000 0.907539 0.652377
O O12 0.596658 0.792978 0.699568
O O13 0.576254 0.000000 0.500000
O O14 0.176993 0.727333 0.921735
O O15 0.187650 0.000000 0.000000
#
# Coordination Sequence:
#
# PCOD9416540 Si02
#       6
#     8   8   8   8   8   8
#     4  12  23  39  63  94 122 161 203 253 311 364
#     4  11  27  43  59  84 125 168 205 252 311 370
#     4  10  19  36  62  94 125 154 197 252 307 364
#     4  10  21  37  63  97 125 157 205 256 303 360
#     4  12  23  39  63  93 124 160 203 255 311 362
#     4  11  23  42  65  88 117 161 210 255 305 365
#
# _framework density 20.030045000000001
#
# number of rings (size 3 to 8) (size 9 to 14) (size 15 to 20)
#    0.000    1.000    3.333    3.500    2.333    6.667 
#    0.000    0.833    0.000    3.000    0.000    0.000 
#    0.000    0.000    0.000    0.000    0.000    0.000 
#
# Total GULP energy -267315.000070 kJ/mol
# GULP energy per Si atom -5569.062501 kJ/mol
# Density = 1.998446 g / cm^3
# Si number density = 20.030045 Si / 1000 Ang^3
#
#
#
# Elastic Constant Matrix: (Units=GPa)
#
#
# Indices 1 2 3 4 5 6 
#
# 1 70.0112 22.8380 -5.6706 0.0000 0.0000 0.0000
# 2 22.8380 97.2018 2.1176 0.0000 0.0000 0.0000
# 3 -5.6706 2.1176 37.3173 0.0000 0.0000 0.0000
# 4 0.0000 0.0000 0.0000 32.1681 0.0000 0.0000
# 5 0.0000 0.0000 0.0000 0.0000 12.6893 0.0000
# 6 0.0000 0.0000 0.0000 0.0000 0.0000 21.7053
#
#
#
# Elastic Compliance Matrix: (Units=1/GPa)
#
#
# Indices 1 2 3 4 5 6 
#
# 1 0.015717 -0.003749 0.002601 0.000000 0.000000 0.000000
# 2 -0.003749 0.011195 -0.001205 0.000000 0.000000 0.000000
# 3 0.002601 -0.001205 0.027261 0.000000 0.000000 0.000000
# 4 0.000000 0.000000 0.000000 0.031087 0.000000 0.000000
# 5 0.000000 0.000000 0.000000 0.000000 0.078807 0.000000
# 6 0.000000 0.000000 0.000000 0.000000 0.000000 0.046072
#
#
# Mechanical properties :
#
#
# Convention : Reuss Voigt Hill
#
# Bulk Modulus (GPa) = 20.21578 27.01115 23.61346
# Shear Modulus (GPa) = 21.61378 25.66221 23.63799
#
# Velocity S-wave (km/s) = 3.28848 3.58325 3.43902
# Velocity P-wave (km/s) = 4.95312 5.53481 5.25203
#
# Compressibility (1/GPa) = 0.04946631
#
# Stress axis : x y z
#
# Youngs Moduli (GPa) = 63.62458 89.32493 36.68258
#
# Poissons Ratio (x) = 0.33492 -0.09542
# Poissons Ratio (y) = 0.23856 0.04420
# Poissons Ratio (z) = -0.16549 0.10764
#
# Static dielectric constant tensor:
#      x y z
#    x 1.839230 0.000000 0.000000 
#    y 0.000000 1.311260 0.000000 
#    z 0.000000 0.000000 1.653270 
# 
# From -- ./inp_files/13025.got.cif
#   From: 2010.05.17/outbox.cif.g08.bks.cpg/sg53_7_cif.got.tgz:13025.got - 2010.06.03 12:45:16.
