data_PCOD9416176
_publ_section_title
;
Structure prediction by ZEFSAII (Michael W. Deem and Ramdas Pophale) SiO2 
 PCOD9416176
Probable space group: P M N A
;
_chemical_formula_sum "Si O2"
_cell_formula_units_Z 64
_cell_length_a 16.124000
_cell_length_b 11.065502
_cell_length_c 17.432388
_cell_angle_alpha 90.000000
_cell_angle_beta 90.000000
_cell_angle_gamma 90.000000
_cell_volume 3110.289356
_symmetry_space_group_name_H-M "P M N A"
_symmetry_group_IT_number 53
_symmetry_cell_setting 'orthorhombic'
loop_
_space_group_symop_operation_xyz
x,y,z
1/2-x,-y,1/2+z
x,-y,-z
1/2-x,y,1/2-z
-x,-y,-z
1/2+x,y,1/2-z
-x,y,z
1/2+x,-y,1/2+z
loop_
_atom_site_type_symbol
_atom_site_label
_atom_site_fract_x
_atom_site_fract_y
_atom_site_fract_z
Si Si1 0.903184 0.474862 0.832787
Si Si2 0.844168 0.290731 0.250346
Si Si3 0.654885 0.253472 0.763714
Si Si4 0.596074 0.170405 0.393352
Si Si5 0.400268 0.625433 0.911085
Si Si6 0.900802 0.677963 0.029226
Si Si7 0.900781 0.089584 0.862825
Si Si8 0.600370 0.345143 0.919125
O O1 0.852540 0.578008 0.790064
O O2 0.899629 0.356398 0.778686
O O3 0.870737 0.431699 0.916512
O O4 0.000000 0.513788 0.839119
O O5 0.750000 0.249359 0.250000
O O6 0.897571 0.206634 0.195063
O O7 0.873403 0.302121 0.337003
O O8 0.750000 0.286477 0.750000
O O9 0.636581 0.129835 0.718599
O O10 0.635915 0.259559 0.853517
O O11 0.500000 0.161304 0.417681
O O12 0.631216 0.279118 0.446182
O O13 0.631893 0.035690 0.397945
O O14 0.500000 0.622625 0.913712
O O15 0.374776 0.484711 0.902638
O O16 0.372200 0.676504 0.993296
O O17 0.887439 0.799020 0.079571
O O18 0.000000 0.654042 0.023846
O O19 0.000000 0.077409 0.853098
O O20 0.500000 0.338862 0.915647
#
# Coordination Sequence:
#
# PCOD9416176 Si02
#       8
#     8   8   8   8   8   8   8   8
#     4  10  19  34  56  79 110 145 182 222 266 326
#     4  12  24  36  49  78 114 151 180 221 288 345
#     4  11  20  31  52  86 115 139 173 227 293 335
#     4  10  20  36  58  79 105 147 191 223 263 327
#     4   9  18  34  55  75  99 140 190 233 268 317
#     4   8  16  32  56  85 106 129 176 231 270 311
#     4   9  18  34  57  81 105 141 186 227 265 321
#     4   9  17  32  56  79 101 138 189 235 269 314
#
# _framework density 20.576865000000002
#
# number of rings (size 3 to 8) (size 9 to 14) (size 15 to 20)
#    0.000    2.250    1.250    4.500    0.000    2.500 
#    4.500    1.875    0.000    0.750    0.000    3.500 
#    0.000    0.000    0.000    0.000    0.000    0.000 
#
# Total GULP energy -357049.682436 kJ/mol
# GULP energy per Si atom -5578.901288 kJ/mol
# Density = 2.053003 g / cm^3
# Si number density = 20.576865 Si / 1000 Ang^3
#
#
#
# Elastic Constant Matrix: (Units=GPa)
#
#
# Indices 1 2 3 4 5 6 
#
# 1 26.1632 -2.0083 13.9155 0.0000 0.0000 0.0000
# 2 -2.0083 42.6124 11.4476 0.0000 0.0000 0.0000
# 3 13.9155 11.4476 148.5625 0.0000 0.0000 0.0000
# 4 0.0000 0.0000 0.0000 15.3316 0.0000 0.0000
# 5 0.0000 0.0000 0.0000 0.0000 -53.1917 0.0000
# 6 0.0000 0.0000 0.0000 0.0000 0.0000 23.1024
#
#
#
# Elastic Compliance Matrix: (Units=1/GPa)
#
#
# Indices 1 2 3 4 5 6 
#
# 1 0.040597 0.002997 -0.004034 0.000000 0.000000 0.000000
# 2 0.002997 0.024185 -0.002144 0.000000 0.000000 0.000000
# 3 -0.004034 -0.002144 0.007274 0.000000 0.000000 0.000000
# 4 0.000000 0.000000 0.000000 0.065225 0.000000 0.000000
# 5 0.000000 0.000000 0.000000 0.000000 -0.018800 0.000000
# 6 0.000000 0.000000 0.000000 0.000000 0.000000 0.043286
#
#
# Mechanical properties :
#
#
# Convention : Reuss Voigt Hill
#
# Bulk Modulus (GPa) = 15.22210 29.33865 22.28038
# Shear Modulus (GPa) = 26.31218 9.98067 18.14642
#
# Velocity S-wave (km/s) = 3.57981 2.20476 2.97288
# Velocity P-wave (km/s) = 4.94979 4.55745 4.75766
#
# Compressibility (1/GPa) = 0.06569396
#
# Stress axis : x y z
#
# Youngs Moduli (GPa) = 24.63238 41.34853 137.47177
#
# Poissons Ratio (x) = -0.12392 0.55450
# Poissons Ratio (y) = -0.07382 0.29478
# Poissons Ratio (z) = 0.09936 0.08866
#
# Static dielectric constant tensor:
#      x y z
#    x 1.704360 0.000000 0.000000 
#    y 0.000000 1.764020 0.000000 
#    z 0.000000 0.000000 1.802090 
# 
# From -- ./inp_files/28549.got.cif
#   From: 2010.05.17/outbox.cif.g08.bks.cpg/sg53_15_cif.got.tgz:28549.got - 2010.06.03 12:45:16.
