data_PCOD9416869
_publ_section_title
;
Structure prediction by ZEFSAII (Michael W. Deem and Ramdas Pophale) SiO2 
 PCOD9416869
Probable space group: P M N A
;
_chemical_formula_sum "Si O2"
_cell_formula_units_Z 64
_cell_length_a 7.594416
_cell_length_b 13.425916
_cell_length_c 28.061479
_cell_angle_alpha 90.000000
_cell_angle_beta 90.000000
_cell_angle_gamma 90.000000
_cell_volume 2861.204277
_symmetry_space_group_name_H-M "P M N A"
_symmetry_group_IT_number 53
_symmetry_cell_setting 'orthorhombic'
loop_
_space_group_symop_operation_xyz
x,y,z
1/2-x,-y,1/2+z
x,-y,-z
1/2-x,y,1/2-z
-x,-y,-z
1/2+x,y,1/2-z
-x,y,z
1/2+x,-y,1/2+z
loop_
_atom_site_type_symbol
_atom_site_label
_atom_site_fract_x
_atom_site_fract_y
_atom_site_fract_z
Si Si1 0.211495 0.815388 0.304222
Si Si2 0.701749 0.029316 0.449375
Si Si3 0.297693 0.246095 0.166711
Si Si4 0.298908 0.265494 0.439442
Si Si5 0.206003 0.022667 0.341748
Si Si6 0.783851 0.633482 0.369515
Si Si7 0.794984 0.597341 0.475431
Si Si8 0.788935 0.545575 0.697319
O O1 0.250000 0.786932 0.250000
O O2 0.282115 0.926637 0.315113
O O3 0.275727 0.731345 0.340887
O O4 0.000000 0.820311 0.309902
O O5 0.500000 0.991021 0.448952
O O6 0.699166 0.148310 0.448961
O O7 0.784090 0.000000 0.500000
O O8 0.782590 0.001136 0.398514
O O9 0.500000 0.237138 0.182855
O O10 0.295532 0.277724 0.111051
O O11 0.215679 0.341785 0.192509
O O12 0.218641 0.133904 0.168702
O O13 0.500000 0.300285 0.433877
O O14 0.216230 0.318931 0.484480
O O15 0.000000 0.029327 0.329593
O O16 0.723025 0.629304 0.424221
O O17 0.727172 0.533449 0.341876
O O18 0.000000 0.635832 0.368556
O O19 0.713620 0.500000 0.500000
O O20 0.000000 0.573692 0.465846
O O21 0.750000 0.506790 0.750000
O O22 0.000000 0.552802 0.691438
#
# Coordination Sequence:
#
# PCOD9416869 Si02
#       8
#     8   8   8   8   8   8   8   8
#     4  10  21  37  55  77 106 140 180 227 271 316
#     4   9  19  34  51  74 108 144 174 210 261 319
#     4   9  18  35  55  76 105 141 177 213 259 320
#     4  10  20  33  51  78 109 139 173 217 263 310
#     4   9  19  34  53  78 105 136 178 222 261 308
#     4   9  19  35  54  76 104 137 177 219 260 317
#     4  10  20  35  56  79 105 143 183 218 266 326
#     4  10  20  35  56  78 101 131 170 217 265 315
#
# _framework density 22.368202
#
# number of rings (size 3 to 8) (size 9 to 14) (size 15 to 20)
#    0.000    2.500    0.000    1.500    1.750    4.500 
#    0.000    1.250    0.000    0.000    0.000    0.000 
#    0.000    0.000    0.000    0.000    0.000    0.000 
#
# Total GULP energy -357092.680766 kJ/mol
# GULP energy per Si atom -5579.573137 kJ/mol
# Density = 2.231729 g / cm^3
# Si number density = 22.368202 Si / 1000 Ang^3
#
#
#
# Elastic Constant Matrix: (Units=GPa)
#
#
# Indices 1 2 3 4 5 6 
#
# 1 45.9567 11.0855 -8.4284 0.0000 0.0000 0.0000
# 2 11.0855 102.9267 52.8477 0.0000 0.0000 0.0000
# 3 -8.4284 52.8477 93.6327 0.0000 0.0000 0.0000
# 4 0.0000 0.0000 0.0000 34.9013 0.0000 0.0000
# 5 0.0000 0.0000 0.0000 0.0000 21.2088 0.0000
# 6 0.0000 0.0000 0.0000 0.0000 0.0000 13.3175
#
#
#
# Elastic Compliance Matrix: (Units=1/GPa)
#
#
# Indices 1 2 3 4 5 6 
#
# 1 0.023944 -0.005189 0.005084 0.000000 0.000000 0.000000
# 2 -0.005189 0.014805 -0.008823 0.000000 0.000000 0.000000
# 3 0.005084 -0.008823 0.016118 0.000000 0.000000 0.000000
# 4 0.000000 0.000000 0.000000 0.028652 0.000000 0.000000
# 5 0.000000 0.000000 0.000000 0.000000 0.047150 0.000000
# 6 0.000000 0.000000 0.000000 0.000000 0.000000 0.075089
#
#
# Mechanical properties :
#
#
# Convention : Reuss Voigt Hill
#
# Bulk Modulus (GPa) = 27.01993 39.28065 33.15029
# Shear Modulus (GPa) = 21.19085 26.35295 23.77190
#
# Velocity S-wave (km/s) = 3.08127 3.43613 3.26353
# Velocity P-wave (km/s) = 4.97642 5.77423 5.39011
#
# Compressibility (1/GPa) = 0.03700972
#
# Stress axis : x y z
#
# Youngs Moduli (GPa) = 41.76446 67.54552 62.04385
#
# Poissons Ratio (x) = 0.35052 -0.31545
# Poissons Ratio (y) = 0.21673 0.54742
# Poissons Ratio (z) = -0.21234 0.59597
#
# Static dielectric constant tensor:
#      x y z
#    x 1.857340 0.000000 0.000000 
#    y 0.000000 1.946660 0.000000 
#    z 0.000000 0.000000 1.800450 
# 
# From -- ./inp_files/38142.got.cif
#   From: 2010.05.17/outbox.cif.g08.bks.cpg/sg53_20_cif.got.tgz:38142.got - 2010.06.03 12:45:16.
