data_PCOD9416102
_publ_section_title
;
Structure prediction by ZEFSAII (Michael W. Deem and Ramdas Pophale) SiO2 
 PCOD9416102
Probable space group: P M N A
;
_chemical_formula_sum "Si O2"
_cell_formula_units_Z 64
_cell_length_a 31.489942
_cell_length_b 7.044740
_cell_length_c 11.696349
_cell_angle_alpha 90.000000
_cell_angle_beta 90.000000
_cell_angle_gamma 90.000000
_cell_volume 2594.699980
_symmetry_space_group_name_H-M "P M N A"
_symmetry_group_IT_number 53
_symmetry_cell_setting 'orthorhombic'
loop_
_space_group_symop_operation_xyz
x,y,z
1/2-x,-y,1/2+z
x,-y,-z
1/2-x,y,1/2-z
-x,-y,-z
1/2+x,y,1/2-z
-x,y,z
1/2+x,-y,1/2+z
loop_
_atom_site_type_symbol
_atom_site_label
_atom_site_fract_x
_atom_site_fract_y
_atom_site_fract_z
Si Si1 0.954988 0.672781 0.213840
Si Si2 0.294780 0.224876 0.035214
Si Si3 0.937218 0.713153 0.464148
Si Si4 0.151061 0.299309 0.657409
Si Si5 0.547677 0.777756 0.781994
Si Si6 0.128128 0.621600 0.108388
Si Si7 0.200424 0.212202 0.041195
Si Si8 0.354746 0.132597 0.239055
O O1 0.954970 0.765802 0.340022
O O2 0.951559 0.447017 0.245191
O O3 0.914863 0.736678 0.139643
O O4 0.000000 0.705105 0.156052
O O5 0.247376 0.284523 0.070247
O O6 0.330932 0.232513 0.132141
O O7 0.308009 0.332192 0.919005
O O8 0.294939 0.000000 0.000000
O O9 0.950169 0.500000 0.500000
O O10 0.887405 0.709927 0.433424
O O11 0.948999 0.816613 0.580635
O O12 0.139717 0.438506 0.761383
O O13 0.153563 0.091977 0.716180
O O14 0.500000 0.842634 0.745109
O O15 0.594581 0.845446 0.744556
O O16 0.112923 0.500000 0.000000
O O17 0.173056 0.693169 0.059320
O O18 0.169582 0.199902 0.148689
O O19 0.207297 0.000000 0.000000
#
# Coordination Sequence:
#
# PCOD9416102 Si02
#       8
#     8   8   8   8   8   8   8   8
#     4   9  19  36  59  87 118 166 220 255 299 372
#     4   9  20  36  65  92 116 158 208 252 311 379
#     4   9  17  32  56  86 122 160 201 251 312 372
#     4  10  20  38  61  90 126 157 202 260 315 370
#     4  10  19  33  59  92 126 161 203 256 316 380
#     4  11  23  40  62  88 122 171 210 256 311 366
#     4  11  22  40  64  90 119 163 213 256 308 375
#     4  11  20  37  62  91 126 158 202 261 314 375
#
# _framework density 24.665666000000002
#
# number of rings (size 3 to 8) (size 9 to 14) (size 15 to 20)
#    0.000    2.000    2.500    1.500    0.000    2.250 
#    0.000    5.000    5.500    0.750    0.000    0.000 
#    0.000    0.000    0.000    0.000    0.000    0.000 
#
# Total GULP energy -356939.581219 kJ/mol
# GULP energy per Si atom -5577.180957 kJ/mol
# Density = 2.460953 g / cm^3
# Si number density = 24.665666 Si / 1000 Ang^3
#
#
#
# Elastic Constant Matrix: (Units=GPa)
#
#
# Indices 1 2 3 4 5 6 
#
# 1 217.5900 27.5722 85.0988 0.0000 0.0000 0.0000
# 2 27.5722 54.7513 11.2873 0.0000 0.0000 0.0000
# 3 85.0988 11.2873 104.2334 0.0000 0.0000 0.0000
# 4 0.0000 0.0000 0.0000 30.2798 0.0000 0.0000
# 5 0.0000 0.0000 0.0000 0.0000 5.1063 0.0000
# 6 0.0000 0.0000 0.0000 0.0000 0.0000 21.6326
#
#
#
# Elastic Compliance Matrix: (Units=1/GPa)
#
#
# Indices 1 2 3 4 5 6 
#
# 1 0.007051 -0.002418 -0.005495 0.000000 0.000000 0.000000
# 2 -0.002418 0.019511 -0.000139 0.000000 0.000000 0.000000
# 3 -0.005495 -0.000139 0.014095 0.000000 0.000000 0.000000
# 4 0.000000 0.000000 0.000000 0.033025 0.000000 0.000000
# 5 0.000000 0.000000 0.000000 0.000000 0.195836 0.000000
# 6 0.000000 0.000000 0.000000 0.000000 0.000000 0.046227
#
#
# Mechanical properties :
#
#
# Convention : Reuss Voigt Hill
#
# Bulk Modulus (GPa) = 40.72697 69.38790 55.05743
# Shear Modulus (GPa) = 14.70445 28.24483 21.47464
#
# Velocity S-wave (km/s) = 2.44427 3.38761 2.95384
# Velocity P-wave (km/s) = 4.95110 6.59497 5.83125
#
# Compressibility (1/GPa) = 0.02455376
#
# Stress axis : x y z
#
# Youngs Moduli (GPa) = 141.81786 51.25385 70.94653
#
# Poissons Ratio (x) = 0.12394 0.38985
# Poissons Ratio (y) = 0.34294 0.00983
# Poissons Ratio (z) = 0.77929 0.00710
#
# Static dielectric constant tensor:
#      x y z
#    x 1.810440 0.000000 0.000000 
#    y 0.000000 2.116090 0.000000 
#    z 0.000000 0.000000 1.900740 
# 
# From -- ./inp_files/19016.got.cif
#   From: 2010.05.17/outbox.cif.g08.bks.cpg/sg53_10_cif.got.tgz:19016.got - 2010.06.03 12:45:16.
