data_PCOD9416111
_publ_section_title
;
Structure prediction by ZEFSAII (Michael W. Deem and Ramdas Pophale) SiO2 
 PCOD9416111
Probable space group: P M N A
;
_chemical_formula_sum "Si O2"
_cell_formula_units_Z 56
_cell_length_a 8.846896
_cell_length_b 21.195959
_cell_length_c 19.910798
_cell_angle_alpha 90.000000
_cell_angle_beta 90.000000
_cell_angle_gamma 90.000000
_cell_volume 3733.641878
_symmetry_space_group_name_H-M "P M N A"
_symmetry_group_IT_number 53
_symmetry_cell_setting 'orthorhombic'
loop_
_space_group_symop_operation_xyz
x,y,z
1/2-x,-y,1/2+z
x,-y,-z
1/2-x,y,1/2-z
-x,-y,-z
1/2+x,y,1/2-z
-x,y,z
1/2+x,-y,1/2+z
loop_
_atom_site_type_symbol
_atom_site_label
_atom_site_fract_x
_atom_site_fract_y
_atom_site_fract_z
Si Si1 0.681367 0.978676 0.320676
Si Si2 0.818570 0.063447 0.541619
Si Si3 0.318355 0.180338 0.461444
Si Si4 0.179549 0.313144 0.448505
Si Si5 0.181305 0.557883 0.951573
Si Si6 0.680463 0.872978 0.680985
Si Si7 0.179841 0.609062 0.676000
O O1 0.750000 0.956808 0.250000
O O2 0.500000 0.973351 0.320692
O O3 0.752749 0.944102 0.384012
O O4 0.721781 0.053150 0.327181
O O5 0.750594 0.125386 0.507072
O O6 0.000000 0.066937 0.542703
O O7 0.775597 0.000000 0.500000
O O8 0.500000 0.178684 0.465991
O O9 0.256432 0.250035 0.474412
O O10 0.271574 0.163585 0.385155
O O11 0.251024 0.376506 0.479896
O O12 0.207275 0.327118 0.368413
O O13 0.000000 0.311149 0.458538
O O14 0.249005 0.557406 0.875591
O O15 0.000000 0.561577 0.947288
O O16 0.222253 0.500000 0.000000
O O17 0.750000 0.849074 0.750000
O O18 0.500000 0.870021 0.685942
O O19 0.250000 0.610077 0.750000
O O20 0.000000 0.600118 0.680565
#
# Coordination Sequence:
#
# PCOD9416111 Si02
#       7
#     8   8   8   8   8   8   8
#     4  10  19  34  52  71  95 123 162 208 259 309
#     4  11  22  34  51  73  97 128 166 212 259 305
#     4  11  21  34  50  70  98 133 170 211 254 301
#     4   9  20  33  47  70 100 134 168 205 246 294
#     4   9  17  31  52  75 100 132 169 207 246 290
#     4   9  19  31  45  65  91 126 164 203 247 298
#     4   9  18  30  48  72 104 140 173 210 246 289
#
# _framework density 14.998760000000001
#
# number of rings (size 3 to 8) (size 9 to 14) (size 15 to 20)
#    0.857    1.429    1.429    2.143    0.000    4.000 
#    0.000    2.857    0.000    0.000    0.000    1.000 
#    0.000    4.571    0.000    0.000    0.000    0.000 
#
# Total GULP energy -311772.943093 kJ/mol
# GULP energy per Si atom -5567.373984 kJ/mol
# Density = 1.496462 g / cm^3
# Si number density = 14.998760 Si / 1000 Ang^3
#
#
#
# Elastic Constant Matrix: (Units=GPa)
#
#
# Indices 1 2 3 4 5 6 
#
# 1 62.8138 46.7581 38.8473 0.0000 0.0000 0.0000
# 2 46.7581 107.6311 55.9535 0.0000 0.0000 0.0000
# 3 38.8473 55.9535 80.4469 0.0000 0.0000 0.0000
# 4 0.0000 0.0000 0.0000 18.6595 0.0000 0.0000
# 5 0.0000 0.0000 0.0000 0.0000 26.2751 0.0000
# 6 0.0000 0.0000 0.0000 0.0000 0.0000 0.3105
#
#
#
# Elastic Compliance Matrix: (Units=1/GPa)
#
#
# Indices 1 2 3 4 5 6 
#
# 1 0.026052 -0.007484 -0.007375 0.000000 0.000000 0.000000
# 2 -0.007484 0.016703 -0.008004 0.000000 0.000000 0.000000
# 3 -0.007375 -0.008004 0.021559 0.000000 0.000000 0.000000
# 4 0.000000 0.000000 0.000000 0.053592 0.000000 0.000000
# 5 0.000000 0.000000 0.000000 0.000000 0.038059 0.000000
# 6 0.000000 0.000000 0.000000 0.000000 0.000000 3.221051
#
#
# Mechanical properties :
#
#
# Convention : Reuss Voigt Hill
#
# Bulk Modulus (GPa) = 53.79602 59.33441 56.56521
# Shear Modulus (GPa) = 1.45818 16.33788 8.89803
#
# Velocity S-wave (km/s) = 0.98707 3.30401 2.43832
# Velocity P-wave (km/s) = 6.10278 7.36211 6.76183
#
# Compressibility (1/GPa) = 0.01858874
#
# Stress axis : x y z
#
# Youngs Moduli (GPa) = 38.38464 59.86984 46.38482
#
# Poissons Ratio (x) = 0.44805 0.34210
# Poissons Ratio (y) = 0.28726 0.37125
# Poissons Ratio (z) = 0.28310 0.47917
#
# Static dielectric constant tensor:
#      x y z
#    x 1.496260 0.000000 0.000000 
#    y 0.000000 1.494200 0.000000 
#    z 0.000000 0.000000 1.491620 
# 
# From -- ./inp_files/26660.got.cif
#   From: 2010.05.17/outbox.cif.g08.bks.cpg/sg53_14_cif.got.tgz:26660.got - 2010.06.03 12:45:16.
