data_PCOD9416379
_publ_section_title
;
Structure prediction by ZEFSAII (Michael W. Deem and Ramdas Pophale) SiO2 
 PCOD9416379
Probable space group: P M N A
;
_chemical_formula_sum "Si O2"
_cell_formula_units_Z 52
_cell_length_a 7.752166
_cell_length_b 17.124975
_cell_length_c 20.345216
_cell_angle_alpha 90.000000
_cell_angle_beta 90.000000
_cell_angle_gamma 90.000000
_cell_volume 2700.942353
_symmetry_space_group_name_H-M "P M N A"
_symmetry_group_IT_number 53
_symmetry_cell_setting 'orthorhombic'
loop_
_space_group_symop_operation_xyz
x,y,z
1/2-x,-y,1/2+z
x,-y,-z
1/2-x,y,1/2-z
-x,-y,-z
1/2+x,y,1/2-z
-x,y,z
1/2+x,-y,1/2+z
loop_
_atom_site_type_symbol
_atom_site_label
_atom_site_fract_x
_atom_site_fract_y
_atom_site_fract_z
Si Si1 0.000000 0.921743 0.624799
Si Si2 0.500000 0.094936 0.843436
Si Si3 0.303747 0.814613 0.673968
Si Si4 0.793919 0.639270 0.674181
Si Si5 0.500000 0.143957 0.993150
Si Si6 0.301081 0.738618 0.466538
Si Si7 0.209120 0.577747 0.537120
Si Si8 0.702525 0.785178 0.318470
O O1 0.167765 0.870856 0.640745
O O2 0.000000 0.923820 0.546370
O O3 0.000000 0.002255 0.664609
O O4 0.500000 0.108661 0.921183
O O5 0.669989 0.140181 0.818710
O O6 0.250000 0.815933 0.750000
O O7 0.500000 0.839563 0.664584
O O8 0.284975 0.723546 0.655968
O O9 0.750000 0.618730 0.750000
O O10 0.742310 0.582438 0.614440
O O11 0.000000 0.648938 0.672461
O O12 0.333252 0.200468 0.997778
O O13 0.500000 0.762794 0.476154
O O14 0.273096 0.654438 0.498882
O O15 0.266101 0.740163 0.387376
O O16 0.268559 0.500000 0.500000
O O17 0.000000 0.579457 0.534628
O O18 0.750000 0.742311 0.250000
O O19 0.500000 0.805494 0.317722
#
# Coordination Sequence:
#
# PCOD9416379 Si02
#       8
#     4   4   8   8   4   8   8   8
#     4  12  23  36  56  83 113 151 190 233 298 352
#     4  10  23  38  56  81 117 151 184 243 298 342
#     4  11  21  37  55  80 114 146 190 237 277 338
#     4  10  19  35  58  81 111 153 196 234 278 339
#     4  10  21  40  59  80 112 150 196 236 281 346
#     4  10  21  37  62  89 113 149 196 242 283 337
#     4  10  21  37  58  87 120 153 189 234 289 343
#     4  10  20  38  61  87 112 148 200 242 288 346
#
# _framework density 19.252538999999999
#
# number of rings (size 3 to 8) (size 9 to 14) (size 15 to 20)
#    0.000    1.692    3.077    2.538    0.000    4.615 
#    0.000    0.769    0.000    8.308    0.000    0.000 
#    0.000    0.000    0.000    0.000    0.000    0.000 
#
# Total GULP energy -290110.995543 kJ/mol
# GULP energy per Si atom -5579.057607 kJ/mol
# Density = 1.920872 g / cm^3
# Si number density = 19.252539 Si / 1000 Ang^3
#
#
#
# Elastic Constant Matrix: (Units=GPa)
#
#
# Indices 1 2 3 4 5 6 
#
# 1 116.2325 28.8224 28.1647 0.0000 0.0000 0.0000
# 2 28.8224 66.5743 51.1217 0.0000 0.0000 0.0000
# 3 28.1647 51.1217 105.0101 0.0000 0.0000 0.0000
# 4 0.0000 0.0000 0.0000 35.9152 0.0000 0.0000
# 5 0.0000 0.0000 0.0000 0.0000 19.6482 0.0000
# 6 0.0000 0.0000 0.0000 0.0000 0.0000 6.1557
#
#
#
# Elastic Compliance Matrix: (Units=1/GPa)
#
#
# Indices 1 2 3 4 5 6 
#
# 1 0.009690 -0.003512 -0.000889 0.000000 0.000000 0.000000
# 2 -0.003512 0.025262 -0.011356 0.000000 0.000000 0.000000
# 3 -0.000889 -0.011356 0.015290 0.000000 0.000000 0.000000
# 4 0.000000 0.000000 0.000000 0.027843 0.000000 0.000000
# 5 0.000000 0.000000 0.000000 0.000000 0.050895 0.000000
# 6 0.000000 0.000000 0.000000 0.000000 0.000000 0.162450
#
#
# Mechanical properties :
#
#
# Convention : Reuss Voigt Hill
#
# Bulk Modulus (GPa) = 53.40048 56.00383 54.70216
# Shear Modulus (GPa) = 15.18896 24.32437 19.75666
#
# Velocity S-wave (km/s) = 2.81184 3.55834 3.20689
# Velocity P-wave (km/s) = 6.19185 6.78488 6.49514
#
# Compressibility (1/GPa) = 0.01872642
#
# Stress axis : x y z
#
# Youngs Moduli (GPa) = 103.20091 39.58583 65.40362
#
# Poissons Ratio (x) = 0.13904 0.05814
# Poissons Ratio (y) = 0.36249 0.74272
# Poissons Ratio (z) = 0.09174 0.44953
#
# Static dielectric constant tensor:
#      x y z
#    x 1.683670 0.000000 0.000000 
#    y 0.000000 1.649110 0.000000 
#    z 0.000000 0.000000 1.729980 
# 
# From -- ./inp_files/26536.got.cif
#   From: 2010.05.17/outbox.cif.g08.bks.cpg/sg53_14_cif.got.tgz:26536.got - 2010.06.03 12:45:16.
