data_PCOD9416013
_publ_section_title
;
Structure prediction by ZEFSAII (Michael W. Deem and Ramdas Pophale) SiO2 
 PCOD9416013
Probable space group: P M N A
;
_chemical_formula_sum "Si O2"
_cell_formula_units_Z 48
_cell_length_a 8.872949
_cell_length_b 15.657222
_cell_length_c 17.768334
_cell_angle_alpha 90.000000
_cell_angle_beta 90.000000
_cell_angle_gamma 90.000000
_cell_volume 2468.478812
_symmetry_space_group_name_H-M "P M N A"
_symmetry_group_IT_number 53
_symmetry_cell_setting 'orthorhombic'
loop_
_space_group_symop_operation_xyz
x,y,z
1/2-x,-y,1/2+z
x,-y,-z
1/2-x,y,1/2-z
-x,-y,-z
1/2+x,y,1/2-z
-x,y,z
1/2+x,-y,1/2+z
loop_
_atom_site_type_symbol
_atom_site_label
_atom_site_fract_x
_atom_site_fract_y
_atom_site_fract_z
Si Si1 0.678402 0.126328 0.569819
Si Si2 0.680143 0.533050 0.166063
Si Si3 0.820615 0.295213 0.833048
Si Si4 0.319314 0.343548 0.165973
Si Si5 0.679614 0.175249 0.397728
Si Si6 0.321552 0.987670 0.827298
O O1 0.500000 0.105820 0.577366
O O2 0.709263 0.212351 0.616797
O O3 0.709451 0.144592 0.482761
O O4 0.772071 0.049597 0.605260
O O5 0.750000 0.531142 0.250000
O O6 0.500000 0.542460 0.170226
O O7 0.751330 0.618311 0.131505
O O8 0.713687 0.438833 0.134294
O O9 0.750000 0.283585 0.750000
O O10 0.000000 0.305732 0.825481
O O11 0.250000 0.338084 0.250000
O O12 0.500000 0.334685 0.171031
O O13 0.249033 0.267705 0.117857
O O14 0.500000 0.177591 0.386110
O O15 0.753652 0.105542 0.343270
O O16 0.250000 0.021927 0.750000
O O17 0.500000 0.983660 0.820528
#
# Coordination Sequence:
#
# PCOD9416013 Si02
#       6
#     8   8   8   8   8   8
#     4  10  23  41  59  83 115 150 186 227 278 332
#     4   9  17  30  51  79 110 144 183 231 280 324
#     4  10  19  33  55  82 111 144 185 230 275 327
#     4  10  20  35  56  83 113 146 189 235 279 330
#     4  11  23  40  60  82 114 151 185 227 279 333
#     4  12  25  41  63  88 113 144 184 229 276 329
#
# _framework density 19.445174999999999
#
# number of rings (size 3 to 8) (size 9 to 14) (size 15 to 20)
#    0.000    1.667    0.000    6.000    0.000    8.000 
#    0.000    0.833    0.000    5.000    0.000    0.000 
#    0.000    0.000    0.000    0.000    0.000    0.000 
#
# Total GULP energy -268205.197095 kJ/mol
# GULP energy per Si atom -5587.608273 kJ/mol
# Density = 1.940092 g / cm^3
# Si number density = 19.445175 Si / 1000 Ang^3
#
#
#
# Elastic Constant Matrix: (Units=GPa)
#
#
# Indices 1 2 3 4 5 6 
#
# 1 86.2882 50.3107 32.5596 0.0000 0.0000 0.0000
# 2 50.3107 94.8428 10.9612 0.0000 0.0000 0.0000
# 3 32.5596 10.9612 46.5293 0.0000 0.0000 0.0000
# 4 0.0000 0.0000 0.0000 5.2739 0.0000 0.0000
# 5 0.0000 0.0000 0.0000 0.0000 24.4178 0.0000
# 6 0.0000 0.0000 0.0000 0.0000 0.0000 59.5603
#
#
#
# Elastic Compliance Matrix: (Units=1/GPa)
#
#
# Indices 1 2 3 4 5 6 
#
# 1 0.022833 -0.010553 -0.013492 0.000000 0.000000 0.000000
# 2 -0.010553 0.015716 0.003682 0.000000 0.000000 0.000000
# 3 -0.013492 0.003682 0.030065 0.000000 0.000000 0.000000
# 4 0.000000 0.000000 0.000000 0.189611 0.000000 0.000000
# 5 0.000000 0.000000 0.000000 0.000000 0.040954 0.000000
# 6 0.000000 0.000000 0.000000 0.000000 0.000000 0.016790
#
#
# Mechanical properties :
#
#
# Convention : Reuss Voigt Hill
#
# Bulk Modulus (GPa) = 35.85547 46.14705 41.00126
# Shear Modulus (GPa) = 13.66157 26.77232 20.21695
#
# Velocity S-wave (km/s) = 2.65348 3.71457 3.22792
# Velocity P-wave (km/s) = 5.27894 6.49467 5.91811
#
# Compressibility (1/GPa) = 0.02788975
#
# Stress axis : x y z
#
# Youngs Moduli (GPa) = 43.79677 63.62930 33.26081
#
# Poissons Ratio (x) = 0.67146 0.44874
# Poissons Ratio (y) = 0.46217 -0.12247
# Poissons Ratio (z) = 0.59089 -0.23429
#
# Static dielectric constant tensor:
#      x y z
#    x 1.645260 0.000000 0.000000 
#    y 0.000000 1.704230 0.000000 
#    z 0.000000 0.000000 1.672700 
# 
# From -- ./inp_files/26171.got.cif
#   From: 2010.05.17/outbox.cif.g08.bks.cpg/sg53_14_cif.got.tgz:26171.got - 2010.06.03 12:45:16.
