data_PCOD9416931
_publ_section_title
;
Structure prediction by ZEFSAII (Michael W. Deem and Ramdas Pophale) SiO2 
 PCOD9416931
Probable space group: P M N A
;
_chemical_formula_sum "Si O2"
_cell_formula_units_Z 64
_cell_length_a 9.390365
_cell_length_b 22.065868
_cell_length_c 15.987907
_cell_angle_alpha 90.000000
_cell_angle_beta 90.000000
_cell_angle_gamma 90.000000
_cell_volume 3312.799124
_symmetry_space_group_name_H-M "P M N A"
_symmetry_group_IT_number 53
_symmetry_cell_setting 'orthorhombic'
loop_
_space_group_symop_operation_xyz
x,y,z
1/2-x,-y,1/2+z
x,-y,-z
1/2-x,y,1/2-z
-x,-y,-z
1/2+x,y,1/2-z
-x,y,z
1/2+x,-y,1/2+z
loop_
_atom_site_type_symbol
_atom_site_label
_atom_site_fract_x
_atom_site_fract_y
_atom_site_fract_z
Si Si1 0.335688 0.804823 0.982620
Si Si2 0.834292 0.483603 0.403449
Si Si3 0.329230 0.691317 0.480587
Si Si4 0.331730 0.382168 0.836258
Si Si5 0.660185 0.008483 0.332437
Si Si6 0.652649 0.939468 0.057466
Si Si7 0.670843 0.367333 0.336794
Si Si8 0.833061 0.855842 0.836834
O O1 0.500000 0.785123 0.973559
O O2 0.251927 0.811328 0.895993
O O3 0.243961 0.756565 0.033658
O O4 0.339141 0.873299 0.017964
O O5 0.796881 0.500000 0.500000
O O6 0.826899 0.545570 0.351389
O O7 0.734075 0.432898 0.363189
O O8 0.000000 0.462301 0.404041
O O9 0.500000 0.691698 0.467708
O O10 0.250172 0.647155 0.415348
O O11 0.303944 0.671769 0.577952
O O12 0.250000 0.366937 0.750000
O O13 0.500000 0.364660 0.834273
O O14 0.750000 0.010373 0.250000
O O15 0.500000 0.002026 0.308171
O O16 0.675036 0.075302 0.373113
O O17 0.712307 0.953230 0.386978
O O18 0.500000 0.941594 0.104094
O O19 0.648244 0.000000 0.000000
O O20 0.750000 0.348251 0.250000
O O21 0.500000 0.369286 0.322736
O O22 0.750000 0.856767 0.750000
O O23 0.000000 0.840941 0.827650
#
# Coordination Sequence:
#
# PCOD9416931 Si02
#       8
#     8   8   8   8   8   8   8   8
#     4  11  23  39  61  86 115 155 197 246 304 366
#     4  10  20  37  64  98 133 168 207 256 310 366
#     4  11  25  44  63  88 124 166 214 265 312 370
#     4  11  23  41  67  96 128 167 212 260 314 369
#     4  10  20  33  54  82 114 148 183 229 287 350
#     4  10  20  36  58  84 114 145 184 234 293 357
#     4  11  24  40  63  93 129 171 212 257 310 366
#     4  10  20  34  54  82 115 150 190 236 289 355
#
# _framework density 19.319009999999999
#
# number of rings (size 3 to 8) (size 9 to 14) (size 15 to 20)
#    0.000    1.500    2.500    2.625    0.000    6.500 
#    0.000    1.875    0.000    3.000    0.000    0.000 
#    0.000    0.000    0.000    0.000    0.000    0.000 
#
# Total GULP energy -356808.326158 kJ/mol
# GULP energy per Si atom -5575.130096 kJ/mol
# Density = 1.927504 g / cm^3
# Si number density = 19.319010 Si / 1000 Ang^3
#
#
#
# Elastic Constant Matrix: (Units=GPa)
#
#
# Indices 1 2 3 4 5 6 
#
# 1 154.4266 45.9410 54.2686 0.0000 0.0000 0.0000
# 2 45.9410 76.0946 18.0123 0.0000 0.0000 0.0000
# 3 54.2686 18.0123 77.4341 0.0000 0.0000 0.0000
# 4 0.0000 0.0000 0.0000 5.7396 0.0000 0.0000
# 5 0.0000 0.0000 0.0000 0.0000 34.2918 0.0000
# 6 0.0000 0.0000 0.0000 0.0000 0.0000 21.8432
#
#
#
# Elastic Compliance Matrix: (Units=1/GPa)
#
#
# Indices 1 2 3 4 5 6 
#
# 1 0.009905 -0.004590 -0.005874 0.000000 0.000000 0.000000
# 2 -0.004590 0.016034 -0.000513 0.000000 0.000000 0.000000
# 3 -0.005874 -0.000513 0.017151 0.000000 0.000000 0.000000
# 4 0.000000 0.000000 0.000000 0.174228 0.000000 0.000000
# 5 0.000000 0.000000 0.000000 0.000000 0.029161 0.000000
# 6 0.000000 0.000000 0.000000 0.000000 0.000000 0.045781
#
#
# Mechanical properties :
#
#
# Convention : Reuss Voigt Hill
#
# Bulk Modulus (GPa) = 47.31384 60.48878 53.90131
# Shear Modulus (GPa) = 15.56371 25.02381 20.29376
#
# Velocity S-wave (km/s) = 2.84142 3.60292 3.24459
# Velocity P-wave (km/s) = 5.94213 6.97758 6.48056
#
# Compressibility (1/GPa) = 0.02113546
#
# Stress axis : x y z
#
# Youngs Moduli (GPa) = 100.95542 62.36766 58.30712
#
# Poissons Ratio (x) = 0.28625 0.34252
# Poissons Ratio (y) = 0.46335 0.02992
# Poissons Ratio (z) = 0.59305 0.03200
#
# Static dielectric constant tensor:
#      x y z
#    x 1.654440 0.000000 0.000000 
#    y 0.000000 1.700580 0.000000 
#    z 0.000000 0.000000 1.728090 
# 
# From -- ./inp_files/26997.got.cif
#   From: 2010.05.17/outbox.cif.g08.bks.cpg/sg53_14_cif.got.tgz:26997.got - 2010.06.03 12:45:16.
