data_PCOD9416743
_publ_section_title
;
Structure prediction by ZEFSAII (Michael W. Deem and Ramdas Pophale) SiO2 
 PCOD9416743
Probable space group: P M N A
;
_chemical_formula_sum "Si O2"
_cell_formula_units_Z 52
_cell_length_a 26.902239
_cell_length_b 11.274291
_cell_length_c 9.651975
_cell_angle_alpha 90.000000
_cell_angle_beta 90.000000
_cell_angle_gamma 90.000000
_cell_volume 2927.479450
_symmetry_space_group_name_H-M "P M N A"
_symmetry_group_IT_number 53
_symmetry_cell_setting 'orthorhombic'
loop_
_space_group_symop_operation_xyz
x,y,z
1/2-x,-y,1/2+z
x,-y,-z
1/2-x,y,1/2-z
-x,-y,-z
1/2+x,y,1/2-z
-x,y,z
1/2+x,-y,1/2+z
loop_
_atom_site_type_symbol
_atom_site_label
_atom_site_fract_x
_atom_site_fract_y
_atom_site_fract_z
Si Si1 0.000000 0.360994 0.686967
Si Si2 0.170974 0.695528 0.936121
Si Si3 0.000000 0.646299 0.632352
Si Si4 0.392131 0.640337 0.297869
Si Si5 0.108356 0.633013 0.697488
Si Si6 0.247128 0.500000 0.000000
Si Si7 0.253688 0.123305 0.080596
Si Si8 0.325888 0.313513 0.943841
O O1 0.000000 0.503189 0.656897
O O2 0.000000 0.315864 0.528679
O O3 0.050320 0.328340 0.768588
O O4 0.142705 0.711756 0.793782
O O5 0.203694 0.809542 0.969393
O O6 0.130424 0.659901 0.050708
O O7 0.210849 0.588330 0.918344
O O8 0.052505 0.681396 0.696038
O O9 0.389291 0.500882 0.256780
O O10 0.355095 0.711926 0.196543
O O11 0.131960 0.634600 0.545712
O O12 0.283870 0.586286 0.084067
O O13 0.250000 0.115287 0.250000
O O14 0.298166 0.207681 0.023939
O O15 0.258026 0.000000 0.000000
#
# Coordination Sequence:
#
# PCOD9416743 Si02
#       8
#     4   8   4   8   8   4   8   8
#     4   9  18  31  49  79 118 153 186 229 264 334
#     4  11  23  35  54  81 119 147 184 233 280 331
#     4   9  18  29  53  75 116 157 189 222 270 330
#     4  11  20  33  54  87 118 152 188 220 281 337
#     4  11  18  35  51  86 116 154 186 224 276 331
#     4  10  20  32  50  80 112 148 178 224 270 328
#     4  11  26  43  58  81 111 147 193 234 280 334
#     4  11  21  33  59  79 113 149 187 228 275 331
#
# _framework density 17.762720999999999
#
# number of rings (size 3 to 8) (size 9 to 14) (size 15 to 20)
#    0.000    1.385    6.154    0.000    2.154    3.692 
#    0.000    2.308    0.000    0.000    0.000    6.462 
#    0.000    0.000    0.000    0.000    0.000    0.000 
#
# Total GULP energy -289876.777383 kJ/mol
# GULP energy per Si atom -5574.553411 kJ/mol
# Density = 1.772229 g / cm^3
# Si number density = 17.762721 Si / 1000 Ang^3
#
#
#
# Elastic Constant Matrix: (Units=GPa)
#
#
# Indices 1 2 3 4 5 6 
#
# 1 132.4138 24.7979 24.3656 0.0000 0.0000 0.0000
# 2 24.7979 64.3179 11.1998 0.0000 0.0000 0.0000
# 3 24.3656 11.1998 58.5330 0.0000 0.0000 0.0000
# 4 0.0000 0.0000 0.0000 20.5759 0.0000 0.0000
# 5 0.0000 0.0000 0.0000 0.0000 15.7187 0.0000
# 6 0.0000 0.0000 0.0000 0.0000 0.0000 6.1539
#
#
#
# Elastic Compliance Matrix: (Units=1/GPa)
#
#
# Indices 1 2 3 4 5 6 
#
# 1 0.008639 -0.002798 -0.003061 0.000000 0.000000 0.000000
# 2 -0.002798 0.016990 -0.002086 0.000000 0.000000 0.000000
# 3 -0.003061 -0.002086 0.018758 0.000000 0.000000 0.000000
# 4 0.000000 0.000000 0.000000 0.048601 0.000000 0.000000
# 5 0.000000 0.000000 0.000000 0.000000 0.063618 0.000000
# 6 0.000000 0.000000 0.000000 0.000000 0.000000 0.162498
#
#
# Mechanical properties :
#
#
# Convention : Reuss Voigt Hill
#
# Bulk Modulus (GPa) = 35.09166 41.77681 38.43424
# Shear Modulus (GPa) = 14.51408 21.48313 17.99860
#
# Velocity S-wave (km/s) = 2.86161 3.48149 3.18666
# Velocity P-wave (km/s) = 5.54230 6.30329 5.93500
#
# Compressibility (1/GPa) = 0.02849680
#
# Stress axis : x y z
#
# Youngs Moduli (GPa) = 115.74999 58.85889 53.31136
#
# Poissons Ratio (x) = 0.16468 0.16318
# Poissons Ratio (y) = 0.32386 0.11122
# Poissons Ratio (z) = 0.35430 0.12279
#
# Static dielectric constant tensor:
#      x y z
#    x 1.622980 0.000000 0.000000 
#    y 0.000000 1.598160 0.000000 
#    z 0.000000 0.000000 1.702640 
# 
# From -- ./inp_files/12526.got.cif
#   From: 2010.05.17/outbox.cif.g08.bks.cpg/sg53_7_cif.got.tgz:12526.got - 2010.06.03 12:45:16.
