data_PCOD9416221
_publ_section_title
;
Structure prediction by ZEFSAII (Michael W. Deem and Ramdas Pophale) SiO2 
 PCOD9416221
Probable space group: P M N A
;
_chemical_formula_sum "Si O2"
_cell_formula_units_Z 64
_cell_length_a 9.468904
_cell_length_b 17.942482
_cell_length_c 19.964612
_cell_angle_alpha 90.000000
_cell_angle_beta 90.000000
_cell_angle_gamma 90.000000
_cell_volume 3391.900525
_symmetry_space_group_name_H-M "P M N A"
_symmetry_group_IT_number 53
_symmetry_cell_setting 'orthorhombic'
loop_
_space_group_symop_operation_xyz
x,y,z
1/2-x,-y,1/2+z
x,-y,-z
1/2-x,y,1/2-z
-x,-y,-z
1/2+x,y,1/2-z
-x,y,z
1/2+x,-y,1/2+z
loop_
_atom_site_type_symbol
_atom_site_label
_atom_site_fract_x
_atom_site_fract_y
_atom_site_fract_z
Si Si1 0.831100 0.798598 0.945039
Si Si2 0.158160 0.305868 0.660698
Si Si3 0.165764 0.446307 0.811706
Si Si4 0.668312 0.870114 0.181708
Si Si5 0.334101 0.431152 0.416637
Si Si6 0.835575 0.082550 0.531150
Si Si7 0.333795 0.710979 0.681446
Si Si8 0.158830 0.337117 0.504160
O O1 0.797728 0.780955 0.867132
O O2 0.765535 0.727005 0.981182
O O3 0.000000 0.801085 0.951733
O O4 0.758793 0.867163 0.982346
O O5 0.279016 0.362091 0.683696
O O6 0.191468 0.218978 0.671413
O O7 0.147809 0.325553 0.582707
O O8 0.000000 0.320034 0.689486
O O9 0.250000 0.481856 0.750000
O O10 0.196204 0.492233 0.878799
O O11 0.000000 0.450895 0.800065
O O12 0.750000 0.892692 0.250000
O O13 0.500000 0.881590 0.191292
O O14 0.706977 0.908814 0.110005
O O15 0.500000 0.429140 0.436459
O O16 0.312091 0.364561 0.362013
O O17 0.231032 0.411905 0.477269
O O18 0.000000 0.108537 0.528808
O O19 0.830399 0.000000 0.500000
O O20 0.250000 0.710173 0.750000
O O21 0.500000 0.714669 0.695731
O O22 0.000000 0.328967 0.475726
#
# Coordination Sequence:
#
# PCOD9416221 Si02
#       8
#     8   8   8   8   8   8   8   8
#     4  10  20  35  56  84 118 149 186 235 285 341
#     4  10  21  37  56  80 112 145 190 242 286 344
#     4  11  23  37  53  74 106 147 193 243 299 355
#     4  10  21  39  61  89 120 152 194 238 284 343
#     4   9  20  36  51  74 109 146 189 243 296 349
#     4  10  21  40  65  90 118 154 194 233 279 340
#     4   9  18  32  51  77 107 144 189 237 285 336
#     4  10  19  34  57  82 108 144 189 236 283 341
#
# _framework density 18.868476999999999
#
# number of rings (size 3 to 8) (size 9 to 14) (size 15 to 20)
#    0.000    2.125    1.250    2.625    0.000    7.250 
#    0.000    3.125    0.000    3.000    0.000    0.000 
#    0.000    0.000    0.000    0.000    0.000    0.000 
#
# Total GULP energy -356833.559160 kJ/mol
# GULP energy per Si atom -5575.524362 kJ/mol
# Density = 1.882553 g / cm^3
# Si number density = 18.868477 Si / 1000 Ang^3
#
#
#
# Elastic Constant Matrix: (Units=GPa)
#
#
# Indices 1 2 3 4 5 6 
#
# 1 60.8592 31.4032 49.8962 0.0000 0.0000 0.0000
# 2 31.4032 64.2146 35.1926 0.0000 0.0000 0.0000
# 3 49.8962 35.1926 118.6870 0.0000 0.0000 0.0000
# 4 0.0000 0.0000 0.0000 13.5550 0.0000 0.0000
# 5 0.0000 0.0000 0.0000 0.0000 34.6931 0.0000
# 6 0.0000 0.0000 0.0000 0.0000 0.0000 46.6740
#
#
#
# Elastic Compliance Matrix: (Units=1/GPa)
#
#
# Indices 1 2 3 4 5 6 
#
# 1 0.028774 -0.008886 -0.009462 0.000000 0.000000 0.000000
# 2 -0.008886 0.021339 -0.002592 0.000000 0.000000 0.000000
# 3 -0.009462 -0.002592 0.013172 0.000000 0.000000 0.000000
# 4 0.000000 0.000000 0.000000 0.073773 0.000000 0.000000
# 5 0.000000 0.000000 0.000000 0.000000 0.028824 0.000000
# 6 0.000000 0.000000 0.000000 0.000000 0.000000 0.021425
#
#
# Mechanical properties :
#
#
# Convention : Reuss Voigt Hill
#
# Bulk Modulus (GPa) = 46.71668 52.97165 49.84416
# Shear Modulus (GPa) = 21.15767 27.46901 24.31334
#
# Velocity S-wave (km/s) = 3.35225 3.81965 3.59356
# Velocity P-wave (km/s) = 6.30843 6.89841 6.61001
#
# Compressibility (1/GPa) = 0.02140563
#
# Stress axis : x y z
#
# Youngs Moduli (GPa) = 34.75374 46.86330 75.92035
#
# Poissons Ratio (x) = 0.41643 0.71834
# Poissons Ratio (y) = 0.30882 0.19675
# Poissons Ratio (z) = 0.32883 0.12145
#
# Static dielectric constant tensor:
#      x y z
#    x 1.656050 0.000000 0.000000 
#    y 0.000000 1.671900 0.000000 
#    z 0.000000 0.000000 1.701040 
# 
# From -- ./inp_files/31255.got.cif
#   From: 2010.05.17/outbox.cif.g08.bks.cpg/sg53_16_cif.got.tgz:31255.got - 2010.06.03 12:45:16.
