data_PCOD9416362
_publ_section_title
;
Structure prediction by ZEFSAII (Michael W. Deem and Ramdas Pophale) SiO2 
 PCOD9416362
Probable space group: P M N A
;
_chemical_formula_sum "Si O2"
_cell_formula_units_Z 60
_cell_length_a 9.441885
_cell_length_b 21.812984
_cell_length_c 15.404680
_cell_angle_alpha 90.000000
_cell_angle_beta 90.000000
_cell_angle_gamma 90.000000
_cell_volume 3172.681444
_symmetry_space_group_name_H-M "P M N A"
_symmetry_group_IT_number 53
_symmetry_cell_setting 'orthorhombic'
loop_
_space_group_symop_operation_xyz
x,y,z
1/2-x,-y,1/2+z
x,-y,-z
1/2-x,y,1/2-z
-x,-y,-z
1/2+x,y,1/2-z
-x,y,z
1/2+x,-y,1/2+z
loop_
_atom_site_type_symbol
_atom_site_label
_atom_site_fract_x
_atom_site_fract_y
_atom_site_fract_z
Si Si1 0.500000 0.783476 0.724630
Si Si2 0.335884 0.943257 0.664891
Si Si3 0.331576 0.459787 0.163184
Si Si4 0.775859 0.231669 0.382141
Si Si5 0.171507 0.642534 0.526830
Si Si6 0.330691 0.395001 0.837359
Si Si7 0.664131 0.908502 0.335122
Si Si8 0.835814 0.116470 0.491375
O O1 0.619886 0.771784 0.800778
O O2 0.624253 0.789476 0.651129
O O3 0.250000 0.921583 0.750000
O O4 0.500000 0.921966 0.669163
O O5 0.249777 0.922422 0.580762
O O6 0.338799 0.017069 0.665934
O O7 0.250000 0.439814 0.250000
O O8 0.500000 0.452276 0.176924
O O9 0.291105 0.418684 0.080816
O O10 0.304637 0.531971 0.149698
O O11 0.769588 0.299501 0.421824
O O12 0.831350 0.185288 0.455325
O O13 0.214976 0.637690 0.426364
O O14 0.000000 0.646979 0.527537
O O15 0.250000 0.375903 0.750000
O O16 0.500000 0.387155 0.826453
O O17 0.750000 0.888312 0.250000
O O18 0.500000 0.888089 0.336060
O O19 0.751720 0.889087 0.419278
O O20 0.000000 0.096264 0.498833
#
# Coordination Sequence:
#
# PCOD9416362 Si02
#       8
#     4   8   8   8   8   8   8   8
#     4  10  24  42  60  78 122 150 190 228 276 332
#     4  10  22  37  59  88 120 155 193 235 289 344
#     4   9  18  30  52  81 109 145 185 224 280 337
#     4  11  24  40  59  86 114 153 188 229 280 338
#     4  10  19  35  57  79 111 148 189 231 277 338
#     4   9  18  35  55  78 108 146 187 234 281 330
#     4  10  22  42  63  86 116 153 194 241 289 337
#     4  12  24  37  59  87 119 154 195 236 284 344
#
# _framework density 18.911446999999999
#
# number of rings (size 3 to 8) (size 9 to 14) (size 15 to 20)
#    0.000    1.867    1.333    2.000    5.600    4.800 
#    1.200    0.667    0.000    4.800    0.000    0.000 
#    0.000    0.000    0.000    0.000    0.000    0.000 
#
# Total GULP energy -334021.594965 kJ/mol
# GULP energy per Si atom -5567.026583 kJ/mol
# Density = 1.886840 g / cm^3
# Si number density = 18.911447 Si / 1000 Ang^3
#
#
#
# Elastic Constant Matrix: (Units=GPa)
#
#
# Indices 1 2 3 4 5 6 
#
# 1 151.2530 16.3947 71.3910 0.0000 0.0000 0.0000
# 2 16.3947 20.5612 12.4981 0.0000 0.0000 0.0000
# 3 71.3910 12.4981 149.1348 0.0000 0.0000 0.0000
# 4 0.0000 0.0000 0.0000 -11.3023 0.0000 0.0000
# 5 0.0000 0.0000 0.0000 0.0000 36.0839 0.0000
# 6 0.0000 0.0000 0.0000 0.0000 0.0000 -4.1096
#
#
#
# Elastic Compliance Matrix: (Units=1/GPa)
#
#
# Indices 1 2 3 4 5 6 
#
# 1 0.008967 -0.004784 -0.003891 0.000000 0.000000 0.000000
# 2 -0.004784 0.053799 -0.002218 0.000000 0.000000 0.000000
# 3 -0.003891 -0.002218 0.008754 0.000000 0.000000 0.000000
# 4 0.000000 0.000000 0.000000 -0.088477 0.000000 0.000000
# 5 0.000000 0.000000 0.000000 0.000000 0.027713 0.000000
# 6 0.000000 0.000000 0.000000 0.000000 0.000000 -0.243331
#
#
# Mechanical properties :
#
#
# Convention : Reuss Voigt Hill
#
# Bulk Modulus (GPa) = 20.10805 57.94627 39.02716
# Shear Modulus (GPa) = -25.74532 18.84541 -3.44995
#
# Velocity S-wave (km/s) = -3.69367 3.16018 -1.35212
# Velocity P-wave (km/s) = 2.74501 6.63498 4.27129
#
# Compressibility (1/GPa) = 0.04973133
#
# Stress axis : x y z
#
# Youngs Moduli (GPa) = 111.52273 18.58785 114.23239
#
# Poissons Ratio (x) = 0.08893 0.44453
# Poissons Ratio (y) = 0.53356 0.25340
# Poissons Ratio (z) = 0.43399 0.04123
#
# Static dielectric constant tensor:
#      x y z
#    x 1.657880 0.000000 0.000000 
#    y 0.000000 1.705040 0.000000 
#    z 0.000000 0.000000 1.631350 
# 
# From -- ./inp_files/20741.got.cif
#   From: 2010.05.17/outbox.cif.g08.bks.cpg/sg53_11_cif.got.tgz:20741.got - 2010.06.03 12:45:16.
