data_PCOD9416726
_publ_section_title
;
Structure prediction by ZEFSAII (Michael W. Deem and Ramdas Pophale) SiO2 
 PCOD9416726
Probable space group: P M N A
;
_chemical_formula_sum "Si O2"
_cell_formula_units_Z 40
_cell_length_a 35.167420
_cell_length_b 12.007781
_cell_length_c 5.044628
_cell_angle_alpha 90.000000
_cell_angle_beta 90.000000
_cell_angle_gamma 90.000000
_cell_volume 2130.259020
_symmetry_space_group_name_H-M "P M N A"
_symmetry_group_IT_number 53
_symmetry_cell_setting 'orthorhombic'
loop_
_space_group_symop_operation_xyz
x,y,z
1/2-x,-y,1/2+z
x,-y,-z
1/2-x,y,1/2-z
-x,-y,-z
1/2+x,y,1/2-z
-x,y,z
1/2+x,-y,1/2+z
loop_
_atom_site_type_symbol
_atom_site_label
_atom_site_fract_x
_atom_site_fract_y
_atom_site_fract_z
Si Si1 0.562275 0.873440 0.054694
Si Si2 0.121524 0.628268 0.987728
Si Si3 0.206831 0.918348 0.253793
Si Si4 0.042061 0.731755 0.936866
Si Si5 0.858724 0.767569 0.485930
O O1 0.542581 0.792799 0.844615
O O2 0.552722 0.826056 0.344627
O O3 0.607465 0.858340 0.000344
O O4 0.551191 0.000000 0.000000
O O5 0.143531 0.705922 0.771144
O O6 0.132871 0.500000 0.000000
O O7 0.076597 0.644410 0.928749
O O8 0.127131 0.675657 0.280201
O O9 0.250000 0.872704 0.250000
O O10 0.177014 0.824157 0.340078
O O11 0.206180 0.000000 0.500000
O O12 0.198984 0.000000 0.000000
O O13 0.000000 0.687203 0.994704
#
# Coordination Sequence:
#
# PCOD9416726 Si02
#       5
#     8   8   8   8   8
#     4  10  20  32  49  73 103 139 171 206 259 320
#     4  10  21  37  56  76 100 138 185 230 273 308
#     4  10  20  34  56  87 118 145 170 203 256 319
#     4  10  21  34  49  73 101 133 177 222 266 316
#     4  10  20  35  55  79 108 138 177 221 258 314
#
# _framework density 18.777059999999999
#
# number of rings (size 3 to 8) (size 9 to 14) (size 15 to 20)
#    0.000    2.000    0.000    3.600    0.000    6.000 
#    0.000    0.000    0.000    9.600    0.000    0.000 
#    0.000    0.000    0.000    0.000    0.000    0.000 
#
# Total GULP energy -222922.980418 kJ/mol
# GULP energy per Si atom -5573.074510 kJ/mol
# Density = 1.873432 g / cm^3
# Si number density = 18.777060 Si / 1000 Ang^3
#
#
#
# Elastic Constant Matrix: (Units=GPa)
#
#
# Indices 1 2 3 4 5 6 
#
# 1 79.5392 22.3596 4.6737 0.0000 0.0000 0.0000
# 2 22.3596 34.9919 -7.9947 0.0000 0.0000 0.0000
# 3 4.6737 -7.9947 80.9329 0.0000 0.0000 0.0000
# 4 0.0000 0.0000 0.0000 10.6586 0.0000 0.0000
# 5 0.0000 0.0000 0.0000 0.0000 18.8453 0.0000
# 6 0.0000 0.0000 0.0000 0.0000 0.0000 -135.3658
#
#
#
# Elastic Compliance Matrix: (Units=1/GPa)
#
#
# Indices 1 2 3 4 5 6 
#
# 1 0.015615 -0.010419 -0.001931 0.000000 0.000000 0.000000
# 2 -0.010419 0.036190 0.004177 0.000000 0.000000 0.000000
# 3 -0.001931 0.004177 0.012880 0.000000 0.000000 0.000000
# 4 0.000000 0.000000 0.000000 0.093821 0.000000 0.000000
# 5 0.000000 0.000000 0.000000 0.000000 0.053064 0.000000
# 6 0.000000 0.000000 0.000000 0.000000 0.000000 -0.007387
#
#
# Mechanical properties :
#
#
# Convention : Reuss Voigt Hill
#
# Bulk Modulus (GPa) = 20.68758 25.94901 23.31830
# Shear Modulus (GPa) = 21.12905 -9.41069 5.85918
#
# Velocity S-wave (km/s) = 3.35813 -2.24113 1.76838
# Velocity P-wave (km/s) = 5.10660 2.67444 4.07615
#
# Compressibility (1/GPa) = 0.04833818
#
# Stress axis : x y z
#
# Youngs Moduli (GPa) = 64.04192 27.63202 77.63984
#
# Poissons Ratio (x) = 0.28790 0.14992
# Poissons Ratio (y) = 0.66725 -0.32427
# Poissons Ratio (z) = 0.12366 -0.11541
#
# Static dielectric constant tensor:
#      x y z
#    x 1.795220 0.000000 0.000000 
#    y 0.000000 1.603280 0.000000 
#    z 0.000000 0.000000 1.632900 
# 
# From -- ./inp_files/5192.got.cif
#   From: 2010.05.17/outbox.cif.g08.bks.cpg/sg53_3_cif.got.tgz:5192.got - 2010.06.03 12:45:16.
