data_PCOD9416700
_publ_section_title
;
Structure prediction by ZEFSAII (Michael W. Deem and Ramdas Pophale) SiO2 
 PCOD9416700
Probable space group: P M N A
;
_chemical_formula_sum "Si O2"
_cell_formula_units_Z 56
_cell_length_a 9.257381
_cell_length_b 20.837260
_cell_length_c 16.765788
_cell_angle_alpha 90.000000
_cell_angle_beta 90.000000
_cell_angle_gamma 90.000000
_cell_volume 3234.094599
_symmetry_space_group_name_H-M "P M N A"
_symmetry_group_IT_number 53
_symmetry_cell_setting 'orthorhombic'
loop_
_space_group_symop_operation_xyz
x,y,z
1/2-x,-y,1/2+z
x,-y,-z
1/2-x,y,1/2-z
-x,-y,-z
1/2+x,y,1/2-z
-x,y,z
1/2+x,-y,1/2+z
loop_
_atom_site_type_symbol
_atom_site_label
_atom_site_fract_x
_atom_site_fract_y
_atom_site_fract_z
Si Si1 0.830186 0.938962 0.171119
Si Si2 0.833675 0.405541 0.938230
Si Si3 0.171941 0.714988 0.495916
Si Si4 0.833819 0.954337 0.578581
Si Si5 0.666325 0.459356 0.380284
Si Si6 0.170251 0.848757 0.016126
Si Si7 0.329547 0.662426 0.826775
O O1 0.750000 0.915226 0.250000
O O2 0.815556 0.888914 0.098281
O O3 0.000000 0.949095 0.185468
O O4 0.753281 0.004745 0.143437
O O5 0.732498 0.343803 0.942959
O O6 0.790312 0.465853 0.882994
O O7 0.000000 0.388037 0.919632
O O8 0.834473 0.434469 0.028045
O O9 0.254500 0.780207 0.476357
O O10 0.201107 0.697290 0.589047
O O11 0.000000 0.721479 0.486224
O O12 0.751034 0.890496 0.551445
O O13 0.000000 0.942134 0.601688
O O14 0.836409 0.000000 0.500000
O O15 0.500000 0.454417 0.351729
O O16 0.770750 0.410136 0.336804
O O17 0.000000 0.842734 0.998539
O O18 0.250000 0.691308 0.750000
O O19 0.500000 0.662577 0.814229
#
# Coordination Sequence:
#
# PCOD9416700 Si02
#       7
#     8   8   8   8   8   8   8
#     4  10  20  34  54  80 106 132 165 205 250 298
#     4   8  14  26  45  68  92 119 152 191 238 289
#     4  10  20  32  48  72 100 132 171 211 251 299
#     4   9  17  31  52  76 102 131 163 202 245 289
#     4   8  14  26  45  67  90 117 151 193 239 288
#     4  10  20  34  53  76 103 136 172 208 248 298
#     4  10  20  32  47  68  95 128 166 209 256 304
#
# _framework density 17.31551
#
# number of rings (size 3 to 8) (size 9 to 14) (size 15 to 20)
#    0.000    2.714    0.000    3.000    0.000    5.714 
#    0.000    3.571    0.000    2.571    0.000    4.000 
#    0.000    0.000    0.000    0.000    0.000    0.000 
#
# Total GULP energy -312078.517214 kJ/mol
# GULP energy per Si atom -5572.830665 kJ/mol
# Density = 1.727610 g / cm^3
# Si number density = 17.315510 Si / 1000 Ang^3
#
#
#
# Elastic Constant Matrix: (Units=GPa)
#
#
# Indices 1 2 3 4 5 6 
#
# 1 120.3092 64.4264 34.2466 0.0000 0.0000 0.0000
# 2 64.4264 104.7263 6.3802 0.0000 0.0000 0.0000
# 3 34.2466 6.3802 33.4768 0.0000 0.0000 0.0000
# 4 0.0000 0.0000 0.0000 8.9235 0.0000 0.0000
# 5 0.0000 0.0000 0.0000 0.0000 25.1111 0.0000
# 6 0.0000 0.0000 0.0000 0.0000 0.0000 28.5128
#
#
#
# Elastic Compliance Matrix: (Units=1/GPa)
#
#
# Indices 1 2 3 4 5 6 
#
# 1 0.018908 -0.010576 -0.017327 0.000000 0.000000 0.000000
# 2 -0.010576 0.015577 0.007851 0.000000 0.000000 0.000000
# 3 -0.017327 0.007851 0.046100 0.000000 0.000000 0.000000
# 4 0.000000 0.000000 0.000000 0.112063 0.000000 0.000000
# 5 0.000000 0.000000 0.000000 0.000000 0.039823 0.000000
# 6 0.000000 0.000000 0.000000 0.000000 0.000000 0.035072
#
#
# Mechanical properties :
#
#
# Convention : Reuss Voigt Hill
#
# Bulk Modulus (GPa) = 24.70341 52.06873 38.38607
# Shear Modulus (GPa) = 15.56949 22.74011 19.15480
#
# Velocity S-wave (km/s) = 3.00186 3.62785 3.32960
# Velocity P-wave (km/s) = 5.12957 6.90538 6.08263
#
# Compressibility (1/GPa) = 0.04048024
#
# Stress axis : x y z
#
# Youngs Moduli (GPa) = 52.88865 64.19829 21.69178
#
# Poissons Ratio (x) = 0.67897 0.37585
# Poissons Ratio (y) = 0.55936 -0.17029
# Poissons Ratio (z) = 0.91639 -0.50400
#
# Static dielectric constant tensor:
#      x y z
#    x 1.577180 0.000000 0.000000 
#    y 0.000000 1.579000 0.000000 
#    z 0.000000 0.000000 1.609100 
# 
# From -- ./inp_files/26698.got.cif
#   From: 2010.05.17/outbox.cif.g08.bks.cpg/sg53_14_cif.got.tgz:26698.got - 2010.06.03 12:45:16.
