data_PCOD9416033
_publ_section_title
;
Structure prediction by ZEFSAII (Michael W. Deem and Ramdas Pophale) SiO2 
 PCOD9416033
Probable space group: P M N A
;
_chemical_formula_sum "Si O2"
_cell_formula_units_Z 64
_cell_length_a 19.325359
_cell_length_b 8.992572
_cell_length_c 19.019078
_cell_angle_alpha 90.000000
_cell_angle_beta 90.000000
_cell_angle_gamma 90.000000
_cell_volume 3305.224427
_symmetry_space_group_name_H-M "P M N A"
_symmetry_group_IT_number 53
_symmetry_cell_setting 'orthorhombic'
loop_
_space_group_symop_operation_xyz
x,y,z
1/2-x,-y,1/2+z
x,-y,-z
1/2-x,y,1/2-z
-x,-y,-z
1/2+x,y,1/2-z
-x,y,z
1/2+x,-y,1/2+z
loop_
_atom_site_type_symbol
_atom_site_label
_atom_site_fract_x
_atom_site_fract_y
_atom_site_fract_z
Si Si1 0.580858 0.672352 0.476403
Si Si2 0.420540 0.003919 0.713775
Si Si3 0.177957 0.429692 0.223519
Si Si4 0.422273 0.032737 0.082454
Si Si5 0.349031 0.808471 0.607680
Si Si6 0.230693 0.029886 0.584436
Si Si7 0.420796 0.273870 0.181315
Si Si8 0.332917 0.745996 0.341209
O O1 0.587303 0.500000 0.500000
O O2 0.500000 0.712685 0.482079
O O3 0.627966 0.766379 0.529881
O O4 0.608998 0.700269 0.398434
O O5 0.500000 0.051583 0.718240
O O6 0.367109 0.138936 0.713650
O O7 0.404502 0.922865 0.639840
O O8 0.407957 0.874555 0.771097
O O9 0.250000 0.364397 0.250000
O O10 0.150972 0.335824 0.157080
O O11 0.126508 0.402720 0.288492
O O12 0.188348 0.597120 0.198426
O O13 0.500000 0.992081 0.110658
O O14 0.349808 0.960050 0.105927
O O15 0.412522 0.206759 0.103367
O O16 0.425627 0.000000 0.000000
O O17 0.274605 0.888677 0.612817
O O18 0.272511 0.170723 0.615093
O O19 0.232639 0.000000 0.500000
O O20 0.500000 0.317345 0.191690
#
# Coordination Sequence:
#
# PCOD9416033 Si02
#       8
#     8   8   8   8   8   8   8   8
#     4  11  21  33  53  81 116 156 196 239 280 333
#     4   9  19  33  52  79 112 151 187 229 278 333
#     4  11  23  37  54  78 112 153 194 234 284 348
#     4   9  18  34  59  89 111 137 187 250 314 364
#     4  10  19  35  54  78 112 148 198 234 281 340
#     4  10  19  33  56  81 112 146 181 239 293 339
#     4   9  19  37  59  82 109 144 192 240 287 348
#     4  11  22  35  51  82 119 152 194 233 283 348
#
# _framework density 19.363284
#
# number of rings (size 3 to 8) (size 9 to 14) (size 15 to 20)
#    0.000    2.000    2.500    1.500    0.000    2.500 
#    0.000    3.125    0.000    0.750    0.000    0.000 
#    0.000   15.750    0.000    0.000    0.000    0.000 
#
# Total GULP energy -356614.689331 kJ/mol
# GULP energy per Si atom -5572.104521 kJ/mol
# Density = 1.931921 g / cm^3
# Si number density = 19.363284 Si / 1000 Ang^3
#
#
#
# Elastic Constant Matrix: (Units=GPa)
#
#
# Indices 1 2 3 4 5 6 
#
# 1 121.5642 31.4608 19.5823 0.0000 0.0000 0.0000
# 2 31.4608 62.4449 14.1734 0.0000 0.0000 0.0000
# 3 19.5823 14.1734 64.4178 0.0000 0.0000 0.0000
# 4 0.0000 0.0000 0.0000 26.5303 0.0000 0.0000
# 5 0.0000 0.0000 0.0000 0.0000 21.2866 0.0000
# 6 0.0000 0.0000 0.0000 0.0000 0.0000 -1.1892
#
#
#
# Elastic Compliance Matrix: (Units=1/GPa)
#
#
# Indices 1 2 3 4 5 6 
#
# 1 0.009691 -0.004435 -0.001970 0.000000 0.000000 0.000000
# 2 -0.004435 0.018886 -0.002807 0.000000 0.000000 0.000000
# 3 -0.001970 -0.002807 0.016740 0.000000 0.000000 0.000000
# 4 0.000000 0.000000 0.000000 0.037693 0.000000 0.000000
# 5 0.000000 0.000000 0.000000 0.000000 0.046978 0.000000
# 6 0.000000 0.000000 0.000000 0.000000 0.000000 -0.840929
#
#
# Mechanical properties :
#
#
# Convention : Reuss Voigt Hill
#
# Bulk Modulus (GPa) = 37.18556 42.09554 39.64055
# Shear Modulus (GPa) = -7.31474 21.53958 7.11242
#
# Velocity S-wave (km/s) = -1.94572 3.33887 1.91862
# Velocity P-wave (km/s) = 3.76803 6.05402 5.04228
#
# Compressibility (1/GPa) = 0.02689216
#
# Stress axis : x y z
#
# Youngs Moduli (GPa) = 103.18455 52.94959 59.73653
#
# Poissons Ratio (x) = 0.23486 0.11769
# Poissons Ratio (y) = 0.45767 0.16768
# Poissons Ratio (z) = 0.20329 0.14863
#
# Static dielectric constant tensor:
#      x y z
#    x 1.690680 0.000000 0.000000 
#    y 0.000000 1.669910 0.000000 
#    z 0.000000 0.000000 1.711230 
# 
# From -- ./inp_files/29383.got.cif
#   From: 2010.05.17/outbox.cif.g08.bks.cpg/sg53_15_cif.got.tgz:29383.got - 2010.06.03 12:45:16.
