data_PCOD9416180
_publ_section_title
;
Structure prediction by ZEFSAII (Michael W. Deem and Ramdas Pophale) SiO2 
 PCOD9416180
Probable space group: P M N A
;
_chemical_formula_sum "Si O2"
_cell_formula_units_Z 48
_cell_length_a 8.774277
_cell_length_b 16.977398
_cell_length_c 18.316150
_cell_angle_alpha 90.000000
_cell_angle_beta 90.000000
_cell_angle_gamma 90.000000
_cell_volume 2728.454163
_symmetry_space_group_name_H-M "P M N A"
_symmetry_group_IT_number 53
_symmetry_cell_setting 'orthorhombic'
loop_
_space_group_symop_operation_xyz
x,y,z
1/2-x,-y,1/2+z
x,-y,-z
1/2-x,y,1/2-z
-x,-y,-z
1/2+x,y,1/2-z
-x,y,z
1/2+x,-y,1/2+z
loop_
_atom_site_type_symbol
_atom_site_label
_atom_site_fract_x
_atom_site_fract_y
_atom_site_fract_z
Si Si1 0.183540 0.586646 0.977542
Si Si2 0.181926 0.737516 0.452638
Si Si3 0.316642 0.858657 0.169427
Si Si4 0.317367 0.991251 0.585995
Si Si5 0.682891 0.667732 0.673350
Si Si6 0.182056 0.177707 0.394281
O O1 0.230059 0.614114 0.896004
O O2 0.000000 0.586313 0.978667
O O3 0.238019 0.500000 0.000000
O O4 0.240703 0.654186 0.032157
O O5 0.230141 0.784445 0.380777
O O6 0.214677 0.792529 0.523025
O O7 0.000000 0.726285 0.450443
O O8 0.250000 0.852717 0.250000
O O9 0.500000 0.861479 0.171406
O O10 0.255297 0.937063 0.130287
O O11 0.500000 0.993301 0.592655
O O12 0.278014 0.000000 0.500000
O O13 0.254133 0.907994 0.614331
O O14 0.750000 0.639591 0.750000
O O15 0.500000 0.669995 0.676395
O O16 0.746472 0.755150 0.656762
O O17 0.000000 0.174714 0.384358
#
# Coordination Sequence:
#
# PCOD9416180 Si02
#       6
#     8   8   8   8   8   8
#     4   9  19  36  59  85 111 142 181 223 269 327
#     4   9  19  35  56  80 107 140 178 221 270 324
#     4  11  23  39  56  79 111 147 188 232 280 324
#     4  11  22  35  55  82 111 146 189 231 276 327
#     4  10  20  35  55  81 113 145 180 224 277 330
#     4  10  19  34  56  80 107 142 183 225 272 325
#
# _framework density 17.592379999999999
#
# number of rings (size 3 to 8) (size 9 to 14) (size 15 to 20)
#    0.000    2.000    1.667    2.000    0.000    4.333 
#    0.000    4.167    0.000    4.000    0.000    0.000 
#    0.000    0.000    0.000    0.000    0.000    0.000 
#
# Total GULP energy -268005.875374 kJ/mol
# GULP energy per Si atom -5583.455737 kJ/mol
# Density = 1.755234 g / cm^3
# Si number density = 17.592380 Si / 1000 Ang^3
#
#
#
# Elastic Constant Matrix: (Units=GPa)
#
#
# Indices 1 2 3 4 5 6 
#
# 1 42.5619 40.7500 43.3409 0.0000 0.0000 0.0000
# 2 40.7500 163.3273 78.2383 0.0000 0.0000 0.0000
# 3 43.3409 78.2383 128.7970 0.0000 0.0000 0.0000
# 4 0.0000 0.0000 0.0000 16.7513 0.0000 0.0000
# 5 0.0000 0.0000 0.0000 0.0000 0.3166 0.0000
# 6 0.0000 0.0000 0.0000 0.0000 0.0000 24.3747
#
#
#
# Elastic Compliance Matrix: (Units=1/GPa)
#
#
# Indices 1 2 3 4 5 6 
#
# 1 0.038195 -0.004757 -0.009963 0.000000 0.000000 0.000000
# 2 -0.004757 0.009228 -0.004005 0.000000 0.000000 0.000000
# 3 -0.009963 -0.004005 0.013550 0.000000 0.000000 0.000000
# 4 0.000000 0.000000 0.000000 0.059697 0.000000 0.000000
# 5 0.000000 0.000000 0.000000 0.000000 3.158708 0.000000
# 6 0.000000 0.000000 0.000000 0.000000 0.000000 0.041026
#
#
# Mechanical properties :
#
#
# Convention : Reuss Voigt Hill
#
# Bulk Modulus (GPa) = 42.51211 73.26049 57.88630
# Shear Modulus (GPa) = 1.48558 19.77900 10.63229
#
# Velocity S-wave (km/s) = 0.91993 3.35669 2.46106
# Velocity P-wave (km/s) = 5.03447 7.53371 6.40713
#
# Compressibility (1/GPa) = 0.02352271
#
# Stress axis : x y z
#
# Youngs Moduli (GPa) = 26.18122 108.36643 73.80308
#
# Poissons Ratio (x) = 0.51550 0.73532
# Poissons Ratio (y) = 0.12454 0.29557
# Poissons Ratio (z) = 0.26085 0.43399
#
# Static dielectric constant tensor:
#      x y z
#    x 1.585850 0.000000 0.000000 
#    y 0.000000 1.572980 0.000000 
#    z 0.000000 0.000000 1.601340 
# 
# From -- ./inp_files/26174.got.cif
#   From: 2010.05.17/outbox.cif.g08.bks.cpg/sg53_14_cif.got.tgz:26174.got - 2010.06.03 12:45:16.
