data_PCOD9416498
_publ_section_title
;
Structure prediction by ZEFSAII (Michael W. Deem and Ramdas Pophale) SiO2 
 PCOD9416498
Probable space group: P M N A
;
_chemical_formula_sum "Si O2"
_cell_formula_units_Z 48
_cell_length_a 7.910421
_cell_length_b 17.663604
_cell_length_c 18.208371
_cell_angle_alpha 90.000000
_cell_angle_beta 90.000000
_cell_angle_gamma 90.000000
_cell_volume 2544.192752
_symmetry_space_group_name_H-M "P M N A"
_symmetry_group_IT_number 53
_symmetry_cell_setting 'orthorhombic'
loop_
_space_group_symop_operation_xyz
x,y,z
1/2-x,-y,1/2+z
x,-y,-z
1/2-x,y,1/2-z
-x,-y,-z
1/2+x,y,1/2-z
-x,y,z
1/2+x,-y,1/2+z
loop_
_atom_site_type_symbol
_atom_site_label
_atom_site_fract_x
_atom_site_fract_y
_atom_site_fract_z
Si Si1 0.794876 0.995777 0.584784
Si Si2 0.302028 0.841597 0.665511
Si Si3 0.702842 0.147441 0.834976
Si Si4 0.500000 0.413456 0.588777
Si Si5 0.000000 0.413389 0.090051
Si Si6 0.301671 0.302996 0.912449
Si Si7 0.187848 0.309134 0.411331
O O1 0.733296 0.070512 0.627386
O O2 0.000000 0.995013 0.586648
O O3 0.742405 0.000000 0.500000
O O4 0.734780 0.919226 0.623001
O O5 0.250000 0.850390 0.750000
O O6 0.500000 0.824811 0.661122
O O7 0.207710 0.770992 0.628725
O O8 0.750000 0.150087 0.750000
O O9 0.500000 0.145417 0.840914
O O10 0.755078 0.223838 0.876598
O O11 0.500000 0.499852 0.615184
O O12 0.500000 0.415135 0.499367
O O13 0.330654 0.367829 0.610300
O O14 0.166028 0.366712 0.112514
O O15 0.500000 0.317718 0.893528
O O16 0.294115 0.296131 0.000963
O O17 0.000000 0.340003 0.398049
#
# Coordination Sequence:
#
# PCOD9416498 Si02
#       7
#     8   8   8   4   4   8   8
#     4  10  21  39  59  81 115 153 192 239 289 335
#     4  12  24  38  56  84 115 153 198 241 284 346
#     4  10  21  35  53  80 110 150 193 236 280 338
#     4   9  18  32  58  85 119 147 181 239 289 339
#     4   9  18  34  54  91 117 143 187 235 291 347
#     4   9  19  35  56  84 114 150 193 235 289 343
#     4  10  19  36  59  83 115 151 190 239 290 343
#
# _framework density 18.866493999999999
#
# number of rings (size 3 to 8) (size 9 to 14) (size 15 to 20)
#    0.000    2.000    0.833    3.000    1.167    5.667 
#    0.000    3.333    0.000    1.000    0.000    0.000 
#    0.000    0.000    0.000    0.000    0.000    0.000 
#
# Total GULP energy -268029.876567 kJ/mol
# GULP energy per Si atom -5583.955762 kJ/mol
# Density = 1.882355 g / cm^3
# Si number density = 18.866494 Si / 1000 Ang^3
#
#
#
# Elastic Constant Matrix: (Units=GPa)
#
#
# Indices 1 2 3 4 5 6 
#
# 1 96.3653 62.3504 34.7003 0.0000 0.0000 0.0000
# 2 62.3504 162.2921 49.1074 0.0000 0.0000 0.0000
# 3 34.7003 49.1074 61.1627 0.0000 0.0000 0.0000
# 4 0.0000 0.0000 0.0000 -11.3139 0.0000 0.0000
# 5 0.0000 0.0000 0.0000 0.0000 21.1855 0.0000
# 6 0.0000 0.0000 0.0000 0.0000 0.0000 0.8514
#
#
#
# Elastic Compliance Matrix: (Units=1/GPa)
#
#
# Indices 1 2 3 4 5 6 
#
# 1 0.014926 -0.004190 -0.005104 0.000000 0.000000 0.000000
# 2 -0.004190 0.009315 -0.005102 0.000000 0.000000 0.000000
# 3 -0.005104 -0.005102 0.023342 0.000000 0.000000 0.000000
# 4 0.000000 0.000000 0.000000 -0.088387 0.000000 0.000000
# 5 0.000000 0.000000 0.000000 0.000000 0.047202 0.000000
# 6 0.000000 0.000000 0.000000 0.000000 0.000000 1.174598
#
#
# Mechanical properties :
#
#
# Convention : Reuss Voigt Hill
#
# Bulk Modulus (GPa) = 53.21657 68.01514 60.61586
# Shear Modulus (GPa) = 4.11166 13.72206 8.91686
#
# Velocity S-wave (km/s) = 1.47786 2.69982 2.17636
# Velocity P-wave (km/s) = 5.58393 6.77110 6.20596
#
# Compressibility (1/GPa) = 0.01879114
#
# Stress axis : x y z
#
# Youngs Moduli (GPa) = 66.99661 107.35068 42.84110
#
# Poissons Ratio (x) = 0.44980 0.21867
# Poissons Ratio (y) = 0.28071 0.21858
# Poissons Ratio (z) = 0.34196 0.54771
#
# Static dielectric constant tensor:
#      x y z
#    x 1.676880 0.000000 0.000000 
#    y 0.000000 1.621940 0.000000 
#    z 0.000000 0.000000 1.635680 
# 
# From -- ./inp_files/26330.got.cif
#   From: 2010.05.17/outbox.cif.g08.bks.cpg/sg53_14_cif.got.tgz:26330.got - 2010.06.03 12:45:16.
