data_PCOD9416620
_publ_section_title
;
Structure prediction by ZEFSAII (Michael W. Deem and Ramdas Pophale) SiO2 
 PCOD9416620
Probable space group: P M N A
;
_chemical_formula_sum "Si O2"
_cell_formula_units_Z 58
_cell_length_a 16.086330
_cell_length_b 11.111878
_cell_length_c 14.108734
_cell_angle_alpha 90.000000
_cell_angle_beta 90.000000
_cell_angle_gamma 90.000000
_cell_volume 2521.926840
_symmetry_space_group_name_H-M "P M N A"
_symmetry_group_IT_number 53
_symmetry_cell_setting 'orthorhombic'
loop_
_space_group_symop_operation_xyz
x,y,z
1/2-x,-y,1/2+z
x,-y,-z
1/2-x,y,1/2-z
-x,-y,-z
1/2+x,y,1/2-z
-x,y,z
1/2+x,-y,1/2+z
loop_
_atom_site_type_symbol
_atom_site_label
_atom_site_fract_x
_atom_site_fract_y
_atom_site_fract_z
Si Si1 0.349005 0.341981 0.425154
Si Si2 0.247635 0.763678 0.100672
Si Si3 0.407981 0.296266 0.112097
Si Si4 0.592097 0.122173 0.938780
Si Si5 0.403749 0.070775 0.599802
Si Si6 0.348695 0.861741 0.729432
Si Si7 0.210514 0.494290 0.612379
Si Si8 0.500000 0.500000 0.500000
O O1 0.279868 0.281389 0.494537
O O2 0.366766 0.243380 0.346682
O O3 0.303199 0.455372 0.378159
O O4 0.427195 0.397000 0.478715
O O5 0.159469 0.822399 0.125914
O O6 0.285516 0.642381 0.145973
O O7 0.319143 0.864240 0.112328
O O8 0.500000 0.344175 0.124545
O O9 0.402784 0.241416 0.006445
O O10 0.391826 0.179116 0.174827
O O11 0.348250 0.400983 0.149916
O O12 0.500000 0.125808 0.892066
O O13 0.594175 0.000000 0.000000
O O14 0.500000 0.107333 0.590421
O O15 0.381159 0.000000 0.500000
O O16 0.389797 0.977189 0.683725
O O17 0.250000 0.872159 0.750000
O O18 0.188030 0.500000 0.500000
#
# Coordination Sequence:
#
# PCOD9416620 Si02
#       8
#     8   8   8   8   8   8   8   2
#     4  11  22  37  60  98 125 175 224 277 350 405
#     4  11  20  37  64  89 131 165 227 285 333 404
#     4  11  23  39  63  97 133 173 223 286 348 413
#     4  10  21  36  59  92 127 175 227 281 341 414
#     4  11  25  40  65 102 138 183 240 293 345 413
#     4  12  24  42  68  97 139 180 226 285 354 420
#     4  10  19  38  58  93 125 168 224 276 332 420
#     4  12  24  36  68  94 146 172 236 312 348 412
#
# _framework density 22.998287999999999
#
# number of rings (size 3 to 8) (size 9 to 14) (size 15 to 20)
#    0.000    1.103    7.586    0.828    4.828    0.828 
#    0.000    0.000    3.034    0.000    0.000    0.000 
#    0.000    0.000    0.000    0.000    0.000    0.000 
#
# Total GULP energy -323027.120104 kJ/mol
# GULP energy per Si atom -5569.433105 kJ/mol
# Density = 2.294594 g / cm^3
# Si number density = 22.998288 Si / 1000 Ang^3
#
#
#
# Elastic Constant Matrix: (Units=GPa)
#
#
# Indices 1 2 3 4 5 6 
#
# 1 150.4469 45.5006 -4.5273 0.0000 0.0000 0.0000
# 2 45.5006 103.4718 -1.9489 0.0000 0.0000 0.0000
# 3 -4.5273 -1.9489 38.8119 0.0000 0.0000 0.0000
# 4 0.0000 0.0000 0.0000 70.7846 0.0000 0.0000
# 5 0.0000 0.0000 0.0000 0.0000 10.2389 0.0000
# 6 0.0000 0.0000 0.0000 0.0000 0.0000 7.4964
#
#
#
# Elastic Compliance Matrix: (Units=1/GPa)
#
#
# Indices 1 2 3 4 5 6 
#
# 1 0.007687 -0.003367 0.000728 0.000000 0.000000 0.000000
# 2 -0.003367 0.011148 0.000167 0.000000 0.000000 0.000000
# 3 0.000728 0.000167 0.025859 0.000000 0.000000 0.000000
# 4 0.000000 0.000000 0.000000 0.014127 0.000000 0.000000
# 5 0.000000 0.000000 0.000000 0.000000 0.097666 0.000000
# 6 0.000000 0.000000 0.000000 0.000000 0.000000 0.133398
#
#
# Mechanical properties :
#
#
# Convention : Reuss Voigt Hill
#
# Bulk Modulus (GPa) = 25.15735 41.19769 33.17752
# Shear Modulus (GPa) = 16.22961 34.61774 25.42368
#
# Velocity S-wave (km/s) = 2.65936 3.88394 3.32845
# Velocity P-wave (km/s) = 4.51577 6.16973 5.40637
#
# Compressibility (1/GPa) = 0.03974982
#
# Stress axis : x y z
#
# Youngs Moduli (GPa) = 130.09110 89.70211 38.67195
#
# Poissons Ratio (x) = 0.30198 -0.02814
# Poissons Ratio (y) = 0.43796 -0.00646
# Poissons Ratio (z) = -0.09466 -0.01499
#
# Static dielectric constant tensor:
#      x y z
#    x 2.021110 0.000000 0.000000 
#    y 0.000000 1.909140 0.000000 
#    z 0.000000 0.000000 1.954750 
# 
# From -- ./inp_files/28479.got.cif
#   From: 2010.05.17/outbox.cif.g08.bks.cpg/sg53_15_cif.got.tgz:28479.got - 2010.06.03 12:45:16.
