data_PCOD9416057
_publ_section_title
;
Structure prediction by ZEFSAII (Michael W. Deem and Ramdas Pophale) SiO2 
 PCOD9416057
Probable space group: P M N A
;
_chemical_formula_sum "Si O2"
_cell_formula_units_Z 32
_cell_length_a 15.772645
_cell_length_b 17.441617
_cell_length_c 4.980434
_cell_angle_alpha 90.000000
_cell_angle_beta 90.000000
_cell_angle_gamma 90.000000
_cell_volume 1370.119551
_symmetry_space_group_name_H-M "P M N A"
_symmetry_group_IT_number 53
_symmetry_cell_setting 'orthorhombic'
loop_
_space_group_symop_operation_xyz
x,y,z
1/2-x,-y,1/2+z
x,-y,-z
1/2-x,y,1/2-z
-x,-y,-z
1/2+x,y,1/2-z
-x,y,z
1/2+x,-y,1/2+z
loop_
_atom_site_type_symbol
_atom_site_label
_atom_site_fract_x
_atom_site_fract_y
_atom_site_fract_z
Si Si1 0.402189 0.921167 0.873304
Si Si2 0.843246 0.833737 0.132440
Si Si3 0.103618 0.418604 0.613419
Si Si4 0.397516 0.672858 0.614762
O O1 0.500000 0.933349 0.792809
O O2 0.353799 0.893633 0.610179
O O3 0.399230 0.858609 0.111934
O O4 0.368755 0.000000 0.000000
O O5 0.750000 0.832750 0.250000
O O6 0.865843 0.752474 0.001874
O O7 0.132933 0.500000 0.500000
O O8 0.130638 0.350993 0.411089
O O9 0.000000 0.421113 0.610972
O O10 0.128348 0.395232 0.912053
O O11 0.500000 0.676734 0.616976
#
# Coordination Sequence:
#
# PCOD9416057 Si02
#       4
#     8   8   8   8
#     4  11  24  44  69  94 124 165 214 264 314 376
#     4  12  25  41  63  95 132 168 208 260 320 381
#     4   9  17  30  52  84 117 152 203 262 308 351
#     4  10  19  33  56  84 119 162 205 251 304 367
#
# _framework density 23.355626999999998
#
# number of rings (size 3 to 8) (size 9 to 14) (size 15 to 20)
#    0.000    1.500    0.000    6.000    0.000    9.000 
#    0.000    0.000    0.000    3.000    0.000    0.000 
#    0.000    0.000    0.000    0.000    0.000    0.250 
#
# Total GULP energy -179167.936447 kJ/mol
# GULP energy per Si atom -5598.998014 kJ/mol
# Density = 2.330247 g / cm^3
# Si number density = 23.355627 Si / 1000 Ang^3
#
#
#
# Elastic Constant Matrix: (Units=GPa)
#
#
# Indices 1 2 3 4 5 6 
#
# 1 30.7590 10.2802 16.6153 0.0000 0.0000 0.0000
# 2 10.2802 68.4457 3.6531 0.0000 0.0000 0.0000
# 3 16.6153 3.6531 104.5529 0.0000 0.0000 0.0000
# 4 0.0000 0.0000 0.0000 42.7576 0.0000 0.0000
# 5 0.0000 0.0000 0.0000 0.0000 49.4772 0.0000
# 6 0.0000 0.0000 0.0000 0.0000 0.0000 -15.8293
#
#
#
# Elastic Compliance Matrix: (Units=1/GPa)
#
#
# Indices 1 2 3 4 5 6 
#
# 1 0.037395 -0.005309 -0.005757 0.000000 0.000000 0.000000
# 2 -0.005309 0.015391 0.000306 0.000000 0.000000 0.000000
# 3 -0.005757 0.000306 0.010469 0.000000 0.000000 0.000000
# 4 0.000000 0.000000 0.000000 0.023388 0.000000 0.000000
# 5 0.000000 0.000000 0.000000 0.000000 0.020211 0.000000
# 6 0.000000 0.000000 0.000000 0.000000 0.000000 -0.063174
#
#
# Mechanical properties :
#
#
# Convention : Reuss Voigt Hill
#
# Bulk Modulus (GPa) = 23.96125 29.42830 26.69477
# Shear Modulus (GPa) = 63.20085 26.82835 45.01460
#
# Velocity S-wave (km/s) = 5.20759 3.39291 4.39493
# Velocity P-wave (km/s) = 6.81470 5.28929 6.09987
#
# Compressibility (1/GPa) = 0.04173406
#
# Stress axis : x y z
#
# Youngs Moduli (GPa) = 26.74137 64.97206 95.52218
#
# Poissons Ratio (x) = 0.34496 0.54994
# Poissons Ratio (y) = 0.14198 -0.02923
# Poissons Ratio (z) = 0.15396 -0.01988
#
# Static dielectric constant tensor:
#      x y z
#    x 1.883390 0.000000 0.000000 
#    y 0.000000 1.876420 0.000000 
#    z 0.000000 0.000000 1.838720 
# 
# From -- ./inp_files/1191.got.cif
#   From: 2010.05.17/outbox.cif.g08.bks.cpg/sg53_1_cif.got.tgz:1191.got - 2010.06.03 12:45:16.
