data_PCOD9416154
_publ_section_title
;
Structure prediction by ZEFSAII (Michael W. Deem and Ramdas Pophale) SiO2 
 PCOD9416154
Probable space group: P M N A
;
_chemical_formula_sum "Si O2"
_cell_formula_units_Z 48
_cell_length_a 8.982870
_cell_length_b 12.002035
_cell_length_c 26.471361
_cell_angle_alpha 90.000000
_cell_angle_beta 90.000000
_cell_angle_gamma 90.000000
_cell_volume 2853.949435
_symmetry_space_group_name_H-M "P M N A"
_symmetry_group_IT_number 53
_symmetry_cell_setting 'orthorhombic'
loop_
_space_group_symop_operation_xyz
x,y,z
1/2-x,-y,1/2+z
x,-y,-z
1/2-x,y,1/2-z
-x,-y,-z
1/2+x,y,1/2-z
-x,y,z
1/2+x,-y,1/2+z
loop_
_atom_site_type_symbol
_atom_site_label
_atom_site_fract_x
_atom_site_fract_y
_atom_site_fract_z
Si Si1 0.173091 0.659142 0.882640
Si Si2 0.178662 0.537838 0.442746
Si Si3 0.821088 0.174756 0.305110
Si Si4 0.175784 0.777627 0.071908
Si Si5 0.324368 0.019415 0.882931
Si Si6 0.169528 0.136633 0.040620
O O1 0.253490 0.549650 0.903142
O O2 0.255044 0.721663 0.836810
O O3 0.176973 0.748115 0.928561
O O4 0.000000 0.637963 0.870382
O O5 0.221403 0.500000 0.500000
O O6 0.240790 0.660174 0.430844
O O7 0.000000 0.537010 0.440167
O O8 0.750000 0.171344 0.250000
O O9 0.000000 0.182952 0.302853
O O10 0.783194 0.062102 0.336522
O O11 0.238541 0.864266 0.112835
O O12 0.000000 0.759547 0.078461
O O13 0.198241 0.836184 0.017332
O O14 0.500000 0.039591 0.881627
O O15 0.281150 0.947077 0.932335
O O16 0.000000 0.092558 0.046209
#
# Coordination Sequence:
#
# PCOD9416154 Si02
#       6
#     8   8   8   8   8   8
#     4  10  19  34  55  79 109 143 182 225 269 317
#     4  11  22  34  51  76 110 149 187 225 266 316
#     4  10  21  38  60  84 108 136 175 225 279 328
#     4  11  21  33  50  73 106 147 186 218 258 316
#     4  10  21  34  50  76 107 137 174 221 271 321
#     4   9  18  31  48  72 104 142 180 217 256 310
#
# _framework density 16.818798000000001
#
# number of rings (size 3 to 8) (size 9 to 14) (size 15 to 20)
#    0.000    1.833    1.667    3.000    0.000    6.667 
#    0.000    0.000    0.000    1.000    0.000    4.667 
#    0.000    0.000    0.000    0.000    0.000    0.000 
#
# Total GULP energy -267973.842479 kJ/mol
# GULP energy per Si atom -5582.788385 kJ/mol
# Density = 1.678052 g / cm^3
# Si number density = 16.818798 Si / 1000 Ang^3
#
#
#
# Elastic Constant Matrix: (Units=GPa)
#
#
# Indices 1 2 3 4 5 6 
#
# 1 85.3689 63.1171 58.5706 0.0000 0.0000 0.0000
# 2 63.1171 111.8304 57.9625 0.0000 0.0000 0.0000
# 3 58.5706 57.9625 100.6500 0.0000 0.0000 0.0000
# 4 0.0000 0.0000 0.0000 9.2304 0.0000 0.0000
# 5 0.0000 0.0000 0.0000 0.0000 17.1209 0.0000
# 6 0.0000 0.0000 0.0000 0.0000 0.0000 58.4066
#
#
#
# Elastic Compliance Matrix: (Units=1/GPa)
#
#
# Indices 1 2 3 4 5 6 
#
# 1 0.024828 -0.009301 -0.009092 0.000000 0.000000 0.000000
# 2 -0.009301 0.016231 -0.003935 0.000000 0.000000 0.000000
# 3 -0.009092 -0.003935 0.017492 0.000000 0.000000 0.000000
# 4 0.000000 0.000000 0.000000 0.108338 0.000000 0.000000
# 5 0.000000 0.000000 0.000000 0.000000 0.058408 0.000000
# 6 0.000000 0.000000 0.000000 0.000000 0.000000 0.017121
#
#
# Mechanical properties :
#
#
# Convention : Reuss Voigt Hill
#
# Bulk Modulus (GPa) = 71.96114 73.01663 72.48889
# Shear Modulus (GPa) = 17.14058 24.83151 20.98604
#
# Velocity S-wave (km/s) = 3.19585 3.84658 3.53622
# Velocity P-wave (km/s) = 7.51645 7.95212 7.73735
#
# Compressibility (1/GPa) = 0.01389639
#
# Stress axis : x y z
#
# Youngs Moduli (GPa) = 40.27685 61.61126 57.16801
#
# Poissons Ratio (x) = 0.57302 0.51978
# Poissons Ratio (y) = 0.37460 0.22495
# Poissons Ratio (z) = 0.36620 0.24243
#
# Static dielectric constant tensor:
#      x y z
#    x 1.564260 0.000000 0.000000 
#    y 0.000000 1.565370 0.000000 
#    z 0.000000 0.000000 1.545820 
# 
# From -- ./inp_files/33840.got.cif
#   From: 2010.05.17/outbox.cif.g08.bks.cpg/sg53_17_cif.got.tgz:33840.got - 2010.06.03 12:45:16.
