data_PCOD9416717
_publ_section_title
;
Structure prediction by ZEFSAII (Michael W. Deem and Ramdas Pophale) SiO2 
 PCOD9416717
Probable space group: P M N A
;
_chemical_formula_sum "Si O2"
_cell_formula_units_Z 64
_cell_length_a 9.010274
_cell_length_b 23.004937
_cell_length_c 17.821695
_cell_angle_alpha 90.000000
_cell_angle_beta 90.000000
_cell_angle_gamma 90.000000
_cell_volume 3694.094943
_symmetry_space_group_name_H-M "P M N A"
_symmetry_group_IT_number 53
_symmetry_cell_setting 'orthorhombic'
loop_
_space_group_symop_operation_xyz
x,y,z
1/2-x,-y,1/2+z
x,-y,-z
1/2-x,y,1/2-z
-x,-y,-z
1/2+x,y,1/2-z
-x,y,z
1/2+x,-y,1/2+z
loop_
_atom_site_type_symbol
_atom_site_label
_atom_site_fract_x
_atom_site_fract_y
_atom_site_fract_z
Si Si1 0.329770 0.543671 0.428585
Si Si2 0.176690 0.792499 0.174596
Si Si3 0.825177 0.912291 0.368154
Si Si4 0.177753 0.448939 0.330373
Si Si5 0.177220 0.635756 0.530134
Si Si6 0.177374 0.755273 0.008035
Si Si7 0.174907 0.126089 0.462956
Si Si8 0.679008 0.042641 0.172674
O O1 0.332482 0.500000 0.500000
O O2 0.500000 0.556485 0.407646
O O3 0.245011 0.508733 0.363739
O O4 0.246293 0.599742 0.460689
O O5 0.250000 0.768112 0.250000
O O6 0.233461 0.858762 0.164869
O O7 0.217846 0.760669 0.096706
O O8 0.000000 0.791895 0.181605
O O9 0.811664 0.907581 0.458096
O O10 0.000000 0.904475 0.349325
O O11 0.775790 0.975769 0.342023
O O12 0.250000 0.436141 0.250000
O O13 0.211597 0.399556 0.393081
O O14 0.000000 0.453358 0.323971
O O15 0.246183 0.699537 0.528271
O O16 0.000000 0.637786 0.522932
O O17 0.000000 0.750900 0.002849
O O18 0.233790 0.814700 0.970331
O O19 0.222357 0.084366 0.395652
O O20 0.000000 0.140248 0.453617
O O21 0.750000 0.062707 0.250000
O O22 0.500000 0.043019 0.176862
#
# Coordination Sequence:
#
# PCOD9416717 Si02
#       8
#     8   8   8   8   8   8   8   8
#     4   9  17  31  53  79 107 138 169 204 249 298
#     4  10  20  33  50  74 102 130 162 204 254 307
#     4   9  17  31  52  74  96 125 162 205 253 308
#     4  10  20  34  54  82 113 142 175 216 259 303
#     4  10  20  35  56  80 106 139 179 217 255 304
#     4  10  21  36  54  76 101 132 174 218 257 301
#     4   9  18  34  53  71  95 130 170 209 253 307
#     4  10  20  32  48  72 100 129 163 205 255 310
#
# _framework density 17.324947000000002
#
# number of rings (size 3 to 8) (size 9 to 14) (size 15 to 20)
#    0.000    2.375    0.000    2.625    0.000    8.000 
#    0.000    1.250    0.000    5.250    0.000    0.000 
#    0.000    0.000    0.000    0.000    0.000    0.000 
#
# Total GULP energy -357075.540884 kJ/mol
# GULP energy per Si atom -5579.305326 kJ/mol
# Density = 1.728551 g / cm^3
# Si number density = 17.324947 Si / 1000 Ang^3
#
#
#
# Elastic Constant Matrix: (Units=GPa)
#
#
# Indices 1 2 3 4 5 6 
#
# 1 59.1596 31.9085 45.1480 0.0000 0.0000 0.0000
# 2 31.9085 64.6490 37.2627 0.0000 0.0000 0.0000
# 3 45.1480 37.2627 94.3748 0.0000 0.0000 0.0000
# 4 0.0000 0.0000 0.0000 14.3930 0.0000 0.0000
# 5 0.0000 0.0000 0.0000 0.0000 30.1620 0.0000
# 6 0.0000 0.0000 0.0000 0.0000 0.0000 17.9704
#
#
#
# Elastic Compliance Matrix: (Units=1/GPa)
#
#
# Indices 1 2 3 4 5 6 
#
# 1 0.029771 -0.008396 -0.010927 0.000000 0.000000 0.000000
# 2 -0.008396 0.022393 -0.004825 0.000000 0.000000 0.000000
# 3 -0.010927 -0.004825 0.017729 0.000000 0.000000 0.000000
# 4 0.000000 0.000000 0.000000 0.069478 0.000000 0.000000
# 5 0.000000 0.000000 0.000000 0.000000 0.033154 0.000000
# 6 0.000000 0.000000 0.000000 0.000000 0.000000 0.055647
#
#
# Mechanical properties :
#
#
# Convention : Reuss Voigt Hill
#
# Bulk Modulus (GPa) = 46.30361 49.64685 47.97523
# Shear Modulus (GPa) = 17.62628 19.42937 18.52782
#
# Velocity S-wave (km/s) = 3.19312 3.35247 3.27376
# Velocity P-wave (km/s) = 6.35447 6.61089 6.48395
#
# Compressibility (1/GPa) = 0.02159659
#
# Stress axis : x y z
#
# Youngs Moduli (GPa) = 33.58990 44.65655 56.40573
#
# Poissons Ratio (x) = 0.37492 0.61636
# Poissons Ratio (y) = 0.28201 0.27217
# Poissons Ratio (z) = 0.36704 0.21548
#
# Static dielectric constant tensor:
#      x y z
#    x 1.580870 0.000000 0.000000 
#    y 0.000000 1.564570 0.000000 
#    z 0.000000 0.000000 1.587840 
# 
# From -- ./inp_files/26801.got.cif
#   From: 2010.05.17/outbox.cif.g08.bks.cpg/sg53_14_cif.got.tgz:26801.got - 2010.06.03 12:45:16.
