data_PCOD9416517
_publ_section_title
;
Structure prediction by ZEFSAII (Michael W. Deem and Ramdas Pophale) SiO2 
 PCOD9416517
Probable space group: P M N A
;
_chemical_formula_sum "Si O2"
_cell_formula_units_Z 64
_cell_length_a 21.025441
_cell_length_b 8.644037
_cell_length_c 15.779010
_cell_angle_alpha 90.000000
_cell_angle_beta 90.000000
_cell_angle_gamma 90.000000
_cell_volume 2867.751280
_symmetry_space_group_name_H-M "P M N A"
_symmetry_group_IT_number 53
_symmetry_cell_setting 'orthorhombic'
loop_
_space_group_symop_operation_xyz
x,y,z
1/2-x,-y,1/2+z
x,-y,-z
1/2-x,y,1/2-z
-x,-y,-z
1/2+x,y,1/2-z
-x,y,z
1/2+x,-y,1/2+z
loop_
_atom_site_type_symbol
_atom_site_label
_atom_site_fract_x
_atom_site_fract_y
_atom_site_fract_z
Si Si1 0.779741 0.076881 0.837661
Si Si2 0.753120 0.652567 0.460270
Si Si3 0.633622 0.811655 0.750678
Si Si4 0.922560 0.843522 0.040949
Si Si5 0.684243 0.530096 0.201908
Si Si6 0.666869 0.109541 0.072535
Si Si7 0.424491 0.670477 0.300279
Si Si8 0.926805 0.362661 0.106062
O O1 0.750000 0.138445 0.750000
O O2 0.787589 0.221163 0.904579
O O3 0.826975 0.941685 0.801511
O O4 0.725461 0.981622 0.885770
O O5 0.719690 0.500000 0.500000
O O6 0.800702 0.571192 0.394039
O O7 0.796956 0.746984 0.527203
O O8 0.668184 0.647786 0.773125
O O9 0.620276 0.865782 0.846927
O O10 0.580308 0.756192 0.684358
O O11 0.913911 0.819087 0.140848
O O12 0.000000 0.845047 0.032532
O O13 0.897994 0.711986 0.977311
O O14 0.897063 0.000000 0.000000
O O15 0.750000 0.554508 0.250000
O O16 0.625836 0.643503 0.227042
O O17 0.638190 0.000000 0.000000
O O18 0.500000 0.659329 0.278818
O O19 0.405421 0.527936 0.361519
O O20 0.000000 0.388962 0.086619
#
# Coordination Sequence:
#
# PCOD9416517 Si02
#       8
#     8   8   8   8   8   8   8   8
#     4   9  19  37  57  81 113 158 201 241 307 390
#     4  11  21  36  59  87 120 160 204 258 315 379
#     4  10  19  36  61  83 121 164 199 252 318 380
#     4   9  17  34  56  85 123 158 198 253 310 372
#     4  11  22  38  61  91 126 160 207 268 320 371
#     4   9  18  35  56  79 112 159 198 240 306 376
#     4   9  19  38  64  87 119 166 214 258 314 382
#     4   9  18  34  60  89 115 156 210 260 309 371
#
# _framework density 22.317139000000001
#
# number of rings (size 3 to 8) (size 9 to 14) (size 15 to 20)
#    0.000    2.375    1.250    1.875    0.000    1.500 
#   11.250    0.625    0.000    1.500    0.000    0.000 
#    0.000    0.500    0.000    0.000    0.000    0.000 
#
# Total GULP energy -356516.476235 kJ/mol
# GULP energy per Si atom -5570.569941 kJ/mol
# Density = 2.226634 g / cm^3
# Si number density = 22.317139 Si / 1000 Ang^3
#
#
#
# Elastic Constant Matrix: (Units=GPa)
#
#
# Indices 1 2 3 4 5 6 
#
# 1 48.3519 18.2080 26.9561 0.0000 0.0000 0.0000
# 2 18.2080 100.7885 34.5070 0.0000 0.0000 0.0000
# 3 26.9561 34.5070 124.6224 0.0000 0.0000 0.0000
# 4 0.0000 0.0000 0.0000 40.2003 0.0000 0.0000
# 5 0.0000 0.0000 0.0000 0.0000 21.1846 0.0000
# 6 0.0000 0.0000 0.0000 0.0000 0.0000 10.7383
#
#
#
# Elastic Compliance Matrix: (Units=1/GPa)
#
#
# Indices 1 2 3 4 5 6 
#
# 1 0.024239 -0.002854 -0.004453 0.000000 0.000000 0.000000
# 2 -0.002854 0.011297 -0.002511 0.000000 0.000000 0.000000
# 3 -0.004453 -0.002511 0.009683 0.000000 0.000000 0.000000
# 4 0.000000 0.000000 0.000000 0.024875 0.000000 0.000000
# 5 0.000000 0.000000 0.000000 0.000000 0.047204 0.000000
# 6 0.000000 0.000000 0.000000 0.000000 0.000000 0.093125
#
#
# Mechanical properties :
#
#
# Convention : Reuss Voigt Hill
#
# Bulk Modulus (GPa) = 39.08826 48.12277 43.60552
# Shear Modulus (GPa) = 20.95682 27.36408 24.16045
#
# Velocity S-wave (km/s) = 3.06771 3.50544 3.29385
# Velocity P-wave (km/s) = 5.48641 6.16393 5.83501
#
# Compressibility (1/GPa) = 0.02558313
#
# Stress axis : x y z
#
# Youngs Moduli (GPa) = 41.25603 88.51908 103.27906
#
# Poissons Ratio (x) = 0.25267 0.45985
# Poissons Ratio (y) = 0.11776 0.25930
# Poissons Ratio (z) = 0.18369 0.22224
#
# Static dielectric constant tensor:
#      x y z
#    x 1.852280 0.000000 0.000000 
#    y 0.000000 1.925020 0.000000 
#    z 0.000000 0.000000 1.933680 
# 
# From -- ./inp_files/24742.got.cif
#   From: 2010.05.17/outbox.cif.g08.bks.cpg/sg53_13_cif.got.tgz:24742.got - 2010.06.03 12:45:16.
