data_PCOD9416609
_publ_section_title
;
Structure prediction by ZEFSAII (Michael W. Deem and Ramdas Pophale) SiO2 
 PCOD9416609
Probable space group: P M N A
;
_chemical_formula_sum "Si O2"
_cell_formula_units_Z 32
_cell_length_a 18.224440
_cell_length_b 12.072846
_cell_length_c 7.702738
_cell_angle_alpha 90.000000
_cell_angle_beta 90.000000
_cell_angle_gamma 90.000000
_cell_volume 1694.763020
_symmetry_space_group_name_H-M "P M N A"
_symmetry_group_IT_number 53
_symmetry_cell_setting 'orthorhombic'
loop_
_space_group_symop_operation_xyz
x,y,z
1/2-x,-y,1/2+z
x,-y,-z
1/2-x,y,1/2-z
-x,-y,-z
1/2+x,y,1/2-z
-x,y,z
1/2+x,-y,1/2+z
loop_
_atom_site_type_symbol
_atom_site_label
_atom_site_fract_x
_atom_site_fract_y
_atom_site_fract_z
Si Si1 0.415620 0.505035 0.291037
Si Si2 0.912048 0.127604 0.009903
Si Si3 0.412910 0.740613 0.859143
Si Si4 0.664187 0.272459 0.786420
O O1 0.410819 0.500000 0.500000
O O2 0.500000 0.535946 0.246949
O O3 0.401213 0.385249 0.208232
O O4 0.362148 0.600279 0.226953
O O5 0.896189 0.179751 0.197706
O O6 0.000000 0.132066 0.986875
O O7 0.876558 0.202046 0.861208
O O8 0.888498 0.000000 0.000000
O O9 0.500000 0.751138 0.902096
O O10 0.363023 0.765700 0.024541
O O11 0.750000 0.264116 0.750000
#
# Coordination Sequence:
#
# PCOD9416609 Si02
#       4
#     8   8   8   8
#     4  10  19  37  65  91 121 161 207 259 309 363
#     4  10  22  44  69  91 118 161 220 268 299 352
#     4  10  21  40  68  94 120 162 212 260 308 364
#     4  12  25  39  58  94 131 168 197 252 320 386
#
# _framework density 18.881696000000002
#
# number of rings (size 3 to 8) (size 9 to 14) (size 15 to 20)
#    0.000    1.500    2.500    3.000    0.000    6.000 
#    4.500    3.750    0.000    0.000    0.000    0.000 
#    0.000    0.000    0.000    0.000    0.000    0.000 
#
# Total GULP energy -178892.408103 kJ/mol
# GULP energy per Si atom -5590.387753 kJ/mol
# Density = 1.883872 g / cm^3
# Si number density = 18.881696 Si / 1000 Ang^3
#
#
#
# Elastic Constant Matrix: (Units=GPa)
#
#
# Indices 1 2 3 4 5 6 
#
# 1 75.0945 56.9830 87.4429 0.0000 0.0000 0.0000
# 2 56.9830 109.7571 62.9541 0.0000 0.0000 0.0000
# 3 87.4429 62.9541 154.8698 0.0000 0.0000 0.0000
# 4 0.0000 0.0000 0.0000 1.3504 0.0000 0.0000
# 5 0.0000 0.0000 0.0000 0.0000 62.7615 0.0000
# 6 0.0000 0.0000 0.0000 0.0000 0.0000 -41.1068
#
#
#
# Elastic Compliance Matrix: (Units=1/GPa)
#
#
# Indices 1 2 3 4 5 6 
#
# 1 0.049354 -0.012571 -0.022756 0.000000 0.000000 0.000000
# 2 -0.012571 0.015083 0.000966 0.000000 0.000000 0.000000
# 3 -0.022756 0.000966 0.018913 0.000000 0.000000 0.000000
# 4 0.000000 0.000000 0.000000 0.740528 0.000000 0.000000
# 5 0.000000 0.000000 0.000000 0.000000 0.015933 0.000000
# 6 0.000000 0.000000 0.000000 0.000000 0.000000 -0.024327
#
#
# Mechanical properties :
#
#
# Convention : Reuss Voigt Hill
#
# Bulk Modulus (GPa) = 68.35895 83.83130 76.09513
# Shear Modulus (GPa) = 5.62378 13.42377 9.52378
#
# Velocity S-wave (km/s) = 1.72769 2.66924 2.24830
# Velocity P-wave (km/s) = 6.34526 7.34809 6.86501
#
# Compressibility (1/GPa) = 0.01462866
#
# Stress axis : x y z
#
# Youngs Moduli (GPa) = 20.26195 66.29961 52.87415
#
# Poissons Ratio (x) = 0.83343 1.20321
# Poissons Ratio (y) = 0.25471 -0.05110
# Poissons Ratio (z) = 0.46108 -0.06408
#
# Static dielectric constant tensor:
#      x y z
#    x 1.628970 0.000000 0.000000 
#    y 0.000000 1.638400 0.000000 
#    z 0.000000 0.000000 1.653060 
# 
# From -- ./inp_files/8031.got.cif
#   From: 2010.05.17/outbox.cif.g08.bks.cpg/sg53_5_cif.got.tgz:8031.got - 2010.06.03 12:45:16.
