data_PCOD9416402
_publ_section_title
;
Structure prediction by ZEFSAII (Michael W. Deem and Ramdas Pophale) SiO2 
 PCOD9416402
Probable space group: P M N A
;
_chemical_formula_sum "Si O2"
_cell_formula_units_Z 64
_cell_length_a 18.134689
_cell_length_b 13.895860
_cell_length_c 14.815323
_cell_angle_alpha 90.000000
_cell_angle_beta 90.000000
_cell_angle_gamma 90.000000
_cell_volume 3733.418424
_symmetry_space_group_name_H-M "P M N A"
_symmetry_group_IT_number 53
_symmetry_cell_setting 'orthorhombic'
loop_
_space_group_symop_operation_xyz
x,y,z
1/2-x,-y,1/2+z
x,-y,-z
1/2-x,y,1/2-z
-x,-y,-z
1/2+x,y,1/2-z
-x,y,z
1/2+x,-y,1/2+z
loop_
_atom_site_type_symbol
_atom_site_label
_atom_site_fract_x
_atom_site_fract_y
_atom_site_fract_z
Si Si1 0.916087 0.258999 0.842453
Si Si2 0.583913 0.258999 0.342452
Si Si3 0.278074 0.388968 0.392613
Si Si4 0.185268 0.218974 0.315707
Si Si5 0.314732 0.781026 0.184293
Si Si6 0.778074 0.388968 0.892613
Si Si7 0.118503 0.887446 0.000000
Si Si8 0.796678 0.111420 0.500000
O O1 0.887253 0.226300 0.744568
O O2 0.856914 0.339196 0.873300
O O3 0.000000 0.293084 0.841929
O O4 0.908998 0.170626 0.912601
O O5 0.500000 0.293084 0.341929
O O6 0.643086 0.339196 0.373299
O O7 0.612747 0.226299 0.244568
O O8 0.591002 0.170626 0.412601
O O9 0.216949 0.323657 0.343881
O O10 0.265398 0.383652 0.500000
O O11 0.276824 0.500000 0.364791
O O12 0.250000 0.177067 0.250000
O O13 0.177130 0.161016 0.407911
O O14 0.250000 0.822933 0.250000
O O15 0.283050 0.676343 0.156119
O O16 0.322870 0.838984 0.092089
O O17 0.207477 0.880265 0.000000
O O18 0.098164 0.000000 0.000000
O O19 0.816632 0.000000 0.500000
#
# Coordination Sequence:
#
# PCOD9416402 Si02
#       8
#     8   8   8   8   8   8   8   8
#     4  11  22  36  54  81 114 145 179 216 265 328
#     4  11  22  36  54  81 114 145 179 216 265 328
#     4  10  19  35  59  82 106 140 179 223 273 320
#     4  10  19  36  55  81 109 140 180 222 266 319
#     4  10  19  36  55  81 109 140 180 222 266 319
#     4  10  19  35  59  82 106 140 179 223 273 320
#     4  11  21  36  57  81 112 143 175 224 279 321
#     4  11  20  35  59  84 106 136 183 235 267 303
#
# _framework density 17.142465999999999
#
# number of rings (size 3 to 8) (size 9 to 14) (size 15 to 20)
#    0.000    1.500    7.500    0.375    0.000    7.500 
#    0.000    1.875    0.000    0.750    0.000    1.750 
#    0.000    0.000    0.000    0.000    0.000    0.000 
#
# Total GULP energy -357138.036565 kJ/mol
# GULP energy per Si atom -5580.281821 kJ/mol
# Density = 1.710345 g / cm^3
# Si number density = 17.142466 Si / 1000 Ang^3
#
#
#
# Elastic Constant Matrix: (Units=GPa)
#
#
# Indices 1 2 3 4 5 6 
#
# 1 62.0884 32.2455 27.7815 0.0000 0.0000 0.0000
# 2 32.2455 125.7396 64.9459 0.0000 0.0000 0.0000
# 3 27.7815 64.9459 138.4616 0.0000 0.0000 0.0000
# 4 0.0000 0.0000 0.0000 -1.7284 0.0000 0.0000
# 5 0.0000 0.0000 0.0000 0.0000 9.7441 0.0000
# 6 0.0000 0.0000 0.0000 0.0000 0.0000 7.5166
#
#
#
# Elastic Compliance Matrix: (Units=1/GPa)
#
#
# Indices 1 2 3 4 5 6 
#
# 1 0.018997 -0.003831 -0.002015 0.000000 0.000000 0.000000
# 2 -0.003831 0.011268 -0.004517 0.000000 0.000000 0.000000
# 3 -0.002015 -0.004517 0.009745 0.000000 0.000000 0.000000
# 4 0.000000 0.000000 0.000000 -0.578578 0.000000 0.000000
# 5 0.000000 0.000000 0.000000 0.000000 0.102626 0.000000
# 6 0.000000 0.000000 0.000000 0.000000 0.000000 0.133038
#
#
# Mechanical properties :
#
#
# Convention : Reuss Voigt Hill
#
# Bulk Modulus (GPa) = 51.85253 64.02616 57.93935
# Shear Modulus (GPa) = -18.13236 16.52760 -0.80238
#
# Velocity S-wave (km/s) = -3.25583 3.10842 -0.68490
# Velocity P-wave (km/s) = 4.02241 7.09320 5.76599
#
# Compressibility (1/GPa) = 0.01928546
#
# Stress axis : x y z
#
# Youngs Moduli (GPa) = 52.63925 88.74370 102.61606
#
# Poissons Ratio (x) = 0.33999 0.20674
# Poissons Ratio (y) = 0.20167 0.46349
# Poissons Ratio (z) = 0.10605 0.40084
#
# Static dielectric constant tensor:
#      x y z
#    x 1.557560 0.000000 0.000000 
#    y 0.000000 1.582700 0.000000 
#    z 0.000000 0.000000 1.607550 
# 
# From -- ./inp_files/23977.got.cif
#   From: 2010.05.17/outbox.cif.g08.bks.cpg/sg53_12_cif.got.tgz:23977.got - 2010.06.03 12:45:16.
