data_PCOD9416840
_publ_section_title
;
Structure prediction by ZEFSAII (Michael W. Deem and Ramdas Pophale) SiO2 
 PCOD9416840
Probable space group: P M N A
;
_chemical_formula_sum "Si O2"
_cell_formula_units_Z 64
_cell_length_a 9.328900
_cell_length_b 25.991203
_cell_length_c 14.271014
_cell_angle_alpha 90.000000
_cell_angle_beta 90.000000
_cell_angle_gamma 90.000000
_cell_volume 3460.283255
_symmetry_space_group_name_H-M "P M N A"
_symmetry_group_IT_number 53
_symmetry_cell_setting 'orthorhombic'
loop_
_space_group_symop_operation_xyz
x,y,z
1/2-x,-y,1/2+z
x,-y,-z
1/2-x,y,1/2-z
-x,-y,-z
1/2+x,y,1/2-z
-x,y,z
1/2+x,-y,1/2+z
loop_
_atom_site_type_symbol
_atom_site_label
_atom_site_fract_x
_atom_site_fract_y
_atom_site_fract_z
Si Si1 0.828229 0.420815 0.954340
Si Si2 0.171301 0.811385 0.845195
Si Si3 0.832839 0.774595 0.467096
Si Si4 0.836808 0.078055 0.078338
Si Si5 0.838164 0.005762 0.661451
Si Si6 0.673153 0.327702 0.851122
Si Si7 0.661495 0.115125 0.915892
Si Si8 0.670722 0.470823 0.349082
O O1 0.736315 0.375350 0.909950
O O2 0.803623 0.472118 0.891835
O O3 0.000000 0.410172 0.950583
O O4 0.791292 0.433551 0.063076
O O5 0.250000 0.794036 0.750000
O O6 0.241468 0.786711 0.939131
O O7 0.191303 0.873513 0.853787
O O8 0.000000 0.801905 0.842817
O O9 0.792711 0.723864 0.410210
O O10 0.825818 0.824369 0.397630
O O11 0.000000 0.769746 0.495732
O O12 0.000000 0.061707 0.087159
O O13 0.734851 0.029194 0.084003
O O14 0.797655 0.102967 0.979500
O O15 0.750000 0.989122 0.750000
O O16 0.835619 0.067457 0.654521
O O17 0.000000 0.989396 0.668861
O O18 0.750000 0.326595 0.750000
O O19 0.500000 0.331370 0.840416
O O20 0.500000 0.110002 0.961324
O O21 0.750000 0.463157 0.250000
O O22 0.500000 0.465902 0.333771
#
# Coordination Sequence:
#
# PCOD9416840 Si02
#       8
#     8   8   8   8   8   8   8   8
#     4   9  19  36  56  82 118 156 194 236 278 324
#     4  10  20  34  55  81 106 135 171 213 265 323
#     4   9  20  39  58  77 104 138 179 224 268 319
#     4  10  20  33  51  75 100 127 161 202 251 311
#     4  11  22  33  47  69  96 127 162 201 251 310
#     4  11  23  38  59  85 111 144 186 231 278 324
#     4   9  19  36  54  70  94 129 165 206 257 309
#     4   9  18  33  55  84 119 158 196 234 279 327
#
# _framework density 18.495595000000002
#
# number of rings (size 3 to 8) (size 9 to 14) (size 15 to 20)
#    0.000    2.250    0.000    3.375    0.000    8.500 
#    0.000    1.875    0.000    1.500    0.000    0.000 
#    0.000    0.000    0.000    0.000    0.000    0.000 
#
# Total GULP energy -356284.072098 kJ/mol
# GULP energy per Si atom -5566.938627 kJ/mol
# Density = 1.845350 g / cm^3
# Si number density = 18.495595 Si / 1000 Ang^3
#
#
#
# Elastic Constant Matrix: (Units=GPa)
#
#
# Indices 1 2 3 4 5 6 
#
# 1 95.0636 69.1635 70.7673 0.0000 0.0000 0.0000
# 2 69.1635 117.9481 62.4741 0.0000 0.0000 0.0000
# 3 70.7673 62.4741 117.7445 0.0000 0.0000 0.0000
# 4 0.0000 0.0000 0.0000 20.2214 0.0000 0.0000
# 5 0.0000 0.0000 0.0000 0.0000 29.1905 0.0000
# 6 0.0000 0.0000 0.0000 0.0000 0.0000 30.3546
#
#
#
# Elastic Compliance Matrix: (Units=1/GPa)
#
#
# Indices 1 2 3 4 5 6 
#
# 1 0.024543 -0.009150 -0.009896 0.000000 0.000000 0.000000
# 2 -0.009150 0.015204 -0.002567 0.000000 0.000000 0.000000
# 3 -0.009896 -0.002567 0.015803 0.000000 0.000000 0.000000
# 4 0.000000 0.000000 0.000000 0.049452 0.000000 0.000000
# 5 0.000000 0.000000 0.000000 0.000000 0.034258 0.000000
# 6 0.000000 0.000000 0.000000 0.000000 0.000000 0.032944
#
#
# Mechanical properties :
#
#
# Convention : Reuss Voigt Hill
#
# Bulk Modulus (GPa) = 81.15202 81.72956 81.44079
# Shear Modulus (GPa) = 22.77491 24.51007 23.64249
#
# Velocity S-wave (km/s) = 3.51289 3.64426 3.57918
# Velocity P-wave (km/s) = 7.77339 7.87350 7.82361
#
# Compressibility (1/GPa) = 0.01232255
#
# Stress axis : x y z
#
# Youngs Moduli (GPa) = 40.74407 65.77283 63.27878
#
# Poissons Ratio (x) = 0.60184 0.62622
# Poissons Ratio (y) = 0.37282 0.16247
# Poissons Ratio (z) = 0.40321 0.16887
#
# Static dielectric constant tensor:
#      x y z
#    x 1.625220 0.000000 0.000000 
#    y 0.000000 1.652150 0.000000 
#    z 0.000000 0.000000 1.686430 
# 
# From -- ./inp_files/20906.got.cif
#   From: 2010.05.17/outbox.cif.g08.bks.cpg/sg53_11_cif.got.tgz:20906.got - 2010.06.03 12:45:16.
