data_PCOD9416680
_publ_section_title
;
Structure prediction by ZEFSAII (Michael W. Deem and Ramdas Pophale) SiO2 
 PCOD9416680
Probable space group: P M N A
;
_chemical_formula_sum "Si O2"
_cell_formula_units_Z 56
_cell_length_a 9.049281
_cell_length_b 20.502079
_cell_length_c 13.630645
_cell_angle_alpha 90.000000
_cell_angle_beta 90.000000
_cell_angle_gamma 90.000000
_cell_volume 2528.880944
_symmetry_space_group_name_H-M "P M N A"
_symmetry_group_IT_number 53
_symmetry_cell_setting 'orthorhombic'
loop_
_space_group_symop_operation_xyz
x,y,z
1/2-x,-y,1/2+z
x,-y,-z
1/2-x,y,1/2-z
-x,-y,-z
1/2+x,y,1/2-z
-x,y,z
1/2+x,-y,1/2+z
loop_
_atom_site_type_symbol
_atom_site_label
_atom_site_fract_x
_atom_site_fract_y
_atom_site_fract_z
Si Si1 0.177358 0.849850 0.071500
Si Si2 0.333022 0.018057 0.885178
Si Si3 0.828161 0.311057 0.346577
Si Si4 0.330874 0.559721 0.624967
Si Si5 0.174345 0.114516 0.153157
Si Si6 0.667203 0.586104 0.391267
Si Si7 0.676931 0.283566 0.928326
O O1 0.212815 0.856437 0.954008
O O2 0.242033 0.781351 0.108390
O O3 0.000000 0.853395 0.082059
O O4 0.257176 0.911480 0.121633
O O5 0.500000 0.016743 0.843458
O O6 0.227062 0.960568 0.849702
O O7 0.347284 0.000000 0.000000
O O8 0.750000 0.283899 0.250000
O O9 0.790482 0.388011 0.344709
O O10 0.780372 0.288840 0.455307
O O11 0.000000 0.298296 0.338662
O O12 0.500000 0.572134 0.660402
O O13 0.288559 0.485256 0.647065
O O14 0.339299 0.571712 0.507900
O O15 0.250000 0.143170 0.250000
O O16 0.000000 0.119224 0.164167
O O17 0.500000 0.600618 0.357756
O O18 0.768836 0.649253 0.378363
O O19 0.500000 0.277802 0.921730
#
# Coordination Sequence:
#
# PCOD9416680 Si02
#       7
#     8   8   8   8   8   8   8
#     4  10  20  33  49  69  96 130 164 198 238 286
#     4   9  17  31  51  72  95 123 156 197 241 283
#     4  10  20  31  43  61  88 122 157 192 230 274
#     4   8  14  26  44  63  83 109 143 183 225 267
#     4  10  20  33  50  73  99 127 161 199 239 283
#     4   8  14  26  44  64  85 110 141 180 225 268
#     4  10  20  31  44  65  92 122 156 192 229 272
#
# _framework density 22.144182000000001
#
# number of rings (size 3 to 8) (size 9 to 14) (size 15 to 20)
#    0.000    2.714    0.000    3.000    0.000    6.286 
#    0.000    5.714    0.000    0.000    0.000    1.000 
#    0.000    4.571    0.000    0.000    0.000    0.000 
#
# Total GULP energy -312461.551029 kJ/mol
# GULP energy per Si atom -5579.670554 kJ/mol
# Density = 2.209378 g / cm^3
# Si number density = 22.144182 Si / 1000 Ang^3
#
#
#
# Elastic Constant Matrix: (Units=GPa)
#
#
# Indices 1 2 3 4 5 6 
#
# 1 40.5346 47.5339 4.1526 0.0000 0.0000 0.0000
# 2 47.5339 158.6963 -14.0401 0.0000 0.0000 0.0000
# 3 4.1526 -14.0401 33.2298 0.0000 0.0000 0.0000
# 4 0.0000 0.0000 0.0000 -12.6211 0.0000 0.0000
# 5 0.0000 0.0000 0.0000 0.0000 19.0780 0.0000
# 6 0.0000 0.0000 0.0000 0.0000 0.0000 20.8769
#
#
#
# Elastic Compliance Matrix: (Units=1/GPa)
#
#
# Indices 1 2 3 4 5 6 
#
# 1 0.041471 -0.013380 -0.010836 0.000000 0.000000 0.000000
# 2 -0.013380 0.010863 0.006262 0.000000 0.000000 0.000000
# 3 -0.010836 0.006262 0.034093 0.000000 0.000000 0.000000
# 4 0.000000 0.000000 0.000000 -0.079232 0.000000 0.000000
# 5 0.000000 0.000000 0.000000 0.000000 0.052416 0.000000
# 6 0.000000 0.000000 0.000000 0.000000 0.000000 0.047900
#
#
# Mechanical properties :
#
#
# Convention : Reuss Voigt Hill
#
# Bulk Modulus (GPa) = 19.79458 34.19485 26.99471
# Shear Modulus (GPa) = 31.19926 18.45438 24.82682
#
# Velocity S-wave (km/s) = 3.75762 2.88995 3.35198
# Velocity P-wave (km/s) = 5.27112 5.15860 5.21516
#
# Compressibility (1/GPa) = 0.05051887
#
# Stress axis : x y z
#
# Youngs Moduli (GPa) = 24.11309 92.05427 29.33127
#
# Poissons Ratio (x) = 1.23173 0.31783
# Poissons Ratio (y) = 0.32264 -0.18367
# Poissons Ratio (z) = 0.26129 -0.57644
#
# Static dielectric constant tensor:
#      x y z
#    x 1.763990 0.000000 0.000000 
#    y 0.000000 1.804520 0.000000 
#    z 0.000000 0.000000 1.919640 
# 
# From -- ./inp_files/26696.got.cif
#   From: 2010.05.17/outbox.cif.g08.bks.cpg/sg53_14_cif.got.tgz:26696.got - 2010.06.03 12:45:16.
