data_PCOD9416959
_publ_section_title
;
Structure prediction by ZEFSAII (Michael W. Deem and Ramdas Pophale) SiO2 
 PCOD9416959
Probable space group: P M N A
;
_chemical_formula_sum "Si O2"
_cell_formula_units_Z 60
_cell_length_a 19.671059
_cell_length_b 14.949459
_cell_length_c 11.357829
_cell_angle_alpha 90.000000
_cell_angle_beta 90.000000
_cell_angle_gamma 90.000000
_cell_volume 3340.015969
_symmetry_space_group_name_H-M "P M N A"
_symmetry_group_IT_number 53
_symmetry_cell_setting 'orthorhombic'
loop_
_space_group_symop_operation_xyz
x,y,z
1/2-x,-y,1/2+z
x,-y,-z
1/2-x,y,1/2-z
-x,-y,-z
1/2+x,y,1/2-z
-x,y,z
1/2+x,-y,1/2+z
loop_
_atom_site_type_symbol
_atom_site_label
_atom_site_fract_x
_atom_site_fract_y
_atom_site_fract_z
Si Si1 0.205980 0.318658 0.983382
Si Si2 0.363880 0.680447 0.091600
Si Si3 0.131525 0.500000 0.000000
Si Si4 0.304880 0.005763 0.639748
Si Si5 0.921089 0.682414 0.661374
Si Si6 0.670005 0.195767 0.717124
Si Si7 0.824959 0.812921 0.804631
Si Si8 0.420312 0.483542 0.759074
O O1 0.285787 0.323555 0.953455
O O2 0.166384 0.278863 0.871502
O O3 0.178632 0.414303 0.020589
O O4 0.188202 0.247115 0.081951
O O5 0.369783 0.771192 0.168395
O O6 0.380487 0.593395 0.170313
O O7 0.411294 0.684214 0.978383
O O8 0.089793 0.519798 0.118436
O O9 0.250000 0.006757 0.750000
O O10 0.345641 0.913953 0.662019
O O11 0.280678 0.000000 0.500000
O O12 0.344230 0.099577 0.659378
O O13 0.876003 0.759547 0.720626
O O14 0.898194 0.583281 0.702129
O O15 0.000000 0.692609 0.694498
O O16 0.750000 0.192276 0.750000
O O17 0.750000 0.819349 0.750000
O O18 0.500000 0.473762 0.787891
#
# Coordination Sequence:
#
# PCOD9416959 Si02
#       8
#     8   8   4   8   8   8   8   8
#     4  11  21  35  57  86 123 151 191 248 306 350
#     4  11  22  38  59  84 119 158 200 250 305 366
#     4  12  23  36  58  88 119 152 200 250 300 356
#     4  10  20  33  60  92 127 159 201 253 312 374
#     4  11  24  41  60  84 120 164 206 250 302 368
#     4   9  19  35  55  86 120 153 192 243 309 363
#     4  11  21  37  62  91 118 154 199 250 305 358
#     4  11  24  40  57  81 117 165 208 243 293 367
#
# _framework density 17.963985999999998
#
# number of rings (size 3 to 8) (size 9 to 14) (size 15 to 20)
#    0.000    1.333    5.333    1.000    1.867    1.067 
#    0.000    0.000    0.000    2.800    0.000    0.000 
#    0.000    0.000    0.000    0.000    0.000    0.000 
#
# Total GULP energy -334231.265675 kJ/mol
# GULP energy per Si atom -5570.521095 kJ/mol
# Density = 1.792310 g / cm^3
# Si number density = 17.963986 Si / 1000 Ang^3
#
#
#
# Elastic Constant Matrix: (Units=GPa)
#
#
# Indices 1 2 3 4 5 6 
#
# 1 32.5526 31.9599 13.1923 0.0000 0.0000 0.0000
# 2 31.9599 135.1348 31.0568 0.0000 0.0000 0.0000
# 3 13.1923 31.0568 99.8056 0.0000 0.0000 0.0000
# 4 0.0000 0.0000 0.0000 32.4408 0.0000 0.0000
# 5 0.0000 0.0000 0.0000 0.0000 16.1203 0.0000
# 6 0.0000 0.0000 0.0000 0.0000 0.0000 1.5457
#
#
#
# Elastic Compliance Matrix: (Units=1/GPa)
#
#
# Indices 1 2 3 4 5 6 
#
# 1 0.040609 -0.009015 -0.002562 0.000000 0.000000 0.000000
# 2 -0.009015 0.009971 -0.001911 0.000000 0.000000 0.000000
# 3 -0.002562 -0.001911 0.010953 0.000000 0.000000 0.000000
# 4 0.000000 0.000000 0.000000 0.030825 0.000000 0.000000
# 5 0.000000 0.000000 0.000000 0.000000 0.062034 0.000000
# 6 0.000000 0.000000 0.000000 0.000000 0.000000 0.646974
#
#
# Mechanical properties :
#
#
# Convention : Reuss Voigt Hill
#
# Bulk Modulus (GPa) = 28.93887 46.65676 37.79782
# Shear Modulus (GPa) = 5.95336 22.77362 14.36349
#
# Velocity S-wave (km/s) = 1.82243 3.56439 2.83074
# Velocity P-wave (km/s) = 4.53571 6.55505 5.63655
#
# Compressibility (1/GPa) = 0.03455560
#
# Stress axis : x y z
#
# Youngs Moduli (GPa) = 24.62505 100.28681 91.30019
#
# Poissons Ratio (x) = 0.90412 0.23395
# Poissons Ratio (y) = 0.22200 0.17449
# Poissons Ratio (z) = 0.06310 0.19167
#
# Static dielectric constant tensor:
#      x y z
#    x 3.727120 0.000000 0.000000 
#    y 0.000000 1.629550 0.000000 
#    z 0.000000 0.000000 1.590010 
# 
# From -- ./inp_files/17048.got.cif
#   From: 2010.05.17/outbox.cif.g08.bks.cpg/sg53_9_cif.got.tgz:17048.got - 2010.06.03 12:45:16.
