data_PCOD9416877
_publ_section_title
;
Structure prediction by ZEFSAII (Michael W. Deem and Ramdas Pophale) SiO2 
 PCOD9416877
Probable space group: P M N A
;
_chemical_formula_sum "Si O2"
_cell_formula_units_Z 48
_cell_length_a 9.090567
_cell_length_b 9.337944
_cell_length_c 32.621008
_cell_angle_alpha 90.000000
_cell_angle_beta 90.000000
_cell_angle_gamma 90.000000
_cell_volume 2769.106212
_symmetry_space_group_name_H-M "P M N A"
_symmetry_group_IT_number 53
_symmetry_cell_setting 'orthorhombic'
loop_
_space_group_symop_operation_xyz
x,y,z
1/2-x,-y,1/2+z
x,-y,-z
1/2-x,y,1/2-z
-x,-y,-z
1/2+x,y,1/2-z
-x,y,z
1/2+x,-y,1/2+z
loop_
_atom_site_type_symbol
_atom_site_label
_atom_site_fract_x
_atom_site_fract_y
_atom_site_fract_z
Si Si1 0.831983 0.655318 0.167497
Si Si2 0.323930 0.920531 0.875019
Si Si3 0.673538 0.565951 0.045035
Si Si4 0.330139 0.172868 0.580768
Si Si5 0.177410 0.387929 0.117589
Si Si6 0.173421 0.906824 0.291486
O O1 0.830767 0.738326 0.123704
O O2 0.787495 0.494345 0.155675
O O3 0.731182 0.748398 0.196982
O O4 0.000000 0.656623 0.182677
O O5 0.500000 0.909493 0.880061
O O6 0.246788 0.767398 0.877195
O O7 0.255665 0.027525 0.908891
O O8 0.293862 0.993060 0.830694
O O9 0.500000 0.576599 0.055094
O O10 0.747743 0.721999 0.049441
O O11 0.753659 0.462794 0.077546
O O12 0.688865 0.500000 0.000000
O O13 0.500000 0.147324 0.569365
O O14 0.000000 0.382922 0.114081
O O15 0.250000 0.956818 0.250000
O O16 0.000000 0.903849 0.285723
#
# Coordination Sequence:
#
# PCOD9416877 Si02
#       6
#     8   8   8   8   8   8
#     4   8  16  31  50  72  97 127 164 203 244 293
#     4  10  20  34  53  77 105 138 173 210 256 309
#     4  10  20  34  53  77 105 136 170 212 259 305
#     4   9  17  31  52  75 100 133 171 209 249 299
#     4  10  20  34  54  78 103 134 170 210 255 303
#     4  10  20  33  52  76 101 132 168 207 251 299
#
# _framework density 17.334114
#
# number of rings (size 3 to 8) (size 9 to 14) (size 15 to 20)
#    0.000    2.500    0.000    3.500    0.000    8.000 
#    0.000    1.667    0.000    7.000    0.000    0.000 
#    0.000    0.000    0.000    0.000    0.000    0.000 
#
# Total GULP energy -267646.753002 kJ/mol
# GULP energy per Si atom -5575.974021 kJ/mol
# Density = 1.729466 g / cm^3
# Si number density = 17.334114 Si / 1000 Ang^3
#
#
#
# Elastic Constant Matrix: (Units=GPa)
#
#
# Indices 1 2 3 4 5 6 
#
# 1 96.0678 59.5594 40.1889 0.0000 0.0000 0.0000
# 2 59.5594 130.6466 21.2694 0.0000 0.0000 0.0000
# 3 40.1889 21.2694 40.7939 0.0000 0.0000 0.0000
# 4 0.0000 0.0000 0.0000 11.4945 0.0000 0.0000
# 5 0.0000 0.0000 0.0000 0.0000 26.2040 0.0000
# 6 0.0000 0.0000 0.0000 0.0000 0.0000 27.7743
#
#
#
# Elastic Compliance Matrix: (Units=1/GPa)
#
#
# Indices 1 2 3 4 5 6 
#
# 1 0.022723 -0.007337 -0.018560 0.000000 0.000000 0.000000
# 2 -0.007337 0.010733 0.001632 0.000000 0.000000 0.000000
# 3 -0.018560 0.001632 0.041947 0.000000 0.000000 0.000000
# 4 0.000000 0.000000 0.000000 0.086998 0.000000 0.000000
# 5 0.000000 0.000000 0.000000 0.000000 0.038162 0.000000
# 6 0.000000 0.000000 0.000000 0.000000 0.000000 0.036005
#
#
# Mechanical properties :
#
#
# Convention : Reuss Voigt Hill
#
# Bulk Modulus (GPa) = 37.21201 56.61597 46.91399
# Shear Modulus (GPa) = 17.00356 22.86059 19.93207
#
# Velocity S-wave (km/s) = 3.13538 3.63550 3.39466
# Velocity P-wave (km/s) = 5.88401 7.09612 6.51830
#
# Compressibility (1/GPa) = 0.02687305
#
# Stress axis : x y z
#
# Youngs Moduli (GPa) = 44.00905 93.16687 23.83938
#
# Poissons Ratio (x) = 0.68359 0.44246
# Poissons Ratio (y) = 0.32290 -0.03891
# Poissons Ratio (z) = 0.81681 -0.15206
#
# Static dielectric constant tensor:
#      x y z
#    x 1.580800 0.000000 0.000000 
#    y 0.000000 1.586050 0.000000 
#    z 0.000000 0.000000 1.583700 
# 
# From -- ./inp_files/37782.got.cif
#   From: 2010.05.17/outbox.cif.g08.bks.cpg/sg53_19_cif.got.tgz:37782.got - 2010.06.03 12:45:16.
