data_PCOD9416979
_publ_section_title
;
Structure prediction by ZEFSAII (Michael W. Deem and Ramdas Pophale) SiO2 
 PCOD9416979
Probable space group: P M N A
;
_chemical_formula_sum "Si O2"
_cell_formula_units_Z 64
_cell_length_a 17.549898
_cell_length_b 21.729541
_cell_length_c 9.547761
_cell_angle_alpha 90.000000
_cell_angle_beta 90.000000
_cell_angle_gamma 90.000000
_cell_volume 3641.050383
_symmetry_space_group_name_H-M "P M N A"
_symmetry_group_IT_number 53
_symmetry_cell_setting 'orthorhombic'
loop_
_space_group_symop_operation_xyz
x,y,z
1/2-x,-y,1/2+z
x,-y,-z
1/2-x,y,1/2-z
-x,-y,-z
1/2+x,y,1/2-z
-x,y,z
1/2+x,-y,1/2+z
loop_
_atom_site_type_symbol
_atom_site_label
_atom_site_fract_x
_atom_site_fract_y
_atom_site_fract_z
Si Si1 0.592276 0.260509 0.240855
Si Si2 0.159077 0.541776 0.731382
Si Si3 0.169451 0.008667 0.170090
Si Si4 0.159093 0.602006 0.243013
Si Si5 0.091023 0.365387 0.476659
Si Si6 0.591214 0.363102 0.450243
Si Si7 0.588147 0.938046 0.095804
Si Si8 0.907273 0.876932 0.681758
O O1 0.500000 0.257870 0.241777
O O2 0.613145 0.304994 0.111734
O O3 0.615662 0.299377 0.376708
O O4 0.618718 0.190726 0.228090
O O5 0.250000 0.547201 0.750000
O O6 0.138731 0.470266 0.740595
O O7 0.132719 0.575408 0.590088
O O8 0.117278 0.581122 0.850641
O O9 0.250000 0.015293 0.250000
O O10 0.122921 0.070061 0.214431
O O11 0.129928 0.952870 0.258419
O O12 0.174346 0.000000 0.000000
O O13 0.250000 0.606683 0.250000
O O14 0.118203 0.638823 0.365817
O O15 0.129877 0.626677 0.096952
O O16 0.000000 0.373341 0.464614
O O17 0.500000 0.363599 0.460985
O O18 0.500000 0.924516 0.127267
O O19 0.617589 0.889399 0.980191
O O20 0.590619 0.000000 0.000000
O O21 0.000000 0.880304 0.681362
#
# Coordination Sequence:
#
# PCOD9416979 Si02
#       8
#     8   8   8   8   8   8   8   8
#     4   8  17  35  56  76  98 130 170 209 250 299
#     4  10  20  34  51  72 100 133 168 209 264 325
#     4  11  21  33  51  77 111 142 169 207 253 297
#     4  11  22  34  49  72 103 135 167 212 269 316
#     4  10  20  34  53  75  98 129 172 216 258 309
#     4  10  20  34  53  76 102 132 170 214 260 311
#     4   8  15  29  51  77 102 131 166 203 246 296
#     4   9  17  34  58  78 101 134 172 210 251 306
#
# _framework density 17.577345999999999
#
# number of rings (size 3 to 8) (size 9 to 14) (size 15 to 20)
#    0.000    2.375    0.000    5.250    0.000    6.000 
#    0.000    5.000    0.000    6.000    0.000    0.000 
#    0.000    0.000    0.000    0.000    0.000    0.000 
#
# Total GULP energy -356703.679425 kJ/mol
# GULP energy per Si atom -5573.494991 kJ/mol
# Density = 1.753734 g / cm^3
# Si number density = 17.577346 Si / 1000 Ang^3
#
#
#
# Elastic Constant Matrix: (Units=GPa)
#
#
# Indices 1 2 3 4 5 6 
#
# 1 39.9144 23.6043 20.5880 0.0000 0.0000 0.0000
# 2 23.6043 94.3143 38.3125 0.0000 0.0000 0.0000
# 3 20.5880 38.3125 124.3527 0.0000 0.0000 0.0000
# 4 0.0000 0.0000 0.0000 -1.2516 0.0000 0.0000
# 5 0.0000 0.0000 0.0000 0.0000 21.4411 0.0000
# 6 0.0000 0.0000 0.0000 0.0000 0.0000 -11.2050
#
#
#
# Elastic Compliance Matrix: (Units=1/GPa)
#
#
# Indices 1 2 3 4 5 6 
#
# 1 0.030400 -0.006360 -0.003074 0.000000 0.000000 0.000000
# 2 -0.006360 0.013450 -0.003091 0.000000 0.000000 0.000000
# 3 -0.003074 -0.003091 0.009503 0.000000 0.000000 0.000000
# 4 0.000000 0.000000 0.000000 -0.798969 0.000000 0.000000
# 5 0.000000 0.000000 0.000000 0.000000 0.046639 0.000000
# 6 0.000000 0.000000 0.000000 0.000000 0.000000 -0.089246
#
#
# Mechanical properties :
#
#
# Convention : Reuss Voigt Hill
#
# Bulk Modulus (GPa) = 35.33041 47.06565 41.19803
# Shear Modulus (GPa) = -6.63359 13.53534 3.45087
#
# Velocity S-wave (km/s) = -1.94477 2.77798 1.40268
# Velocity P-wave (km/s) = 3.88597 6.09295 5.11003
#
# Compressibility (1/GPa) = 0.02830423
#
# Stress axis : x y z
#
# Youngs Moduli (GPa) = 32.89474 74.34871 105.23159
#
# Poissons Ratio (x) = 0.47284 0.32345
# Poissons Ratio (y) = 0.20920 0.32527
# Poissons Ratio (z) = 0.10111 0.22981
#
# Static dielectric constant tensor:
#      x y z
#    x 1.610490 0.000000 0.000000 
#    y 0.000000 1.601660 0.000000 
#    z 0.000000 0.000000 1.533780 
# 
# From -- ./inp_files/10247.got.cif
#   From: 2010.05.17/outbox.cif.g08.bks.cpg/sg53_6_cif.got.tgz:10247.got - 2010.06.03 12:45:16.
