data_PCOD9416036
_publ_section_title
;
Structure prediction by ZEFSAII (Michael W. Deem and Ramdas Pophale) SiO2 
 PCOD9416036
Probable space group: P M N A
;
_chemical_formula_sum "Si O2"
_cell_formula_units_Z 48
_cell_length_a 8.507238
_cell_length_b 32.601630
_cell_length_c 9.444695
_cell_angle_alpha 90.000000
_cell_angle_beta 90.000000
_cell_angle_gamma 90.000000
_cell_volume 2619.484511
_symmetry_space_group_name_H-M "P M N A"
_symmetry_group_IT_number 53
_symmetry_cell_setting 'orthorhombic'
loop_
_space_group_symop_operation_xyz
x,y,z
1/2-x,-y,1/2+z
x,-y,-z
1/2-x,y,1/2-z
-x,-y,-z
1/2+x,y,1/2-z
-x,y,z
1/2+x,-y,1/2+z
loop_
_atom_site_type_symbol
_atom_site_label
_atom_site_fract_x
_atom_site_fract_y
_atom_site_fract_z
Si Si1 0.311290 0.626522 0.410109
Si Si2 0.811445 0.460631 0.589975
Si Si3 0.811514 0.960314 0.409951
Si Si4 0.689413 0.793798 0.588827
Si Si5 0.310815 0.883855 0.588271
Si Si6 0.690195 0.704691 0.589300
O O1 0.250000 0.630081 0.250000
O O2 0.500000 0.625830 0.408330
O O3 0.251230 0.582816 0.467396
O O4 0.256094 0.665703 0.499459
O O5 0.760529 0.500000 0.500000
O O6 0.750000 0.464594 0.750000
O O7 0.000000 0.459142 0.592111
O O8 0.750000 0.962244 0.250000
O O9 0.753314 0.919765 0.490199
O O10 0.000000 0.960227 0.406897
O O11 0.758627 0.000000 0.500000
O O12 0.750000 0.793433 0.750000
O O13 0.500000 0.793901 0.589041
O O14 0.738961 0.838429 0.532534
O O15 0.740047 0.749510 0.528772
O O16 0.250000 0.888387 0.750000
O O17 0.500000 0.885652 0.591334
O O18 0.750000 0.701595 0.750000
O O19 0.500000 0.704039 0.591598
#
# Coordination Sequence:
#
# PCOD9416036 Si02
#       6
#     8   8   8   8   8   8
#     4  10  20  34  52  73 100 134 168 205 250 300
#     4  10  21  36  54  75  99 129 165 205 250 301
#     4  11  24  40  58  80 107 139 175 216 262 312
#     4   8  15  29  49  74 104 136 170 209 252 298
#     4  10  19  33  56  82 109 141 176 216 260 308
#     4   9  18  32  51  76 104 134 171 212 252 296
#
# _framework density 18.324216
#
# number of rings (size 3 to 8) (size 9 to 14) (size 15 to 20)
#    0.000    2.333    0.000    3.500    0.000    6.667 
#    0.000    4.167    0.000    2.000    0.000    0.000 
#    0.000    0.000    0.000    0.000    0.000    0.000 
#
# Total GULP energy -267615.191619 kJ/mol
# GULP energy per Si atom -5575.316492 kJ/mol
# Density = 1.828251 g / cm^3
# Si number density = 18.324216 Si / 1000 Ang^3
#
#
#
# Elastic Constant Matrix: (Units=GPa)
#
#
# Indices 1 2 3 4 5 6 
#
# 1 33.6068 38.4418 18.9303 0.0000 0.0000 0.0000
# 2 38.4418 241.3190 88.8702 0.0000 0.0000 0.0000
# 3 18.9303 88.8702 74.6494 0.0000 0.0000 0.0000
# 4 0.0000 0.0000 0.0000 34.9126 0.0000 0.0000
# 5 0.0000 0.0000 0.0000 0.0000 22.2310 0.0000
# 6 0.0000 0.0000 0.0000 0.0000 0.0000 26.3679
#
#
#
# Elastic Compliance Matrix: (Units=1/GPa)
#
#
# Indices 1 2 3 4 5 6 
#
# 1 0.037120 -0.004357 -0.004227 0.000000 0.000000 0.000000
# 2 -0.004357 0.007890 -0.008289 0.000000 0.000000 0.000000
# 3 -0.004227 -0.008289 0.024336 0.000000 0.000000 0.000000
# 4 0.000000 0.000000 0.000000 0.028643 0.000000 0.000000
# 5 0.000000 0.000000 0.000000 0.000000 0.044982 0.000000
# 6 0.000000 0.000000 0.000000 0.000000 0.000000 0.037925
#
#
# Mechanical properties :
#
#
# Convention : Reuss Voigt Hill
#
# Bulk Modulus (GPa) = 28.08833 71.33999 49.71416
# Shear Modulus (GPa) = 22.07430 30.25781 26.16606
#
# Velocity S-wave (km/s) = 3.47457 4.06796 3.78292
# Velocity P-wave (km/s) = 5.60881 7.81544 6.80220
#
# Compressibility (1/GPa) = 0.03560197
#
# Stress axis : x y z
#
# Youngs Moduli (GPa) = 26.93949 126.73690 41.09220
#
# Poissons Ratio (x) = 0.55215 0.17369
# Poissons Ratio (y) = 0.11737 0.34060
# Poissons Ratio (z) = 0.11387 1.05048
#
# Static dielectric constant tensor:
#      x y z
#    x 1.621610 0.000000 0.000000 
#    y 0.000000 1.685000 0.000000 
#    z 0.000000 0.000000 1.580450 
# 
# From -- ./inp_files/6715.got.cif
#   From: 2010.05.17/outbox.cif.g08.bks.cpg/sg53_4_cif.got.tgz:6715.got - 2010.06.03 12:45:16.
