data_PCOD9416304
_publ_section_title
;
Structure prediction by ZEFSAII (Michael W. Deem and Ramdas Pophale) SiO2 
 PCOD9416304
Probable space group: P M N A
;
_chemical_formula_sum "Si O2"
_cell_formula_units_Z 64
_cell_length_a 15.957165
_cell_length_b 8.397372
_cell_length_c 24.327039
_cell_angle_alpha 90.000000
_cell_angle_beta 90.000000
_cell_angle_gamma 90.000000
_cell_volume 3259.780668
_symmetry_space_group_name_H-M "P M N A"
_symmetry_group_IT_number 53
_symmetry_cell_setting 'orthorhombic'
loop_
_space_group_symop_operation_xyz
x,y,z
1/2-x,-y,1/2+z
x,-y,-z
1/2-x,y,1/2-z
-x,-y,-z
1/2+x,y,1/2-z
-x,y,z
1/2+x,-y,1/2+z
loop_
_atom_site_type_symbol
_atom_site_label
_atom_site_fract_x
_atom_site_fract_y
_atom_site_fract_z
Si Si1 0.594297 0.057312 0.126677
Si Si2 0.907203 0.441561 0.364131
Si Si3 0.744730 0.559723 0.061583
Si Si4 0.348183 0.966916 0.752180
Si Si5 0.754725 0.059593 0.938380
Si Si6 0.593260 0.461934 0.627059
Si Si7 0.151756 0.583942 0.755213
Si Si8 0.091963 0.079702 0.863418
O O1 0.500000 0.009808 0.110498
O O2 0.596797 0.249612 0.130124
O O3 0.614673 0.994679 0.188092
O O4 0.667321 0.002406 0.086264
O O5 0.832849 0.512517 0.399985
O O6 0.893046 0.477275 0.299755
O O7 0.000000 0.494783 0.381316
O O8 0.751722 0.749762 0.061180
O O9 0.830569 0.489373 0.087390
O O10 0.732031 0.500000 0.000000
O O11 0.250000 0.010236 0.750000
O O12 0.354670 0.775916 0.744645
O O13 0.393377 0.046064 0.700748
O O14 0.831299 0.009219 0.898494
O O15 0.767783 0.000000 0.000000
O O16 0.500000 0.516951 0.610793
O O17 0.614003 0.519553 0.688507
O O18 0.592622 0.269748 0.628007
O O19 0.250000 0.542503 0.750000
O O20 0.000000 0.018397 0.879818
#
# Coordination Sequence:
#
# PCOD9416304 Si02
#       8
#     8   8   8   8   8   8   8   8
#     4  10  21  38  60  87 119 153 190 233 282 339
#     4  10  21  38  60  87 119 153 190 233 282 339
#     4  11  24  41  61  83 112 150 195 242 289 339
#     4  10  19  34  60  90 120 152 188 231 282 340
#     4  11  24  41  61  83 112 150 195 242 289 339
#     4  10  22  39  59  86 119 153 190 234 285 342
#     4  10  19  34  60  90 120 152 188 231 282 340
#     4  10  22  39  59  86 119 153 190 234 285 342
#
# _framework density 19.633223999999998
#
# number of rings (size 3 to 8) (size 9 to 14) (size 15 to 20)
#    0.000    1.750    2.500    1.500    0.000    5.500 
#    0.000    0.000    0.000    0.000    0.000    0.000 
#    0.000    0.000    0.000    0.000    0.000    0.000 
#
# Total GULP energy -357580.436861 kJ/mol
# GULP energy per Si atom -5587.194326 kJ/mol
# Density = 1.958854 g / cm^3
# Si number density = 19.633224 Si / 1000 Ang^3
#
#
#
# Elastic Constant Matrix: (Units=GPa)
#
#
# Indices 1 2 3 4 5 6 
#
# 1 69.6591 3.0715 -35.9262 0.0000 0.0000 0.0000
# 2 3.0715 6.0313 -8.3278 0.0000 0.0000 0.0000
# 3 -35.9262 -8.3278 24.8187 0.0000 0.0000 0.0000
# 4 0.0000 0.0000 0.0000 30.4557 0.0000 0.0000
# 5 0.0000 0.0000 0.0000 0.0000 -0.8307 0.0000
# 6 0.0000 0.0000 0.0000 0.0000 0.0000 26.2187
#
#
#
# Elastic Compliance Matrix: (Units=1/GPa)
#
#
# Indices 1 2 3 4 5 6 
#
# 1 -0.137419 -0.381374 -0.326890 0.000000 0.000000 0.000000
# 2 -0.381374 -0.749480 -0.803543 0.000000 0.000000 0.000000
# 3 -0.326890 -0.803543 -0.702522 0.000000 0.000000 0.000000
# 4 0.000000 0.000000 0.000000 0.032835 0.000000 0.000000
# 5 0.000000 0.000000 0.000000 0.000000 -1.203795 0.000000
# 6 0.000000 0.000000 0.000000 0.000000 0.000000 0.038141
#
#
# Mechanical properties :
#
#
# Convention : Reuss Voigt Hill
#
# Bulk Modulus (GPa) = -0.21678 2.01601 0.89962
# Shear Modulus (GPa) = -4.04431 20.61485 8.28527
#
# Velocity S-wave (km/s) = -1.43680 3.24388 2.05650
# Velocity P-wave (km/s) = 1.69210 3.88065 2.46944
#
# Compressibility (1/GPa) = -4.61303604
#
# Stress axis : x y z
#
# Youngs Moduli (GPa) = -7.27699 -1.33426 -1.42344
#
# Poissons Ratio (x) = -0.50885 -0.46531
# Poissons Ratio (y) = -2.77526 -1.14380
# Poissons Ratio (z) = -2.37878 -1.07213
#
# Static dielectric constant tensor:
#      x y z
#    x 1.705670 0.000000 0.000000 
#    y 0.000000 1.683980 0.000000 
#    z 0.000000 0.000000 1.641160 
# 
# From -- ./inp_files/34255.got.cif
#   From: 2010.05.17/outbox.cif.g08.bks.cpg/sg53_18_cif.got.tgz:34255.got - 2010.06.03 12:45:16.
