data_PCOD9416770
_publ_section_title
;
Structure prediction by ZEFSAII (Michael W. Deem and Ramdas Pophale) SiO2 
 PCOD9416770
Probable space group: P M N A
;
_chemical_formula_sum "Si O2"
_cell_formula_units_Z 48
_cell_length_a 8.336602
_cell_length_b 18.340844
_cell_length_c 13.675929
_cell_angle_alpha 90.000000
_cell_angle_beta 90.000000
_cell_angle_gamma 90.000000
_cell_volume 2091.053876
_symmetry_space_group_name_H-M "P M N A"
_symmetry_group_IT_number 53
_symmetry_cell_setting 'orthorhombic'
loop_
_space_group_symop_operation_xyz
x,y,z
1/2-x,-y,1/2+z
x,-y,-z
1/2-x,y,1/2-z
-x,-y,-z
1/2+x,y,1/2-z
-x,y,z
1/2+x,-y,1/2+z
loop_
_atom_site_type_symbol
_atom_site_label
_atom_site_fract_x
_atom_site_fract_y
_atom_site_fract_z
Si Si1 0.183450 0.985800 0.383880
Si Si2 0.683640 0.861062 0.646302
Si Si3 0.690379 0.170027 0.929993
Si Si4 0.806612 0.674946 0.068543
Si Si5 0.305805 0.636466 0.649818
Si Si6 0.818001 0.480158 0.885073
O O1 0.249200 0.903613 0.376070
O O2 0.000000 0.992177 0.345324
O O3 0.170243 0.000000 0.500000
O O4 0.295162 0.051166 0.349633
O O5 0.750000 0.834396 0.750000
O O6 0.500000 0.839163 0.636874
O O7 0.768292 0.837050 0.545747
O O8 0.500000 0.168497 0.920975
O O9 0.754917 0.246946 0.892190
O O10 0.756296 0.670308 0.953918
O O11 0.000000 0.670289 0.070062
O O12 0.745521 0.600725 0.120467
O O13 0.250000 0.672532 0.750000
O O14 0.500000 0.633443 0.648358
O O15 0.236561 0.553649 0.651875
O O16 0.000000 0.476183 0.844889
O O17 0.832773 0.500000 0.000000
#
# Coordination Sequence:
#
# PCOD9416770 Si02
#       6
#     8   8   8   8   8   8
#     4   8  16  32  50  68  93 124 157 194 233 273
#     4  11  21  33  51  73  97 125 158 194 233 279
#     4  10  20  33  49  71 100 128 155 192 236 280
#     4   9  17  30  48  68  91 122 160 195 228 273
#     4   9  17  29  46  68  93 121 152 191 236 280
#     4   7  12  26  46  64  84 116 158 195 225 265
#
# _framework density 22.954931999999999
#
# number of rings (size 3 to 8) (size 9 to 14) (size 15 to 20)
#    0.000    3.000    0.000    5.000    0.000    5.000 
#    0.000    2.500    0.000    4.000    0.000    4.667 
#    0.000    0.000    0.000    0.000    0.000    0.000 
#
# Total GULP energy -267600.738039 kJ/mol
# GULP energy per Si atom -5575.015376 kJ/mol
# Density = 2.290269 g / cm^3
# Si number density = 22.954932 Si / 1000 Ang^3
#
#
#
# Elastic Constant Matrix: (Units=GPa)
#
#
# Indices 1 2 3 4 5 6 
#
# 1 17.9670 6.7258 -4.0662 0.0000 0.0000 0.0000
# 2 6.7258 188.9960 -8.7183 0.0000 0.0000 0.0000
# 3 -4.0662 -8.7183 38.0560 0.0000 0.0000 0.0000
# 4 0.0000 0.0000 0.0000 -8.4623 0.0000 0.0000
# 5 0.0000 0.0000 0.0000 0.0000 2.2080 0.0000
# 6 0.0000 0.0000 0.0000 0.0000 0.0000 41.4283
#
#
#
# Elastic Compliance Matrix: (Units=1/GPa)
#
#
# Indices 1 2 3 4 5 6 
#
# 1 0.057627 -0.001786 0.005748 0.000000 0.000000 0.000000
# 2 -0.001786 0.005403 0.001047 0.000000 0.000000 0.000000
# 3 0.005748 0.001047 0.027131 0.000000 0.000000 0.000000
# 4 0.000000 0.000000 0.000000 -0.118171 0.000000 0.000000
# 5 0.000000 0.000000 0.000000 0.000000 0.452903 0.000000
# 6 0.000000 0.000000 0.000000 0.000000 0.000000 0.024138
#
#
# Mechanical properties :
#
#
# Convention : Reuss Voigt Hill
#
# Bulk Modulus (GPa) = 9.98197 25.87794 17.92995
# Shear Modulus (GPa) = 10.58413 23.77331 17.17872
#
# Velocity S-wave (km/s) = 2.14961 3.22164 2.73860
# Velocity P-wave (km/s) = 3.24331 5.01363 4.22230
#
# Compressibility (1/GPa) = 0.10018061
#
# Stress axis : x y z
#
# Youngs Moduli (GPa) = 17.35295 185.08382 36.85801
#
# Poissons Ratio (x) = 0.33049 -0.21187
# Poissons Ratio (y) = 0.03099 -0.03859
# Poissons Ratio (z) = -0.09975 -0.19378
#
# Static dielectric constant tensor:
#      x y z
#    x 1.802470 0.000000 0.000000 
#    y 0.000000 1.941410 0.000000 
#    z 0.000000 0.000000 1.915500 
# 
# From -- ./inp_files/26425.got.cif
#   From: 2010.05.17/outbox.cif.g08.bks.cpg/sg53_14_cif.got.tgz:26425.got - 2010.06.03 12:45:16.
