data_PCOD9416254
_publ_section_title
;
Structure prediction by ZEFSAII (Michael W. Deem and Ramdas Pophale) SiO2 
 PCOD9416254
Probable space group: P M N A
;
_chemical_formula_sum "Si O2"
_cell_formula_units_Z 64
_cell_length_a 8.612996
_cell_length_b 15.315553
_cell_length_c 24.331049
_cell_angle_alpha 90.000000
_cell_angle_beta 90.000000
_cell_angle_gamma 90.000000
_cell_volume 3209.576721
_symmetry_space_group_name_H-M "P M N A"
_symmetry_group_IT_number 53
_symmetry_cell_setting 'orthorhombic'
loop_
_space_group_symop_operation_xyz
x,y,z
1/2-x,-y,1/2+z
x,-y,-z
1/2-x,y,1/2-z
-x,-y,-z
1/2+x,y,1/2-z
-x,y,z
1/2+x,-y,1/2+z
loop_
_atom_site_type_symbol
_atom_site_label
_atom_site_fract_x
_atom_site_fract_y
_atom_site_fract_z
Si Si1 0.311301 0.849406 0.106477
Si Si2 0.811403 0.219552 0.490607
Si Si3 0.819529 0.462764 0.853778
Si Si4 0.815216 0.705874 0.305926
Si Si5 0.689616 0.182997 0.132116
Si Si6 0.188189 0.002772 0.311399
Si Si7 0.685197 0.362169 0.188877
Si Si8 0.319308 0.590130 0.033553
O O1 0.500000 0.853474 0.104225
O O2 0.269587 0.764153 0.141926
O O3 0.260779 0.931852 0.142906
O O4 0.257272 0.835202 0.043901
O O5 0.757612 0.185620 0.431386
O O6 0.775586 0.322331 0.500368
O O7 0.000000 0.214433 0.489893
O O8 0.751177 0.390645 0.812965
O O9 0.735628 0.554870 0.846663
O O10 0.786454 0.424250 0.913794
O O11 0.000000 0.474651 0.843329
O O12 0.750000 0.746153 0.250000
O O13 0.000000 0.702963 0.303332
O O14 0.500000 0.182776 0.131298
O O15 0.737114 0.097801 0.166116
O O16 0.740390 0.271794 0.161871
O O17 0.250000 0.986559 0.250000
O O18 0.000000 0.999807 0.309044
O O19 0.750000 0.372130 0.250000
O O20 0.500000 0.359745 0.191227
O O21 0.500000 0.602685 0.051696
O O22 0.313238 0.500000 0.000000
#
# Coordination Sequence:
#
# PCOD9416254 Si02
#       8
#     8   8   8   8   8   8   8   8
#     4   9  18  32  55  84 117 148 185 232 281 336
#     4   9  16  31  54  84 116 147 185 232 283 336
#     4  12  24  37  54  81 114 149 189 239 290 340
#     4  11  21  36  55  80 112 150 190 232 280 341
#     4   9  19  34  57  86 115 145 187 236 287 342
#     4  10  20  36  58  88 117 148 188 235 285 339
#     4  11  22  38  57  81 112 150 193 240 290 349
#     4  10  19  34  58  82 111 154 197 236 282 340
#
# _framework density 19.940324
#
# number of rings (size 3 to 8) (size 9 to 14) (size 15 to 20)
#    0.000    1.875    1.250    3.750    0.000    2.750 
#    0.000    3.750    0.000    0.750    0.000    0.875 
#    0.000    0.000    0.000    0.000    0.000    0.000 
#
# Total GULP energy -357385.113307 kJ/mol
# GULP energy per Si atom -5584.142395 kJ/mol
# Density = 1.989494 g / cm^3
# Si number density = 19.940324 Si / 1000 Ang^3
#
#
#
# Elastic Constant Matrix: (Units=GPa)
#
#
# Indices 1 2 3 4 5 6 
#
# 1 26.5161 10.4163 8.7335 0.0000 0.0000 0.0000
# 2 10.4163 104.0652 13.5217 0.0000 0.0000 0.0000
# 3 8.7335 13.5217 64.0270 0.0000 0.0000 0.0000
# 4 0.0000 0.0000 0.0000 33.9009 0.0000 0.0000
# 5 0.0000 0.0000 0.0000 0.0000 25.1107 0.0000
# 6 0.0000 0.0000 0.0000 0.0000 0.0000 7.7357
#
#
#
# Elastic Compliance Matrix: (Units=1/GPa)
#
#
# Indices 1 2 3 4 5 6 
#
# 1 0.040652 -0.003443 -0.004818 0.000000 0.000000 0.000000
# 2 -0.003443 0.010172 -0.001679 0.000000 0.000000 0.000000
# 3 -0.004818 -0.001679 0.016630 0.000000 0.000000 0.000000
# 4 0.000000 0.000000 0.000000 0.029498 0.000000 0.000000
# 5 0.000000 0.000000 0.000000 0.000000 0.039824 0.000000
# 6 0.000000 0.000000 0.000000 0.000000 0.000000 0.129271
#
#
# Mechanical properties :
#
#
# Convention : Reuss Voigt Hill
#
# Bulk Modulus (GPa) = 21.01930 28.88348 24.95139
# Shear Modulus (GPa) = 16.56814 24.14525 20.35670
#
# Velocity S-wave (km/s) = 2.88564 3.48354 3.19859
# Velocity P-wave (km/s) = 4.65473 5.54044 5.11679
#
# Compressibility (1/GPa) = 0.04757531
#
# Stress axis : x y z
#
# Youngs Moduli (GPa) = 24.59885 98.30820 60.13194
#
# Poissons Ratio (x) = 0.33848 0.28971
# Poissons Ratio (y) = 0.08469 0.10094
# Poissons Ratio (z) = 0.11852 0.16502
#
# Static dielectric constant tensor:
#      x y z
#    x 1.682520 0.000000 0.000000 
#    y 0.000000 1.701710 0.000000 
#    z 0.000000 0.000000 1.729990 
# 
# From -- ./inp_files/34214.got.cif
#   From: 2010.05.17/outbox.cif.g08.bks.cpg/sg53_18_cif.got.tgz:34214.got - 2010.06.03 12:45:16.
