data_PCOD9416005
_publ_section_title
;
Structure prediction by ZEFSAII (Michael W. Deem and Ramdas Pophale) SiO2 
 PCOD9416005
Probable space group: P M N A
;
_chemical_formula_sum "Si O2"
_cell_formula_units_Z 48
_cell_length_a 8.200929
_cell_length_b 32.602516
_cell_length_c 9.285736
_cell_angle_alpha 90.000000
_cell_angle_beta 90.000000
_cell_angle_gamma 90.000000
_cell_volume 2482.735767
_symmetry_space_group_name_H-M "P M N A"
_symmetry_group_IT_number 53
_symmetry_cell_setting 'orthorhombic'
loop_
_space_group_symop_operation_xyz
x,y,z
1/2-x,-y,1/2+z
x,-y,-z
1/2-x,y,1/2-z
-x,-y,-z
1/2+x,y,1/2-z
-x,y,z
1/2+x,-y,1/2+z
loop_
_atom_site_type_symbol
_atom_site_label
_atom_site_fract_x
_atom_site_fract_y
_atom_site_fract_z
Si Si1 0.697162 0.121385 0.914879
Si Si2 0.802644 0.798285 0.583462
Si Si3 0.302969 0.959515 0.915267
Si Si4 0.196630 0.708955 0.583113
Si Si5 0.305589 0.539661 0.414186
Si Si6 0.695338 0.380305 0.083783
O O1 0.750000 0.118839 0.750000
O O2 0.500000 0.121587 0.919444
O O3 0.755831 0.163342 0.990015
O O4 0.754090 0.081692 0.004320
O O5 0.750000 0.802674 0.750000
O O6 0.746819 0.753366 0.526731
O O7 0.000000 0.798473 0.581309
O O8 0.250000 0.960184 0.750000
O O9 0.500000 0.959534 0.919014
O O10 0.245647 0.000000 0.000000
O O11 0.250000 0.709005 0.750000
O O12 0.253394 0.664558 0.526792
O O13 0.000000 0.708942 0.575550
O O14 0.239713 0.500000 0.500000
O O15 0.250000 0.538822 0.250000
O O16 0.500000 0.537493 0.416473
O O17 0.255249 0.581583 0.491710
O O18 0.750000 0.384570 0.250000
O O19 0.500000 0.380318 0.081914
#
# Coordination Sequence:
#
# PCOD9416005 Si02
#       6
#     8   8   8   8   8   8
#     4  10  21  35  51  73 102 136 173 213 256 305
#     4   9  17  31  51  75 102 132 171 214 255 302
#     4  10  21  36  54  78 105 133 169 211 255 305
#     4   8  15  28  48  74 103 134 168 209 253 299
#     4  11  24  40  58  80 106 137 173 213 258 308
#     4  10  19  33  55  81 109 140 174 213 258 307
#
# _framework density 19.33351
#
# number of rings (size 3 to 8) (size 9 to 14) (size 15 to 20)
#    0.000    2.333    0.000    2.500    0.000    5.000 
#    0.000    0.833    0.000    2.000    0.000    0.000 
#    0.000    0.000    0.000    0.000    0.000    0.000 
#
# Total GULP energy -267749.952666 kJ/mol
# GULP energy per Si atom -5578.124014 kJ/mol
# Density = 1.928951 g / cm^3
# Si number density = 19.333510 Si / 1000 Ang^3
#
#
#
# Elastic Constant Matrix: (Units=GPa)
#
#
# Indices 1 2 3 4 5 6 
#
# 1 17.0110 24.7975 9.8628 0.0000 0.0000 0.0000
# 2 24.7975 253.3393 115.5718 0.0000 0.0000 0.0000
# 3 9.8628 115.5718 131.5174 0.0000 0.0000 0.0000
# 4 0.0000 0.0000 0.0000 32.8042 0.0000 0.0000
# 5 0.0000 0.0000 0.0000 0.0000 30.7728 0.0000
# 6 0.0000 0.0000 0.0000 0.0000 0.0000 18.0409
#
#
#
# Elastic Compliance Matrix: (Units=1/GPa)
#
#
# Indices 1 2 3 4 5 6 
#
# 1 0.068695 -0.007301 0.001264 0.000000 0.000000 0.000000
# 2 -0.007301 0.007364 -0.005924 0.000000 0.000000 0.000000
# 3 0.001264 -0.005924 0.012715 0.000000 0.000000 0.000000
# 4 0.000000 0.000000 0.000000 0.030484 0.000000 0.000000
# 5 0.000000 0.000000 0.000000 0.000000 0.032496 0.000000
# 6 0.000000 0.000000 0.000000 0.000000 0.000000 0.055430
#
#
# Mechanical properties :
#
#
# Convention : Reuss Voigt Hill
#
# Bulk Modulus (GPa) = 15.41966 78.03687 46.72826
# Shear Modulus (GPa) = 19.78455 33.09929 26.44192
#
# Velocity S-wave (km/s) = 3.20242 4.14214 3.70222
# Velocity P-wave (km/s) = 4.65478 7.95786 6.51899
#
# Compressibility (1/GPa) = 0.06485228
#
# Stress axis : x y z
#
# Youngs Moduli (GPa) = 14.55714 135.78903 78.65018
#
# Poissons Ratio (x) = 0.99134 -0.09940
# Poissons Ratio (y) = 0.10628 0.46592
# Poissons Ratio (z) = -0.01840 0.80441
#
# Static dielectric constant tensor:
#      x y z
#    x 1.671330 0.000000 0.000000 
#    y 0.000000 1.732250 0.000000 
#    z 0.000000 0.000000 1.608840 
# 
# From -- ./inp_files/6618.got.cif
#   From: 2010.05.17/outbox.cif.g08.bks.cpg/sg53_4_cif.got.tgz:6618.got - 2010.06.03 12:45:16.
