data_PCOD9416948
_publ_section_title
;
Structure prediction by ZEFSAII (Michael W. Deem and Ramdas Pophale) SiO2 
 PCOD9416948
Probable space group: P M N A
;
_chemical_formula_sum "Si O2"
_cell_formula_units_Z 32
_cell_length_a 10.976258
_cell_length_b 8.449932
_cell_length_c 14.325090
_cell_angle_alpha 90.000000
_cell_angle_beta 90.000000
_cell_angle_gamma 90.000000
_cell_volume 1328.632525
_symmetry_space_group_name_H-M "P M N A"
_symmetry_group_IT_number 53
_symmetry_cell_setting 'orthorhombic'
loop_
_space_group_symop_operation_xyz
x,y,z
1/2-x,-y,1/2+z
x,-y,-z
1/2-x,y,1/2-z
-x,-y,-z
1/2+x,y,1/2-z
-x,y,z
1/2+x,-y,1/2+z
loop_
_atom_site_type_symbol
_atom_site_label
_atom_site_fract_x
_atom_site_fract_y
_atom_site_fract_z
Si Si1 0.868590 0.899429 0.788845
Si Si2 0.632310 0.398466 0.146369
Si Si3 0.364648 0.589505 0.399503
Si Si4 0.251935 0.829240 0.516645
O O1 0.750000 0.988945 0.750000
O O2 0.871366 0.739532 0.725057
O O3 0.843349 0.849101 0.895181
O O4 0.000000 0.977081 0.778961
O O5 0.500000 0.477027 0.144682
O O6 0.749966 0.510708 0.151367
O O7 0.655019 0.299581 0.050660
O O8 0.371681 0.500000 0.500000
O O9 0.500000 0.577324 0.357235
O O10 0.327108 0.766320 0.428644
O O11 0.195833 0.000000 0.500000
#
# Coordination Sequence:
#
# PCOD9416948 Si02
#       4
#     8   8   8   8
#     4   9  18  33  54  79 106 142 186 226 273 332
#     4   9  19  36  57  79 109 152 195 233 275 333
#     4   9  18  32  53  82 111 143 189 237 277 326
#     4  10  20  33  56  90 121 148 185 237 290 339
#
# _framework density 24.084914999999999
#
# number of rings (size 3 to 8) (size 9 to 14) (size 15 to 20)
#    0.000    2.750    0.000    0.750    0.000   13.000 
#    0.000    0.000    0.000   31.500    0.000   28.000 
#    0.000    0.000    0.000    0.000    0.000    0.000 
#
# Total GULP energy -178592.620950 kJ/mol
# GULP energy per Si atom -5581.019405 kJ/mol
# Density = 2.403010 g / cm^3
# Si number density = 24.084915 Si / 1000 Ang^3
#
#
#
# Elastic Constant Matrix: (Units=GPa)
#
#
# Indices 1 2 3 4 5 6 
#
# 1 211.3804 19.6412 46.3796 0.0000 0.0000 0.0000
# 2 19.6412 63.7480 16.9395 0.0000 0.0000 0.0000
# 3 46.3796 16.9395 71.4192 0.0000 0.0000 0.0000
# 4 0.0000 0.0000 0.0000 20.0358 0.0000 0.0000
# 5 0.0000 0.0000 0.0000 0.0000 -6.0977 0.0000
# 6 0.0000 0.0000 0.0000 0.0000 0.0000 5.0749
#
#
#
# Elastic Compliance Matrix: (Units=1/GPa)
#
#
# Indices 1 2 3 4 5 6 
#
# 1 0.005555 -0.000804 -0.003417 0.000000 0.000000 0.000000
# 2 -0.000804 0.016858 -0.003477 0.000000 0.000000 0.000000
# 3 -0.003417 -0.003477 0.017045 0.000000 0.000000 0.000000
# 4 0.000000 0.000000 0.000000 0.049911 0.000000 0.000000
# 5 0.000000 0.000000 0.000000 0.000000 -0.163996 0.000000
# 6 0.000000 0.000000 0.000000 0.000000 0.000000 0.197049
#
#
# Mechanical properties :
#
#
# Convention : Reuss Voigt Hill
#
# Bulk Modulus (GPa) = 41.55514 56.94092 49.24803
# Shear Modulus (GPa) = 34.28438 21.37507 27.82972
#
# Velocity S-wave (km/s) = 3.77700 2.98231 3.40293
# Velocity P-wave (km/s) = 6.02594 5.96254 5.99433
#
# Compressibility (1/GPa) = 0.02406441
#
# Stress axis : x y z
#
# Youngs Moduli (GPa) = 180.01145 59.31832 58.66680
#
# Poissons Ratio (x) = 0.04767 0.20046
# Poissons Ratio (y) = 0.14466 0.20396
# Poissons Ratio (z) = 0.61509 0.20623
#
# Static dielectric constant tensor:
#      x y z
#    x 1.976280 0.000000 0.000000 
#    y 0.000000 1.949190 0.000000 
#    z 0.000000 0.000000 1.975840 
# 
# From -- ./inp_files/21450.got.cif
#   From: 2010.05.17/outbox.cif.g08.bks.cpg/sg53_11_cif.got.tgz:21450.got - 2010.06.03 12:45:16.
