data_PCOD9416899
_publ_section_title
;
Structure prediction by ZEFSAII (Michael W. Deem and Ramdas Pophale) SiO2 
 PCOD9416899
Probable space group: P M N A
;
_chemical_formula_sum "Si O2"
_cell_formula_units_Z 48
_cell_length_a 14.685966
_cell_length_b 13.615692
_cell_length_c 12.304307
_cell_angle_alpha 90.000000
_cell_angle_beta 90.000000
_cell_angle_gamma 90.000000
_cell_volume 2460.364180
_symmetry_space_group_name_H-M "P M N A"
_symmetry_group_IT_number 53
_symmetry_cell_setting 'orthorhombic'
loop_
_space_group_symop_operation_xyz
x,y,z
1/2-x,-y,1/2+z
x,-y,-z
1/2-x,y,1/2-z
-x,-y,-z
1/2+x,y,1/2-z
-x,y,z
1/2+x,-y,1/2+z
loop_
_atom_site_type_symbol
_atom_site_label
_atom_site_fract_x
_atom_site_fract_y
_atom_site_fract_z
Si Si1 0.143742 0.073359 0.724417
Si Si2 0.703707 0.805803 0.018777
Si Si3 0.390877 0.350945 0.289731
Si Si4 0.402255 0.886613 0.458968
Si Si5 0.716444 0.401625 0.069706
Si Si6 0.399743 0.147817 0.192890
O O1 0.250000 0.057860 0.750000
O O2 0.148940 0.138928 0.615395
O O3 0.097557 0.121650 0.828195
O O4 0.101507 0.965200 0.723898
O O5 0.809903 0.831263 0.017003
O O6 0.694513 0.689064 0.010816
O O7 0.668275 0.845883 0.905543
O O8 0.500000 0.370722 0.304635
O O9 0.318758 0.389102 0.379500
O O10 0.352417 0.391876 0.173397
O O11 0.378219 0.232152 0.279893
O O12 0.500000 0.851103 0.502701
O O13 0.392847 0.000000 0.500000
O O14 0.708597 0.500000 0.000000
O O15 0.500000 0.174731 0.151703
#
# Coordination Sequence:
#
# PCOD9416899 Si02
#       6
#     8   8   8   8   8   8
#     4  10  20  33  52  81 119 159 189 235 289 351
#     4  10  21  37  56  82 117 150 195 246 295 350
#     4   9  21  40  63  94 120 151 201 253 307 371
#     4  10  21  35  52  80 117 159 197 230 287 360
#     4  10  22  41  65  88 118 159 205 257 314 361
#     4  10  20  34  58  86 116 152 193 238 288 355
#
# _framework density 19.509307
#
# number of rings (size 3 to 8) (size 9 to 14) (size 15 to 20)
#    0.000    2.167    0.000    3.000    7.000    3.333 
#    9.000    0.000    0.000    0.000    0.000    0.000 
#    0.000    0.000    0.000    0.000    0.000    0.000 
#
# Total GULP energy -267476.018483 kJ/mol
# GULP energy per Si atom -5572.417052 kJ/mol
# Density = 1.946490 g / cm^3
# Si number density = 19.509307 Si / 1000 Ang^3
#
#
#
# Elastic Constant Matrix: (Units=GPa)
#
#
# Indices 1 2 3 4 5 6 
#
# 1 74.1997 -3.3973 20.3052 0.0000 0.0000 0.0000
# 2 -3.3973 71.3092 29.6957 0.0000 0.0000 0.0000
# 3 20.3052 29.6957 60.7917 0.0000 0.0000 0.0000
# 4 0.0000 0.0000 0.0000 25.6621 0.0000 0.0000
# 5 0.0000 0.0000 0.0000 0.0000 985.0545 0.0000
# 6 0.0000 0.0000 0.0000 0.0000 0.0000 81.8081
#
#
#
# Elastic Compliance Matrix: (Units=1/GPa)
#
#
# Indices 1 2 3 4 5 6 
#
# 1 0.015553 0.003646 -0.006976 0.000000 0.000000 0.000000
# 2 0.003646 0.018459 -0.010235 0.000000 0.000000 0.000000
# 3 -0.006976 -0.010235 0.023779 0.000000 0.000000 0.000000
# 4 0.000000 0.000000 0.000000 0.038968 0.000000 0.000000
# 5 0.000000 0.000000 0.000000 0.000000 0.001015 0.000000
# 6 0.000000 0.000000 0.000000 0.000000 0.000000 0.012224
#
#
# Mechanical properties :
#
#
# Convention : Reuss Voigt Hill
#
# Bulk Modulus (GPa) = 32.61361 33.27862 32.94611
# Shear Modulus (GPa) = 33.93310 229.15141 131.54226
#
# Velocity S-wave (km/s) = 4.17505 10.84954 8.22020
# Velocity P-wave (km/s) = 6.32413 13.19260 10.34503
#
# Compressibility (1/GPa) = 0.03066204
#
# Stress axis : x y z
#
# Youngs Moduli (GPa) = 64.29594 54.17321 42.05352
#
# Poissons Ratio (x) = -0.19752 0.29336
# Poissons Ratio (y) = -0.23442 0.43041
# Poissons Ratio (z) = 0.44852 0.55446
#
# Static dielectric constant tensor:
#      x y z
#    x 1.755160 0.000000 0.000000 
#    y 0.000000 1.727120 0.000000 
#    z 0.000000 0.000000 1.710550 
# 
# From -- ./inp_files/15962.got.cif
#   From: 2010.05.17/outbox.cif.g08.bks.cpg/sg53_8_cif.got.tgz:15962.got - 2010.06.03 12:45:16.
