data_PCOD9416459
_publ_section_title
;
Structure prediction by ZEFSAII (Michael W. Deem and Ramdas Pophale) SiO2 
 PCOD9416459
Probable space group: P M N A
;
_chemical_formula_sum "Si O2"
_cell_formula_units_Z 40
_cell_length_a 14.679709
_cell_length_b 15.032591
_cell_length_c 9.091232
_cell_angle_alpha 90.000000
_cell_angle_beta 90.000000
_cell_angle_gamma 90.000000
_cell_volume 2006.199089
_symmetry_space_group_name_H-M "P M N A"
_symmetry_group_IT_number 53
_symmetry_cell_setting 'orthorhombic'
loop_
_space_group_symop_operation_xyz
x,y,z
1/2-x,-y,1/2+z
x,-y,-z
1/2-x,y,1/2-z
-x,-y,-z
1/2+x,y,1/2-z
-x,y,z
1/2+x,-y,1/2+z
loop_
_atom_site_type_symbol
_atom_site_label
_atom_site_fract_x
_atom_site_fract_y
_atom_site_fract_z
Si Si1 0.000000 0.138427 0.990768
Si Si2 0.139412 0.284315 0.076069
Si Si3 0.000000 0.993903 0.247591
Si Si4 0.000000 0.592204 0.081136
Si Si5 0.852998 0.728612 0.577611
Si Si6 0.180775 0.931607 0.614392
Si Si7 0.000000 0.600649 0.431429
O O1 0.091213 0.194349 0.021267
O O2 0.000000 0.062429 0.112248
O O3 0.000000 0.102276 0.826154
O O4 0.121371 0.288753 0.251226
O O5 0.246596 0.290892 0.055596
O O6 0.087710 0.357156 0.981651
O O7 0.908032 0.014586 0.333500
O O8 0.000000 0.589239 0.256155
O O9 0.000000 0.500000 0.000000
O O10 0.855744 0.836114 0.555671
O O11 0.914856 0.662461 0.482612
O O12 0.250000 0.912834 0.750000
O O13 0.227639 0.000000 0.500000
O O14 0.000000 0.500000 0.500000
#
# Coordination Sequence:
#
# PCOD9416459 Si02
#       7
#     4   8   4   4   8   8   4
#     4  10  19  35  67  93 126 180 232 275 340 389
#     4  10  21  41  69  95 132 180 225 278 344 403
#     4  11  22  37  60  91 134 178 233 286 323 391
#     4  11  25  45  69 101 132 168 219 281 352 426
#     4  11  22  44  70  97 136 184 230 283 343 401
#     4  12  26  42  65 100 140 189 240 283 335 400
#     4  12  27  47  74 106 136 175 223 286 349 425
#
# _framework density 19.938200999999999
#
# number of rings (size 3 to 8) (size 9 to 14) (size 15 to 20)
#    0.000    1.000    4.000    3.300    5.600    4.800 
#    0.000    0.000    0.000    0.000    0.000    0.000 
#    0.000    0.000    0.000    0.000    0.000    0.000 
#
# Total GULP energy -223379.379114 kJ/mol
# GULP energy per Si atom -5584.484478 kJ/mol
# Density = 1.989282 g / cm^3
# Si number density = 19.938201 Si / 1000 Ang^3
#
#
#
# Elastic Constant Matrix: (Units=GPa)
#
#
# Indices 1 2 3 4 5 6 
#
# 1 107.9445 46.2759 52.0556 0.0000 0.0000 0.0000
# 2 46.2759 125.8569 99.1512 0.0000 0.0000 0.0000
# 3 52.0556 99.1512 117.1533 0.0000 0.0000 0.0000
# 4 0.0000 0.0000 0.0000 40.0271 0.0000 0.0000
# 5 0.0000 0.0000 0.0000 0.0000 69.9565 0.0000
# 6 0.0000 0.0000 0.0000 0.0000 0.0000 99.5153
#
#
#
# Elastic Compliance Matrix: (Units=1/GPa)
#
#
# Indices 1 2 3 4 5 6 
#
# 1 0.011807 -0.000625 -0.004717 0.000000 0.000000 0.000000
# 2 -0.000625 0.023876 -0.019929 0.000000 0.000000 0.000000
# 3 -0.004717 -0.019929 0.027499 0.000000 0.000000 0.000000
# 4 0.000000 0.000000 0.000000 0.024983 0.000000 0.000000
# 5 0.000000 0.000000 0.000000 0.000000 0.014295 0.000000
# 6 0.000000 0.000000 0.000000 0.000000 0.000000 0.010049
#
#
# Mechanical properties :
#
#
# Convention : Reuss Voigt Hill
#
# Bulk Modulus (GPa) = 79.12409 82.88003 81.00206
# Shear Modulus (GPa) = 29.89288 52.13124 41.01206
#
# Velocity S-wave (km/s) = 3.87625 5.11890 4.54029
# Velocity P-wave (km/s) = 7.73334 8.75193 8.25835
#
# Compressibility (1/GPa) = 0.01263838
#
# Stress axis : x y z
#
# Youngs Moduli (GPa) = 84.69682 41.88346 36.36503
#
# Poissons Ratio (x) = 0.02617 0.17155
# Poissons Ratio (y) = 0.05291 0.72473
# Poissons Ratio (z) = 0.39955 0.83471
#
# Static dielectric constant tensor:
#      x y z
#    x 1.689180 0.000000 0.000000 
#    y 0.000000 1.556780 0.000000 
#    z 0.000000 0.000000 1.736280 
# 
# From -- ./inp_files/8504.got.cif
#   From: 2010.05.17/outbox.cif.g08.bks.cpg/sg53_5_cif.got.tgz:8504.got - 2010.06.03 12:45:16.
