data_PCOD9416618
_publ_section_title
;
Structure prediction by ZEFSAII (Michael W. Deem and Ramdas Pophale) SiO2 
 PCOD9416618
Probable space group: P M N A
;
_chemical_formula_sum "Si O2"
_cell_formula_units_Z 38
_cell_length_a 14.037671
_cell_length_b 5.131048
_cell_length_c 26.130589
_cell_angle_alpha 90.000000
_cell_angle_beta 90.000000
_cell_angle_gamma 90.000000
_cell_volume 1882.133116
_symmetry_space_group_name_H-M "P M N A"
_symmetry_group_IT_number 53
_symmetry_cell_setting 'orthorhombic'
loop_
_space_group_symop_operation_xyz
x,y,z
1/2-x,-y,1/2+z
x,-y,-z
1/2-x,y,1/2-z
-x,-y,-z
1/2+x,y,1/2-z
-x,y,z
1/2+x,-y,1/2+z
loop_
_atom_site_type_symbol
_atom_site_label
_atom_site_fract_x
_atom_site_fract_y
_atom_site_fract_z
Si Si1 0.500000 0.000000 0.500000
Si Si2 0.500000 0.749608 0.963771
Si Si3 0.207888 0.773497 0.582761
Si Si4 0.712381 0.277239 0.305486
Si Si5 0.895361 0.775579 0.172882
Si Si6 0.331484 0.275251 0.557764
O O1 0.414327 0.795339 0.481936
O O2 0.402269 0.750648 0.931708
O O3 0.500000 0.500000 0.000000
O O4 0.500000 0.000000 0.000000
O O5 0.221109 0.755622 0.644431
O O6 0.271277 0.542390 0.557688
O O7 0.253914 0.042326 0.562655
O O8 0.750000 0.201584 0.250000
O O9 0.679204 0.575752 0.303130
O O10 0.627264 0.076642 0.317452
O O11 0.885998 0.728069 0.112392
O O12 0.000000 0.709651 0.191402
#
# Coordination Sequence:
#
# PCOD9416618 Si02
#       6
#     2   4   8   8   8   8
#     4  12  24  38  64  96 126 162 220 230 324 388
#     4  12  26  44  68  88 123 180 226 268 322 361
#     4  10  24  44  62  92 129 160 216 267 310 377
#     4  10  21  39  66  87 124 158 202 259 322 372
#     4  10  19  38  57  90 122 159 195 241 313 379
#     4  10  23  38  63  91 127 162 199 262 303 373
#
# _framework density 20.189855999999999
#
# number of rings (size 3 to 8) (size 9 to 14) (size 15 to 20)
#    0.000    1.684    1.053    2.526    4.421    1.684 
#    3.789    0.000    0.000    0.000    0.000    0.000 
#    0.000    0.000    0.000    0.000    0.000    0.000 
#
# Total GULP energy -211652.697458 kJ/mol
# GULP energy per Si atom -5569.807828 kJ/mol
# Density = 2.014390 g / cm^3
# Si number density = 20.189856 Si / 1000 Ang^3
#
#
#
# Elastic Constant Matrix: (Units=GPa)
#
#
# Indices 1 2 3 4 5 6 
#
# 1 155.5001 28.8272 49.3316 0.0000 0.0000 0.0000
# 2 28.8272 113.7182 14.9114 0.0000 0.0000 0.0000
# 3 49.3316 14.9114 84.7006 0.0000 0.0000 0.0000
# 4 0.0000 0.0000 0.0000 20.7135 0.0000 0.0000
# 5 0.0000 0.0000 0.0000 0.0000 -0.2350 0.0000
# 6 0.0000 0.0000 0.0000 0.0000 0.0000 -5.3102
#
#
#
# Elastic Compliance Matrix: (Units=1/GPa)
#
#
# Indices 1 2 3 4 5 6 
#
# 1 0.008122 -0.001473 -0.004471 0.000000 0.000000 0.000000
# 2 -0.001473 0.009268 -0.000774 0.000000 0.000000 0.000000
# 3 -0.004471 -0.000774 0.014547 0.000000 0.000000 0.000000
# 4 0.000000 0.000000 0.000000 0.048278 0.000000 0.000000
# 5 0.000000 0.000000 0.000000 0.000000 -4.255276 0.000000
# 6 0.000000 0.000000 0.000000 0.000000 0.000000 -0.188318
#
#
# Mechanical properties :
#
#
# Convention : Reuss Voigt Hill
#
# Bulk Modulus (GPa) = 54.04955 60.00659 57.02807
# Shear Modulus (GPa) = -1.15107 20.42356 9.63625
#
# Velocity S-wave (km/s) = -0.75588 3.18398 2.18705
# Velocity P-wave (km/s) = 5.10558 6.58047 5.88938
#
# Compressibility (1/GPa) = 0.01850154
#
# Stress axis : x y z
#
# Youngs Moduli (GPa) = 123.11607 107.89264 68.74355
#
# Poissons Ratio (x) = 0.15889 0.30738
# Poissons Ratio (y) = 0.18131 0.05321
# Poissons Ratio (z) = 0.55050 0.08351
#
# Static dielectric constant tensor:
#      x y z
#    x 1.673650 0.000000 0.000000 
#    y 0.000000 1.724940 0.000000 
#    z 0.000000 0.000000 1.747780 
# 
# From -- ./inp_files/36628.got.cif
#   From: 2010.05.17/outbox.cif.g08.bks.cpg/sg53_19_cif.got.tgz:36628.got - 2010.06.03 12:45:16.
