data_PCOD9416276
_publ_section_title
;
Structure prediction by ZEFSAII (Michael W. Deem and Ramdas Pophale) SiO2 
 PCOD9416276
Probable space group: P M N A
;
_chemical_formula_sum "Si O2"
_cell_formula_units_Z 40
_cell_length_a 13.594762
_cell_length_b 15.976505
_cell_length_c 8.365211
_cell_angle_alpha 90.000000
_cell_angle_beta 90.000000
_cell_angle_gamma 90.000000
_cell_volume 1816.896919
_symmetry_space_group_name_H-M "P M N A"
_symmetry_group_IT_number 53
_symmetry_cell_setting 'orthorhombic'
loop_
_space_group_symop_operation_xyz
x,y,z
1/2-x,-y,1/2+z
x,-y,-z
1/2-x,y,1/2-z
-x,-y,-z
1/2+x,y,1/2-z
-x,y,z
1/2+x,-y,1/2+z
loop_
_atom_site_type_symbol
_atom_site_label
_atom_site_fract_x
_atom_site_fract_y
_atom_site_fract_z
Si Si1 0.615267 0.825320 0.366726
Si Si2 0.773253 0.921390 0.578007
Si Si3 0.384884 0.772375 0.003052
Si Si4 0.613029 0.369116 0.589747
Si Si5 0.173048 0.408346 0.541791
O O1 0.500000 0.850394 0.366437
O O2 0.682162 0.889403 0.467523
O O3 0.646192 0.805167 0.181827
O O4 0.620587 0.730878 0.438598
O O5 0.750000 0.956227 0.750000
O O6 0.836598 0.839258 0.610480
O O7 0.827913 0.000000 0.500000
O O8 0.500000 0.779018 0.003603
O O9 0.360341 0.677271 0.958949
O O10 0.500000 0.394443 0.553902
O O11 0.636942 0.388535 0.776824
O O12 0.709135 0.409364 0.510995
O O13 0.133859 0.500000 0.500000
#
# Coordination Sequence:
#
# PCOD9416276 Si02
#       5
#     8   8   8   8   8
#     4   9  18  38  67  91 118 161 208 254 312 374
#     4  12  25  41  64  92 128 163 204 259 317 378
#     4  10  21  40  65  90 124 167 211 261 313 374
#     4   9  18  34  58  86 118 161 209 256 305 364
#     4  10  19  34  58  88 125 164 209 255 308 369
#
# _framework density 22.015559
#
# number of rings (size 3 to 8) (size 9 to 14) (size 15 to 20)
#    0.000    2.000    2.000    3.600    0.000    3.600 
#    3.600    0.000    0.000    0.000    0.000    0.000 
#    0.000    0.000    0.000    0.000    0.000    0.000 
#
# Total GULP energy -222778.811810 kJ/mol
# GULP energy per Si atom -5569.470295 kJ/mol
# Density = 2.196545 g / cm^3
# Si number density = 22.015559 Si / 1000 Ang^3
#
#
#
# Elastic Constant Matrix: (Units=GPa)
#
#
# Indices 1 2 3 4 5 6 
#
# 1 97.3970 4.7225 0.3682 0.0000 0.0000 0.0000
# 2 4.7225 111.5839 14.4233 0.0000 0.0000 0.0000
# 3 0.3682 14.4233 12.7480 0.0000 0.0000 0.0000
# 4 0.0000 0.0000 0.0000 19.3226 0.0000 0.0000
# 5 0.0000 0.0000 0.0000 0.0000 8.5077 0.0000
# 6 0.0000 0.0000 0.0000 0.0000 0.0000 -48.6480
#
#
#
# Elastic Compliance Matrix: (Units=1/GPa)
#
#
# Indices 1 2 3 4 5 6 
#
# 1 0.010289 -0.000465 0.000229 0.000000 0.000000 0.000000
# 2 -0.000465 0.010518 -0.011887 0.000000 0.000000 0.000000
# 3 0.000229 -0.011887 0.091886 0.000000 0.000000 0.000000
# 4 0.000000 0.000000 0.000000 0.051753 0.000000 0.000000
# 5 0.000000 0.000000 0.000000 0.000000 0.117540 0.000000
# 6 0.000000 0.000000 0.000000 0.000000 0.000000 -0.020556
#
#
# Mechanical properties :
#
#
# Convention : Reuss Voigt Hill
#
# Bulk Modulus (GPa) = 11.30616 28.97300 20.13958
# Shear Modulus (GPa) = 15.86502 9.31746 12.59124
#
# Velocity S-wave (km/s) = 2.68736 2.05947 2.39409
# Velocity P-wave (km/s) = 3.84394 4.34097 4.10000
#
# Compressibility (1/GPa) = 0.08844734
#
# Stress axis : x y z
#
# Youngs Moduli (GPa) = 97.19179 95.07470 10.88303
#
# Poissons Ratio (x) = 0.04422 -0.00249
# Poissons Ratio (y) = 0.04520 0.12937
# Poissons Ratio (z) = -0.02226 1.13014
#
# Static dielectric constant tensor:
#      x y z
#    x 1.830470 0.000000 0.000000 
#    y 0.000000 1.976650 0.000000 
#    z 0.000000 0.000000 1.730270 
# 
# From -- ./inp_files/8406.got.cif
#   From: 2010.05.17/outbox.cif.g08.bks.cpg/sg53_5_cif.got.tgz:8406.got - 2010.06.03 12:45:16.
