data_PCOD9416411
_publ_section_title
;
Structure prediction by ZEFSAII (Michael W. Deem and Ramdas Pophale) SiO2 
 PCOD9416411
Probable space group: P M N A
;
_chemical_formula_sum "Si O2"
_cell_formula_units_Z 48
_cell_length_a 8.063462
_cell_length_b 15.634446
_cell_length_c 19.612697
_cell_angle_alpha 90.000000
_cell_angle_beta 90.000000
_cell_angle_gamma 90.000000
_cell_volume 2472.528802
_symmetry_space_group_name_H-M "P M N A"
_symmetry_group_IT_number 53
_symmetry_cell_setting 'orthorhombic'
loop_
_space_group_symop_operation_xyz
x,y,z
1/2-x,-y,1/2+z
x,-y,-z
1/2-x,y,1/2-z
-x,-y,-z
1/2+x,y,1/2-z
-x,y,z
1/2+x,-y,1/2+z
loop_
_atom_site_type_symbol
_atom_site_label
_atom_site_fract_x
_atom_site_fract_y
_atom_site_fract_z
Si Si1 0.700279 0.125084 0.328419
Si Si2 0.802192 0.376610 0.828274
Si Si3 0.297491 0.970976 0.424028
Si Si4 0.802383 0.470508 0.425672
Si Si5 0.800760 0.277570 0.075270
Si Si6 0.796992 0.223399 0.923731
O O1 0.750000 0.125620 0.250000
O O2 0.500000 0.125142 0.331524
O O3 0.760244 0.208781 0.369581
O O4 0.758090 0.040509 0.368806
O O5 0.750000 0.377919 0.750000
O O6 0.746284 0.460281 0.869385
O O7 0.739402 0.292617 0.868562
O O8 0.000000 0.374228 0.830957
O O9 0.500000 0.971111 0.423782
O O10 0.243790 0.873878 0.410408
O O11 0.247387 0.000000 0.500000
O O12 0.735619 0.500000 0.500000
O O13 0.743453 0.375086 0.409497
O O14 0.000000 0.468261 0.430102
O O15 0.000000 0.271035 0.073887
O O16 0.742552 0.252414 0.999262
O O17 0.000000 0.223626 0.923721
#
# Coordination Sequence:
#
# PCOD9416411 Si02
#       6
#     8   8   8   8   8   8
#     4  10  21  35  56  84 117 150 184 232 283 334
#     4  11  23  39  59  84 117 151 188 237 288 342
#     4   9  15  29  55  85 111 142 190 236 269 319
#     4  11  23  38  59  87 116 148 188 237 289 341
#     4  10  19  35  59  85 109 147 197 236 276 332
#     4   9  17  31  56  85 110 143 191 236 277 329
#
# _framework density 19.413322999999998
#
# number of rings (size 3 to 8) (size 9 to 14) (size 15 to 20)
#    0.000    2.000    3.333    1.000    0.000    2.667 
#    0.000    1.667    0.000    2.500    0.000    0.000 
#    0.000    0.000    0.000    0.000    0.000    0.000 
#
# Total GULP energy -268054.839745 kJ/mol
# GULP energy per Si atom -5584.475828 kJ/mol
# Density = 1.936914 g / cm^3
# Si number density = 19.413323 Si / 1000 Ang^3
#
#
#
# Elastic Constant Matrix: (Units=GPa)
#
#
# Indices 1 2 3 4 5 6 
#
# 1 6.3763 3.5379 1.3746 0.0000 0.0000 0.0000
# 2 3.5379 228.5182 120.5622 0.0000 0.0000 0.0000
# 3 1.3746 120.5622 185.2826 0.0000 0.0000 0.0000
# 4 0.0000 0.0000 0.0000 35.8411 0.0000 0.0000
# 5 0.0000 0.0000 0.0000 0.0000 17.8945 0.0000
# 6 0.0000 0.0000 0.0000 0.0000 0.0000 -15.9935
#
#
#
# Elastic Compliance Matrix: (Units=1/GPa)
#
#
# Indices 1 2 3 4 5 6 
#
# 1 0.158240 -0.002787 0.000640 0.000000 0.000000 0.000000
# 2 -0.002787 0.006713 -0.004347 0.000000 0.000000 0.000000
# 3 0.000640 -0.004347 0.008221 0.000000 0.000000 0.000000
# 4 0.000000 0.000000 0.000000 0.027901 0.000000 0.000000
# 5 0.000000 0.000000 0.000000 0.000000 0.055883 0.000000
# 6 0.000000 0.000000 0.000000 0.000000 0.000000 -0.062525
#
#
# Mechanical properties :
#
#
# Convention : Reuss Voigt Hill
#
# Bulk Modulus (GPa) = 6.24282 74.56960 40.40621
# Shear Modulus (GPa) = 19.17056 27.19524 23.18290
#
# Velocity S-wave (km/s) = 3.14585 3.74686 3.45943
# Velocity P-wave (km/s) = 4.05190 7.56396 6.06760
#
# Compressibility (1/GPa) = 0.16018397
#
# Stress axis : x y z
#
# Youngs Moduli (GPa) = 6.31952 148.97140 121.63775
#
# Poissons Ratio (x) = 0.41524 -0.07783
# Poissons Ratio (y) = 0.01762 0.52879
# Poissons Ratio (z) = -0.00404 0.64761
#
# Static dielectric constant tensor:
#      x y z
#    x 1.695140 0.000000 0.000000 
#    y 0.000000 1.669230 0.000000 
#    z 0.000000 0.000000 1.642710 
# 
# From -- ./inp_files/26251.got.cif
#   From: 2010.05.17/outbox.cif.g08.bks.cpg/sg53_14_cif.got.tgz:26251.got - 2010.06.03 12:45:16.
