data_PCOD9416488
_publ_section_title
;
Structure prediction by ZEFSAII (Michael W. Deem and Ramdas Pophale) SiO2 
 PCOD9416488
Probable space group: P M N A
;
_chemical_formula_sum "Si O2"
_cell_formula_units_Z 40
_cell_length_a 17.895829
_cell_length_b 8.270819
_cell_length_c 13.137752
_cell_angle_alpha 90.000000
_cell_angle_beta 90.000000
_cell_angle_gamma 90.000000
_cell_volume 1944.560222
_symmetry_space_group_name_H-M "P M N A"
_symmetry_group_IT_number 53
_symmetry_cell_setting 'orthorhombic'
loop_
_space_group_symop_operation_xyz
x,y,z
1/2-x,-y,1/2+z
x,-y,-z
1/2-x,y,1/2-z
-x,-y,-z
1/2+x,y,1/2-z
-x,y,z
1/2+x,-y,1/2+z
loop_
_atom_site_type_symbol
_atom_site_label
_atom_site_fract_x
_atom_site_fract_y
_atom_site_fract_z
Si Si1 0.587591 0.263467 0.922324
Si Si2 0.238507 0.788312 0.369279
Si Si3 0.300565 0.500000 0.500000
Si Si4 0.147836 0.000000 0.000000
Si Si5 0.588228 0.284200 0.368475
Si Si6 0.911919 0.628749 0.647329
O O1 0.500000 0.214993 0.915910
O O2 0.653115 0.150692 0.881695
O O3 0.595686 0.434119 0.861383
O O4 0.609965 0.297036 0.039433
O O5 0.250000 0.764341 0.250000
O O6 0.251846 0.621154 0.431359
O O7 0.298286 0.905001 0.422023
O O8 0.356432 0.595540 0.573691
O O9 0.098988 0.117927 0.070454
O O10 0.500000 0.330573 0.371942
O O11 0.615737 0.291609 0.251140
O O12 0.000000 0.657128 0.649078
#
# Coordination Sequence:
#
# PCOD9416488 Si02
#       6
#     8   8   4   4   8   8
#     4   9  17  33  56  85 112 139 180 234 284 340
#     4  11  23  40  58  84 119 153 189 237 293 343
#     4  10  21  34  57  88 114 144 190 248 299 340
#     4  10  25  40  53  78 118 162 198 234 281 340
#     4  10  19  36  58  83 114 155 198 238 283 341
#     4   8  15  28  54  86 111 135 176 231 286 331
#
# _framework density 20.570204
#
# number of rings (size 3 to 8) (size 9 to 14) (size 15 to 20)
#    0.000    2.400    0.000    4.200    0.000    1.600 
#    0.000    9.500    0.000    0.000    0.000    0.000 
#    0.000    0.000    0.000    0.000    0.000    0.000 
#
# Total GULP energy -222941.033150 kJ/mol
# GULP energy per Si atom -5573.525829 kJ/mol
# Density = 2.052339 g / cm^3
# Si number density = 20.570204 Si / 1000 Ang^3
#
#
#
# Elastic Constant Matrix: (Units=GPa)
#
#
# Indices 1 2 3 4 5 6 
#
# 1 115.4153 9.9564 47.0633 0.0000 0.0000 0.0000
# 2 9.9564 28.1673 33.2260 0.0000 0.0000 0.0000
# 3 47.0633 33.2260 153.9467 0.0000 0.0000 0.0000
# 4 0.0000 0.0000 0.0000 11.9259 0.0000 0.0000
# 5 0.0000 0.0000 0.0000 0.0000 300.9602 0.0000
# 6 0.0000 0.0000 0.0000 0.0000 0.0000 -23.4015
#
#
#
# Elastic Compliance Matrix: (Units=1/GPa)
#
#
# Indices 1 2 3 4 5 6 
#
# 1 0.009898 0.000095 -0.003047 0.000000 0.000000 0.000000
# 2 0.000095 0.047629 -0.010309 0.000000 0.000000 0.000000
# 3 -0.003047 -0.010309 0.009652 0.000000 0.000000 0.000000
# 4 0.000000 0.000000 0.000000 0.083851 0.000000 0.000000
# 5 0.000000 0.000000 0.000000 0.000000 0.003323 0.000000
# 6 0.000000 0.000000 0.000000 0.000000 0.000000 -0.042732
#
#
# Mechanical properties :
#
#
# Convention : Reuss Voigt Hill
#
# Bulk Modulus (GPa) = 24.59511 53.11341 38.85426
# Shear Modulus (GPa) = 32.96104 71.71582 52.33843
#
# Velocity S-wave (km/s) = 4.00730 5.91097 5.04966
# Velocity P-wave (km/s) = 5.77875 8.51251 7.27519
#
# Compressibility (1/GPa) = 0.04065850
#
# Stress axis : x y z
#
# Youngs Moduli (GPa) = 101.02557 20.99579 103.60551
#
# Poissons Ratio (x) = -0.00199 0.31564
# Poissons Ratio (y) = -0.00958 1.06802
# Poissons Ratio (z) = 0.30778 0.21644
#
# Static dielectric constant tensor:
#      x y z
#    x 1.730130 0.000000 0.000000 
#    y 0.000000 1.749240 0.000000 
#    z 0.000000 0.000000 1.623970 
# 
# From -- ./inp_files/16722.got.cif
#   From: 2010.05.17/outbox.cif.g08.bks.cpg/sg53_9_cif.got.tgz:16722.got - 2010.06.03 12:45:16.
