data_PCOD9416845
_publ_section_title
;
Structure prediction by ZEFSAII (Michael W. Deem and Ramdas Pophale) SiO2 
 PCOD9416845
Probable space group: P M N A
;
_chemical_formula_sum "Si O2"
_cell_formula_units_Z 48
_cell_length_a 8.676501
_cell_length_b 32.702063
_cell_length_c 9.488672
_cell_angle_alpha 90.000000
_cell_angle_beta 90.000000
_cell_angle_gamma 90.000000
_cell_volume 2692.310881
_symmetry_space_group_name_H-M "P M N A"
_symmetry_group_IT_number 53
_symmetry_cell_setting 'orthorhombic'
loop_
_space_group_symop_operation_xyz
x,y,z
1/2-x,-y,1/2+z
x,-y,-z
1/2-x,y,1/2-z
-x,-y,-z
1/2+x,y,1/2-z
-x,y,z
1/2+x,-y,1/2+z
loop_
_atom_site_type_symbol
_atom_site_label
_atom_site_fract_x
_atom_site_fract_y
_atom_site_fract_z
Si Si1 0.316252 0.787606 0.591308
Si Si2 0.684961 0.871944 0.909483
Si Si3 0.814836 0.713787 0.408865
Si Si4 0.184306 0.376768 0.590961
Si Si5 0.685957 0.038217 0.092121
Si Si6 0.315393 0.460802 0.591624
O O1 0.250000 0.784509 0.750000
O O2 0.500000 0.788134 0.597530
O O3 0.256612 0.830780 0.527674
O O4 0.256291 0.749572 0.501678
O O5 0.750000 0.873154 0.750000
O O6 0.500000 0.867971 0.906350
O O7 0.726132 0.916760 0.969103
O O8 0.750000 0.716390 0.250000
O O9 0.777057 0.668207 0.467720
O O10 0.000000 0.717414 0.404680
O O11 0.250000 0.375958 0.750000
O O12 0.254532 0.418015 0.527243
O O13 0.000000 0.380613 0.595622
O O14 0.750000 0.035220 0.250000
O O15 0.500000 0.036819 0.099582
O O16 0.740393 0.000000 0.000000
O O17 0.269301 0.500000 0.500000
O O18 0.250000 0.464613 0.750000
O O19 0.500000 0.459027 0.599231
#
# Coordination Sequence:
#
# PCOD9416845 Si02
#       6
#     8   8   8   8   8   8
#     4  11  21  34  53  76 102 133 169 209 252 299
#     4   9  16  29  49  70  96 129 165 204 244 293
#     4  10  20  35  54  78 104 132 168 207 251 300
#     4   9  17  30  51  74  98 130 165 201 242 293
#     4   9  18  32  50  73  99 128 163 203 246 292
#     4  10  20  33  51  75 101 131 167 205 245 291
#
# _framework density 17.828551999999998
#
# number of rings (size 3 to 8) (size 9 to 14) (size 15 to 20)
#    0.000    2.333    0.000    5.500    0.000    4.333 
#    0.000    1.667    0.000    4.000    0.000    0.000 
#    0.000    0.000    0.000    0.000    0.000    0.000 
#
# Total GULP energy -267502.747721 kJ/mol
# GULP energy per Si atom -5572.973911 kJ/mol
# Density = 1.778797 g / cm^3
# Si number density = 17.828552 Si / 1000 Ang^3
#
#
#
# Elastic Constant Matrix: (Units=GPa)
#
#
# Indices 1 2 3 4 5 6 
#
# 1 82.9517 70.1935 21.2261 0.0000 0.0000 0.0000
# 2 70.1935 231.2843 60.4184 0.0000 0.0000 0.0000
# 3 21.2261 60.4184 38.1234 0.0000 0.0000 0.0000
# 4 0.0000 0.0000 0.0000 32.7675 0.0000 0.0000
# 5 0.0000 0.0000 0.0000 0.0000 21.6635 0.0000
# 6 0.0000 0.0000 0.0000 0.0000 0.0000 53.1589
#
#
#
# Elastic Compliance Matrix: (Units=1/GPa)
#
#
# Indices 1 2 3 4 5 6 
#
# 1 0.016320 -0.004402 -0.002111 0.000000 0.000000 0.000000
# 2 -0.004402 0.008565 -0.011124 0.000000 0.000000 0.000000
# 3 -0.002111 -0.011124 0.045035 0.000000 0.000000 0.000000
# 4 0.000000 0.000000 0.000000 0.030518 0.000000 0.000000
# 5 0.000000 0.000000 0.000000 0.000000 0.046161 0.000000
# 6 0.000000 0.000000 0.000000 0.000000 0.000000 0.018812
#
#
# Mechanical properties :
#
#
# Convention : Reuss Voigt Hill
#
# Bulk Modulus (GPa) = 28.86176 72.89282 50.87729
# Shear Modulus (GPa) = 23.55905 34.88608 29.22257
#
# Velocity S-wave (km/s) = 3.63908 4.42832 4.05296
# Velocity P-wave (km/s) = 5.82073 8.19273 7.10640
#
# Compressibility (1/GPa) = 0.03464792
#
# Stress axis : x y z
#
# Youngs Moduli (GPa) = 61.27466 116.74813 22.20488
#
# Poissons Ratio (x) = 0.51388 0.04687
# Poissons Ratio (y) = 0.26971 0.24701
# Poissons Ratio (z) = 0.12934 1.29870
#
# Static dielectric constant tensor:
#      x y z
#    x 1.595740 0.000000 0.000000 
#    y 0.000000 1.678780 0.000000 
#    z 0.000000 0.000000 1.579160 
# 
# From -- ./inp_files/14077.got.cif
#   From: 2010.05.17/outbox.cif.g08.bks.cpg/sg53_8_cif.got.tgz:14077.got - 2010.06.03 12:45:16.
