data_PCOD9416392
_publ_section_title
;
Structure prediction by ZEFSAII (Michael W. Deem and Ramdas Pophale) SiO2 
 PCOD9416392
Probable space group: P M N A
;
_chemical_formula_sum "Si O2"
_cell_formula_units_Z 64
_cell_length_a 8.289761
_cell_length_b 24.588873
_cell_length_c 15.943403
_cell_angle_alpha 90.000000
_cell_angle_beta 90.000000
_cell_angle_gamma 90.000000
_cell_volume 3249.837588
_symmetry_space_group_name_H-M "P M N A"
_symmetry_group_IT_number 53
_symmetry_cell_setting 'orthorhombic'
loop_
_space_group_symop_operation_xyz
x,y,z
1/2-x,-y,1/2+z
x,-y,-z
1/2-x,y,1/2-z
-x,-y,-z
1/2+x,y,1/2-z
-x,y,z
1/2+x,-y,1/2+z
loop_
_atom_site_type_symbol
_atom_site_label
_atom_site_fract_x
_atom_site_fract_y
_atom_site_fract_z
Si Si1 0.692723 0.365874 0.158514
Si Si2 0.194853 0.250236 0.598055
Si Si3 0.692862 0.132882 0.342055
Si Si4 0.305448 0.367304 0.841036
Si Si5 0.806667 0.250123 0.094504
Si Si6 0.305295 0.867181 0.158491
Si Si7 0.802689 0.562522 0.500773
Si Si8 0.194983 0.937697 0.500757
O O1 0.750000 0.383573 0.250000
O O2 0.500000 0.366288 0.156884
O O3 0.748779 0.304458 0.140267
O O4 0.751051 0.404717 0.083256
O O5 0.252496 0.305575 0.641831
O O6 0.245527 0.250825 0.501064
O O7 0.252342 0.194561 0.640858
O O8 0.000000 0.250276 0.600756
O O9 0.750000 0.116072 0.250000
O O10 0.500000 0.133370 0.343296
O O11 0.751298 0.194406 0.362040
O O12 0.752466 0.093868 0.415978
O O13 0.250000 0.386031 0.750000
O O14 0.500000 0.366616 0.842596
O O15 0.250870 0.405346 0.917468
O O16 0.000000 0.249829 0.094154
O O17 0.250000 0.885437 0.250000
O O18 0.500000 0.866759 0.157112
O O19 0.249353 0.905082 0.081913
O O20 0.750451 0.500000 0.500000
O O21 0.000000 0.562830 0.501279
O O22 0.000000 0.937951 0.499078
O O23 0.251332 0.000000 0.500000
#
# Coordination Sequence:
#
# PCOD9416392 Si02
#       8
#     8   8   8   8   8   8   8   8
#     4  11  22  38  60  86 118 154 193 238 290 349
#     4  10  19  35  58  84 114 152 189 231 291 349
#     4  11  24  40  61  89 119 155 195 241 295 351
#     4  10  20  35  56  84 113 147 188 228 282 339
#     4  11  22  36  59  90 119 151 192 239 294 350
#     4  10  21  36  58  85 117 152 188 235 287 344
#     4   9  19  37  59  81 111 153 195 235 284 342
#     4  10  22  41  63  87 117 155 199 244 291 341
#
# _framework density 19.693292
#
# number of rings (size 3 to 8) (size 9 to 14) (size 15 to 20)
#    0.000    1.750    2.500    1.875    0.000    5.250 
#    0.000    1.250    0.000    2.625    0.000    0.000 
#    0.000    0.000    0.000    0.000    0.000    0.000 
#
# Total GULP energy -357626.507572 kJ/mol
# GULP energy per Si atom -5587.914181 kJ/mol
# Density = 1.964847 g / cm^3
# Si number density = 19.693292 Si / 1000 Ang^3
#
#
#
# Elastic Constant Matrix: (Units=GPa)
#
#
# Indices 1 2 3 4 5 6 
#
# 1 3.5266 18.5700 6.4797 0.0000 0.0000 0.0000
# 2 18.5700 168.7443 96.9345 0.0000 0.0000 0.0000
# 3 6.4797 96.9345 199.2293 0.0000 0.0000 0.0000
# 4 0.0000 0.0000 0.0000 4.0160 0.0000 0.0000
# 5 0.0000 0.0000 0.0000 0.0000 32.7414 0.0000
# 6 0.0000 0.0000 0.0000 0.0000 0.0000 0.6126
#
#
#
# Elastic Compliance Matrix: (Units=1/GPa)
#
#
# Indices 1 2 3 4 5 6 
#
# 1 0.734821 -0.093180 0.021437 0.000000 0.000000 0.000000
# 2 -0.093180 0.020041 -0.006720 0.000000 0.000000 0.000000
# 3 0.021437 -0.006720 0.007592 0.000000 0.000000 0.000000
# 4 0.000000 0.000000 0.000000 0.249004 0.000000 0.000000
# 5 0.000000 0.000000 0.000000 0.000000 0.030542 0.000000
# 6 0.000000 0.000000 0.000000 0.000000 0.000000 1.632426
#
#
# Mechanical properties :
#
#
# Convention : Reuss Voigt Hill
#
# Bulk Modulus (GPa) = 1.65145 68.38540 35.01843
# Shear Modulus (GPa) = 1.64843 24.10841 12.87842
#
# Velocity S-wave (km/s) = 0.91590 3.50264 2.56002
# Velocity P-wave (km/s) = 1.39961 7.15253 5.15352
#
# Compressibility (1/GPa) = 0.60552741
#
# Stress axis : x y z
#
# Youngs Moduli (GPa) = 1.36088 49.89825 131.72073
#
# Poissons Ratio (x) = 4.64952 -2.82373
# Poissons Ratio (y) = 0.12681 0.88519
# Poissons Ratio (z) = -0.02917 0.33533
#
# Static dielectric constant tensor:
#      x y z
#    x 1.688860 0.000000 0.000000 
#    y 0.000000 1.688800 0.000000 
#    z 0.000000 0.000000 1.661880 
# 
# From -- ./inp_files/21031.got.cif
#   From: 2010.05.17/outbox.cif.g08.bks.cpg/sg53_11_cif.got.tgz:21031.got - 2010.06.03 12:45:16.
