data_PCOD9416835
_publ_section_title
;
Structure prediction by ZEFSAII (Michael W. Deem and Ramdas Pophale) SiO2 
 PCOD9416835
Probable space group: P M N A
;
_chemical_formula_sum "Si O2"
_cell_formula_units_Z 64
_cell_length_a 8.721217
_cell_length_b 15.274919
_cell_length_c 30.387567
_cell_angle_alpha 90.000000
_cell_angle_beta 90.000000
_cell_angle_gamma 90.000000
_cell_volume 4048.106578
_symmetry_space_group_name_H-M "P M N A"
_symmetry_group_IT_number 53
_symmetry_cell_setting 'orthorhombic'
loop_
_space_group_symop_operation_xyz
x,y,z
1/2-x,-y,1/2+z
x,-y,-z
1/2-x,y,1/2-z
-x,-y,-z
1/2+x,y,1/2-z
-x,y,z
1/2+x,-y,1/2+z
loop_
_atom_site_type_symbol
_atom_site_label
_atom_site_fract_x
_atom_site_fract_y
_atom_site_fract_z
Si Si1 0.815110 0.867097 0.055422
Si Si2 0.316383 0.002765 0.797127
Si Si3 0.315505 0.828310 0.961094
Si Si4 0.185075 0.448063 0.565707
Si Si5 0.183918 0.958859 0.889783
Si Si6 0.185922 0.628440 0.529840
Si Si7 0.316898 0.705795 0.382763
Si Si8 0.183064 0.208370 0.703463
O O1 0.768919 0.778100 0.080640
O O2 0.000000 0.867763 0.050411
O O3 0.772482 0.949799 0.085830
O O4 0.740283 0.868835 0.007410
O O5 0.250000 0.972753 0.750000
O O6 0.500000 0.996146 0.796274
O O7 0.273369 0.105811 0.801739
O O8 0.250814 0.957015 0.840595
O O9 0.500000 0.830823 0.959510
O O10 0.246965 0.882191 0.920688
O O11 0.262783 0.726654 0.960403
O O12 0.233675 0.549518 0.562093
O O13 0.229201 0.402495 0.519249
O O14 0.257145 0.388940 0.603232
O O15 0.000000 0.445204 0.568801
O O16 0.000000 0.955879 0.887720
O O17 0.000000 0.629493 0.530494
O O18 0.500000 0.706824 0.381017
O O19 0.249816 0.737618 0.336777
O O20 0.250000 0.238310 0.750000
O O21 0.000000 0.213455 0.703911
#
# Coordination Sequence:
#
# PCOD9416835 Si02
#       8
#     8   8   8   8   8   8   8   8
#     4  10  21  34  46  65  99 139 172 202 243 291
#     4  10  20  34  53  75  98 126 164 207 249 293
#     4  11  21  33  50  72  97 130 173 216 251 291
#     4   9  16  31  51  70  93 127 165 201 246 295
#     4  11  22  36  50  68  99 138 171 204 248 296
#     4   8  16  30  49  70  95 125 162 207 250 291
#     4  11  20  31  48  73 102 132 166 204 245 293
#     4  10  20  33  51  73  99 130 164 203 247 294
#
# _framework density 15.809861
#
# number of rings (size 3 to 8) (size 9 to 14) (size 15 to 20)
#    0.000    2.000    2.500    3.000    0.000    4.000 
#    0.000    2.500    0.000    0.000    0.000    0.875 
#    0.000    0.000    0.000    0.000    0.000    0.000 
#
# Total GULP energy -357110.699365 kJ/mol
# GULP energy per Si atom -5579.854678 kJ/mol
# Density = 1.577388 g / cm^3
# Si number density = 15.809861 Si / 1000 Ang^3
#
#
#
# Elastic Constant Matrix: (Units=GPa)
#
#
# Indices 1 2 3 4 5 6 
#
# 1 29.4217 19.6532 37.2595 0.0000 0.0000 0.0000
# 2 19.6532 70.9613 47.9019 0.0000 0.0000 0.0000
# 3 37.2595 47.9019 139.1171 0.0000 0.0000 0.0000
# 4 0.0000 0.0000 0.0000 20.7478 0.0000 0.0000
# 5 0.0000 0.0000 0.0000 0.0000 27.8056 0.0000
# 6 0.0000 0.0000 0.0000 0.0000 0.0000 36.7608
#
#
#
# Elastic Compliance Matrix: (Units=1/GPa)
#
#
# Indices 1 2 3 4 5 6 
#
# 1 0.053799 -0.006740 -0.012088 0.000000 0.000000 0.000000
# 2 -0.006740 0.019204 -0.004807 0.000000 0.000000 0.000000
# 3 -0.012088 -0.004807 0.012081 0.000000 0.000000 0.000000
# 4 0.000000 0.000000 0.000000 0.048198 0.000000 0.000000
# 5 0.000000 0.000000 0.000000 0.000000 0.035964 0.000000
# 6 0.000000 0.000000 0.000000 0.000000 0.000000 0.027203
#
#
# Mechanical properties :
#
#
# Convention : Reuss Voigt Hill
#
# Bulk Modulus (GPa) = 26.44579 49.90327 38.17453
# Shear Modulus (GPa) = 19.50653 26.04188 22.77421
#
# Velocity S-wave (km/s) = 3.51639 4.06296 3.79952
# Velocity P-wave (km/s) = 5.76631 7.32417 6.59143
#
# Compressibility (1/GPa) = 0.03781320
#
# Stress axis : x y z
#
# Youngs Moduli (GPa) = 18.58765 52.07245 82.77443
#
# Poissons Ratio (x) = 0.35097 1.00059
# Poissons Ratio (y) = 0.12528 0.39792
# Poissons Ratio (z) = 0.22469 0.25033
#
# Static dielectric constant tensor:
#      x y z
#    x 1.528340 0.000000 0.000000 
#    y 0.000000 1.530570 0.000000 
#    z 0.000000 0.000000 1.512330 
# 
# From -- ./inp_files/38475.got.cif
#   From: 2010.05.17/outbox.cif.g08.bks.cpg/sg53_20_cif.got.tgz:38475.got - 2010.06.03 12:45:16.
