data_PCOD9416357
_publ_section_title
;
Structure prediction by ZEFSAII (Michael W. Deem and Ramdas Pophale) SiO2 
 PCOD9416357
Probable space group: P M N A
;
_chemical_formula_sum "Si O2"
_cell_formula_units_Z 24
_cell_length_a 5.561859
_cell_length_b 15.749464
_cell_length_c 11.335158
_cell_angle_alpha 90.000000
_cell_angle_beta 90.000000
_cell_angle_gamma 90.000000
_cell_volume 992.917879
_symmetry_space_group_name_H-M "P M N A"
_symmetry_group_IT_number 53
_symmetry_cell_setting 'orthorhombic'
loop_
_space_group_symop_operation_xyz
x,y,z
1/2-x,-y,1/2+z
x,-y,-z
1/2-x,y,1/2-z
-x,-y,-z
1/2+x,y,1/2-z
-x,y,z
1/2+x,-y,1/2+z
loop_
_atom_site_type_symbol
_atom_site_label
_atom_site_fract_x
_atom_site_fract_y
_atom_site_fract_z
Si Si1 0.000000 0.101571 0.991818
Si Si2 0.000000 0.607921 0.712814
Si Si3 0.000000 0.081596 0.253095
Si Si4 0.000000 0.632233 0.444797
Si Si5 0.000000 0.554168 0.119935
Si Si6 0.000000 0.831563 0.490245
O O1 0.250597 0.132575 0.938871
O O2 0.000000 0.132903 0.129786
O O3 0.000000 0.000000 0.000000
O O4 0.750000 0.652303 0.750000
O O5 0.000000 0.518829 0.781828
O O6 0.000000 0.589868 0.574565
O O7 0.750000 0.031836 0.250000
O O8 0.000000 0.136649 0.372459
O O9 0.252126 0.607735 0.383275
O O10 0.000000 0.731557 0.474617
O O11 0.000000 0.500000 0.000000
#
# Coordination Sequence:
#
# PCOD9416357 Si02
#       6
#     4   4   4   4   4   4
#     4  10  19  35  56  84 122 151 185 229 290 372
#     4  12  23  37  61  86 117 167 211 252 326 368
#     4   8  16  30  49  77 117 137 184 214 284 346
#     4  12  24  40  62  89 133 162 205 279 312 362
#     4  12  23  41  58  89 127 161 225 246 315 387
#     4  10  21  36  57  90 122 151 192 241 319 348
#
# _framework density 24.171181000000001
#
# number of rings (size 3 to 8) (size 9 to 14) (size 15 to 20)
#    0.000    1.333    3.333    3.000    0.000    4.000 
#    0.000    0.000    0.000    0.000    0.000   70.000 
#    0.000    0.000    0.000    0.000    0.000    0.000 
#
# Total GULP energy -134075.593902 kJ/mol
# GULP energy per Si atom -5586.483079 kJ/mol
# Density = 2.411617 g / cm^3
# Si number density = 24.171181 Si / 1000 Ang^3
#
#
#
# Elastic Constant Matrix: (Units=GPa)
#
#
# Indices 1 2 3 4 5 6 
#
# 1 316.6820 60.1327 24.2083 0.0000 0.0000 0.0000
# 2 60.1327 132.1178 30.2590 0.0000 0.0000 0.0000
# 3 24.2083 30.2590 77.7936 0.0000 0.0000 0.0000
# 4 0.0000 0.0000 0.0000 19.4656 0.0000 0.0000
# 5 0.0000 0.0000 0.0000 0.0000 9.1533 0.0000
# 6 0.0000 0.0000 0.0000 0.0000 0.0000 29.9091
#
#
#
# Elastic Compliance Matrix: (Units=1/GPa)
#
#
# Indices 1 2 3 4 5 6 
#
# 1 0.003475 -0.001464 -0.000512 0.000000 0.000000 0.000000
# 2 -0.001464 0.008926 -0.003016 0.000000 0.000000 0.000000
# 3 -0.000512 -0.003016 0.014187 0.000000 0.000000 0.000000
# 4 0.000000 0.000000 0.000000 0.051373 0.000000 0.000000
# 5 0.000000 0.000000 0.000000 0.000000 0.109250 0.000000
# 6 0.000000 0.000000 0.000000 0.000000 0.000000 0.033435
#
#
# Mechanical properties :
#
#
# Convention : Reuss Voigt Hill
#
# Bulk Modulus (GPa) = 60.22886 83.97704 72.10295
# Shear Modulus (GPa) = 21.17164 39.17183 30.17173
#
# Velocity S-wave (km/s) = 2.96278 4.03004 3.53689
# Velocity P-wave (km/s) = 6.05605 7.51485 6.82454
#
# Compressibility (1/GPa) = 0.01660334
#
# Stress axis : x y z
#
# Youngs Moduli (GPa) = 287.77597 112.02792 70.48694
#
# Poissons Ratio (x) = 0.16405 0.03607
# Poissons Ratio (y) = 0.42142 0.21261
# Poissons Ratio (z) = 0.14727 0.33791
#
# Static dielectric constant tensor:
#      x y z
#    x 2.046140 0.000000 0.000000 
#    y 0.000000 1.855600 0.000000 
#    z 0.000000 0.000000 2.000850 
# 
# From -- ./inp_files/13383.got.cif
#   From: 2010.05.17/outbox.cif.g08.bks.cpg/sg53_7_cif.got.tgz:13383.got - 2010.06.03 12:45:16.
