data_PCOD9416603
_publ_section_title
;
Structure prediction by ZEFSAII (Michael W. Deem and Ramdas Pophale) SiO2 
 PCOD9416603
Probable space group: P M N A
;
_chemical_formula_sum "Si O2"
_cell_formula_units_Z 40
_cell_length_a 17.511697
_cell_length_b 12.547156
_cell_length_c 7.440819
_cell_angle_alpha 90.000000
_cell_angle_beta 90.000000
_cell_angle_gamma 90.000000
_cell_volume 1634.911588
_symmetry_space_group_name_H-M "P M N A"
_symmetry_group_IT_number 53
_symmetry_cell_setting 'orthorhombic'
loop_
_space_group_symop_operation_xyz
x,y,z
1/2-x,-y,1/2+z
x,-y,-z
1/2-x,y,1/2-z
-x,-y,-z
1/2+x,y,1/2-z
-x,y,z
1/2+x,-y,1/2+z
loop_
_atom_site_type_symbol
_atom_site_label
_atom_site_fract_x
_atom_site_fract_y
_atom_site_fract_z
Si Si1 0.591869 0.271552 0.109061
Si Si2 0.583284 0.048443 0.196250
Si Si3 0.188920 0.105568 0.898272
Si Si4 0.091515 0.299175 0.822805
Si Si5 0.340058 0.516083 0.785882
O O1 0.500000 0.274250 0.126115
O O2 0.626069 0.159671 0.176285
O O3 0.625072 0.366559 0.227941
O O4 0.604250 0.274532 0.892464
O O5 0.500000 0.072165 0.270240
O O6 0.619973 0.959869 0.314038
O O7 0.576709 0.000000 0.000000
O O8 0.250000 0.137099 0.750000
O O9 0.145257 0.218288 0.936917
O O10 0.226539 0.000000 0.000000
O O11 0.119268 0.422411 0.826454
O O12 0.000000 0.288853 0.859361
O O13 0.250000 0.513574 0.750000
O O14 0.352661 0.500000 0.000000
#
# Coordination Sequence:
#
# PCOD9416603 Si02
#       5
#     8   8   8   8   8
#     4   9  18  35  64  93 118 158 212 258 301 368
#     4  10  19  37  63  90 125 165 207 255 310 374
#     4  12  26  41  60  90 128 167 210 262 326 388
#     4  10  20  39  67  92 120 160 212 266 314 372
#     4  10  21  39  62  91 126 164 207 257 318 378
#
# _framework density 24.466155000000001
#
# number of rings (size 3 to 8) (size 9 to 14) (size 15 to 20)
#    0.000    1.800    2.000    2.400    0.000    4.800 
#    7.200    0.000    0.000    1.200    0.000    0.000 
#    0.000    0.000    0.000    0.000    0.000    0.000 
#
# Total GULP energy -223026.822306 kJ/mol
# GULP energy per Si atom -5575.670558 kJ/mol
# Density = 2.441047 g / cm^3
# Si number density = 24.466155 Si / 1000 Ang^3
#
#
#
# Elastic Constant Matrix: (Units=GPa)
#
#
# Indices 1 2 3 4 5 6 
#
# 1 74.9634 38.4100 12.3573 0.0000 0.0000 0.0000
# 2 38.4100 202.5627 29.7614 0.0000 0.0000 0.0000
# 3 12.3573 29.7614 64.0687 0.0000 0.0000 0.0000
# 4 0.0000 0.0000 0.0000 6.5956 0.0000 0.0000
# 5 0.0000 0.0000 0.0000 0.0000 14.9365 0.0000
# 6 0.0000 0.0000 0.0000 0.0000 0.0000 31.6576
#
#
#
# Elastic Compliance Matrix: (Units=1/GPa)
#
#
# Indices 1 2 3 4 5 6 
#
# 1 0.014942 -0.002586 -0.001681 0.000000 0.000000 0.000000
# 2 -0.002586 0.005746 -0.002170 0.000000 0.000000 0.000000
# 3 -0.001681 -0.002170 0.016941 0.000000 0.000000 0.000000
# 4 0.000000 0.000000 0.000000 0.151616 0.000000 0.000000
# 5 0.000000 0.000000 0.000000 0.000000 0.066950 0.000000
# 6 0.000000 0.000000 0.000000 0.000000 0.000000 0.031588
#
#
# Mechanical properties :
#
#
# Convention : Reuss Voigt Hill
#
# Bulk Modulus (GPa) = 40.39721 55.85024 48.12373
# Shear Modulus (GPa) = 16.18604 28.04236 22.11420
#
# Velocity S-wave (km/s) = 2.57489 3.38919 3.00970
# Velocity P-wave (km/s) = 5.03859 6.18001 5.63826
#
# Compressibility (1/GPa) = 0.02475418
#
# Stress axis : x y z
#
# Youngs Moduli (GPa) = 66.92497 174.03250 59.02997
#
# Poissons Ratio (x) = 0.45012 0.09920
# Poissons Ratio (y) = 0.17310 0.12811
# Poissons Ratio (z) = 0.11247 0.37771
#
# Static dielectric constant tensor:
#      x y z
#    x 1.935550 0.000000 0.000000 
#    y 0.000000 1.801480 0.000000 
#    z 0.000000 0.000000 2.085140 
# 
# From -- ./inp_files/9654.got.cif
#   From: 2010.05.17/outbox.cif.g08.bks.cpg/sg53_5_cif.got.tgz:9654.got - 2010.06.03 12:45:16.
