data_PCOD9416081
_publ_section_title
;
Structure prediction by ZEFSAII (Michael W. Deem and Ramdas Pophale) SiO2 
 PCOD9416081
Probable space group: P M N A
;
_chemical_formula_sum "Si O2"
_cell_formula_units_Z 28
_cell_length_a 15.134439
_cell_length_b 11.690619
_cell_length_c 6.727706
_cell_angle_alpha 90.000000
_cell_angle_beta 90.000000
_cell_angle_gamma 90.000000
_cell_volume 1190.339482
_symmetry_space_group_name_H-M "P M N A"
_symmetry_group_IT_number 53
_symmetry_cell_setting 'orthorhombic'
loop_
_space_group_symop_operation_xyz
x,y,z
1/2-x,-y,1/2+z
x,-y,-z
1/2-x,y,1/2-z
-x,-y,-z
1/2+x,y,1/2-z
-x,y,z
1/2+x,-y,1/2+z
loop_
_atom_site_type_symbol
_atom_site_label
_atom_site_fract_x
_atom_site_fract_y
_atom_site_fract_z
Si Si1 0.354371 0.347983 0.803104
Si Si2 0.098031 0.406735 0.234186
Si Si3 0.750000 0.747638 0.750000
Si Si4 0.831662 0.891363 0.393069
O O1 0.250000 0.353853 0.750000
O O2 0.396623 0.457690 0.696099
O O3 0.381469 0.214121 0.782295
O O4 0.379802 0.381249 0.031577
O O5 0.176846 0.332377 0.145390
O O6 0.000000 0.364331 0.193038
O O7 0.790334 0.825659 0.580588
O O8 0.750000 0.927778 0.250000
O O9 0.877210 0.000000 0.500000
#
# Coordination Sequence:
#
# PCOD9416081 Si02
#       4
#     8   8   4   8
#     4   9  17  30  53  85 119 148 194 242 290 357
#     4  10  19  34  59  88 122 161 195 245 314 370
#     4  10  20  36  62  90 120 156 200 250 306 368
#     4  10  19  33  57  88 116 159 208 245 294 362
#
# _framework density 23.522698999999999
#
# number of rings (size 3 to 8) (size 9 to 14) (size 15 to 20)
#    0.000    2.286    2.857    1.714    0.000    0.000 
#    0.000    0.000    0.000   80.571    0.000    0.000 
#    0.000    0.000    0.000    0.000    0.000    0.000 
#
# Total GULP energy -155986.447299 kJ/mol
# GULP energy per Si atom -5570.944546 kJ/mol
# Density = 2.346916 g / cm^3
# Si number density = 23.522699 Si / 1000 Ang^3
#
#
#
# Elastic Constant Matrix: (Units=GPa)
#
#
# Indices 1 2 3 4 5 6 
#
# 1 117.7950 40.9514 7.9602 0.0000 0.0000 0.0000
# 2 40.9514 183.0446 12.1448 0.0000 0.0000 0.0000
# 3 7.9602 12.1448 76.0205 0.0000 0.0000 0.0000
# 4 0.0000 0.0000 0.0000 47.5751 0.0000 0.0000
# 5 0.0000 0.0000 0.0000 0.0000 12.5666 0.0000
# 6 0.0000 0.0000 0.0000 0.0000 0.0000 -12.9797
#
#
#
# Elastic Compliance Matrix: (Units=1/GPa)
#
#
# Indices 1 2 3 4 5 6 
#
# 1 0.009236 -0.002024 -0.000644 0.000000 0.000000 0.000000
# 2 -0.002024 0.005965 -0.000741 0.000000 0.000000 0.000000
# 3 -0.000644 -0.000741 0.013340 0.000000 0.000000 0.000000
# 4 0.000000 0.000000 0.000000 0.021019 0.000000 0.000000
# 5 0.000000 0.000000 0.000000 0.000000 0.079576 0.000000
# 6 0.000000 0.000000 0.000000 0.000000 0.000000 -0.077043
#
#
# Mechanical properties :
#
#
# Convention : Reuss Voigt Hill
#
# Bulk Modulus (GPa) = 46.03119 55.44143 50.73631
# Shear Modulus (GPa) = 75.58347 30.48599 53.03473
#
# Velocity S-wave (km/s) = 5.67467 3.60394 4.75343
# Velocity P-wave (km/s) = 7.90868 6.39831 7.19324
#
# Compressibility (1/GPa) = 0.02172440
#
# Stress axis : x y z
#
# Youngs Moduli (GPa) = 108.26777 167.64284 74.96170
#
# Poissons Ratio (x) = 0.33925 0.04826
# Poissons Ratio (y) = 0.21910 0.05555
# Poissons Ratio (z) = 0.06971 0.12423
#
# Static dielectric constant tensor:
#      x y z
#    x 1.871220 0.000000 0.000000 
#    y 0.000000 1.949960 0.000000 
#    z 0.000000 0.000000 2.288550 
# 
# From -- ./inp_files/7884.got.cif
#   From: 2010.05.17/outbox.cif.g08.bks.cpg/sg53_4_cif.got.tgz:7884.got - 2010.06.03 12:45:16.
