data_PCOD9416725
_publ_section_title
;
Structure prediction by ZEFSAII (Michael W. Deem and Ramdas Pophale) SiO2 
 PCOD9416725
Probable space group: P M N A
;
_chemical_formula_sum "Si O2"
_cell_formula_units_Z 64
_cell_length_a 8.345588
_cell_length_b 20.654031
_cell_length_c 20.712193
_cell_angle_alpha 90.000000
_cell_angle_beta 90.000000
_cell_angle_gamma 90.000000
_cell_volume 3570.161396
_symmetry_space_group_name_H-M "P M N A"
_symmetry_group_IT_number 53
_symmetry_cell_setting 'orthorhombic'
loop_
_space_group_symop_operation_xyz
x,y,z
1/2-x,-y,1/2+z
x,-y,-z
1/2-x,y,1/2-z
-x,-y,-z
1/2+x,y,1/2-z
-x,y,z
1/2+x,-y,1/2+z
loop_
_atom_site_type_symbol
_atom_site_label
_atom_site_fract_x
_atom_site_fract_y
_atom_site_fract_z
Si Si1 0.308653 0.686381 0.566785
Si Si2 0.805765 0.829393 0.955088
Si Si3 0.690876 0.662324 0.077128
Si Si4 0.191186 0.407311 0.320950
Si Si5 0.195954 0.971393 0.930358
Si Si6 0.693559 0.072301 0.678166
Si Si7 0.193121 0.802278 0.103602
Si Si8 0.806215 0.444427 0.678631
O O1 0.500000 0.687830 0.570483
O O2 0.248352 0.760826 0.573056
O O3 0.262371 0.662999 0.494891
O O4 0.245570 0.639858 0.622365
O O5 0.749343 0.896939 0.925247
O O6 0.000000 0.829279 0.950441
O O7 0.768514 0.827868 0.031475
O O8 0.500000 0.656920 0.070748
O O9 0.732985 0.731319 0.109232
O O10 0.749525 0.604300 0.122900
O O11 0.250000 0.386763 0.250000
O O12 0.248847 0.481415 0.331870
O O13 0.000000 0.408828 0.319984
O O14 0.000000 0.971258 0.929839
O O15 0.249065 0.018322 0.873011
O O16 0.243178 0.000000 0.000000
O O17 0.750000 0.058880 0.750000
O O18 0.500000 0.072548 0.676343
O O19 0.746689 0.143360 0.653947
O O20 0.000000 0.795881 0.106887
O O21 0.750000 0.424332 0.750000
O O22 0.000000 0.443992 0.678170
#
# Coordination Sequence:
#
# PCOD9416725 Si02
#       8
#     8   8   8   8   8   8   8   8
#     4  10  20  34  53  80 110 138 172 215 259 310
#     4   8  14  27  49  75  98 121 165 216 250 290
#     4  10  20  34  52  77 107 138 171 213 263 308
#     4  10  20  37  58  78 102 135 175 218 264 314
#     4   9  14  26  52  77  93 123 173 217 251 294
#     4  10  20  32  49  73 103 134 168 211 257 306
#     4   9  17  31  49  71  97 130 169 209 250 300
#     4   9  20  36  54  75 101 135 176 218 260 311
#
# _framework density 17.926361
#
# number of rings (size 3 to 8) (size 9 to 14) (size 15 to 20)
#    0.000    2.625    1.250    1.875    0.000    3.000 
#    0.000    5.625    0.000    5.625    0.000    0.000 
#    0.000    0.000    0.000    0.000    0.000    0.000 
#
# Total GULP energy -356852.122713 kJ/mol
# GULP energy per Si atom -5575.814417 kJ/mol
# Density = 1.788556 g / cm^3
# Si number density = 17.926361 Si / 1000 Ang^3
#
#
#
# Elastic Constant Matrix: (Units=GPa)
#
#
# Indices 1 2 3 4 5 6 
#
# 1 16.1447 16.7885 15.2228 0.0000 0.0000 0.0000
# 2 16.7885 135.9685 102.6601 0.0000 0.0000 0.0000
# 3 15.2228 102.6601 133.6422 0.0000 0.0000 0.0000
# 4 0.0000 0.0000 0.0000 32.0991 0.0000 0.0000
# 5 0.0000 0.0000 0.0000 0.0000 27.6898 0.0000
# 6 0.0000 0.0000 0.0000 0.0000 0.0000 16.6753
#
#
#
# Elastic Compliance Matrix: (Units=1/GPa)
#
#
# Indices 1 2 3 4 5 6 
#
# 1 0.071653 -0.006392 -0.003251 0.000000 0.000000 0.000000
# 2 -0.006392 0.018081 -0.013161 0.000000 0.000000 0.000000
# 3 -0.003251 -0.013161 0.017963 0.000000 0.000000 0.000000
# 4 0.000000 0.000000 0.000000 0.031154 0.000000 0.000000
# 5 0.000000 0.000000 0.000000 0.000000 0.036114 0.000000
# 6 0.000000 0.000000 0.000000 0.000000 0.000000 0.059969
#
#
# Mechanical properties :
#
#
# Convention : Reuss Voigt Hill
#
# Bulk Modulus (GPa) = 16.10645 61.67761 38.89203
# Shear Modulus (GPa) = 16.59812 25.36510 20.98161
#
# Velocity S-wave (km/s) = 3.04617 3.76568 3.42487
# Velocity P-wave (km/s) = 4.62347 7.30670 6.11410
#
# Compressibility (1/GPa) = 0.06208692
#
# Stress axis : x y z
#
# Youngs Moduli (GPa) = 13.95623 55.30670 55.66988
#
# Poissons Ratio (x) = 0.35354 0.18100
# Poissons Ratio (y) = 0.08921 0.73268
# Poissons Ratio (z) = 0.04538 0.72790
#
# Static dielectric constant tensor:
#      x y z
#    x 1.628510 0.000000 0.000000 
#    y 0.000000 1.635790 0.000000 
#    z 0.000000 0.000000 1.581620 
# 
# From -- ./inp_files/27005.got.cif
#   From: 2010.05.17/outbox.cif.g08.bks.cpg/sg53_14_cif.got.tgz:27005.got - 2010.06.03 12:45:16.
