data_PCOD9416012
_publ_section_title
;
Structure prediction by ZEFSAII (Michael W. Deem and Ramdas Pophale) SiO2 
 PCOD9416012
Probable space group: P M N A
;
_chemical_formula_sum "Si O2"
_cell_formula_units_Z 48
_cell_length_a 9.650355
_cell_length_b 30.651686
_cell_length_c 9.151486
_cell_angle_alpha 90.000000
_cell_angle_beta 90.000000
_cell_angle_gamma 90.000000
_cell_volume 2707.006367
_symmetry_space_group_name_H-M "P M N A"
_symmetry_group_IT_number 53
_symmetry_cell_setting 'orthorhombic'
loop_
_space_group_symop_operation_xyz
x,y,z
1/2-x,-y,1/2+z
x,-y,-z
1/2-x,y,1/2-z
-x,-y,-z
1/2+x,y,1/2-z
-x,y,z
1/2+x,-y,1/2+z
loop_
_atom_site_type_symbol
_atom_site_label
_atom_site_fract_x
_atom_site_fract_y
_atom_site_fract_z
Si Si1 0.167395 0.626854 0.095981
Si Si2 0.834595 0.806079 0.401142
Si Si3 0.500000 0.954340 0.919821
Si Si4 0.500000 0.952227 0.569974
Si Si5 0.167108 0.291429 0.595254
Si Si6 0.247146 0.109162 0.424580
Si Si7 0.663757 0.540981 0.601259
O O1 0.250000 0.619232 0.250000
O O2 0.248939 0.668282 0.025325
O O3 0.000000 0.634526 0.117520
O O4 0.181703 0.584846 0.993526
O O5 0.750000 0.807394 0.250000
O O6 0.817973 0.757334 0.468040
O O7 0.775555 0.844715 0.499766
O O8 0.000000 0.812135 0.376798
O O9 0.500000 0.960105 0.744769
O O10 0.374057 0.923931 0.961327
O O11 0.500000 0.000000 0.000000
O O12 0.375442 0.920317 0.530661
O O13 0.500000 0.000000 0.500000
O O14 0.250000 0.288643 0.750000
O O15 0.000000 0.299603 0.609913
O O16 0.250000 0.116019 0.250000
O O17 0.704524 0.500000 0.500000
O O18 0.750000 0.542108 0.750000
O O19 0.500000 0.536364 0.635057
#
# Coordination Sequence:
#
# PCOD9416012 Si02
#       7
#     8   8   4   4   8   8   8
#     4  10  19  33  55  82 111 144 184 227 276 329
#     4  10  21  36  56  83 111 141 182 227 267 316
#     4  10  20  36  58  76 104 142 170 218 267 310
#     4  10  22  36  54  82 106 134 180 216 261 324
#     4   9  17  31  52  78 109 143 180 224 273 320
#     4  10  21  38  56  77 109 143 174 214 268 321
#     4  10  22  38  56  81 113 148 189 235 279 330
#
# _framework density 17.731763999999998
#
# number of rings (size 3 to 8) (size 9 to 14) (size 15 to 20)
#    0.000    2.167    0.833    3.000    1.167    3.667 
#    0.000    0.833    0.000    2.000    0.000    0.000 
#    0.000    0.000    0.000    0.000    0.000    0.000 
#
# Total GULP energy -267211.466299 kJ/mol
# GULP energy per Si atom -5566.905548 kJ/mol
# Density = 1.769141 g / cm^3
# Si number density = 17.731764 Si / 1000 Ang^3
#
#
#
# Elastic Constant Matrix: (Units=GPa)
#
#
# Indices 1 2 3 4 5 6 
#
# 1 157.7754 85.7068 46.7208 0.0000 0.0000 0.0000
# 2 85.7068 199.4571 64.3198 0.0000 0.0000 0.0000
# 3 46.7208 64.3198 54.3631 0.0000 0.0000 0.0000
# 4 0.0000 0.0000 0.0000 30.8676 0.0000 0.0000
# 5 0.0000 0.0000 0.0000 0.0000 25.2164 0.0000
# 6 0.0000 0.0000 0.0000 0.0000 0.0000 35.7198
#
#
#
# Elastic Compliance Matrix: (Units=1/GPa)
#
#
# Indices 1 2 3 4 5 6 
#
# 1 0.009081 -0.002240 -0.005154 0.000000 0.000000 0.000000
# 2 -0.002240 0.008659 -0.008320 0.000000 0.000000 0.000000
# 3 -0.005154 -0.008320 0.032668 0.000000 0.000000 0.000000
# 4 0.000000 0.000000 0.000000 0.032396 0.000000 0.000000
# 5 0.000000 0.000000 0.000000 0.000000 0.039657 0.000000
# 6 0.000000 0.000000 0.000000 0.000000 0.000000 0.027996
#
#
# Mechanical properties :
#
#
# Convention : Reuss Voigt Hill
#
# Bulk Modulus (GPa) = 52.68667 89.45448 71.07057
# Shear Modulus (GPa) = 26.56569 32.68396 29.62482
#
# Velocity S-wave (km/s) = 3.87485 4.29796 4.09188
# Velocity P-wave (km/s) = 7.05670 8.67111 7.90523
#
# Compressibility (1/GPa) = 0.01898013
#
# Stress axis : x y z
#
# Youngs Moduli (GPa) = 110.11642 115.48497 30.61081
#
# Poissons Ratio (x) = 0.25870 0.15778
# Poissons Ratio (y) = 0.24667 0.25468
# Poissons Ratio (z) = 0.56757 0.96082
#
# Static dielectric constant tensor:
#      x y z
#    x 1.591330 0.000000 0.000000 
#    y 0.000000 1.606770 0.000000 
#    z 0.000000 0.000000 1.598030 
# 
# From -- ./inp_files/6821.got.cif
#   From: 2010.05.17/outbox.cif.g08.bks.cpg/sg53_4_cif.got.tgz:6821.got - 2010.06.03 12:45:16.
