data_PCOD9416280
_publ_section_title
;
Structure prediction by ZEFSAII (Michael W. Deem and Ramdas Pophale) SiO2 
 PCOD9416280
Probable space group: P M N A
;
_chemical_formula_sum "Si O2"
_cell_formula_units_Z 24
_cell_length_a 14.566689
_cell_length_b 13.037090
_cell_length_c 4.837567
_cell_angle_alpha 90.000000
_cell_angle_beta 90.000000
_cell_angle_gamma 90.000000
_cell_volume 918.688975
_symmetry_space_group_name_H-M "P M N A"
_symmetry_group_IT_number 53
_symmetry_cell_setting 'orthorhombic'
loop_
_space_group_symop_operation_xyz
x,y,z
1/2-x,-y,1/2+z
x,-y,-z
1/2-x,y,1/2-z
-x,-y,-z
1/2+x,y,1/2-z
-x,y,z
1/2+x,-y,1/2+z
loop_
_atom_site_type_symbol
_atom_site_label
_atom_site_fract_x
_atom_site_fract_y
_atom_site_fract_z
Si Si1 0.894722 0.607579 0.630791
Si Si2 0.861046 0.072009 0.239577
Si Si3 0.155221 0.266148 0.891435
O O1 0.865993 0.500000 0.500000
O O2 0.894285 0.690721 0.380257
O O3 0.000000 0.597083 0.730366
O O4 0.835692 0.640158 0.896204
O O5 0.750000 0.079227 0.250000
O O6 0.887571 0.000000 0.500000
O O7 0.886731 0.182595 0.104607
O O8 0.892526 0.000000 0.000000
O O9 0.250000 0.226433 0.750000
#
# Coordination Sequence:
#
# PCOD9416280 Si02
#       3
#     8   8   8
#     4  11  25  45  67  92 133 187 227 264 335 418
#     4  10  19  34  58  90 129 167 206 261 330 395
#     4  12  23  40  68 102 133 167 226 290 332 376
#
# _framework density 26.124186000000002
#
# number of rings (size 3 to 8) (size 9 to 14) (size 15 to 20)
#    0.000    1.000    0.000   10.000    0.000    5.333 
#    0.000    1.667    0.000   20.000    0.000    0.000 
#    0.000    4.000    0.000    0.000    0.000    0.000 
#
# Total GULP energy -133753.200404 kJ/mol
# GULP energy per Si atom -5573.050017 kJ/mol
# Density = 2.606473 g / cm^3
# Si number density = 26.124186 Si / 1000 Ang^3
#
#
#
# Elastic Constant Matrix: (Units=GPa)
#
#
# Indices 1 2 3 4 5 6 
#
# 1 65.7297 2.4141 18.1487 0.0000 0.0000 0.0000
# 2 2.4141 124.3792 74.8135 0.0000 0.0000 0.0000
# 3 18.1487 74.8135 263.6970 0.0000 0.0000 0.0000
# 4 0.0000 0.0000 0.0000 63.8539 0.0000 0.0000
# 5 0.0000 0.0000 0.0000 0.0000 0.0025 0.0000
# 6 0.0000 0.0000 0.0000 0.0000 0.0000 -3.2593
#
#
#
# Elastic Compliance Matrix: (Units=1/GPa)
#
#
# Indices 1 2 3 4 5 6 
#
# 1 0.015526 0.000412 -0.001185 0.000000 0.000000 0.000000
# 2 0.000412 0.009705 -0.002782 0.000000 0.000000 0.000000
# 3 -0.001185 -0.002782 0.004663 0.000000 0.000000 0.000000
# 4 0.000000 0.000000 0.000000 0.015661 0.000000 0.000000
# 5 0.000000 0.000000 0.000000 0.000000395.691716 0.000000
# 6 0.000000 0.000000 0.000000 0.000000 0.000000 -0.306819
#
#
# Mechanical properties :
#
#
# Convention : Reuss Voigt Hill
#
# Bulk Modulus (GPa) = 43.89198 71.61760 57.75479
# Shear Modulus (GPa) = 0.01264 36.01475 18.01370
#
# Velocity S-wave (km/s) = 0.06965 3.71698 2.62876
# Velocity P-wave (km/s) = 4.10417 6.77459 5.60086
#
# Compressibility (1/GPa) = 0.02278320
#
# Stress axis : x y z
#
# Youngs Moduli (GPa) = 64.40814 103.03784 214.45276
#
# Poissons Ratio (x) = -0.04241 0.25420
# Poissons Ratio (y) = -0.02651 0.59656
# Poissons Ratio (z) = 0.07635 0.28663
#
# Static dielectric constant tensor:
#      x y z
#    x 2.960130 0.000000 0.000000 
#    y 0.000000 1.980850 0.000000 
#    z 0.000000 0.000000 1.940810 
# 
# From -- ./inp_files/1756.got.cif
#   From: 2010.05.17/outbox.cif.g08.bks.cpg/sg53_1_cif.got.tgz:1756.got - 2010.06.03 12:45:16.
