data_PCOD9416040
_publ_section_title
;
Structure prediction by ZEFSAII (Michael W. Deem and Ramdas Pophale) SiO2 
 PCOD9416040
Probable space group: P M N A
;
_chemical_formula_sum "Si O2"
_cell_formula_units_Z 56
_cell_length_a 34.760737
_cell_length_b 5.042736
_cell_length_c 16.606091
_cell_angle_alpha 90.000000
_cell_angle_beta 90.000000
_cell_angle_gamma 90.000000
_cell_volume 2910.868736
_symmetry_space_group_name_H-M "P M N A"
_symmetry_group_IT_number 53
_symmetry_cell_setting 'orthorhombic'
loop_
_space_group_symop_operation_xyz
x,y,z
1/2-x,-y,1/2+z
x,-y,-z
1/2-x,y,1/2-z
-x,-y,-z
1/2+x,y,1/2-z
-x,y,z
1/2+x,-y,1/2+z
loop_
_atom_site_type_symbol
_atom_site_label
_atom_site_fract_x
_atom_site_fract_y
_atom_site_fract_z
Si Si1 0.616438 0.087145 0.638121
Si Si2 0.108509 0.252949 0.553254
Si Si3 0.456011 0.601673 0.178496
Si Si4 0.794839 0.449610 0.250162
Si Si5 0.659132 0.584315 0.586074
Si Si6 0.956289 0.116271 0.209712
Si Si7 0.337894 0.945406 0.195277
O O1 0.624412 0.378998 0.605250
O O2 0.632112 0.078933 0.730277
O O3 0.642581 0.879313 0.589823
O O4 0.573249 0.980214 0.642184
O O5 0.123037 0.500000 0.500000
O O6 0.073074 0.368794 0.605145
O O7 0.140133 0.138892 0.615041
O O8 0.096146 0.000000 0.500000
O O9 0.500000 0.533202 0.154319
O O10 0.442884 0.378454 0.242514
O O11 0.457079 0.879878 0.225143
O O12 0.750000 0.387337 0.250000
O O13 0.810984 0.443879 0.159046
O O14 0.804126 0.737466 0.285726
O O15 0.819984 0.237206 0.300170
O O16 0.675320 0.500000 0.500000
O O17 0.000000 0.161706 0.181250
#
# Coordination Sequence:
#
# PCOD9416040 Si02
#       7
#     8   8   8   8   8   8   8
#     4  10  19  34  61  80 110 151 184 235 281 336
#     4  12  24  36  55  80 119 161 198 247 293 339
#     4  10  21  35  53  78 113 152 199 253 294 335
#     4  10  21  39  64  88 113 150 186 231 282 347
#     4  10  21  36  58  90 116 142 184 232 285 336
#     4  10  19  33  56  83 109 144 197 248 290 335
#     4  10  21  37  58  83 112 145 199 232 276 348
#
# _framework density 19.238243000000001
#
# number of rings (size 3 to 8) (size 9 to 14) (size 15 to 20)
#    0.000    1.714    1.429    3.429    4.000    0.571 
#    0.000    2.143    0.000    4.286    0.000    0.000 
#    0.000    0.000    0.000    0.000    0.000    0.000 
#
# Total GULP energy -312743.841355 kJ/mol
# GULP energy per Si atom -5584.711453 kJ/mol
# Density = 1.919446 g / cm^3
# Si number density = 19.238243 Si / 1000 Ang^3
#
#
#
# Elastic Constant Matrix: (Units=GPa)
#
#
# Indices 1 2 3 4 5 6 
#
# 1 73.1742 -0.8333 30.4073 0.0000 0.0000 0.0000
# 2 -0.8333 74.4689 14.2093 0.0000 0.0000 0.0000
# 3 30.4073 14.2093 71.3719 0.0000 0.0000 0.0000
# 4 0.0000 0.0000 0.0000 32.3868 0.0000 0.0000
# 5 0.0000 0.0000 0.0000 0.0000 8.3395 0.0000
# 6 0.0000 0.0000 0.0000 0.0000 0.0000 14.8196
#
#
#
# Elastic Compliance Matrix: (Units=1/GPa)
#
#
# Indices 1 2 3 4 5 6 
#
# 1 0.016791 0.001614 -0.007475 0.000000 0.000000 0.000000
# 2 0.001614 0.014114 -0.003498 0.000000 0.000000 0.000000
# 3 -0.007475 -0.003498 0.017892 0.000000 0.000000 0.000000
# 4 0.000000 0.000000 0.000000 0.030877 0.000000 0.000000
# 5 0.000000 0.000000 0.000000 0.000000 0.119912 0.000000
# 6 0.000000 0.000000 0.000000 0.000000 0.000000 0.067478
#
#
# Mechanical properties :
#
#
# Convention : Reuss Voigt Hill
#
# Bulk Modulus (GPa) = 33.24481 34.06464 33.65472
# Shear Modulus (GPa) = 16.90297 22.79129 19.84713
#
# Velocity S-wave (km/s) = 2.96736 3.44566 3.21542
# Velocity P-wave (km/s) = 5.39058 5.79442 5.59614
#
# Compressibility (1/GPa) = 0.03007989
#
# Stress axis : x y z
#
# Youngs Moduli (GPa) = 59.55740 70.85237 55.89090
#
# Poissons Ratio (x) = -0.11436 0.41777
# Poissons Ratio (y) = -0.09613 0.19548
# Poissons Ratio (z) = 0.44518 0.24781
#
# Static dielectric constant tensor:
#      x y z
#    x 1.674750 0.000000 0.000000 
#    y 0.000000 1.661920 0.000000 
#    z 0.000000 0.000000 1.670580 
# 
# From -- ./inp_files/25123.got.cif
#   From: 2010.05.17/outbox.cif.g08.bks.cpg/sg53_13_cif.got.tgz:25123.got - 2010.06.03 12:45:16.
