data_PCOD9416786
_publ_section_title
;
Structure prediction by ZEFSAII (Michael W. Deem and Ramdas Pophale) SiO2 
 PCOD9416786
Probable space group: P M N A
;
_chemical_formula_sum "Si O2"
_cell_formula_units_Z 64
_cell_length_a 8.928122
_cell_length_b 28.041622
_cell_length_c 14.955916
_cell_angle_alpha 90.000000
_cell_angle_beta 90.000000
_cell_angle_gamma 90.000000
_cell_volume 3744.348507
_symmetry_space_group_name_H-M "P M N A"
_symmetry_group_IT_number 53
_symmetry_cell_setting 'orthorhombic'
loop_
_space_group_symop_operation_xyz
x,y,z
1/2-x,-y,1/2+z
x,-y,-z
1/2-x,y,1/2-z
-x,-y,-z
1/2+x,y,1/2-z
-x,y,z
1/2+x,-y,1/2+z
loop_
_atom_site_type_symbol
_atom_site_label
_atom_site_fract_x
_atom_site_fract_y
_atom_site_fract_z
Si Si1 0.822151 0.579216 0.345501
Si Si2 0.820408 0.887174 0.538715
Si Si3 0.321554 0.466328 0.153774
Si Si4 0.179312 0.694684 0.844900
Si Si5 0.330093 0.018391 0.397735
Si Si6 0.678663 0.077396 0.840106
Si Si7 0.820254 0.610482 0.976180
Si Si8 0.320033 0.194587 0.346628
O O1 0.750000 0.590505 0.250000
O O2 0.795784 0.522597 0.362524
O O3 0.747066 0.608138 0.425246
O O4 0.000000 0.586563 0.343261
O O5 0.755079 0.931570 0.595658
O O6 0.782627 0.896568 0.433940
O O7 0.748208 0.839709 0.578609
O O8 0.000000 0.886304 0.546244
O O9 0.250000 0.454678 0.250000
O O10 0.500000 0.458146 0.155411
O O11 0.245261 0.433968 0.079275
O O12 0.250000 0.680821 0.750000
O O13 0.223869 0.658064 0.922078
O O14 0.218464 0.749805 0.863595
O O15 0.000000 0.692252 0.835857
O O16 0.500000 0.023638 0.363316
O O17 0.339399 0.000000 0.500000
O O18 0.240962 0.976454 0.349184
O O19 0.750000 0.098572 0.750000
O O20 0.500000 0.076562 0.832392
O O21 0.000000 0.607506 0.979330
O O22 0.250000 0.182064 0.250000
O O23 0.500000 0.189849 0.343374
#
# Coordination Sequence:
#
# PCOD9416786 Si02
#       8
#     8   8   8   8   8   8   8   8
#     4  10  21  36  52  72 101 137 175 214 253 296
#     4  10  20  34  52  76 104 133 169 211 253 298
#     4  10  20  33  49  73 105 138 173 211 252 299
#     4   9  20  36  54  78 105 131 161 202 251 303
#     4   9  17  30  48  70  97 130 167 204 244 290
#     4  10  20  33  50  73 104 138 171 209 249 292
#     4  11  21  33  52  77 104 135 171 209 253 304
#     4  10  20  36  56  77 102 131 164 204 252 303
#
# _framework density 17.092426
#
# number of rings (size 3 to 8) (size 9 to 14) (size 15 to 20)
#    0.000    2.125    0.000    3.375    0.000    9.000 
#    0.000    2.500    0.000    0.750    0.000    1.750 
#    0.000    0.000    0.000    0.000    0.000    0.000 
#
# Total GULP energy -357273.978105 kJ/mol
# GULP energy per Si atom -5582.405908 kJ/mol
# Density = 1.705352 g / cm^3
# Si number density = 17.092426 Si / 1000 Ang^3
#
#
#
# Elastic Constant Matrix: (Units=GPa)
#
#
# Indices 1 2 3 4 5 6 
#
# 1 74.5493 50.2224 62.5759 0.0000 0.0000 0.0000
# 2 50.2224 79.6275 78.9585 0.0000 0.0000 0.0000
# 3 62.5759 78.9585 140.5799 0.0000 0.0000 0.0000
# 4 0.0000 0.0000 0.0000 23.4150 0.0000 0.0000
# 5 0.0000 0.0000 0.0000 0.0000 32.6418 0.0000
# 6 0.0000 0.0000 0.0000 0.0000 0.0000 55.7255
#
#
#
# Elastic Compliance Matrix: (Units=1/GPa)
#
#
# Indices 1 2 3 4 5 6 
#
# 1 0.024843 -0.010616 -0.005096 0.000000 0.000000 0.000000
# 2 -0.010616 0.032882 -0.013743 0.000000 0.000000 0.000000
# 3 -0.005096 -0.013743 0.017100 0.000000 0.000000 0.000000
# 4 0.000000 0.000000 0.000000 0.042708 0.000000 0.000000
# 5 0.000000 0.000000 0.000000 0.000000 0.030636 0.000000
# 6 0.000000 0.000000 0.000000 0.000000 0.000000 0.017945
#
#
# Mechanical properties :
#
#
# Convention : Reuss Voigt Hill
#
# Bulk Modulus (GPa) = 62.83025 75.36337 69.09681
# Shear Modulus (GPa) = 21.70817 29.22311 25.46564
#
# Velocity S-wave (km/s) = 3.56764 4.13935 3.86408
# Velocity P-wave (km/s) = 7.33550 8.18737 7.77312
#
# Compressibility (1/GPa) = 0.01591590
#
# Stress axis : x y z
#
# Youngs Moduli (GPa) = 40.25274 30.41210 58.47796
#
# Poissons Ratio (x) = 0.32286 0.29798
# Poissons Ratio (y) = 0.42733 0.80366
# Poissons Ratio (z) = 0.20511 0.41795
#
# Static dielectric constant tensor:
#      x y z
#    x 1.571660 0.000000 0.000000 
#    y 0.000000 1.565710 0.000000 
#    z 0.000000 0.000000 1.587600 
# 
# From -- ./inp_files/21029.got.cif
#   From: 2010.05.17/outbox.cif.g08.bks.cpg/sg53_11_cif.got.tgz:21029.got - 2010.06.03 12:45:16.
