data_PCOD9416595
_publ_section_title
;
Structure prediction by ZEFSAII (Michael W. Deem and Ramdas Pophale) SiO2 
 PCOD9416595
Probable space group: P M N A
;
_chemical_formula_sum "Si O2"
_cell_formula_units_Z 56
_cell_length_a 9.000950
_cell_length_b 21.371983
_cell_length_c 15.618957
_cell_angle_alpha 90.000000
_cell_angle_beta 90.000000
_cell_angle_gamma 90.000000
_cell_volume 3004.589869
_symmetry_space_group_name_H-M "P M N A"
_symmetry_group_IT_number 53
_symmetry_cell_setting 'orthorhombic'
loop_
_space_group_symop_operation_xyz
x,y,z
1/2-x,-y,1/2+z
x,-y,-z
1/2-x,y,1/2-z
-x,-y,-z
1/2+x,y,1/2-z
-x,y,z
1/2+x,-y,1/2+z
loop_
_atom_site_type_symbol
_atom_site_label
_atom_site_fract_x
_atom_site_fract_y
_atom_site_fract_z
Si Si1 0.822063 0.643428 0.160409
Si Si2 0.178329 0.148074 0.007550
Si Si3 0.175524 0.496964 0.897250
Si Si4 0.176102 0.091973 0.662112
Si Si5 0.176382 0.622675 0.661514
Si Si6 0.669625 0.026974 0.402795
Si Si7 0.321859 0.292912 0.483765
O O1 0.750000 0.661445 0.250000
O O2 0.782761 0.571698 0.136377
O O3 0.000000 0.646115 0.168562
O O4 0.779686 0.686402 0.079911
O O5 0.259554 0.128328 0.920182
O O6 0.000000 0.141147 0.993876
O O7 0.217562 0.098527 0.082277
O O8 0.208813 0.219753 0.029307
O O9 0.270660 0.551698 0.855606
O O10 0.000000 0.507456 0.879007
O O11 0.193110 0.500000 0.000000
O O12 0.250000 0.114715 0.750000
O O13 0.000000 0.097322 0.665812
O O14 0.225429 0.019583 0.648507
O O15 0.250000 0.644143 0.750000
O O16 0.238105 0.664257 0.583980
O O17 0.000000 0.625889 0.666606
O O18 0.500000 0.023770 0.369627
O O19 0.666341 0.000000 0.500000
O O20 0.500000 0.303564 0.475158
#
# Coordination Sequence:
#
# PCOD9416595 Si02
#       7
#     8   8   8   8   8   8   8
#     4  10  21  36  57  83 115 151 188 234 286 346
#     4   9  19  36  59  81 108 146 185 227 279 338
#     4  10  19  37  62  86 114 148 188 239 298 350
#     4  11  21  33  53  81 114 147 184 229 274 329
#     4  12  25  40  61  87 115 150 195 245 295 350
#     4   8  15  31  53  78 105 134 172 218 269 322
#     4  10  21  41  62  83 115 157 197 237 290 345
#
# _framework density 18.638151000000001
#
# number of rings (size 3 to 8) (size 9 to 14) (size 15 to 20)
#    0.000    2.000    1.429    3.857    0.000    6.286 
#    0.000    2.143    0.000    0.000    0.000    0.000 
#    0.000    0.000    0.000    0.000    0.000    0.000 
#
# Total GULP energy -312721.582584 kJ/mol
# GULP energy per Si atom -5584.313975 kJ/mol
# Density = 1.859573 g / cm^3
# Si number density = 18.638151 Si / 1000 Ang^3
#
#
#
# Elastic Constant Matrix: (Units=GPa)
#
#
# Indices 1 2 3 4 5 6 
#
# 1 52.8672 19.0334 17.6206 0.0000 0.0000 0.0000
# 2 19.0334 78.0720 1.2109 0.0000 0.0000 0.0000
# 3 17.6206 1.2109 55.7501 0.0000 0.0000 0.0000
# 4 0.0000 0.0000 0.0000 6.5040 0.0000 0.0000
# 5 0.0000 0.0000 0.0000 0.0000 28.6967 0.0000
# 6 0.0000 0.0000 0.0000 0.0000 0.0000 63.5453
#
#
#
# Elastic Compliance Matrix: (Units=1/GPa)
#
#
# Indices 1 2 3 4 5 6 
#
# 1 0.023342 -0.005578 -0.007256 0.000000 0.000000 0.000000
# 2 -0.005578 0.014146 0.001456 0.000000 0.000000 0.000000
# 3 -0.007256 0.001456 0.020199 0.000000 0.000000 0.000000
# 4 0.000000 0.000000 0.000000 0.153752 0.000000 0.000000
# 5 0.000000 0.000000 0.000000 0.000000 0.034847 0.000000
# 6 0.000000 0.000000 0.000000 0.000000 0.000000 0.015737
#
#
# Mechanical properties :
#
#
# Convention : Reuss Voigt Hill
#
# Bulk Modulus (GPa) = 28.62893 29.15767 28.89330
# Shear Modulus (GPa) = 16.86771 29.67081 23.26926
#
# Velocity S-wave (km/s) = 3.01160 3.99424 3.53721
# Velocity P-wave (km/s) = 5.24278 6.07865 5.67612
#
# Compressibility (1/GPa) = 0.03492970
#
# Stress axis : x y z
#
# Youngs Moduli (GPa) = 42.84098 70.69134 49.50720
#
# Poissons Ratio (x) = 0.39432 0.35925
# Poissons Ratio (y) = 0.23897 -0.07207
# Poissons Ratio (z) = 0.31087 -0.10291
#
# Static dielectric constant tensor:
#      x y z
#    x 1.620160 0.000000 0.000000 
#    y 0.000000 1.657310 0.000000 
#    z 0.000000 0.000000 1.634150 
# 
# From -- ./inp_files/20626.got.cif
#   From: 2010.05.17/outbox.cif.g08.bks.cpg/sg53_11_cif.got.tgz:20626.got - 2010.06.03 12:45:16.
