data_PCOD9416588
_publ_section_title
;
Structure prediction by ZEFSAII (Michael W. Deem and Ramdas Pophale) SiO2 
 PCOD9416588
Probable space group: P M N A
;
_chemical_formula_sum "Si O2"
_cell_formula_units_Z 48
_cell_length_a 7.871962
_cell_length_b 9.616039
_cell_length_c 32.000461
_cell_angle_alpha 90.000000
_cell_angle_beta 90.000000
_cell_angle_gamma 90.000000
_cell_volume 2422.341892
_symmetry_space_group_name_H-M "P M N A"
_symmetry_group_IT_number 53
_symmetry_cell_setting 'orthorhombic'
loop_
_space_group_symop_operation_xyz
x,y,z
1/2-x,-y,1/2+z
x,-y,-z
1/2-x,y,1/2-z
-x,-y,-z
1/2+x,y,1/2-z
-x,y,z
1/2+x,-y,1/2+z
loop_
_atom_site_type_symbol
_atom_site_label
_atom_site_fract_x
_atom_site_fract_y
_atom_site_fract_z
Si Si1 0.695036 0.156957 0.568929
Si Si2 0.793639 0.901567 0.622153
Si Si3 0.200229 0.416093 0.107982
Si Si4 0.000000 0.163721 0.507520
Si Si5 0.805764 0.935183 0.297199
Si Si6 0.199206 0.323199 0.844606
Si Si7 0.000000 0.422108 0.455769
O O1 0.500000 0.173206 0.555428
O O2 0.724384 0.249316 0.610343
O O3 0.831970 0.196064 0.534350
O O4 0.728596 0.999403 0.584560
O O5 0.729617 0.744927 0.618456
O O6 0.000000 0.904904 0.621297
O O7 0.726879 0.973780 0.665129
O O8 0.245606 0.517327 0.146863
O O9 0.331186 0.452613 0.070947
O O10 0.000000 0.440735 0.098040
O O11 0.000000 0.258022 0.466645
O O12 0.000000 0.000000 0.500000
O O13 0.750000 0.956336 0.250000
O O14 0.788663 0.774103 0.310983
O O15 0.000000 0.975112 0.298061
O O16 0.000000 0.316370 0.834543
O O17 0.000000 0.500000 0.500000
#
# Coordination Sequence:
#
# PCOD9416588 Si02
#       7
#     8   8   8   4   8   8   4
#     4  10  20  37  59  80 109 151 197 242 297 352
#     4  10  19  37  61  86 116 157 202 246 292 362
#     4  11  23  40  62  87 116 158 206 242 296 360
#     4  12  24  36  54  82 116 146 196 252 298 354
#     4  10  21  35  60  91 123 154 189 240 297 349
#     4   9  20  37  60  85 110 148 198 239 278 351
#     4  12  26  40  60  86 124 158 196 262 306 348
#
# _framework density 19.815534
#
# number of rings (size 3 to 8) (size 9 to 14) (size 15 to 20)
#    0.000    1.667    1.667    3.000    2.333    3.333 
#    0.000    0.833    0.000    2.000    0.000    0.000 
#    0.000    0.000    0.000    0.000    0.000    0.000 
#
# Total GULP energy -268019.307702 kJ/mol
# GULP energy per Si atom -5583.735577 kJ/mol
# Density = 1.977043 g / cm^3
# Si number density = 19.815534 Si / 1000 Ang^3
#
#
#
# Elastic Constant Matrix: (Units=GPa)
#
#
# Indices 1 2 3 4 5 6 
#
# 1 83.5022 -1.3135 36.5778 0.0000 0.0000 0.0000
# 2 -1.3135 84.9975 3.8690 0.0000 0.0000 0.0000
# 3 36.5778 3.8690 74.6405 0.0000 0.0000 0.0000
# 4 0.0000 0.0000 0.0000 15.3492 0.0000 0.0000
# 5 0.0000 0.0000 0.0000 0.0000 19.6997 0.0000
# 6 0.0000 0.0000 0.0000 0.0000 0.0000 20.9835
#
#
#
# Elastic Compliance Matrix: (Units=1/GPa)
#
#
# Indices 1 2 3 4 5 6 
#
# 1 0.015278 0.000578 -0.007517 0.000000 0.000000 0.000000
# 2 0.000578 0.011815 -0.000896 0.000000 0.000000 0.000000
# 3 -0.007517 -0.000896 0.017128 0.000000 0.000000 0.000000
# 4 0.000000 0.000000 0.000000 0.065150 0.000000 0.000000
# 5 0.000000 0.000000 0.000000 0.000000 0.050762 0.000000
# 6 0.000000 0.000000 0.000000 0.000000 0.000000 0.047656
#
#
# Mechanical properties :
#
#
# Convention : Reuss Voigt Hill
#
# Bulk Modulus (GPa) = 35.02475 35.71189 35.36832
# Shear Modulus (GPa) = 21.46163 24.80696 23.13430
#
# Velocity S-wave (km/s) = 3.29457 3.54205 3.42055
# Velocity P-wave (km/s) = 5.67328 5.89826 5.78686
#
# Compressibility (1/GPa) = 0.02855124
#
# Stress axis : x y z
#
# Youngs Moduli (GPa) = 65.45566 84.63989 58.38528
#
# Poissons Ratio (x) = -0.04894 0.43887
# Poissons Ratio (y) = -0.03785 0.05230
# Poissons Ratio (z) = 0.49202 0.07582
#
# Static dielectric constant tensor:
#      x y z
#    x 1.712990 0.000000 0.000000 
#    y 0.000000 1.735070 0.000000 
#    z 0.000000 0.000000 1.715190 
# 
# From -- ./inp_files/37860.got.cif
#   From: 2010.05.17/outbox.cif.g08.bks.cpg/sg53_19_cif.got.tgz:37860.got - 2010.06.03 12:45:16.
