data_PCOD9416169
_publ_section_title
;
Structure prediction by ZEFSAII (Michael W. Deem and Ramdas Pophale) SiO2 
 PCOD9416169
Probable space group: P M N A
;
_chemical_formula_sum "Si O2"
_cell_formula_units_Z 64
_cell_length_a 8.689605
_cell_length_b 22.234539
_cell_length_c 18.215382
_cell_angle_alpha 90.000000
_cell_angle_beta 90.000000
_cell_angle_gamma 90.000000
_cell_volume 3519.382321
_symmetry_space_group_name_H-M "P M N A"
_symmetry_group_IT_number 53
_symmetry_cell_setting 'orthorhombic'
loop_
_space_group_symop_operation_xyz
x,y,z
1/2-x,-y,1/2+z
x,-y,-z
1/2-x,y,1/2-z
-x,-y,-z
1/2+x,y,1/2-z
-x,y,z
1/2+x,-y,1/2+z
loop_
_atom_site_type_symbol
_atom_site_label
_atom_site_fract_x
_atom_site_fract_y
_atom_site_fract_z
Si Si1 0.313847 0.872726 0.406645
Si Si2 0.686053 0.996447 0.330746
Si Si3 0.316388 0.625226 0.326576
Si Si4 0.814205 0.567617 0.019377
Si Si5 0.183855 0.685374 0.549481
Si Si6 0.687199 0.110998 0.424490
Si Si7 0.184513 0.227857 0.168233
Si Si8 0.316158 0.743868 0.106713
O O1 0.500000 0.869307 0.405827
O O2 0.266631 0.930905 0.360060
O O3 0.263260 0.881927 0.491314
O O4 0.247016 0.810041 0.378348
O O5 0.750000 0.008008 0.250000
O O6 0.500000 0.997566 0.328377
O O7 0.736189 0.048839 0.386718
O O8 0.250000 0.602514 0.250000
O O9 0.500000 0.626871 0.323035
O O10 0.270656 0.585754 0.397390
O O11 0.253954 0.692210 0.342249
O O12 0.000000 0.571494 0.013881
O O13 0.767233 0.500000 0.000000
O O14 0.742367 0.618319 0.967136
O O15 0.258456 0.716104 0.619996
O O16 0.226699 0.724501 0.476910
O O17 0.000000 0.685901 0.555950
O O18 0.500000 0.110805 0.425617
O O19 0.735965 0.167593 0.375115
O O20 0.250000 0.228583 0.250000
O O21 0.000000 0.227706 0.171018
O O22 0.500000 0.742766 0.112679
#
# Coordination Sequence:
#
# PCOD9416169 Si02
#       8
#     8   8   8   8   8   8   8   8
#     4  10  19  34  56  78 102 138 184 226 273 331
#     4  10  21  36  53  74 103 138 177 226 277 334
#     4  10  20  35  57  84 115 148 185 227 273 323
#     4   9  19  37  61  86 113 151 192 227 270 325
#     4  10  20  35  55  81 112 144 181 225 271 322
#     4   9  18  34  56  78 100 136 183 227 273 330
#     4  11  21  34  55  81 110 142 181 228 281 334
#     4  10  20  34  54  80 110 141 179 225 273 324
#
# _framework density 18.185009000000001
#
# number of rings (size 3 to 8) (size 9 to 14) (size 15 to 20)
#    0.000    2.125    1.250    2.250    0.000    4.250 
#    0.000    3.125    0.000    3.000    0.000    0.000 
#    0.000    0.000    0.000    0.000    0.000    0.000 
#
# Total GULP energy -357362.356781 kJ/mol
# GULP energy per Si atom -5583.786825 kJ/mol
# Density = 1.814362 g / cm^3
# Si number density = 18.185009 Si / 1000 Ang^3
#
#
#
# Elastic Constant Matrix: (Units=GPa)
#
#
# Indices 1 2 3 4 5 6 
#
# 1 20.4600 18.8118 11.4007 0.0000 0.0000 0.0000
# 2 18.8118 120.5553 16.8246 0.0000 0.0000 0.0000
# 3 11.4007 16.8246 51.3170 0.0000 0.0000 0.0000
# 4 0.0000 0.0000 0.0000 17.2190 0.0000 0.0000
# 5 0.0000 0.0000 0.0000 0.0000 27.8340 0.0000
# 6 0.0000 0.0000 0.0000 0.0000 0.0000 3.4108
#
#
#
# Elastic Compliance Matrix: (Units=1/GPa)
#
#
# Indices 1 2 3 4 5 6 
#
# 1 0.062688 -0.008214 -0.011234 0.000000 0.000000 0.000000
# 2 -0.008214 0.009769 -0.001378 0.000000 0.000000 0.000000
# 3 -0.011234 -0.001378 0.022434 0.000000 0.000000 0.000000
# 4 0.000000 0.000000 0.000000 0.058075 0.000000 0.000000
# 5 0.000000 0.000000 0.000000 0.000000 0.035927 0.000000
# 6 0.000000 0.000000 0.000000 0.000000 0.000000 0.293190
#
#
# Mechanical properties :
#
#
# Convention : Reuss Voigt Hill
#
# Bulk Modulus (GPa) = 18.78308 31.82294 25.30301
# Shear Modulus (GPa) = 9.23390 19.37908 14.30649
#
# Velocity S-wave (km/s) = 2.25583 3.26799 2.80789
# Velocity P-wave (km/s) = 4.13961 5.63713 4.94538
#
# Compressibility (1/GPa) = 0.05323942
#
# Stress axis : x y z
#
# Youngs Moduli (GPa) = 15.95194 102.36419 44.57480
#
# Poissons Ratio (x) = 0.84085 0.50074
# Poissons Ratio (y) = 0.13103 0.06142
# Poissons Ratio (z) = 0.17920 0.14105
#
# Static dielectric constant tensor:
#      x y z
#    x 1.612220 0.000000 0.000000 
#    y 0.000000 1.604130 0.000000 
#    z 0.000000 0.000000 1.609310 
# 
# From -- ./inp_files/26923.got.cif
#   From: 2010.05.17/outbox.cif.g08.bks.cpg/sg53_14_cif.got.tgz:26923.got - 2010.06.03 12:45:16.
