data_PCOD9416354
_publ_section_title
;
Structure prediction by ZEFSAII (Michael W. Deem and Ramdas Pophale) SiO2 
 PCOD9416354
Probable space group: P M N A
;
_chemical_formula_sum "Si O2"
_cell_formula_units_Z 64
_cell_length_a 8.791525
_cell_length_b 22.073493
_cell_length_c 18.006880
_cell_angle_alpha 90.000000
_cell_angle_beta 90.000000
_cell_angle_gamma 90.000000
_cell_volume 3494.409110
_symmetry_space_group_name_H-M "P M N A"
_symmetry_group_IT_number 53
_symmetry_cell_setting 'orthorhombic'
loop_
_space_group_symop_operation_xyz
x,y,z
1/2-x,-y,1/2+z
x,-y,-z
1/2-x,y,1/2-z
-x,-y,-z
1/2+x,y,1/2-z
-x,y,z
1/2+x,-y,1/2+z
loop_
_atom_site_type_symbol
_atom_site_label
_atom_site_fract_x
_atom_site_fract_y
_atom_site_fract_z
Si Si1 0.317869 0.121330 0.103103
Si Si2 0.317203 0.311969 0.954182
Si Si3 0.181743 0.375923 0.173167
Si Si4 0.683002 0.100922 0.929403
Si Si5 0.316135 0.568978 0.516427
Si Si6 0.318997 0.997829 0.671041
Si Si7 0.682709 0.781764 0.168102
Si Si8 0.817243 0.251233 0.101551
O O1 0.500000 0.119496 0.111009
O O2 0.243052 0.068637 0.151326
O O3 0.255273 0.187482 0.122585
O O4 0.280426 0.109655 0.016037
O O5 0.500000 0.310514 0.961267
O O6 0.274256 0.278418 0.877913
O O7 0.256935 0.380124 0.963765
O O8 0.246010 0.273085 0.021706
O O9 0.250000 0.397547 0.250000
O O10 0.229275 0.413085 0.100313
O O11 0.224057 0.306022 0.156889
O O12 0.000000 0.378915 0.177293
O O13 0.500000 0.093532 0.924061
O O14 0.727091 0.160262 0.881971
O O15 0.762125 0.043269 0.892778
O O16 0.273602 0.500000 0.500000
O O17 0.500000 0.574384 0.511040
O O18 0.250000 0.017790 0.750000
O O19 0.500000 0.997814 0.675273
O O20 0.750000 0.784511 0.250000
O O21 0.500000 0.782924 0.173551
O O22 0.000000 0.246717 0.097898
#
# Coordination Sequence:
#
# PCOD9416354 Si02
#       8
#     8   8   8   8   8   8   8   8
#     4  11  22  39  62  86 114 148 185 235 292 342
#     4  10  19  35  56  82 114 146 186 232 278 331
#     4   9  19  34  54  82 113 148 186 229 277 329
#     4  10  21  40  61  83 112 147 187 234 289 344
#     4   9  19  37  59  83 113 151 192 233 281 336
#     4  12  26  42  58  81 111 148 193 239 290 346
#     4  10  21  36  55  83 114 147 186 231 284 339
#     4  10  20  35  56  83 113 147 189 229 276 338
#
# _framework density 18.314971
#
# number of rings (size 3 to 8) (size 9 to 14) (size 15 to 20)
#    0.000    1.875    1.250    3.750    0.000    8.250 
#    0.000    1.875    0.000    3.000    0.000    0.000 
#    0.000    0.000    0.000    0.000    0.000    0.000 
#
# Total GULP energy -357488.950165 kJ/mol
# GULP energy per Si atom -5585.764846 kJ/mol
# Density = 1.827328 g / cm^3
# Si number density = 18.314971 Si / 1000 Ang^3
#
#
#
# Elastic Constant Matrix: (Units=GPa)
#
#
# Indices 1 2 3 4 5 6 
#
# 1 36.6349 26.5958 15.8557 0.0000 0.0000 0.0000
# 2 26.5958 105.9865 7.7400 0.0000 0.0000 0.0000
# 3 15.8557 7.7400 51.0208 0.0000 0.0000 0.0000
# 4 0.0000 0.0000 0.0000 14.5835 0.0000 0.0000
# 5 0.0000 0.0000 0.0000 0.0000 29.5139 0.0000
# 6 0.0000 0.0000 0.0000 0.0000 0.0000 32.5054
#
#
#
# Elastic Compliance Matrix: (Units=1/GPa)
#
#
# Indices 1 2 3 4 5 6 
#
# 1 0.038279 -0.008835 -0.010556 0.000000 0.000000 0.000000
# 2 -0.008835 0.011580 0.000989 0.000000 0.000000 0.000000
# 3 -0.010556 0.000989 0.022730 0.000000 0.000000 0.000000
# 4 0.000000 0.000000 0.000000 0.068571 0.000000 0.000000
# 5 0.000000 0.000000 0.000000 0.000000 0.033882 0.000000
# 6 0.000000 0.000000 0.000000 0.000000 0.000000 0.030764
#
#
# Mechanical properties :
#
#
# Convention : Reuss Voigt Hill
#
# Bulk Modulus (GPa) = 27.94396 32.66945 30.30671
# Shear Modulus (GPa) = 19.64352 24.88395 22.26373
#
# Velocity S-wave (km/s) = 3.27852 3.69001 3.49033
# Velocity P-wave (km/s) = 5.44262 6.00260 5.72945
#
# Compressibility (1/GPa) = 0.03578591
#
# Stress axis : x y z
#
# Youngs Moduli (GPa) = 26.12430 86.35675 43.99429
#
# Poissons Ratio (x) = 0.76293 0.46439
# Poissons Ratio (y) = 0.23080 -0.04350
# Poissons Ratio (z) = 0.27576 -0.08539
#
# Static dielectric constant tensor:
#      x y z
#    x 1.614850 0.000000 0.000000 
#    y 0.000000 1.623070 0.000000 
#    z 0.000000 0.000000 1.611900 
# 
# From -- ./inp_files/26985.got.cif
#   From: 2010.05.17/outbox.cif.g08.bks.cpg/sg53_14_cif.got.tgz:26985.got - 2010.06.03 12:45:16.
