data_PCOD9416122
_publ_section_title
;
Structure prediction by ZEFSAII (Michael W. Deem and Ramdas Pophale) SiO2 
 PCOD9416122
Probable space group: P M N A
;
_chemical_formula_sum "Si O2"
_cell_formula_units_Z 64
_cell_length_a 14.911442
_cell_length_b 21.547777
_cell_length_c 9.162716
_cell_angle_alpha 90.000000
_cell_angle_beta 90.000000
_cell_angle_gamma 90.000000
_cell_volume 2944.057865
_symmetry_space_group_name_H-M "P M N A"
_symmetry_group_IT_number 53
_symmetry_cell_setting 'orthorhombic'
loop_
_space_group_symop_operation_xyz
x,y,z
1/2-x,-y,1/2+z
x,-y,-z
1/2-x,y,1/2-z
-x,-y,-z
1/2+x,y,1/2-z
-x,y,z
1/2+x,-y,1/2+z
loop_
_atom_site_type_symbol
_atom_site_label
_atom_site_fract_x
_atom_site_fract_y
_atom_site_fract_z
Si Si1 0.890461 0.920692 0.622140
Si Si2 0.105039 0.834649 0.105308
Si Si3 0.102613 0.673288 0.866904
Si Si4 0.109388 0.197726 0.217663
Si Si5 0.609490 0.050361 0.790168
Si Si6 0.651527 0.699299 0.313247
Si Si7 0.348857 0.441900 0.182134
Si Si8 0.653603 0.421118 0.835849
O O1 0.857555 0.853852 0.672059
O O2 0.865260 0.933120 0.455812
O O3 0.000000 0.920426 0.624509
O O4 0.863452 0.978277 0.726393
O O5 0.143423 0.895250 0.184947
O O6 0.110885 0.768455 0.187861
O O7 0.000000 0.847847 0.086044
O O8 0.140442 0.822169 0.943569
O O9 0.134198 0.730433 0.765847
O O10 0.104360 0.610566 0.777097
O O11 0.000000 0.686692 0.912564
O O12 0.154891 0.675456 0.019214
O O13 0.000000 0.195617 0.223722
O O14 0.500000 0.051272 0.783290
O O15 0.750000 0.708189 0.250000
O O16 0.609188 0.642429 0.221120
O O17 0.250000 0.444585 0.250000
O O18 0.388163 0.511308 0.198495
O O19 0.340991 0.423023 0.011885
O O20 0.750000 0.421272 0.750000
#
# Coordination Sequence:
#
# PCOD9416122 Si02
#       8
#     8   8   8   8   8   8   8   8
#     4   8  13  23  38  60  89 124 161 200 245 301
#     4   9  17  29  44  68  97 125 160 211 264 306
#     4  10  21  37  54  79 113 145 177 225 280 324
#     4   8  15  27  43  63  95 132 165 203 252 303
#     4   8  14  23  38  62  93 122 157 204 253 300
#     4  10  19  34  54  75 101 137 179 217 259 318
#     4  10  19  35  58  79 103 138 179 221 265 323
#     4   9  19  34  54  80 105 133 177 225 264 311
#
# _framework density 21.738705
#
# number of rings (size 3 to 8) (size 9 to 14) (size 15 to 20)
#    0.000    3.000    0.000    3.375    0.000    3.000 
#    0.000    8.125    0.000    0.000    0.000    7.875 
#    0.000    0.000    0.000    0.000    0.000    0.000 
#
# Total GULP energy -356570.639091 kJ/mol
# GULP energy per Si atom -5571.416236 kJ/mol
# Density = 2.168923 g / cm^3
# Si number density = 21.738705 Si / 1000 Ang^3
#
#
#
# Elastic Constant Matrix: (Units=GPa)
#
#
# Indices 1 2 3 4 5 6 
#
# 1 42.3587 -2.9088 4.2581 0.0000 0.0000 0.0000
# 2 -2.9088 29.7382 -13.1946 0.0000 0.0000 0.0000
# 3 4.2581 -13.1946 21.3611 0.0000 0.0000 0.0000
# 4 0.0000 0.0000 0.0000 42.9868 0.0000 0.0000
# 5 0.0000 0.0000 0.0000 0.0000 13.2896 0.0000
# 6 0.0000 0.0000 0.0000 0.0000 0.0000 43.7921
#
#
#
# Elastic Compliance Matrix: (Units=1/GPa)
#
#
# Indices 1 2 3 4 5 6 
#
# 1 0.024093 0.000311 -0.004611 0.000000 0.000000 0.000000
# 2 0.000311 0.046326 0.028553 0.000000 0.000000 0.000000
# 3 -0.004611 0.028553 0.065370 0.000000 0.000000 0.000000
# 4 0.000000 0.000000 0.000000 0.023263 0.000000 0.000000
# 5 0.000000 0.000000 0.000000 0.000000 0.075247 0.000000
# 6 0.000000 0.000000 0.000000 0.000000 0.000000 0.022835
#
#
# Mechanical properties :
#
#
# Convention : Reuss Voigt Hill
#
# Bulk Modulus (GPa) = 5.42605 7.75194 6.58899
# Shear Modulus (GPa) = 18.51450 27.03392 22.77421
#
# Velocity S-wave (km/s) = 2.92153 3.53028 3.24023
# Velocity P-wave (km/s) = 3.72584 4.49342 4.12751
#
# Compressibility (1/GPa) = 0.18429607
#
# Stress axis : x y z
#
# Youngs Moduli (GPa) = 41.50626 21.58619 15.29747
#
# Poissons Ratio (x) = -0.00671 0.07053
# Poissons Ratio (y) = -0.01291 -0.43679
# Poissons Ratio (z) = 0.19137 -0.61635
#
# Static dielectric constant tensor:
#      x y z
#    x 1.832150 0.000000 0.000000 
#    y 0.000000 1.851320 0.000000 
#    z 0.000000 0.000000 1.757960 
# 
# From -- ./inp_files/8951.got.cif
#   From: 2010.05.17/outbox.cif.g08.bks.cpg/sg53_5_cif.got.tgz:8951.got - 2010.06.03 12:45:16.
