data_PCOD9416711
_publ_section_title
;
Structure prediction by ZEFSAII (Michael W. Deem and Ramdas Pophale) SiO2 
 PCOD9416711
Probable space group: P M N A
;
_chemical_formula_sum "Si O2"
_cell_formula_units_Z 64
_cell_length_a 9.170626
_cell_length_b 21.917967
_cell_length_c 19.184498
_cell_angle_alpha 90.000000
_cell_angle_beta 90.000000
_cell_angle_gamma 90.000000
_cell_volume 3856.112453
_symmetry_space_group_name_H-M "P M N A"
_symmetry_group_IT_number 53
_symmetry_cell_setting 'orthorhombic'
loop_
_space_group_symop_operation_xyz
x,y,z
1/2-x,-y,1/2+z
x,-y,-z
1/2-x,y,1/2-z
-x,-y,-z
1/2+x,y,1/2-z
-x,y,z
1/2+x,-y,1/2+z
loop_
_atom_site_type_symbol
_atom_site_label
_atom_site_fract_x
_atom_site_fract_y
_atom_site_fract_z
Si Si1 0.328977 0.693465 0.504980
Si Si2 0.327981 0.853528 0.401722
Si Si3 0.827208 0.602200 0.319927
Si Si4 0.670062 0.736450 0.131960
Si Si5 0.327272 0.101856 0.176397
Si Si6 0.173886 0.040102 0.675653
Si Si7 0.169859 0.816854 0.936045
Si Si8 0.326662 0.561857 0.462488
O O1 0.500000 0.702445 0.482273
O O2 0.219751 0.713006 0.444084
O O3 0.306480 0.743471 0.564908
O O4 0.308871 0.621192 0.512573
O O5 0.500000 0.860484 0.389962
O O6 0.266526 0.796471 0.356892
O O7 0.242411 0.913758 0.379635
O O8 0.305845 0.837763 0.483611
O O9 0.750000 0.579028 0.250000
O O10 0.806817 0.675880 0.322775
O O11 0.755668 0.575404 0.390211
O O12 0.000000 0.590522 0.319276
O O13 0.500000 0.752888 0.133644
O O14 0.250000 0.114494 0.250000
O O15 0.500000 0.108393 0.184581
O O16 0.268089 0.146013 0.116799
O O17 0.297031 0.030844 0.158034
O O18 0.250000 0.052211 0.750000
O O19 0.000000 0.048564 0.681093
O O20 0.000000 0.828623 0.919943
O O21 0.278394 0.500000 0.500000
O O22 0.500000 0.556860 0.447595
#
# Coordination Sequence:
#
# PCOD9416711 Si02
#       8
#     8   8   8   8   8   8   8   8
#     4   8  15  29  48  72 100 127 156 191 235 287
#     4  10  20  33  50  73 101 133 165 200 244 293
#     4  10  20  32  48  71 100 134 171 211 249 288
#     4   9  17  29  45  67  95 127 162 199 239 283
#     4  10  21  36  54  73  94 123 161 206 255 305
#     4  10  21  36  51  68  93 126 163 204 249 299
#     4   9  18  32  51  74 100 129 160 199 245 291
#     4   9  17  31  53  78 104 136 170 203 244 294
#
# _framework density 16.597026
#
# number of rings (size 3 to 8) (size 9 to 14) (size 15 to 20)
#    0.000    2.625    0.000    2.625    0.000    6.750 
#    0.000    3.750    0.000    0.750    0.000    0.000 
#    0.000    0.000    0.000    0.000    0.000    0.000 
#
# Total GULP energy -356521.536477 kJ/mol
# GULP energy per Si atom -5570.649007 kJ/mol
# Density = 1.655925 g / cm^3
# Si number density = 16.597026 Si / 1000 Ang^3
#
#
#
# Elastic Constant Matrix: (Units=GPa)
#
#
# Indices 1 2 3 4 5 6 
#
# 1 73.9504 60.0623 51.4060 0.0000 0.0000 0.0000
# 2 60.0623 107.4396 56.2696 0.0000 0.0000 0.0000
# 3 51.4060 56.2696 57.3884 0.0000 0.0000 0.0000
# 4 0.0000 0.0000 0.0000 14.7362 0.0000 0.0000
# 5 0.0000 0.0000 0.0000 0.0000 25.9956 0.0000
# 6 0.0000 0.0000 0.0000 0.0000 0.0000 19.6088
#
#
#
# Elastic Compliance Matrix: (Units=1/GPa)
#
#
# Indices 1 2 3 4 5 6 
#
# 1 0.038287 -0.007075 -0.027359 0.000000 0.000000 0.000000
# 2 -0.007075 0.020440 -0.013704 0.000000 0.000000 0.000000
# 3 -0.027359 -0.013704 0.055369 0.000000 0.000000 0.000000
# 4 0.000000 0.000000 0.000000 0.067860 0.000000 0.000000
# 5 0.000000 0.000000 0.000000 0.000000 0.038468 0.000000
# 6 0.000000 0.000000 0.000000 0.000000 0.000000 0.050997
#
#
# Mechanical properties :
#
#
# Convention : Reuss Voigt Hill
#
# Bulk Modulus (GPa) = 56.11610 63.80601 59.96106
# Shear Modulus (GPa) = 13.38195 16.80414 15.09304
#
# Velocity S-wave (km/s) = 2.84260 3.18540 3.01887
# Velocity P-wave (km/s) = 6.68268 7.21503 6.95395
#
# Compressibility (1/GPa) = 0.01782020
#
# Stress axis : x y z
#
# Youngs Moduli (GPa) = 26.11834 48.92381 18.06073
#
# Poissons Ratio (x) = 0.34614 0.49412
# Poissons Ratio (y) = 0.18479 0.24750
# Poissons Ratio (z) = 0.71457 0.67045
#
# Static dielectric constant tensor:
#      x y z
#    x 1.552500 0.000000 0.000000 
#    y 0.000000 1.580960 0.000000 
#    z 0.000000 0.000000 1.543380 
# 
# From -- ./inp_files/27007.got.cif
#   From: 2010.05.17/outbox.cif.g08.bks.cpg/sg53_14_cif.got.tgz:27007.got - 2010.06.03 12:45:16.
