data_PCOD9416727
_publ_section_title
;
Structure prediction by ZEFSAII (Michael W. Deem and Ramdas Pophale) SiO2 
 PCOD9416727
Probable space group: P M N A
;
_chemical_formula_sum "Si O2"
_cell_formula_units_Z 48
_cell_length_a 8.931156
_cell_length_b 16.524761
_cell_length_c 18.777557
_cell_angle_alpha 90.000000
_cell_angle_beta 90.000000
_cell_angle_gamma 90.000000
_cell_volume 2771.289850
_symmetry_space_group_name_H-M "P M N A"
_symmetry_group_IT_number 53
_symmetry_cell_setting 'orthorhombic'
loop_
_space_group_symop_operation_xyz
x,y,z
1/2-x,-y,1/2+z
x,-y,-z
1/2-x,y,1/2-z
-x,-y,-z
1/2+x,y,1/2-z
-x,y,z
1/2+x,-y,1/2+z
loop_
_atom_site_type_symbol
_atom_site_label
_atom_site_fract_x
_atom_site_fract_y
_atom_site_fract_z
Si Si1 0.322094 0.520378 0.672721
Si Si2 0.179522 0.664744 0.172260
Si Si3 0.679073 0.087848 0.466823
Si Si4 0.819691 0.839560 0.672939
Si Si5 0.823033 0.330239 0.399890
Si Si6 0.178294 0.761723 0.454686
O O1 0.250000 0.534746 0.750000
O O2 0.500000 0.525443 0.679400
O O3 0.283856 0.428349 0.650920
O O4 0.263938 0.589456 0.620656
O O5 0.250000 0.677430 0.250000
O O6 0.249343 0.725885 0.115909
O O7 0.000000 0.672621 0.175281
O O8 0.500000 0.097756 0.460233
O O9 0.753976 0.104204 0.389856
O O10 0.745895 0.155632 0.519292
O O11 0.709992 0.000000 0.500000
O O12 0.750000 0.856733 0.750000
O O13 0.781952 0.746995 0.649466
O O14 0.000000 0.846274 0.674318
O O15 0.796912 0.301118 0.480381
O O16 0.000000 0.344486 0.390347
O O17 0.000000 0.772885 0.447097
#
# Coordination Sequence:
#
# PCOD9416727 Si02
#       6
#     8   8   8   8   8   8
#     4  10  20  32  49  73 103 141 181 221 264 308
#     4  10  21  37  55  76 104 139 180 224 267 311
#     4  10  21  38  60  84 110 140 174 215 265 320
#     4  10  20  34  54  81 112 145 179 217 264 315
#     4   9  19  33  50  75 106 140 176 214 259 311
#     4  10  21  37  57  80 105 137 175 215 264 318
#
# _framework density 17.320454999999999
#
# number of rings (size 3 to 8) (size 9 to 14) (size 15 to 20)
#    0.000    2.167    0.000    4.000    0.000    9.333 
#    0.000    4.167    0.000    4.000    0.000    0.000 
#    0.000    0.000    0.000    0.000    0.000    0.000 
#
# Total GULP energy -267964.243960 kJ/mol
# GULP energy per Si atom -5582.588416 kJ/mol
# Density = 1.728103 g / cm^3
# Si number density = 17.320455 Si / 1000 Ang^3
#
#
#
# Elastic Constant Matrix: (Units=GPa)
#
#
# Indices 1 2 3 4 5 6 
#
# 1 80.8107 71.6238 75.5574 0.0000 0.0000 0.0000
# 2 71.6238 109.3525 93.9029 0.0000 0.0000 0.0000
# 3 75.5574 93.9029 124.0506 0.0000 0.0000 0.0000
# 4 0.0000 0.0000 0.0000 17.7428 0.0000 0.0000
# 5 0.0000 0.0000 0.0000 0.0000 31.2492 0.0000
# 6 0.0000 0.0000 0.0000 0.0000 0.0000 24.2328
#
#
#
# Elastic Compliance Matrix: (Units=1/GPa)
#
#
# Indices 1 2 3 4 5 6 
#
# 1 0.034072 -0.012846 -0.011029 0.000000 0.000000 0.000000
# 2 -0.012846 0.030973 -0.015621 0.000000 0.000000 0.000000
# 3 -0.011029 -0.015621 0.026604 0.000000 0.000000 0.000000
# 4 0.000000 0.000000 0.000000 0.056361 0.000000 0.000000
# 5 0.000000 0.000000 0.000000 0.000000 0.032001 0.000000
# 6 0.000000 0.000000 0.000000 0.000000 0.000000 0.041266
#
#
# Mechanical properties :
#
#
# Convention : Reuss Voigt Hill
#
# Bulk Modulus (GPa) = 79.01123 88.48689 83.74906
# Shear Modulus (GPa) = 16.42105 19.52028 17.97067
#
# Velocity S-wave (km/s) = 3.08242 3.36073 3.22458
# Velocity P-wave (km/s) = 7.64099 8.13992 7.89440
#
# Compressibility (1/GPa) = 0.01265643
#
# Stress axis : x y z
#
# Youngs Moduli (GPa) = 29.34973 32.28628 37.58894
#
# Poissons Ratio (x) = 0.41475 0.41456
# Poissons Ratio (y) = 0.37702 0.58719
# Poissons Ratio (z) = 0.32369 0.50436
#
# Static dielectric constant tensor:
#      x y z
#    x 1.575750 0.000000 0.000000 
#    y 0.000000 1.572220 0.000000 
#    z 0.000000 0.000000 1.566880 
# 
# From -- ./inp_files/20247.got.cif
#   From: 2010.05.17/outbox.cif.g08.bks.cpg/sg53_11_cif.got.tgz:20247.got - 2010.06.03 12:45:16.
