data_PCOD9416941
_publ_section_title
;
Structure prediction by ZEFSAII (Michael W. Deem and Ramdas Pophale) SiO2 
 PCOD9416941
Probable space group: P M N A
;
_chemical_formula_sum "Si O2"
_cell_formula_units_Z 64
_cell_length_a 20.039833
_cell_length_b 9.478526
_cell_length_c 14.456792
_cell_angle_alpha 90.000000
_cell_angle_beta 90.000000
_cell_angle_gamma 90.000000
_cell_volume 2746.039856
_symmetry_space_group_name_H-M "P M N A"
_symmetry_group_IT_number 53
_symmetry_cell_setting 'orthorhombic'
loop_
_space_group_symop_operation_xyz
x,y,z
1/2-x,-y,1/2+z
x,-y,-z
1/2-x,y,1/2-z
-x,-y,-z
1/2+x,y,1/2-z
-x,y,z
1/2+x,-y,1/2+z
loop_
_atom_site_type_symbol
_atom_site_label
_atom_site_fract_x
_atom_site_fract_y
_atom_site_fract_z
Si Si1 0.419269 0.165333 0.999972
Si Si2 0.886559 0.438242 0.403821
Si Si3 0.576287 0.884233 0.694747
Si Si4 0.923757 0.716778 0.104478
Si Si5 0.732408 0.575354 0.594626
Si Si6 0.920241 0.848018 0.300077
Si Si7 0.321922 0.139447 0.461244
Si Si8 0.603112 0.551938 0.702929
O O1 0.500000 0.175045 0.005186
O O2 0.393605 0.209340 0.897178
O O3 0.393325 0.270576 0.078141
O O4 0.403084 0.000000 0.000000
O O5 0.913880 0.500000 0.500000
O O6 0.808232 0.470504 0.394098
O O7 0.916937 0.488887 0.307268
O O8 0.500000 0.916559 0.668343
O O9 0.629056 0.922390 0.616634
O O10 0.582928 0.715772 0.700368
O O11 0.590765 0.984261 0.782647
O O12 0.899980 0.774179 0.204913
O O13 0.926028 0.548952 0.124033
O O14 0.000000 0.763218 0.084443
O O15 0.871888 0.775399 0.029943
O O16 0.708585 0.500000 0.500000
O O17 0.727334 0.743166 0.578097
O O18 0.681924 0.544603 0.678280
O O19 0.000000 0.830049 0.305740
O O20 0.287089 0.000000 0.500000
#
# Coordination Sequence:
#
# PCOD9416941 Si02
#       8
#     8   8   8   8   8   8   8   8
#     4  10  21  38  61  87 119 153 191 245 307 360
#     4  11  24  41  64  88 115 157 208 252 301 360
#     4  10  20  33  55  85 121 160 199 239 295 365
#     4  11  21  33  56  88 124 158 194 244 302 362
#     4  10  22  42  61  85 116 157 199 250 303 351
#     4   9  18  33  52  81 118 154 191 239 295 352
#     4  11  21  36  58  87 123 162 202 245 297 364
#     4  11  22  38  59  85 119 158 200 251 300 356
#
# _framework density 23.306287999999999
#
# number of rings (size 3 to 8) (size 9 to 14) (size 15 to 20)
#    0.000    1.625    2.500    2.625    0.000    3.250 
#    0.000    1.875    0.000    0.000    0.000    0.000 
#    0.000    0.000    0.000    0.000    0.000    0.000 
#
# Total GULP energy -357245.258272 kJ/mol
# GULP energy per Si atom -5581.957160 kJ/mol
# Density = 2.325324 g / cm^3
# Si number density = 23.306288 Si / 1000 Ang^3
#
#
#
# Elastic Constant Matrix: (Units=GPa)
#
#
# Indices 1 2 3 4 5 6 
#
# 1 41.1821 -7.1302 -3.4832 0.0000 0.0000 0.0000
# 2 -7.1302 81.8900 -3.9990 0.0000 0.0000 0.0000
# 3 -3.4832 -3.9990 76.5110 0.0000 0.0000 0.0000
# 4 0.0000 0.0000 0.0000 37.3185 0.0000 0.0000
# 5 0.0000 0.0000 0.0000 0.0000 4.7125 0.0000
# 6 0.0000 0.0000 0.0000 0.0000 0.0000 12.8804
#
#
#
# Elastic Compliance Matrix: (Units=1/GPa)
#
#
# Indices 1 2 3 4 5 6 
#
# 1 0.024772 0.002218 0.001244 0.000000 0.000000 0.000000
# 2 0.002218 0.012441 0.000751 0.000000 0.000000 0.000000
# 3 0.001244 0.000751 0.013166 0.000000 0.000000 0.000000
# 4 0.000000 0.000000 0.000000 0.026796 0.000000 0.000000
# 5 0.000000 0.000000 0.000000 0.000000 0.212202 0.000000
# 6 0.000000 0.000000 0.000000 0.000000 0.000000 0.077637
#
#
# Mechanical properties :
#
#
# Convention : Reuss Voigt Hill
#
# Bulk Modulus (GPa) = 17.00574 18.92869 17.96722
# Shear Modulus (GPa) = 13.22085 25.26197 19.24141
#
# Velocity S-wave (km/s) = 2.38432 3.29585 2.87642
# Velocity P-wave (km/s) = 3.85907 4.75635 4.33101
#
# Compressibility (1/GPa) = 0.05880368
#
# Stress axis : x y z
#
# Youngs Moduli (GPa) = 40.36888 80.37761 75.95379
#
# Poissons Ratio (x) = -0.17825 -0.09446
# Poissons Ratio (y) = -0.08952 -0.05706
# Poissons Ratio (z) = -0.05020 -0.06038
#
# Static dielectric constant tensor:
#      x y z
#    x 1.834400 0.000000 0.000000 
#    y 0.000000 2.001540 0.000000 
#    z 0.000000 0.000000 1.928980 
# 
# From -- ./inp_files/24705.got.cif
#   From: 2010.05.17/outbox.cif.g08.bks.cpg/sg53_13_cif.got.tgz:24705.got - 2010.06.03 12:45:16.
