data_PCOD9416819
_publ_section_title
;
Structure prediction by ZEFSAII (Michael W. Deem and Ramdas Pophale) SiO2 
 PCOD9416819
Probable space group: P M N A
;
_chemical_formula_sum "Si O2"
_cell_formula_units_Z 52
_cell_length_a 17.923184
_cell_length_b 6.520337
_cell_length_c 24.779952
_cell_angle_alpha 90.000000
_cell_angle_beta 90.000000
_cell_angle_gamma 90.000000
_cell_volume 2895.914041
_symmetry_space_group_name_H-M "P M N A"
_symmetry_group_IT_number 53
_symmetry_cell_setting 'orthorhombic'
loop_
_space_group_symop_operation_xyz
x,y,z
1/2-x,-y,1/2+z
x,-y,-z
1/2-x,y,1/2-z
-x,-y,-z
1/2+x,y,1/2-z
-x,y,z
1/2+x,-y,1/2+z
loop_
_atom_site_type_symbol
_atom_site_label
_atom_site_fract_x
_atom_site_fract_y
_atom_site_fract_z
Si Si1 0.226692 0.885727 0.552715
Si Si2 0.206516 0.091265 0.841937
Si Si3 0.869828 0.115524 0.690191
Si Si4 0.084929 0.354460 0.796746
Si Si5 0.333402 0.255547 0.255982
Si Si6 0.585373 0.842580 0.070316
Si Si7 0.669790 0.500000 0.000000
O O1 0.271645 0.972510 0.603547
O O2 0.219310 0.646777 0.538600
O O3 0.257232 0.000000 0.500000
O O4 0.141561 0.968392 0.559601
O O5 0.283784 0.182852 0.818627
O O6 0.179458 0.920203 0.800122
O O7 0.142665 0.262527 0.840463
O O8 0.862216 0.870980 0.703525
O O9 0.905743 0.221575 0.741884
O O10 0.910652 0.175730 0.635238
O O11 0.109907 0.579143 0.778131
O O12 0.000000 0.346983 0.815278
O O13 0.250000 0.347894 0.250000
O O14 0.500000 0.874107 0.054213
O O15 0.620788 0.649813 0.038172
#
# Coordination Sequence:
#
# PCOD9416819 Si02
#       7
#     8   8   8   8   8   8   4
#     4   9  20  36  55  76  98 130 177 225 264 311
#     4   9  19  36  55  74 100 135 171 211 256 306
#     4   9  19  35  52  73 103 141 180 213 247 300
#     4  11  21  32  52  80 107 134 165 207 261 317
#     4   9  18  32  51  74 102 135 171 210 253 308
#     4  10  20  33  50  74 109 147 181 222 267 309
#     4  10  21  34  50  76 105 140 188 228 265 308
#
# _framework density 17.956333000000001
#
# number of rings (size 3 to 8) (size 9 to 14) (size 15 to 20)
#    0.000    2.462    0.000    3.000    0.000   13.846 
#    0.000    0.000    0.000    0.462    0.000    1.615 
#    0.000    0.000    0.000    0.000    0.000    0.000 
#
# Total GULP energy -289708.257796 kJ/mol
# GULP energy per Si atom -5571.312650 kJ/mol
# Density = 1.791546 g / cm^3
# Si number density = 17.956333 Si / 1000 Ang^3
#
#
#
# Elastic Constant Matrix: (Units=GPa)
#
#
# Indices 1 2 3 4 5 6 
#
# 1 102.3617 35.4461 19.3301 0.0000 0.0000 0.0000
# 2 35.4461 54.7609 15.2520 0.0000 0.0000 0.0000
# 3 19.3301 15.2520 87.7111 0.0000 0.0000 0.0000
# 4 0.0000 0.0000 0.0000 23.0741 0.0000 0.0000
# 5 0.0000 0.0000 0.0000 0.0000 2.9580 0.0000
# 6 0.0000 0.0000 0.0000 0.0000 0.0000 32.9290
#
#
#
# Elastic Compliance Matrix: (Units=1/GPa)
#
#
# Indices 1 2 3 4 5 6 
#
# 1 0.012764 -0.007859 -0.001446 0.000000 0.000000 0.000000
# 2 -0.007859 0.024030 -0.002446 0.000000 0.000000 0.000000
# 3 -0.001446 -0.002446 0.012145 0.000000 0.000000 0.000000
# 4 0.000000 0.000000 0.000000 0.043339 0.000000 0.000000
# 5 0.000000 0.000000 0.000000 0.000000 0.338061 0.000000
# 6 0.000000 0.000000 0.000000 0.000000 0.000000 0.030368
#
#
# Mechanical properties :
#
#
# Convention : Reuss Voigt Hill
#
# Bulk Modulus (GPa) = 39.31592 42.76555 41.04074
# Shear Modulus (GPa) = 10.14839 23.44593 16.79716
#
# Velocity S-wave (km/s) = 2.37991 3.61739 3.06182
# Velocity P-wave (km/s) = 5.43091 6.42771 5.95022
#
# Compressibility (1/GPa) = 0.02543499
#
# Stress axis : x y z
#
# Youngs Moduli (GPa) = 78.34619 41.61526 82.33683
#
# Poissons Ratio (x) = 0.32706 0.11909
# Poissons Ratio (y) = 0.61573 0.20144
# Poissons Ratio (z) = 0.11332 0.10181
#
# Static dielectric constant tensor:
#      x y z
#    x 1.624950 0.000000 0.000000 
#    y 0.000000 1.644760 0.000000 
#    z 0.000000 0.000000 1.463850 
# 
# From -- ./inp_files/37142.got.cif
#   From: 2010.05.17/outbox.cif.g08.bks.cpg/sg53_19_cif.got.tgz:37142.got - 2010.06.03 12:45:16.
