data_PCOD9417200
_publ_section_title
;
Structure prediction by ZEFSAII (Michael W. Deem and Ramdas Pophale) SiO2 
 PCOD9417200
Probable space group: P M N A
;
_chemical_formula_sum "Si O2"
_cell_formula_units_Z 64
_cell_length_a 9.365017
_cell_length_b 15.261747
_cell_length_c 21.222269
_cell_angle_alpha 90.000000
_cell_angle_beta 90.000000
_cell_angle_gamma 90.000000
_cell_volume 3033.225057
_symmetry_space_group_name_H-M "P M N A"
_symmetry_group_IT_number 53
_symmetry_cell_setting 'orthorhombic'
loop_
_space_group_symop_operation_xyz
x,y,z
1/2-x,-y,1/2+z
x,-y,-z
1/2-x,y,1/2-z
-x,-y,-z
1/2+x,y,1/2-z
-x,y,z
1/2+x,-y,1/2+z
loop_
_atom_site_type_symbol
_atom_site_label
_atom_site_fract_x
_atom_site_fract_y
_atom_site_fract_z
Si Si1 0.840622 0.873519 0.010584
Si Si2 0.668090 0.263422 0.813395
Si Si3 0.668869 0.583834 0.083428
Si Si4 0.332836 0.096961 0.359746
Si Si5 0.665761 0.732036 0.854603
Si Si6 0.664205 0.458746 0.190418
Si Si7 0.835496 0.324776 0.021399
Si Si8 0.170251 0.924697 0.371370
O O1 0.836748 0.768301 0.015508
O O2 0.723778 0.913585 0.056527
O O3 0.000000 0.903522 0.030175
O O4 0.823113 0.894087 0.936503
O O5 0.750000 0.286339 0.750000
O O6 0.500000 0.261004 0.799688
O O7 0.687914 0.334833 0.868296
O O8 0.709458 0.166420 0.837345
O O9 0.500000 0.577754 0.066882
O O10 0.713562 0.499535 0.124218
O O11 0.762205 0.603596 0.022519
O O12 0.500000 0.096089 0.343321
O O13 0.253966 0.183084 0.333531
O O14 0.252223 0.007812 0.342828
O O15 0.500000 0.755767 0.865574
O O16 0.669238 0.646303 0.811245
O O17 0.739765 0.697396 0.918360
O O18 0.750000 0.492039 0.250000
O O19 0.500000 0.486716 0.196506
O O20 0.000000 0.344610 0.038238
O O21 0.000000 0.936575 0.369078
#
# Coordination Sequence:
#
# PCOD9417200 Si02
#       8
#     8   8   8   8   8   8   8   8
#     4   9  18  32  50  77 113 148 185 227 276 333
#     4  10  22  37  55  80 112 151 193 236 284 340
#     4  10  20  38  60  86 119 152 189 235 288 351
#     4  10  21  36  55  82 113 148 189 234 284 338
#     4  10  21  39  60  85 117 153 192 241 294 348
#     4  10  23  41  64  89 114 149 195 243 295 346
#     4  10  20  34  56  88 121 157 193 232 286 345
#     4  11  21  33  52  81 111 147 191 232 280 336
#
# _framework density 21.099654000000001
#
# number of rings (size 3 to 8) (size 9 to 14) (size 15 to 20)
#    0.000    2.000    1.250    3.000    0.000    7.500 
#    0.000    3.125    0.000    0.000    0.000    0.000 
#    0.000    0.000    0.000    0.000    0.000    0.000 
#
# Total GULP energy -357622.018633 kJ/mol
# GULP energy per Si atom -5587.844041 kJ/mol
# Density = 2.105163 g / cm^3
# Si number density = 21.099654 Si / 1000 Ang^3
#
#
#
# Elastic Constant Matrix: (Units=GPa)
#
#
# Indices 1 2 3 4 5 6 
#
# 1 93.2104 33.7879 22.1714 0.0000 0.0000 0.0000
# 2 33.7879 105.7212 -5.2023 0.0000 0.0000 0.0000
# 3 22.1714 -5.2023 26.4275 0.0000 0.0000 0.0000
# 4 0.0000 0.0000 0.0000 3.9908 0.0000 0.0000
# 5 0.0000 0.0000 0.0000 0.0000 20.7162 0.0000
# 6 0.0000 0.0000 0.0000 0.0000 0.0000 23.3011
#
#
#
# Elastic Compliance Matrix: (Units=1/GPa)
#
#
# Indices 1 2 3 4 5 6 
#
# 1 0.016473 -0.006003 -0.015001 0.000000 0.000000 0.000000
# 2 -0.006003 0.011739 0.007347 0.000000 0.000000 0.000000
# 3 -0.015001 0.007347 0.051871 0.000000 0.000000 0.000000
# 4 0.000000 0.000000 0.000000 0.250577 0.000000 0.000000
# 5 0.000000 0.000000 0.000000 0.000000 0.048271 0.000000
# 6 0.000000 0.000000 0.000000 0.000000 0.000000 0.042917
#
#
# Mechanical properties :
#
#
# Convention : Reuss Voigt Hill
#
# Bulk Modulus (GPa) = 18.95096 36.31925 27.63511
# Shear Modulus (GPa) = 10.71233 21.24175 15.97704
#
# Velocity S-wave (km/s) = 2.25567 3.17635 2.75474
# Velocity P-wave (km/s) = 3.97306 5.54101 4.82120
#
# Compressibility (1/GPa) = 0.05276777
#
# Stress axis : x y z
#
# Youngs Moduli (GPa) = 60.70662 85.18753 19.27858
#
# Poissons Ratio (x) = 0.51136 0.28921
# Poissons Ratio (y) = 0.36441 -0.14164
# Poissons Ratio (z) = 0.91069 -0.62586
#
# Static dielectric constant tensor:
#      x y z
#    x 1.719160 0.000000 0.000000 
#    y 0.000000 1.803690 0.000000 
#    z 0.000000 0.000000 1.744410 
# 
# From -- ./inp_files/34292.got.cif
#   From: 2010.05.17/outbox.cif.g08.bks.cpg/sg53_18_cif.got.tgz:34292.got - 2010.06.03 12:45:16.
