data_PCOD9417440
_publ_section_title
;
Structure prediction by ZEFSAII (Michael W. Deem and Ramdas Pophale) SiO2 
 PCOD9417440
Probable space group: P M N A
;
_chemical_formula_sum "Si O2"
_cell_formula_units_Z 64
_cell_length_a 14.151237
_cell_length_b 20.794671
_cell_length_c 8.069950
_cell_angle_alpha 90.000000
_cell_angle_beta 90.000000
_cell_angle_gamma 90.000000
_cell_volume 2374.746750
_symmetry_space_group_name_H-M "P M N A"
_symmetry_group_IT_number 53
_symmetry_cell_setting 'orthorhombic'
loop_
_space_group_symop_operation_xyz
x,y,z
1/2-x,-y,1/2+z
x,-y,-z
1/2-x,y,1/2-z
-x,-y,-z
1/2+x,y,1/2-z
-x,y,z
1/2+x,-y,1/2+z
loop_
_atom_site_type_symbol
_atom_site_label
_atom_site_fract_x
_atom_site_fract_y
_atom_site_fract_z
Si Si1 0.647900 0.415125 0.179173
Si Si2 0.386088 0.092296 0.523768
Si Si3 0.884706 0.056496 0.629774
Si Si4 0.393345 0.462364 0.646960
Si Si5 0.615506 0.651942 0.156967
Si Si6 0.885226 0.230539 0.833508
Si Si7 0.884431 0.853137 0.662711
Si Si8 0.890658 0.277160 0.179974
O O1 0.750000 0.424566 0.250000
O O2 0.600811 0.484066 0.209507
O O3 0.610757 0.351257 0.271826
O O4 0.648680 0.388801 0.996309
O O5 0.500000 0.083340 0.507242
O O6 0.354319 0.044760 0.676026
O O7 0.364535 0.157270 0.628247
O O8 0.355925 0.107752 0.332870
O O9 0.853106 0.117681 0.514833
O O10 0.000000 0.059642 0.641118
O O11 0.861540 0.000000 0.500000
O O12 0.343127 0.500000 0.500000
O O13 0.500000 0.447356 0.590192
O O14 0.354132 0.393674 0.692234
O O15 0.500000 0.651077 0.146625
O O16 0.645843 0.725131 0.181600
O O17 0.000000 0.231738 0.822103
O O18 0.850714 0.266668 0.998386
O O19 0.855361 0.778792 0.695845
O O20 0.000000 0.856823 0.656240
O O21 0.000000 0.259174 0.163336
#
# Coordination Sequence:
#
# PCOD9417440 Si02
#       8
#     8   8   8   8   8   8   8   8
#     4  12  25  36  49  76 110 142 170 209 265 324
#     4   8  14  24  38  60  93 127 166 211 252 310
#     4   9  16  23  34  59  97 137 170 201 251 321
#     4  10  21  39  61  80 101 134 178 222 261 307
#     4  10  20  35  58  82 101 129 175 225 263 308
#     4   8  15  29  51  76  94 119 170 226 268 302
#     4   8  15  26  42  64  88 127 174 214 260 305
#     4   9  17  33  54  72  95 132 178 223 263 312
#
# _framework density 26.950240000000001
#
# number of rings (size 3 to 8) (size 9 to 14) (size 15 to 20)
#    0.000    2.750    0.000    3.750    1.750    4.500 
#    0.000    4.375    0.000    0.000    0.000    0.000 
#    0.000    0.000    8.500    0.000    2.500    0.750 
#
# Total GULP energy -357016.313760 kJ/mol
# GULP energy per Si atom -5578.379902 kJ/mol
# Density = 2.688890 g / cm^3
# Si number density = 26.950240 Si / 1000 Ang^3
#
#
#
# Elastic Constant Matrix: (Units=GPa)
#
#
# Indices 1 2 3 4 5 6 
#
# 1 72.7666 -2.2549 9.8573 0.0000 0.0000 0.0000
# 2 -2.2549 65.4316 -17.9127 0.0000 0.0000 0.0000
# 3 9.8573 -17.9127 104.8511 0.0000 0.0000 0.0000
# 4 0.0000 0.0000 0.0000 30.6202 0.0000 0.0000
# 5 0.0000 0.0000 0.0000 0.0000 31.2822 0.0000
# 6 0.0000 0.0000 0.0000 0.0000 0.0000 -13.7897
#
#
#
# Elastic Compliance Matrix: (Units=1/GPa)
#
#
# Indices 1 2 3 4 5 6 
#
# 1 0.013921 0.000127 -0.001287 0.000000 0.000000 0.000000
# 2 0.000127 0.016034 0.002727 0.000000 0.000000 0.000000
# 3 -0.001287 0.002727 0.010124 0.000000 0.000000 0.000000
# 4 0.000000 0.000000 0.000000 0.032658 0.000000 0.000000
# 5 0.000000 0.000000 0.000000 0.000000 0.031967 0.000000
# 6 0.000000 0.000000 0.000000 0.000000 0.000000 -0.072518
#
#
# Mechanical properties :
#
#
# Convention : Reuss Voigt Hill
#
# Bulk Modulus (GPa) = 23.14025 24.71431 23.92728
# Shear Modulus (GPa) = 115.05840 26.51318 70.78579
#
# Velocity S-wave (km/s) = 6.54107 3.13993 5.13053
# Velocity P-wave (km/s) = 8.10262 4.72608 6.63281
#
# Compressibility (1/GPa) = 0.04321474
#
# Stress axis : x y z
#
# Youngs Moduli (GPa) = 71.83471 62.36686 98.77276
#
# Poissons Ratio (x) = -0.00795 0.12712
# Poissons Ratio (y) = -0.00915 -0.26938
# Poissons Ratio (z) = 0.09245 -0.17009
#
# Static dielectric constant tensor:
#      x y z
#    x 2.122600 0.000000 0.000000 
#    y 0.000000 2.172680 0.000000 
#    z 0.000000 0.000000 2.242470 
# 
# From -- ./inp_files/10272.got.cif
#   From: 2010.05.17/outbox.cif.g08.bks.cpg/sg53_6_cif.got.tgz:10272.got - 2010.06.03 12:45:16.
