data_PCOD9417595
_publ_section_title
;
Structure prediction by ZEFSAII (Michael W. Deem and Ramdas Pophale) SiO2 
 PCOD9417595
Probable space group: P M N A
;
_chemical_formula_sum "Si O2"
_cell_formula_units_Z 48
_cell_length_a 8.335264
_cell_length_b 31.883591
_cell_length_c 9.611759
_cell_angle_alpha 90.000000
_cell_angle_beta 90.000000
_cell_angle_gamma 90.000000
_cell_volume 2554.403273
_symmetry_space_group_name_H-M "P M N A"
_symmetry_group_IT_number 53
_symmetry_cell_setting 'orthorhombic'
loop_
_space_group_symop_operation_xyz
x,y,z
1/2-x,-y,1/2+z
x,-y,-z
1/2-x,y,1/2-z
-x,-y,-z
1/2+x,y,1/2-z
-x,y,z
1/2+x,-y,1/2+z
loop_
_atom_site_type_symbol
_atom_site_label
_atom_site_fract_x
_atom_site_fract_y
_atom_site_fract_z
Si Si1 0.193742 0.789234 0.406900
Si Si2 0.193909 0.381660 0.408379
Si Si3 0.193827 0.712295 0.592688
Si Si4 0.307564 0.883663 0.091780
Si Si5 0.191810 0.960603 0.908494
Si Si6 0.306005 0.539948 0.091277
O O1 0.250000 0.782655 0.250000
O O2 0.253222 0.750976 0.500746
O O3 0.245845 0.836342 0.447888
O O4 0.000000 0.789031 0.410674
O O5 0.250000 0.389402 0.250000
O O6 0.246548 0.334623 0.450638
O O7 0.249531 0.417773 0.513072
O O8 0.000000 0.382227 0.407306
O O9 0.250000 0.718098 0.750000
O O10 0.000000 0.712584 0.588736
O O11 0.250000 0.891846 0.250000
O O12 0.500000 0.884803 0.091690
O O13 0.244360 0.918302 0.986133
O O14 0.250000 0.962590 0.750000
O O15 0.000000 0.962284 0.906883
O O16 0.252344 0.000000 0.000000
O O17 0.250000 0.537525 0.250000
O O18 0.500000 0.540022 0.091534
O O19 0.252778 0.500000 0.000000
#
# Coordination Sequence:
#
# PCOD9417595 Si02
#       6
#     8   8   8   8   8   8
#     4   9  19  34  52  76 105 137 172 212 256 303
#     4   9  18  33  52  73  99 132 169 210 254 302
#     4   9  18  33  51  73 102 134 170 211 255 302
#     4  10  20  36  57  80 108 141 177 217 262 310
#     4  11  24  40  59  83 110 141 176 215 260 309
#     4  10  21  35  51  74 102 131 166 208 253 302
#
# _framework density 18.791080999999998
#
# number of rings (size 3 to 8) (size 9 to 14) (size 15 to 20)
#    0.000    2.333    0.000    2.000    0.000    6.333 
#    0.000    1.667    0.000    0.000    0.000    0.000 
#    0.000    0.000    0.000    0.000    0.000    0.000 
#
# Total GULP energy -267877.512812 kJ/mol
# GULP energy per Si atom -5580.781517 kJ/mol
# Density = 1.874831 g / cm^3
# Si number density = 18.791081 Si / 1000 Ang^3
#
#
#
# Elastic Constant Matrix: (Units=GPa)
#
#
# Indices 1 2 3 4 5 6 
#
# 1 14.2683 26.5951 19.0783 0.0000 0.0000 0.0000
# 2 26.5951 211.1083 141.0609 0.0000 0.0000 0.0000
# 3 19.0783 141.0609 147.1735 0.0000 0.0000 0.0000
# 4 0.0000 0.0000 0.0000 43.0764 0.0000 0.0000
# 5 0.0000 0.0000 0.0000 0.0000 34.8056 0.0000
# 6 0.0000 0.0000 0.0000 0.0000 0.0000 42.6123
#
#
#
# Elastic Compliance Matrix: (Units=1/GPa)
#
#
# Indices 1 2 3 4 5 6 
#
# 1 0.091865 -0.010056 -0.002270 0.000000 0.000000 0.000000
# 2 -0.010056 0.014275 -0.012378 0.000000 0.000000 0.000000
# 3 -0.002270 -0.012378 0.018953 0.000000 0.000000 0.000000
# 4 0.000000 0.000000 0.000000 0.023215 0.000000 0.000000
# 5 0.000000 0.000000 0.000000 0.000000 0.028731 0.000000
# 6 0.000000 0.000000 0.000000 0.000000 0.000000 0.023467
#
#
# Mechanical properties :
#
#
# Convention : Reuss Voigt Hill
#
# Bulk Modulus (GPa) = 13.21288 82.89095 48.05192
# Shear Modulus (GPa) = 18.17233 36.48657 27.32945
#
# Velocity S-wave (km/s) = 3.11315 4.41125 3.81778
# Velocity P-wave (km/s) = 4.46867 8.37575 6.71275
#
# Compressibility (1/GPa) = 0.07568374
#
# Stress axis : x y z
#
# Youngs Moduli (GPa) = 10.88555 70.05266 52.76111
#
# Poissons Ratio (x) = 0.70446 0.11977
# Poissons Ratio (y) = 0.10947 0.65310
# Poissons Ratio (z) = 0.02471 0.86715
#
# Static dielectric constant tensor:
#      x y z
#    x 1.646980 0.000000 0.000000 
#    y 0.000000 1.681270 0.000000 
#    z 0.000000 0.000000 1.594530 
# 
# From -- ./inp_files/6601.got.cif
#   From: 2010.05.17/outbox.cif.g08.bks.cpg/sg53_4_cif.got.tgz:6601.got - 2010.06.03 12:45:16.
