data_PCOD9417907
_publ_section_title
;
Structure prediction by ZEFSAII (Michael W. Deem and Ramdas Pophale) SiO2 
 PCOD9417907
Probable space group: P M N A
;
_chemical_formula_sum "Si O2"
_cell_formula_units_Z 48
_cell_length_a 8.680782
_cell_length_b 31.321291
_cell_length_c 9.300030
_cell_angle_alpha 90.000000
_cell_angle_beta 90.000000
_cell_angle_gamma 90.000000
_cell_volume 2528.615839
_symmetry_space_group_name_H-M "P M N A"
_symmetry_group_IT_number 53
_symmetry_cell_setting 'orthorhombic'
loop_
_space_group_symop_operation_xyz
x,y,z
1/2-x,-y,1/2+z
x,-y,-z
1/2-x,y,1/2-z
-x,-y,-z
1/2+x,y,1/2-z
-x,y,z
1/2+x,-y,1/2+z
loop_
_atom_site_type_symbol
_atom_site_label
_atom_site_fract_x
_atom_site_fract_y
_atom_site_fract_z
Si Si1 0.315680 0.622732 0.588963
Si Si2 0.184620 0.958252 0.090895
Si Si3 0.314724 0.216411 0.091454
Si Si4 0.814442 0.701985 0.410205
Si Si5 0.314955 0.119224 0.090593
Si Si6 0.315782 0.543232 0.089110
O O1 0.250000 0.619341 0.750000
O O2 0.500000 0.624176 0.593931
O O3 0.250793 0.664949 0.512012
O O4 0.260301 0.582507 0.495064
O O5 0.250000 0.962117 0.250000
O O6 0.000000 0.956298 0.094523
O O7 0.248802 0.915834 0.016098
O O8 0.230634 0.000000 0.000000
O O9 0.250000 0.225947 0.250000
O O10 0.500000 0.217219 0.100630
O O11 0.269015 0.167959 0.052129
O O12 0.267560 0.252428 0.978336
O O13 0.750000 0.697044 0.250000
O O14 0.000000 0.699430 0.407432
O O15 0.250000 0.110871 0.250000
O O16 0.500000 0.116783 0.093189
O O17 0.250000 0.540039 0.250000
O O18 0.500000 0.549611 0.095701
O O19 0.285283 0.500000 0.000000
#
# Coordination Sequence:
#
# PCOD9417907 Si02
#       6
#     8   8   8   8   8   8
#     4  12  25  42  64  90 121 157 199 246 297 352
#     4  11  24  40  59  84 114 150 191 236 288 344
#     4   9  20  37  59  86 116 152 193 238 288 345
#     4  11  23  40  60  86 120 157 198 243 294 347
#     4  10  20  37  60  87 118 152 192 237 288 344
#     4  11  24  42  65  93 125 161 201 245 295 350
#
# _framework density 18.982716
#
# number of rings (size 3 to 8) (size 9 to 14) (size 15 to 20)
#    0.000    1.333    0.000    5.500    0.000    9.333 
#    0.000    1.667    0.000    0.000    0.000    0.000 
#    0.000    0.000    0.000    0.000    0.000    0.000 
#
# Total GULP energy -268474.208116 kJ/mol
# GULP energy per Si atom -5593.212669 kJ/mol
# Density = 1.893951 g / cm^3
# Si number density = 18.982716 Si / 1000 Ang^3
#
#
#
# Elastic Constant Matrix: (Units=GPa)
#
#
# Indices 1 2 3 4 5 6 
#
# 1 87.0677 66.0282 68.3480 0.0000 0.0000 0.0000
# 2 66.0282 135.8633 108.4639 0.0000 0.0000 0.0000
# 3 68.3480 108.4639 183.4941 0.0000 0.0000 0.0000
# 4 0.0000 0.0000 0.0000 41.9770 0.0000 0.0000
# 5 0.0000 0.0000 0.0000 0.0000 38.0339 0.0000
# 6 0.0000 0.0000 0.0000 0.0000 0.0000 37.4458
#
#
#
# Elastic Compliance Matrix: (Units=1/GPa)
#
#
# Indices 1 2 3 4 5 6 
#
# 1 0.019064 -0.006809 -0.003076 0.000000 0.000000 0.000000
# 2 -0.006809 0.016369 -0.007140 0.000000 0.000000 0.000000
# 3 -0.003076 -0.007140 0.010816 0.000000 0.000000 0.000000
# 4 0.000000 0.000000 0.000000 0.023823 0.000000 0.000000
# 5 0.000000 0.000000 0.000000 0.000000 0.026292 0.000000
# 6 0.000000 0.000000 0.000000 0.000000 0.000000 0.026705
#
#
# Mechanical properties :
#
#
# Convention : Reuss Voigt Hill
#
# Bulk Modulus (GPa) = 81.97222 99.12283 90.54753
# Shear Modulus (GPa) = 31.02026 34.39700 32.70863
#
# Velocity S-wave (km/s) = 4.04683 4.26140 4.15550
# Velocity P-wave (km/s) = 8.06920 8.74891 8.41592
#
# Compressibility (1/GPa) = 0.01219925
#
# Stress axis : x y z
#
# Youngs Moduli (GPa) = 52.45584 61.08979 92.45723
#
# Poissons Ratio (x) = 0.41597 0.28440
# Poissons Ratio (y) = 0.35718 0.66012
# Poissons Ratio (z) = 0.16135 0.43616
#
# Static dielectric constant tensor:
#      x y z
#    x 1.636810 0.000000 0.000000 
#    y 0.000000 1.652130 0.000000 
#    z 0.000000 0.000000 1.601770 
# 
# From -- ./inp_files/6706.got.cif
#   From: 2010.05.17/outbox.cif.g08.bks.cpg/sg53_4_cif.got.tgz:6706.got - 2010.06.03 12:45:16.
