data_PCOD9417096
_publ_section_title
;
Structure prediction by ZEFSAII (Michael W. Deem and Ramdas Pophale) SiO2 
 PCOD9417096
Probable space group: P M N A
;
_chemical_formula_sum "Si O2"
_cell_formula_units_Z 48
_cell_length_a 8.837544
_cell_length_b 18.268448
_cell_length_c 14.806713
_cell_angle_alpha 90.000000
_cell_angle_beta 90.000000
_cell_angle_gamma 90.000000
_cell_volume 2390.517354
_symmetry_space_group_name_H-M "P M N A"
_symmetry_group_IT_number 53
_symmetry_cell_setting 'orthorhombic'
loop_
_space_group_symop_operation_xyz
x,y,z
1/2-x,-y,1/2+z
x,-y,-z
1/2-x,y,1/2-z
-x,-y,-z
1/2+x,y,1/2-z
-x,y,z
1/2+x,-y,1/2+z
loop_
_atom_site_type_symbol
_atom_site_label
_atom_site_fract_x
_atom_site_fract_y
_atom_site_fract_z
Si Si1 0.679810 0.886611 0.344704
Si Si2 0.681369 0.954036 0.847901
Si Si3 0.320408 0.621871 0.158819
Si Si4 0.327997 0.526071 0.604505
Si Si5 0.681460 0.671527 0.956906
Si Si6 0.320110 0.174929 0.464086
O O1 0.750000 0.861547 0.250000
O O2 0.500000 0.897879 0.333694
O O3 0.705418 0.833145 0.428403
O O4 0.755913 0.964739 0.367848
O O5 0.750000 0.935019 0.750000
O O6 0.500000 0.955152 0.845629
O O7 0.742361 0.894394 0.917402
O O8 0.250000 0.654579 0.250000
O O9 0.500000 0.625263 0.165532
O O10 0.266255 0.537618 0.151929
O O11 0.275764 0.657280 0.062627
O O12 0.334414 0.500000 0.500000
O O13 0.500000 0.529482 0.639058
O O14 0.249864 0.605042 0.601172
O O15 0.500000 0.670710 0.951004
O O16 0.748670 0.749613 0.930404
O O17 0.500000 0.173083 0.447854
#
# Coordination Sequence:
#
# PCOD9417096 Si02
#       6
#     8   8   8   8   8   8
#     4  10  21  37  58  84 115 150 190 236 282 333
#     4  11  22  38  61  85 111 145 188 237 286 338
#     4  10  20  34  54  80 109 141 180 224 269 321
#     4   9  17  32  54  76 100 133 172 212 257 310
#     4  10  21  36  54  78 109 144 181 222 271 327
#     4  11  23  38  57  83 116 153 191 232 283 340
#
# _framework density 20.079335
#
# number of rings (size 3 to 8) (size 9 to 14) (size 15 to 20)
#    0.000    1.833    0.000    5.500    0.000    9.333 
#    0.000    4.167    0.000    0.000    0.000    0.000 
#    0.000    0.000    0.000    0.000    0.000    0.000 
#
# Total GULP energy -268212.573042 kJ/mol
# GULP energy per Si atom -5587.761938 kJ/mol
# Density = 2.003363 g / cm^3
# Si number density = 20.079335 Si / 1000 Ang^3
#
#
#
# Elastic Constant Matrix: (Units=GPa)
#
#
# Indices 1 2 3 4 5 6 
#
# 1 67.7203 23.3433 5.1391 0.0000 0.0000 0.0000
# 2 23.3433 50.2816 5.8071 0.0000 0.0000 0.0000
# 3 5.1391 5.8071 18.8832 0.0000 0.0000 0.0000
# 4 0.0000 0.0000 0.0000 7.6695 0.0000 0.0000
# 5 0.0000 0.0000 0.0000 0.0000 35.2226 0.0000
# 6 0.0000 0.0000 0.0000 0.0000 0.0000 -36.6376
#
#
#
# Elastic Compliance Matrix: (Units=1/GPa)
#
#
# Indices 1 2 3 4 5 6 
#
# 1 0.017682 -0.007935 -0.002372 0.000000 0.000000 0.000000
# 2 -0.007935 0.024181 -0.005277 0.000000 0.000000 0.000000
# 3 -0.002372 -0.005277 0.055225 0.000000 0.000000 0.000000
# 4 0.000000 0.000000 0.000000 0.130386 0.000000 0.000000
# 5 0.000000 0.000000 0.000000 0.000000 0.028391 0.000000
# 6 0.000000 0.000000 0.000000 0.000000 0.000000 -0.027294
#
#
# Mechanical properties :
#
#
# Convention : Reuss Voigt Hill
#
# Bulk Modulus (GPa) = 15.16968 22.82934 18.99951
# Shear Modulus (GPa) = 17.74861 8.09061 12.91961
#
# Velocity S-wave (km/s) = 2.97631 2.00949 2.53934
# Velocity P-wave (km/s) = 4.40256 4.09614 4.25211
#
# Compressibility (1/GPa) = 0.06592096
#
# Stress axis : x y z
#
# Youngs Moduli (GPa) = 56.55537 41.35440 18.10765
#
# Poissons Ratio (x) = 0.32814 0.04295
# Poissons Ratio (y) = 0.44876 0.09555
# Poissons Ratio (z) = 0.13414 0.21822
#
# Static dielectric constant tensor:
#      x y z
#    x 1.672440 0.000000 0.000000 
#    y 0.000000 1.681770 0.000000 
#    z 0.000000 0.000000 1.746400 
# 
# From -- ./inp_files/20144.got.cif
#   From: 2010.05.17/outbox.cif.g08.bks.cpg/sg53_11_cif.got.tgz:20144.got - 2010.06.03 12:45:16.
