data_PCOD9417625
_publ_section_title
;
Structure prediction by ZEFSAII (Michael W. Deem and Ramdas Pophale) SiO2 
 PCOD9417625
Probable space group: P M N A
;
_chemical_formula_sum "Si O2"
_cell_formula_units_Z 40
_cell_length_a 7.892580
_cell_length_b 10.775928
_cell_length_c 26.120105
_cell_angle_alpha 90.000000
_cell_angle_beta 90.000000
_cell_angle_gamma 90.000000
_cell_volume 2221.511634
_symmetry_space_group_name_H-M "P M N A"
_symmetry_group_IT_number 53
_symmetry_cell_setting 'orthorhombic'
loop_
_space_group_symop_operation_xyz
x,y,z
1/2-x,-y,1/2+z
x,-y,-z
1/2-x,y,1/2-z
-x,-y,-z
1/2+x,y,1/2-z
-x,y,z
1/2+x,-y,1/2+z
loop_
_atom_site_type_symbol
_atom_site_label
_atom_site_fract_x
_atom_site_fract_y
_atom_site_fract_z
Si Si1 0.296243 0.324323 0.191390
Si Si2 0.000000 0.792428 0.965219
Si Si3 0.000000 0.408410 0.121621
Si Si4 0.691067 0.147908 0.897437
Si Si5 0.297751 0.964058 0.807710
Si Si6 0.746041 0.000000 0.000000
Si Si7 0.500000 0.676704 0.426007
O O1 0.250000 0.354812 0.250000
O O2 0.500000 0.337606 0.182961
O O3 0.171180 0.401180 0.155292
O O4 0.245132 0.178898 0.184416
O O5 0.000000 0.711772 0.914799
O O6 0.153667 0.887884 0.972593
O O7 0.000000 0.699376 0.013236
O O8 0.000000 0.534624 0.089727
O O9 0.500000 0.192596 0.884429
O O10 0.756864 0.056452 0.852539
O O11 0.831755 0.253178 0.905538
O O12 0.673846 0.070800 0.950482
O O13 0.250000 0.002114 0.750000
O O14 0.500000 0.962234 0.810332
#
# Coordination Sequence:
#
# PCOD9417625 Si02
#       7
#     8   4   4   8   8   4   4
#     4  10  20  36  57  87 112 138 183 233 288 338
#     4   9  19  36  58  88 115 143 190 235 281 345
#     4  12  22  37  62  77 113 163 188 233 274 324
#     4  10  20  36  57  82 116 146 185 234 284 338
#     4   9  19  32  54  85 111 139 174 228 294 347
#     4   9  17  34  60  91 113 142 181 235 302 351
#     4  10  24  39  54  79 111 157 201 226 269 320
#
# _framework density 18.005756999999999
#
# number of rings (size 3 to 8) (size 9 to 14) (size 15 to 20)
#    0.000    2.200    1.000    2.400    2.800    0.800 
#    0.000    5.000    0.000    6.000    0.000    0.000 
#    0.000    0.000    0.000    0.000    0.000    0.000 
#
# Total GULP energy -222748.403971 kJ/mol
# GULP energy per Si atom -5568.710099 kJ/mol
# Density = 1.796478 g / cm^3
# Si number density = 18.005757 Si / 1000 Ang^3
#
#
#
# Elastic Constant Matrix: (Units=GPa)
#
#
# Indices 1 2 3 4 5 6 
#
# 1 89.8795 39.3418 31.3130 0.0000 0.0000 0.0000
# 2 39.3418 73.6597 39.8266 0.0000 0.0000 0.0000
# 3 31.3130 39.8266 67.0734 0.0000 0.0000 0.0000
# 4 0.0000 0.0000 0.0000 27.7400 0.0000 0.0000
# 5 0.0000 0.0000 0.0000 0.0000 17.7313 0.0000
# 6 0.0000 0.0000 0.0000 0.0000 0.0000 310.9565
#
#
#
# Elastic Compliance Matrix: (Units=1/GPa)
#
#
# Indices 1 2 3 4 5 6 
#
# 1 0.015003 -0.006224 -0.003308 0.000000 0.000000 0.000000
# 2 -0.006224 0.022578 -0.010500 0.000000 0.000000 0.000000
# 3 -0.003308 -0.010500 0.022688 0.000000 0.000000 0.000000
# 4 0.000000 0.000000 0.000000 0.036049 0.000000 0.000000
# 5 0.000000 0.000000 0.000000 0.000000 0.056398 0.000000
# 6 0.000000 0.000000 0.000000 0.000000 0.000000 0.003216
#
#
# Mechanical properties :
#
#
# Convention : Reuss Voigt Hill
#
# Bulk Modulus (GPa) = 49.49700 50.17504 49.83602
# Shear Modulus (GPa) = 24.66309 79.29430 51.97870
#
# Velocity S-wave (km/s) = 3.70501 6.64334 5.37871
# Velocity P-wave (km/s) = 6.77141 9.31514 8.14321
#
# Compressibility (1/GPa) = 0.02020324
#
# Stress axis : x y z
#
# Youngs Moduli (GPa) = 66.65282 44.29128 44.07555
#
# Poissons Ratio (x) = 0.27569 0.14581
# Poissons Ratio (y) = 0.41488 0.46281
# Poissons Ratio (z) = 0.22050 0.46507
#
# Static dielectric constant tensor:
#      x y z
#    x 1.741160 0.000000 0.000000 
#    y 0.000000 1.585920 0.000000 
#    z 0.000000 0.000000 1.655280 
# 
# From -- ./inp_files/36100.got.cif
#   From: 2010.05.17/outbox.cif.g08.bks.cpg/sg53_19_cif.got.tgz:36100.got - 2010.06.03 12:45:16.
