data_PCOD9417790
_publ_section_title
;
Structure prediction by ZEFSAII (Michael W. Deem and Ramdas Pophale) SiO2 
 PCOD9417790
Probable space group: P M N A
;
_chemical_formula_sum "Si O2"
_cell_formula_units_Z 64
_cell_length_a 8.763453
_cell_length_b 20.415530
_cell_length_c 19.099897
_cell_angle_alpha 90.000000
_cell_angle_beta 90.000000
_cell_angle_gamma 90.000000
_cell_volume 3417.172841
_symmetry_space_group_name_H-M "P M N A"
_symmetry_group_IT_number 53
_symmetry_cell_setting 'orthorhombic'
loop_
_space_group_symop_operation_xyz
x,y,z
1/2-x,-y,1/2+z
x,-y,-z
1/2-x,y,1/2-z
-x,-y,-z
1/2+x,y,1/2-z
-x,y,z
1/2+x,-y,1/2+z
loop_
_atom_site_type_symbol
_atom_site_label
_atom_site_fract_x
_atom_site_fract_y
_atom_site_fract_z
Si Si1 0.184253 0.785429 0.438431
Si Si2 0.184417 0.839352 0.916441
Si Si3 0.182660 0.105795 0.672522
Si Si4 0.316229 0.634034 0.066576
Si Si5 0.182939 0.407768 0.079331
Si Si6 0.182588 0.524145 0.327361
Si Si7 0.316681 0.716971 0.673661
Si Si8 0.183667 0.011753 0.081736
O O1 0.251408 0.816585 0.508913
O O2 0.229645 0.830685 0.373018
O O3 0.233016 0.709830 0.431266
O O4 0.000000 0.786545 0.443107
O O5 0.233669 0.786261 0.858914
O O6 0.229382 0.913845 0.900324
O O7 0.000000 0.837835 0.920716
O O8 0.250000 0.107240 0.750000
O O9 0.000000 0.104678 0.676409
O O10 0.239491 0.042167 0.630345
O O11 0.500000 0.632618 0.058988
O O12 0.277359 0.593178 0.135944
O O13 0.244471 0.598904 0.999159
O O14 0.253402 0.467718 0.122084
O O15 0.225712 0.341063 0.120484
O O16 0.000000 0.413486 0.078449
O O17 0.250000 0.518038 0.250000
O O18 0.000000 0.518513 0.323870
O O19 0.250000 0.705377 0.750000
O O20 0.500000 0.717412 0.678487
O O21 0.000000 0.005909 0.088478
O O22 0.221581 0.000000 0.000000
#
# Coordination Sequence:
#
# PCOD9417790 Si02
#       8
#     8   8   8   8   8   8   8   8
#     4  10  21  38  61  88 116 154 199 244 295 352
#     4  10  20  37  59  86 117 150 193 241 291 350
#     4  11  24  40  60  88 123 158 202 251 300 356
#     4  10  22  40  62  88 119 154 197 247 299 353
#     4  11  22  38  62  90 118 153 198 244 292 352
#     4  11  24  41  60  85 120 158 197 244 298 354
#     4  10  22  37  55  83 117 150 187 232 284 341
#     4  10  20  36  62  88 116 155 196 241 296 354
#
# _framework density 18.728933000000001
#
# number of rings (size 3 to 8) (size 9 to 14) (size 15 to 20)
#    0.000    1.625    2.500    1.875    0.000    7.250 
#    0.000    1.250    0.000    0.000    0.000    0.000 
#    0.000    0.000    0.000    0.000    0.000    0.000 
#
# Total GULP energy -357633.310354 kJ/mol
# GULP energy per Si atom -5588.020474 kJ/mol
# Density = 1.868631 g / cm^3
# Si number density = 18.728933 Si / 1000 Ang^3
#
#
#
# Elastic Constant Matrix: (Units=GPa)
#
#
# Indices 1 2 3 4 5 6 
#
# 1 19.0097 31.3720 24.6922 0.0000 0.0000 0.0000
# 2 31.3720 124.5995 46.4405 0.0000 0.0000 0.0000
# 3 24.6922 46.4405 93.0371 0.0000 0.0000 0.0000
# 4 0.0000 0.0000 0.0000 29.7780 0.0000 0.0000
# 5 0.0000 0.0000 0.0000 0.0000 34.7503 0.0000
# 6 0.0000 0.0000 0.0000 0.0000 0.0000 23.2032
#
#
#
# Elastic Compliance Matrix: (Units=1/GPa)
#
#
# Indices 1 2 3 4 5 6 
#
# 1 0.112621 -0.021151 -0.019332 0.000000 0.000000 0.000000
# 2 -0.021151 0.013832 -0.001291 0.000000 0.000000 0.000000
# 3 -0.019332 -0.001291 0.016524 0.000000 0.000000 0.000000
# 4 0.000000 0.000000 0.000000 0.033582 0.000000 0.000000
# 5 0.000000 0.000000 0.000000 0.000000 0.028777 0.000000
# 6 0.000000 0.000000 0.000000 0.000000 0.000000 0.043097
#
#
# Mechanical properties :
#
#
# Convention : Reuss Voigt Hill
#
# Bulk Modulus (GPa) = 16.82680 49.07286 32.94983
# Shear Modulus (GPa) = 14.21301 26.48906 20.35104
#
# Velocity S-wave (km/s) = 2.75777 3.76485 3.29995
# Velocity P-wave (km/s) = 4.37542 6.71992 5.67017
#
# Compressibility (1/GPa) = 0.05942900
#
# Stress axis : x y z
#
# Youngs Moduli (GPa) = 8.87935 72.29457 60.51916
#
# Poissons Ratio (x) = 1.52907 1.16997
# Poissons Ratio (y) = 0.18780 0.07814
# Poissons Ratio (z) = 0.17166 0.09334
#
# Static dielectric constant tensor:
#      x y z
#    x 1.632380 0.000000 0.000000 
#    y 0.000000 1.654220 0.000000 
#    z 0.000000 0.000000 1.602010 
# 
# From -- ./inp_files/26837.got.cif
#   From: 2010.05.17/outbox.cif.g08.bks.cpg/sg53_14_cif.got.tgz:26837.got - 2010.06.03 12:45:16.
