data_PCOD9417534
_publ_section_title
;
Structure prediction by ZEFSAII (Michael W. Deem and Ramdas Pophale) SiO2 
 PCOD9417534
Probable space group: P M N A
;
_chemical_formula_sum "Si O2"
_cell_formula_units_Z 56
_cell_length_a 8.562212
_cell_length_b 19.960836
_cell_length_c 16.430315
_cell_angle_alpha 90.000000
_cell_angle_beta 90.000000
_cell_angle_gamma 90.000000
_cell_volume 2808.087220
_symmetry_space_group_name_H-M "P M N A"
_symmetry_group_IT_number 53
_symmetry_cell_setting 'orthorhombic'
loop_
_space_group_symop_operation_xyz
x,y,z
1/2-x,-y,1/2+z
x,-y,-z
1/2-x,y,1/2-z
-x,-y,-z
1/2+x,y,1/2-z
-x,y,z
1/2+x,-y,1/2+z
loop_
_atom_site_type_symbol
_atom_site_label
_atom_site_fract_x
_atom_site_fract_y
_atom_site_fract_z
Si Si1 0.684424 0.286231 0.593669
Si Si2 0.812307 0.424140 0.657727
Si Si3 0.690613 0.077655 0.999545
Si Si4 0.312565 0.153615 0.163231
Si Si5 0.311207 0.288826 0.082823
Si Si6 0.188360 0.428105 0.341873
Si Si7 0.686253 0.154205 0.836247
O O1 0.500000 0.282978 0.604041
O O2 0.743668 0.361046 0.611146
O O3 0.735528 0.269278 0.502254
O O4 0.763104 0.231223 0.651379
O O5 0.750000 0.420748 0.750000
O O6 0.767071 0.498199 0.625488
O O7 0.000000 0.419571 0.657325
O O8 0.500000 0.080979 0.999242
O O9 0.742202 0.113509 0.083062
O O10 0.742912 0.114151 0.916483
O O11 0.735897 0.000000 0.000000
O O12 0.250000 0.130074 0.250000
O O13 0.500000 0.148902 0.165066
O O14 0.271178 0.231645 0.147974
O O15 0.500000 0.288849 0.072911
O O16 0.259348 0.362955 0.108925
O O17 0.250000 0.423062 0.250000
O O18 0.000000 0.426297 0.339603
O O19 0.750000 0.128885 0.750000
O O20 0.500000 0.150469 0.834617
#
# Coordination Sequence:
#
# PCOD9417534 Si02
#       7
#     8   8   8   8   8   8   8
#     4  12  24  37  56  83 113 150 197 250 299 348
#     4  10  20  36  55  78 109 148 191 240 295 353
#     4   9  19  38  63  90 123 162 198 235 289 354
#     4  10  20  36  60  89 120 158 197 239 290 345
#     4  10  20  37  57  81 113 152 195 240 296 354
#     4   9  19  34  55  79 109 147 191 240 293 354
#     4  11  22  40  64  90 122 160 201 246 294 353
#
# _framework density 19.942399000000002
#
# number of rings (size 3 to 8) (size 9 to 14) (size 15 to 20)
#    0.000    1.857    1.429    3.000    0.000    2.857 
#    0.000    2.857    0.000    3.000    0.000    0.000 
#    0.000    0.000    0.000    0.000    0.000    0.000 
#
# Total GULP energy -312714.469845 kJ/mol
# GULP energy per Si atom -5584.186962 kJ/mol
# Density = 1.989701 g / cm^3
# Si number density = 19.942399 Si / 1000 Ang^3
#
#
#
# Elastic Constant Matrix: (Units=GPa)
#
#
# Indices 1 2 3 4 5 6 
#
# 1 26.1862 20.6760 24.2591 0.0000 0.0000 0.0000
# 2 20.6760 117.5047 62.5094 0.0000 0.0000 0.0000
# 3 24.2591 62.5094 140.8426 0.0000 0.0000 0.0000
# 4 0.0000 0.0000 0.0000 22.0919 0.0000 0.0000
# 5 0.0000 0.0000 0.0000 0.0000 31.7834 0.0000
# 6 0.0000 0.0000 0.0000 0.0000 0.0000 9.9024
#
#
#
# Elastic Compliance Matrix: (Units=1/GPa)
#
#
# Indices 1 2 3 4 5 6 
#
# 1 0.047815 -0.005279 -0.005893 0.000000 0.000000 0.000000
# 2 -0.005279 0.011723 -0.004294 0.000000 0.000000 0.000000
# 3 -0.005893 -0.004294 0.010021 0.000000 0.000000 0.000000
# 4 0.000000 0.000000 0.000000 0.045266 0.000000 0.000000
# 5 0.000000 0.000000 0.000000 0.000000 0.031463 0.000000
# 6 0.000000 0.000000 0.000000 0.000000 0.000000 0.100986
#
#
# Mechanical properties :
#
#
# Convention : Reuss Voigt Hill
#
# Bulk Modulus (GPa) = 25.88766 55.49138 40.68952
# Shear Modulus (GPa) = 17.17733 24.56146 20.86939
#
# Velocity S-wave (km/s) = 2.93806 3.51325 3.23845
# Velocity P-wave (km/s) = 4.95166 6.65909 5.86781
#
# Compressibility (1/GPa) = 0.03862844
#
# Stress axis : x y z
#
# Youngs Moduli (GPa) = 20.91380 85.29972 99.79138
#
# Poissons Ratio (x) = 0.45026 0.58808
# Poissons Ratio (y) = 0.11040 0.42850
# Poissons Ratio (z) = 0.12325 0.36627
#
# Static dielectric constant tensor:
#      x y z
#    x 1.691280 0.000000 0.000000 
#    y 0.000000 1.713360 0.000000 
#    z 0.000000 0.000000 1.690770 
# 
# From -- ./inp_files/20505.got.cif
#   From: 2010.05.17/outbox.cif.g08.bks.cpg/sg53_11_cif.got.tgz:20505.got - 2010.06.03 12:45:16.
