data_PCOD9417931
_publ_section_title
;
Structure prediction by ZEFSAII (Michael W. Deem and Ramdas Pophale) SiO2 
 PCOD9417931
Probable space group: P M N A
;
_chemical_formula_sum "Si O2"
_cell_formula_units_Z 56
_cell_length_a 8.028859
_cell_length_b 14.852458
_cell_length_c 22.282539
_cell_angle_alpha 90.000000
_cell_angle_beta 90.000000
_cell_angle_gamma 90.000000
_cell_volume 2657.154697
_symmetry_space_group_name_H-M "P M N A"
_symmetry_group_IT_number 53
_symmetry_cell_setting 'orthorhombic'
loop_
_space_group_symop_operation_xyz
x,y,z
1/2-x,-y,1/2+z
x,-y,-z
1/2-x,y,1/2-z
-x,-y,-z
1/2+x,y,1/2-z
-x,y,z
1/2+x,-y,1/2+z
loop_
_atom_site_type_symbol
_atom_site_label
_atom_site_fract_x
_atom_site_fract_y
_atom_site_fract_z
Si Si1 0.798732 0.390010 0.680940
Si Si2 0.808228 0.577825 0.623729
Si Si3 0.694442 0.750497 0.088014
Si Si4 0.199423 0.936545 0.679497
Si Si5 0.703702 0.050244 0.938102
Si Si6 0.805566 0.254093 0.184165
Si Si7 0.809385 0.397971 0.000628
O O1 0.750000 0.392349 0.750000
O O2 0.743484 0.481955 0.647385
O O3 0.734765 0.301427 0.646316
O O4 0.000000 0.391042 0.677311
O O5 0.797903 0.656132 0.672089
O O6 0.700863 0.620989 0.570719
O O7 0.000000 0.566528 0.604591
O O8 0.500000 0.766634 0.100735
O O9 0.763025 0.845744 0.065891
O O10 0.710796 0.674677 0.036849
O O11 0.250000 0.957206 0.750000
O O12 0.264148 0.840486 0.652930
O O13 0.000000 0.931823 0.681150
O O14 0.249214 0.006284 0.626575
O O15 0.500000 0.048992 0.940684
O O16 0.758618 0.000000 0.000000
O O17 0.750000 0.227138 0.250000
O O18 0.000000 0.274074 0.179942
O O19 0.000000 0.399514 0.979179
O O20 0.741658 0.500000 0.000000
#
# Coordination Sequence:
#
# PCOD9417931 Si02
#       7
#     8   8   8   8   8   8   8
#     4  10  22  37  57  85 116 154 197 241 291 347
#     4  11  22  37  58  85 117 158 199 241 294 348
#     4  10  21  40  62  86 116 154 201 248 295 360
#     4  10  20  37  61  89 120 158 204 251 310 372
#     4   9  20  38  62  91 118 151 202 258 307 358
#     4  11  22  37  57  86 121 157 198 243 293 352
#     4  11  23  38  58  87 121 155 191 236 291 351
#
# _framework density 21.075175000000002
#
# number of rings (size 3 to 8) (size 9 to 14) (size 15 to 20)
#    0.000    1.714    1.429    3.857    2.000    4.000 
#    0.000    1.429    0.000    2.143    0.000    0.000 
#    0.000    0.000    0.000    0.000    0.000    0.000 
#
# Total GULP energy -312014.599574 kJ/mol
# GULP energy per Si atom -5571.689278 kJ/mol
# Density = 2.102721 g / cm^3
# Si number density = 21.075175 Si / 1000 Ang^3
#
#
#
# Elastic Constant Matrix: (Units=GPa)
#
#
# Indices 1 2 3 4 5 6 
#
# 1 45.4360 6.3436 5.6306 0.0000 0.0000 0.0000
# 2 6.3436 119.6918 31.9195 0.0000 0.0000 0.0000
# 3 5.6306 31.9195 91.8679 0.0000 0.0000 0.0000
# 4 0.0000 0.0000 0.0000 34.6454 0.0000 0.0000
# 5 0.0000 0.0000 0.0000 0.0000 20.6623 0.0000
# 6 0.0000 0.0000 0.0000 0.0000 0.0000 11.1875
#
#
#
# Elastic Compliance Matrix: (Units=1/GPa)
#
#
# Indices 1 2 3 4 5 6 
#
# 1 0.022265 -0.000899 -0.001052 0.000000 0.000000 0.000000
# 2 -0.000899 0.009244 -0.003157 0.000000 0.000000 0.000000
# 3 -0.001052 -0.003157 0.012047 0.000000 0.000000 0.000000
# 4 0.000000 0.000000 0.000000 0.028864 0.000000 0.000000
# 5 0.000000 0.000000 0.000000 0.000000 0.048397 0.000000
# 6 0.000000 0.000000 0.000000 0.000000 0.000000 0.089385
#
#
# Mechanical properties :
#
#
# Convention : Reuss Voigt Hill
#
# Bulk Modulus (GPa) = 29.99490 38.30925 34.15208
# Shear Modulus (GPa) = 21.59529 27.50584 24.55057
#
# Velocity S-wave (km/s) = 3.20453 3.61658 3.41677
# Velocity P-wave (km/s) = 5.28728 5.97130 5.63967
#
# Compressibility (1/GPa) = 0.03333900
#
# Stress axis : x y z
#
# Youngs Moduli (GPa) = 44.91371 108.17447 83.01158
#
# Poissons Ratio (x) = 0.09730 0.08734
# Poissons Ratio (y) = 0.04040 0.26205
# Poissons Ratio (z) = 0.04725 0.34149
#
# Static dielectric constant tensor:
#      x y z
#    x 1.768290 0.000000 0.000000 
#    y 0.000000 2.016670 0.000000 
#    z 0.000000 0.000000 2.147580 
# 
# From -- ./inp_files/30850.got.cif
#   From: 2010.05.17/outbox.cif.g08.bks.cpg/sg53_16_cif.got.tgz:30850.got - 2010.06.03 12:45:16.
