data_PCOD9417774
_publ_section_title
;
Structure prediction by ZEFSAII (Michael W. Deem and Ramdas Pophale) SiO2 
 PCOD9417774
Probable space group: P M N A
;
_chemical_formula_sum "Si O2"
_cell_formula_units_Z 64
_cell_length_a 14.069381
_cell_length_b 18.552607
_cell_length_c 12.741417
_cell_angle_alpha 90.000000
_cell_angle_beta 90.000000
_cell_angle_gamma 90.000000
_cell_volume 3325.811763
_symmetry_space_group_name_H-M "P M N A"
_symmetry_group_IT_number 53
_symmetry_cell_setting 'orthorhombic'
loop_
_space_group_symop_operation_xyz
x,y,z
1/2-x,-y,1/2+z
x,-y,-z
1/2-x,y,1/2-z
-x,-y,-z
1/2+x,y,1/2-z
-x,y,z
1/2+x,-y,1/2+z
loop_
_atom_site_type_symbol
_atom_site_label
_atom_site_fract_x
_atom_site_fract_y
_atom_site_fract_z
Si Si1 0.721709 0.625355 0.131873
Si Si2 0.896570 0.543107 0.105995
Si Si3 0.114167 0.327895 0.439868
Si Si4 0.222201 0.187867 0.370785
Si Si5 0.114083 0.017885 0.830681
Si Si6 0.614111 0.880865 0.515336
Si Si7 0.386742 0.478128 0.174140
Si Si8 0.885287 0.039174 0.392976
O O1 0.750000 0.648111 0.250000
O O2 0.824194 0.607144 0.086179
O O3 0.668139 0.547745 0.131654
O O4 0.656269 0.672347 0.057807
O O5 0.869410 0.488477 0.200823
O O6 0.000000 0.572141 0.136333
O O7 0.901949 0.500000 0.000000
O O8 0.162936 0.260365 0.385352
O O9 0.140654 0.402888 0.379987
O O10 0.000000 0.323131 0.440243
O O11 0.250000 0.182158 0.250000
O O12 0.316120 0.181466 0.444043
O O13 0.157282 0.118695 0.394738
O O14 0.000000 0.026113 0.823844
O O15 0.129217 0.945807 0.900158
O O16 0.147522 0.003353 0.711991
O O17 0.144189 0.085597 0.902583
O O18 0.500000 0.864815 0.514803
O O19 0.500000 0.486036 0.155309
O O20 0.000000 0.043105 0.389352
O O21 0.856822 0.000000 0.500000
#
# Coordination Sequence:
#
# PCOD9417774 Si02
#       8
#     8   8   8   8   8   8   8   8
#     4  10  20  36  61  85 109 147 201 253 303 358
#     4   9  17  29  50  83 118 147 182 239 300 350
#     4  11  24  41  59  86 124 162 204 250 307 371
#     4  12  25  37  58  84 120 161 197 240 302 370
#     4   8  15  32  60  86 109 142 191 245 291 339
#     4   9  18  35  59  84 111 147 196 248 292 348
#     4   9  18  34  59  87 112 148 197 249 300 357
#     4  10  21  37  58  88 122 153 192 243 299 357
#
# _framework density 19.243423
#
# number of rings (size 3 to 8) (size 9 to 14) (size 15 to 20)
#    0.000    2.250    1.250    2.625    1.750    4.500 
#    0.000    1.875    0.000    2.250    0.000    0.000 
#    0.000    0.000    0.000    0.000    0.000    0.000 
#
# Total GULP energy -356789.537239 kJ/mol
# GULP energy per Si atom -5574.836519 kJ/mol
# Density = 1.919962 g / cm^3
# Si number density = 19.243423 Si / 1000 Ang^3
#
#
#
# Elastic Constant Matrix: (Units=GPa)
#
#
# Indices 1 2 3 4 5 6 
#
# 1 52.3957 6.8998 21.5696 0.0000 0.0000 0.0000
# 2 6.8998 36.8757 31.8979 0.0000 0.0000 0.0000
# 3 21.5696 31.8979 84.3624 0.0000 0.0000 0.0000
# 4 0.0000 0.0000 0.0000 13.3369 0.0000 0.0000
# 5 0.0000 0.0000 0.0000 0.0000 21.7141 0.0000
# 6 0.0000 0.0000 0.0000 0.0000 0.0000 29.4759
#
#
#
# Elastic Compliance Matrix: (Units=1/GPa)
#
#
# Indices 1 2 3 4 5 6 
#
# 1 0.021360 0.001081 -0.005870 0.000000 0.000000 0.000000
# 2 0.001081 0.040353 -0.015534 0.000000 0.000000 0.000000
# 3 -0.005870 -0.015534 0.019228 0.000000 0.000000 0.000000
# 4 0.000000 0.000000 0.000000 0.074980 0.000000 0.000000
# 5 0.000000 0.000000 0.000000 0.000000 0.046053 0.000000
# 6 0.000000 0.000000 0.000000 0.000000 0.000000 0.033926
#
#
# Mechanical properties :
#
#
# Convention : Reuss Voigt Hill
#
# Bulk Modulus (GPa) = 24.81723 32.70758 28.76241
# Shear Modulus (GPa) = 17.24272 20.45647 18.84960
#
# Velocity S-wave (km/s) = 2.99663 3.26396 3.13315
# Velocity P-wave (km/s) = 4.98974 5.58912 5.29791
#
# Compressibility (1/GPa) = 0.04029458
#
# Stress axis : x y z
#
# Youngs Moduli (GPa) = 46.81729 24.78126 52.00769
#
# Poissons Ratio (x) = -0.02679 0.30528
# Poissons Ratio (y) = -0.05061 0.80789
# Poissons Ratio (z) = 0.27481 0.38495
#
# Static dielectric constant tensor:
#      x y z
#    x 1.736700 0.000000 0.000000 
#    y 0.000000 1.641380 0.000000 
#    z 0.000000 0.000000 1.726790 
# 
# From -- ./inp_files/16216.got.cif
#   From: 2010.05.17/outbox.cif.g08.bks.cpg/sg53_9_cif.got.tgz:16216.got - 2010.06.03 12:45:16.
