data_PCOD9417129
_publ_section_title
;
Structure prediction by ZEFSAII (Michael W. Deem and Ramdas Pophale) SiO2 
 PCOD9417129
Probable space group: P M N A
;
_chemical_formula_sum "Si O2"
_cell_formula_units_Z 48
_cell_length_a 14.068456
_cell_length_b 18.052808
_cell_length_c 6.702565
_cell_angle_alpha 90.000000
_cell_angle_beta 90.000000
_cell_angle_gamma 90.000000
_cell_volume 1702.284851
_symmetry_space_group_name_H-M "P M N A"
_symmetry_group_IT_number 53
_symmetry_cell_setting 'orthorhombic'
loop_
_space_group_symop_operation_xyz
x,y,z
1/2-x,-y,1/2+z
x,-y,-z
1/2-x,y,1/2-z
-x,-y,-z
1/2+x,y,1/2-z
-x,y,z
1/2+x,-y,1/2+z
loop_
_atom_site_type_symbol
_atom_site_label
_atom_site_fract_x
_atom_site_fract_y
_atom_site_fract_z
Si Si1 0.887220 0.217531 0.161946
Si Si2 0.138085 0.898250 0.297207
Si Si3 0.110165 0.262929 0.593018
Si Si4 0.386632 0.623992 0.553491
Si Si5 0.678113 0.584833 0.999387
Si Si6 0.361929 0.057297 0.255062
O O1 0.843260 0.234313 0.382582
O O2 0.864799 0.288402 0.027517
O O3 0.873793 0.131112 0.113194
O O4 0.000000 0.223300 0.185649
O O5 0.250000 0.896281 0.250000
O O6 0.110398 0.812288 0.276284
O O7 0.112547 0.917197 0.530270
O O8 0.101072 0.975023 0.199579
O O9 0.148992 0.345214 0.637265
O O10 0.000000 0.278580 0.564541
O O11 0.500000 0.608419 0.506311
O O12 0.293161 0.580321 0.478740
O O13 0.368271 0.611711 0.790223
O O14 0.643651 0.500000 0.000000
O O15 0.250000 0.046522 0.250000
#
# Coordination Sequence:
#
# PCOD9417129 Si02
#       6
#     8   8   8   8   8   8
#     4   8  15  27  47  76 100 125 167 223 275 313
#     4   9  18  32  46  74 109 143 179 227 273 331
#     4   9  18  32  52  74 100 138 180 223 272 328
#     4   9  19  34  53  80 110 137 177 232 282 331
#     4  10  20  34  55  79 105 141 182 230 283 337
#     4   9  17  27  50  76 102 140 185 222 269 324
#
# _framework density 28.197398
#
# number of rings (size 3 to 8) (size 9 to 14) (size 15 to 20)
#    0.000    3.000    0.000    1.500    7.000    2.333 
#    3.000    3.333    0.000    2.000    0.000    4.667 
#    0.000    0.000    0.000    0.000    0.000    0.000 
#
# Total GULP energy -267629.391735 kJ/mol
# GULP energy per Si atom -5575.612328 kJ/mol
# Density = 2.813322 g / cm^3
# Si number density = 28.197398 Si / 1000 Ang^3
#
#
#
# Elastic Constant Matrix: (Units=GPa)
#
#
# Indices 1 2 3 4 5 6 
#
# 1 153.0107 39.8268 -1.8516 0.0000 0.0000 0.0000
# 2 39.8268 363.8709 68.7873 0.0000 0.0000 0.0000
# 3 -1.8516 68.7873 82.6723 0.0000 0.0000 0.0000
# 4 0.0000 0.0000 0.0000 17.6554 0.0000 0.0000
# 5 0.0000 0.0000 0.0000 0.0000 3.9332 0.0000
# 6 0.0000 0.0000 0.0000 0.0000 0.0000 375.6448
#
#
#
# Elastic Compliance Matrix: (Units=1/GPa)
#
#
# Indices 1 2 3 4 5 6 
#
# 1 0.006785 -0.000915 0.000914 0.000000 0.000000 0.000000
# 2 -0.000915 0.003385 -0.002837 0.000000 0.000000 0.000000
# 3 0.000914 -0.002837 0.014477 0.000000 0.000000 0.000000
# 4 0.000000 0.000000 0.000000 0.056640 0.000000 0.000000
# 5 0.000000 0.000000 0.000000 0.000000 0.254247 0.000000
# 6 0.000000 0.000000 0.000000 0.000000 0.000000 0.002662
#
#
# Mechanical properties :
#
#
# Convention : Reuss Voigt Hill
#
# Bulk Modulus (GPa) = 52.71708 90.34209 71.52958
# Shear Modulus (GPa) = 14.27776 112.29944 63.28860
#
# Velocity S-wave (km/s) = 2.25266 6.31764 4.74274
# Velocity P-wave (km/s) = 5.04998 9.23718 7.44405
#
# Compressibility (1/GPa) = 0.01896919
#
# Stress axis : x y z
#
# Youngs Moduli (GPa) = 147.38848 295.44968 69.07663
#
# Poissons Ratio (x) = 0.27043 -0.06310
# Poissons Ratio (y) = 0.13491 0.19595
# Poissons Ratio (z) = -0.13465 0.83810
#
# Static dielectric constant tensor:
#      x y z
#    x 2.072810 0.000000 0.000000 
#    y 0.000000 2.221220 0.000000 
#    z 0.000000 0.000000 2.392230 
# 
# From -- ./inp_files/17000.got.cif
#   From: 2010.05.17/outbox.cif.g08.bks.cpg/sg53_9_cif.got.tgz:17000.got - 2010.06.03 12:45:16.
