data_PCOD9417970
_publ_section_title
;
Structure prediction by ZEFSAII (Michael W. Deem and Ramdas Pophale) SiO2 
 PCOD9417970
Probable space group: P M N A
;
_chemical_formula_sum "Si O2"
_cell_formula_units_Z 64
_cell_length_a 8.890195
_cell_length_b 24.159896
_cell_length_c 15.729364
_cell_angle_alpha 90.000000
_cell_angle_beta 90.000000
_cell_angle_gamma 90.000000
_cell_volume 3378.450112
_symmetry_space_group_name_H-M "P M N A"
_symmetry_group_IT_number 53
_symmetry_cell_setting 'orthorhombic'
loop_
_space_group_symop_operation_xyz
x,y,z
1/2-x,-y,1/2+z
x,-y,-z
1/2-x,y,1/2-z
-x,-y,-z
1/2+x,y,1/2-z
-x,y,z
1/2+x,-y,1/2+z
loop_
_atom_site_type_symbol
_atom_site_label
_atom_site_fract_x
_atom_site_fract_y
_atom_site_fract_z
Si Si1 0.320595 0.884909 0.838410
Si Si2 0.819835 0.383449 0.839088
Si Si3 0.319822 0.812648 0.002698
Si Si4 0.819925 0.386293 0.161432
Si Si5 0.819635 0.691896 0.998315
Si Si6 0.680305 0.878447 0.340115
Si Si7 0.179686 0.998193 0.899277
Si Si8 0.178129 0.498784 0.602056
O O1 0.250000 0.865456 0.750000
O O2 0.500000 0.884726 0.831650
O O3 0.275919 0.846735 0.918094
O O4 0.264011 0.946956 0.857342
O O5 0.750000 0.364564 0.750000
O O6 0.782129 0.342402 0.916560
O O7 0.753545 0.443685 0.861234
O O8 0.000000 0.387045 0.832558
O O9 0.500000 0.815004 0.010676
O O10 0.264412 0.749931 0.995960
O O11 0.245061 0.841737 0.083831
O O12 0.750000 0.366476 0.250000
O O13 0.752799 0.446579 0.140761
O O14 0.000000 0.390063 0.168041
O O15 0.782527 0.345721 0.083362
O O16 0.000000 0.701186 0.998153
O O17 0.750000 0.862164 0.250000
O O18 0.500000 0.874027 0.338212
O O19 0.719828 0.942626 0.359421
O O20 0.000000 0.989959 0.889708
O O21 0.213126 0.000000 0.000000
O O22 0.198873 0.500000 0.500000
O O23 0.000000 0.498396 0.620227
#
# Coordination Sequence:
#
# PCOD9417970 Si02
#       8
#     8   8   8   8   8   8   8   8
#     4  11  24  40  62  92 125 163 204 251 306 365
#     4  11  23  41  64  92 124 160 202 247 303 363
#     4  11  25  43  64  90 121 160 208 258 307 360
#     4  11  23  41  64  92 125 162 203 250 304 363
#     4  10  24  44  65  87 119 163 206 253 308 361
#     4  11  23  40  64  92 126 162 203 250 304 366
#     4  10  20  37  63  94 125 162 200 245 306 366
#     4  11  22  37  62  94 126 162 201 246 302 362
#
# _framework density 18.943598000000001
#
# number of rings (size 3 to 8) (size 9 to 14) (size 15 to 20)
#    0.000    1.250    2.500    3.000    0.000    7.250 
#    0.000    3.750    0.000    0.000    0.000    0.000 
#    0.000    0.000    0.000    0.000    0.000    0.000 
#
# Total GULP energy -358018.066879 kJ/mol
# GULP energy per Si atom -5594.032295 kJ/mol
# Density = 1.890048 g / cm^3
# Si number density = 18.943598 Si / 1000 Ang^3
#
#
#
# Elastic Constant Matrix: (Units=GPa)
#
#
# Indices 1 2 3 4 5 6 
#
# 1 63.5023 55.8790 70.4979 0.0000 0.0000 0.0000
# 2 55.8790 122.7686 71.6123 0.0000 0.0000 0.0000
# 3 70.4979 71.6123 177.1796 0.0000 0.0000 0.0000
# 4 0.0000 0.0000 0.0000 -4.3249 0.0000 0.0000
# 5 0.0000 0.0000 0.0000 0.0000 39.7091 0.0000
# 6 0.0000 0.0000 0.0000 0.0000 0.0000 391.5510
#
#
#
# Elastic Compliance Matrix: (Units=1/GPa)
#
#
# Indices 1 2 3 4 5 6 
#
# 1 0.036418 -0.010630 -0.010194 0.000000 0.000000 0.000000
# 2 -0.010630 0.013761 -0.001332 0.000000 0.000000 0.000000
# 3 -0.010194 -0.001332 0.010239 0.000000 0.000000 0.000000
# 4 0.000000 0.000000 0.000000 -0.231221 0.000000 0.000000
# 5 0.000000 0.000000 0.000000 0.000000 0.025183 0.000000
# 6 0.000000 0.000000 0.000000 0.000000 0.000000 0.002554
#
#
# Mechanical properties :
#
#
# Convention : Reuss Voigt Hill
#
# Bulk Modulus (GPa) = 62.09145 84.38098 73.23621
# Shear Modulus (GPa) = -53.54134 96.41782 21.43824
#
# Velocity S-wave (km/s) = -5.32212 7.14197 3.36771
# Velocity P-wave (km/s) = 2.21774 10.61369 7.33935
#
# Compressibility (1/GPa) = 0.01610528
#
# Stress axis : x y z
#
# Youngs Moduli (GPa) = 27.45880 72.67049 97.66908
#
# Poissons Ratio (x) = 0.77246 0.99565
# Poissons Ratio (y) = 0.29188 0.13013
# Poissons Ratio (z) = 0.27992 0.09683
#
# Static dielectric constant tensor:
#      x y z
#    x 1.629520 0.000000 0.000000 
#    y 0.000000 1.615770 0.000000 
#    z 0.000000 0.000000 1.644160 
# 
# From -- ./inp_files/20875.got.cif
#   From: 2010.05.17/outbox.cif.g08.bks.cpg/sg53_11_cif.got.tgz:20875.got - 2010.06.03 12:45:16.
