data_PCOD9417088
_publ_section_title
;
Structure prediction by ZEFSAII (Michael W. Deem and Ramdas Pophale) SiO2 
 PCOD9417088
Probable space group: P M N A
;
_chemical_formula_sum "Si O2"
_cell_formula_units_Z 56
_cell_length_a 9.001591
_cell_length_b 21.382907
_cell_length_c 15.818083
_cell_angle_alpha 90.000000
_cell_angle_beta 90.000000
_cell_angle_gamma 90.000000
_cell_volume 3044.667514
_symmetry_space_group_name_H-M "P M N A"
_symmetry_group_IT_number 53
_symmetry_cell_setting 'orthorhombic'
loop_
_space_group_symop_operation_xyz
x,y,z
1/2-x,-y,1/2+z
x,-y,-z
1/2-x,y,1/2-z
-x,-y,-z
1/2+x,y,1/2-z
-x,y,z
1/2+x,-y,1/2+z
loop_
_atom_site_type_symbol
_atom_site_label
_atom_site_fract_x
_atom_site_fract_y
_atom_site_fract_z
Si Si1 0.178541 0.625973 0.163807
Si Si2 0.320632 0.356090 0.338857
Si Si3 0.319171 0.492668 0.402354
Si Si4 0.676466 0.085758 0.165389
Si Si5 0.330125 0.032552 0.592710
Si Si6 0.822748 0.851306 0.485217
Si Si7 0.678817 0.282939 0.508680
O O1 0.250000 0.649826 0.250000
O O2 0.228840 0.554624 0.146989
O O3 0.215941 0.667623 0.082284
O O4 0.000000 0.625910 0.171428
O O5 0.250000 0.337293 0.250000
O O6 0.500000 0.355932 0.332203
O O7 0.271812 0.426929 0.362577
O O8 0.280038 0.311853 0.417610
O O9 0.272777 0.500000 0.500000
O O10 0.500000 0.492054 0.402727
O O11 0.750000 0.112212 0.250000
O O12 0.500000 0.083079 0.174794
O O13 0.741052 0.016346 0.149738
O O14 0.711217 0.125243 0.081002
O O15 0.500000 0.039435 0.621476
O O16 0.251432 0.098744 0.578016
O O17 0.332493 0.000000 0.500000
O O18 0.757550 0.782564 0.474999
O O19 0.000000 0.852476 0.474930
O O20 0.500000 0.274598 0.509231
#
# Coordination Sequence:
#
# PCOD9417088 Si02
#       7
#     8   8   8   8   8   8   8
#     4  10  20  35  57  81 105 138 181 229 280 333
#     4  10  20  34  54  79 108 143 182 227 277 334
#     4   9  15  30  56  80 104 138 180 223 274 336
#     4  10  20  34  54  82 113 142 176 219 267 318
#     4   9  17  32  55  80 105 135 171 211 257 311
#     4  10  21  36  55  78 107 143 181 224 270 315
#     4  10  21  37  55  76 106 148 191 226 270 334
#
# _framework density 18.392814000000001
#
# number of rings (size 3 to 8) (size 9 to 14) (size 15 to 20)
#    0.000    2.286    1.429    1.714    0.000    5.143 
#    0.000    3.571    0.000    2.571    0.000    0.000 
#    0.000    0.000    0.000    0.000    0.000    0.000 
#
# Total GULP energy -312511.224008 kJ/mol
# GULP energy per Si atom -5580.557572 kJ/mol
# Density = 1.835095 g / cm^3
# Si number density = 18.392814 Si / 1000 Ang^3
#
#
#
# Elastic Constant Matrix: (Units=GPa)
#
#
# Indices 1 2 3 4 5 6 
#
# 1 19.3540 14.6226 7.8773 0.0000 0.0000 0.0000
# 2 14.6226 88.2744 -2.5766 0.0000 0.0000 0.0000
# 3 7.8773 -2.5766 64.9188 0.0000 0.0000 0.0000
# 4 0.0000 0.0000 0.0000 8.1592 0.0000 0.0000
# 5 0.0000 0.0000 0.0000 0.0000 25.8167 0.0000
# 6 0.0000 0.0000 0.0000 0.0000 0.0000 -10.6446
#
#
#
# Elastic Compliance Matrix: (Units=1/GPa)
#
#
# Indices 1 2 3 4 5 6 
#
# 1 0.063019 -0.010675 -0.008070 0.000000 0.000000 0.000000
# 2 -0.010675 0.013150 0.001817 0.000000 0.000000 0.000000
# 3 -0.008070 0.001817 0.016455 0.000000 0.000000 0.000000
# 4 0.000000 0.000000 0.000000 0.122561 0.000000 0.000000
# 5 0.000000 0.000000 0.000000 0.000000 0.038735 0.000000
# 6 0.000000 0.000000 0.000000 0.000000 0.000000 -0.093944
#
#
# Mechanical properties :
#
#
# Convention : Reuss Voigt Hill
#
# Bulk Modulus (GPa) = 17.01609 23.59932 20.30770
# Shear Modulus (GPa) = 23.42797 14.84118 19.13457
#
# Velocity S-wave (km/s) = 3.57284 2.84368 3.22891
# Velocity P-wave (km/s) = 5.12756 4.86216 4.99662
#
# Compressibility (1/GPa) = 0.05876790
#
# Stress axis : x y z
#
# Youngs Moduli (GPa) = 15.86830 76.04805 60.77083
#
# Poissons Ratio (x) = 0.81178 0.49045
# Poissons Ratio (y) = 0.16939 -0.11043
# Poissons Ratio (z) = 0.12806 -0.13819
#
# Static dielectric constant tensor:
#      x y z
#    x 1.613550 0.000000 0.000000 
#    y 0.000000 1.617350 0.000000 
#    z 0.000000 0.000000 1.633820 
# 
# From -- ./inp_files/20465.got.cif
#   From: 2010.05.17/outbox.cif.g08.bks.cpg/sg53_11_cif.got.tgz:20465.got - 2010.06.03 12:45:16.
