data_PCOD9417805
_publ_section_title
;
Structure prediction by ZEFSAII (Michael W. Deem and Ramdas Pophale) SiO2 
 PCOD9417805
Probable space group: P M N A
;
_chemical_formula_sum "Si O2"
_cell_formula_units_Z 56
_cell_length_a 14.053595
_cell_length_b 15.546497
_cell_length_c 10.050887
_cell_angle_alpha 90.000000
_cell_angle_beta 90.000000
_cell_angle_gamma 90.000000
_cell_volume 2195.959729
_symmetry_space_group_name_H-M "P M N A"
_symmetry_group_IT_number 53
_symmetry_cell_setting 'orthorhombic'
loop_
_space_group_symop_operation_xyz
x,y,z
1/2-x,-y,1/2+z
x,-y,-z
1/2-x,y,1/2-z
-x,-y,-z
1/2+x,y,1/2-z
-x,y,z
1/2+x,-y,1/2+z
loop_
_atom_site_type_symbol
_atom_site_label
_atom_site_fract_x
_atom_site_fract_y
_atom_site_fract_z
Si Si1 0.388436 0.283527 0.516750
Si Si2 0.687765 0.308251 0.921936
Si Si3 0.385230 0.872755 0.111485
Si Si4 0.615368 0.059203 0.176503
Si Si5 0.615295 0.094347 0.459615
Si Si6 0.662885 0.484226 0.848731
Si Si7 0.896725 0.329655 0.294839
O O1 0.500000 0.300286 0.551088
O O2 0.300201 0.328806 0.589452
O O3 0.366401 0.181876 0.536961
O O4 0.378772 0.305578 0.358486
O O5 0.659055 0.218506 0.857390
O O6 0.626279 0.386787 0.862455
O O7 0.668163 0.301404 0.081421
O O8 0.500000 0.864254 0.116349
O O9 0.359710 0.958468 0.192642
O O10 0.354169 0.899965 0.961830
O O11 0.500000 0.059955 0.169781
O O12 0.645964 0.108219 0.307397
O O13 0.500000 0.088387 0.460263
O O14 0.650812 0.000000 0.500000
O O15 0.750000 0.487970 0.750000
O O16 0.601366 0.566379 0.807116
O O17 0.695696 0.500000 0.000000
O O18 0.000000 0.291514 0.326956
#
# Coordination Sequence:
#
# PCOD9417805 Si02
#       7
#     8   8   8   8   8   8   8
#     4  10  21  38  60  87 121 167 215 255 305 374
#     4  11  21  35  58  86 124 156 198 253 312 374
#     4   9  17  31  54  83 115 152 195 249 314 372
#     4   8  15  30  52  78 111 150 195 248 306 366
#     4   9  17  32  54  79 112 157 206 254 300 353
#     4  10  22  41  64  89 124 163 200 254 314 374
#     4  10  20  36  64  95 120 152 201 255 311 373
#
# _framework density 25.501377999999999
#
# number of rings (size 3 to 8) (size 9 to 14) (size 15 to 20)
#    0.000    2.429    0.000    4.286    0.000    5.429 
#    5.143    0.714    0.000    6.000    0.000    0.000 
#    0.000    0.000    0.000    0.000    0.000    0.000 
#
# Total GULP energy -313013.480851 kJ/mol
# GULP energy per Si atom -5589.526444 kJ/mol
# Density = 2.544334 g / cm^3
# Si number density = 25.501378 Si / 1000 Ang^3
#
#
#
# Elastic Constant Matrix: (Units=GPa)
#
#
# Indices 1 2 3 4 5 6 
#
# 1 105.7467 17.6262 18.2737 0.0000 0.0000 0.0000
# 2 17.6262 148.0379 16.2875 0.0000 0.0000 0.0000
# 3 18.2737 16.2875 60.5660 0.0000 0.0000 0.0000
# 4 0.0000 0.0000 0.0000 25.5880 0.0000 0.0000
# 5 0.0000 0.0000 0.0000 0.0000 17.2359 0.0000
# 6 0.0000 0.0000 0.0000 0.0000 0.0000 28.1725
#
#
#
# Elastic Compliance Matrix: (Units=1/GPa)
#
#
# Indices 1 2 3 4 5 6 
#
# 1 0.010090 -0.000893 -0.002804 0.000000 0.000000 0.000000
# 2 -0.000893 0.007040 -0.001624 0.000000 0.000000 0.000000
# 3 -0.002804 -0.001624 0.017794 0.000000 0.000000 0.000000
# 4 0.000000 0.000000 0.000000 0.039081 0.000000 0.000000
# 5 0.000000 0.000000 0.000000 0.000000 0.058018 0.000000
# 6 0.000000 0.000000 0.000000 0.000000 0.000000 0.035496
#
#
# Mechanical properties :
#
#
# Convention : Reuss Voigt Hill
#
# Bulk Modulus (GPa) = 41.18291 46.52504 43.85397
# Shear Modulus (GPa) = 26.84507 31.67685 29.26096
#
# Velocity S-wave (km/s) = 3.24804 3.52826 3.39104
# Velocity P-wave (km/s) = 5.50006 5.90609 5.70669
#
# Compressibility (1/GPa) = 0.02428192
#
# Stress axis : x y z
#
# Youngs Moduli (GPa) = 99.10842 142.04567 56.19975
#
# Poissons Ratio (x) = 0.12682 0.15759
# Poissons Ratio (y) = 0.08849 0.09126
# Poissons Ratio (z) = 0.27792 0.23066
#
# Static dielectric constant tensor:
#      x y z
#    x 1.992660 0.000000 0.000000 
#    y 0.000000 2.028180 0.000000 
#    z 0.000000 0.000000 1.997790 
# 
# From -- ./inp_files/16021.got.cif
#   From: 2010.05.17/outbox.cif.g08.bks.cpg/sg53_9_cif.got.tgz:16021.got - 2010.06.03 12:45:16.
