data_PCOD9417126
_publ_section_title
;
Structure prediction by ZEFSAII (Michael W. Deem and Ramdas Pophale) SiO2 
 PCOD9417126
Probable space group: P M N A
;
_chemical_formula_sum "Si O2"
_cell_formula_units_Z 48
_cell_length_a 8.121407
_cell_length_b 13.882007
_cell_length_c 19.370161
_cell_angle_alpha 90.000000
_cell_angle_beta 90.000000
_cell_angle_gamma 90.000000
_cell_volume 2183.819628
_symmetry_space_group_name_H-M "P M N A"
_symmetry_group_IT_number 53
_symmetry_cell_setting 'orthorhombic'
loop_
_space_group_symop_operation_xyz
x,y,z
1/2-x,-y,1/2+z
x,-y,-z
1/2-x,y,1/2-z
-x,-y,-z
1/2+x,y,1/2-z
-x,y,z
1/2+x,-y,1/2+z
loop_
_atom_site_type_symbol
_atom_site_label
_atom_site_fract_x
_atom_site_fract_y
_atom_site_fract_z
Si Si1 0.805612 0.092844 0.538932
Si Si2 0.809414 0.589966 0.171323
Si Si3 0.691964 0.592583 0.911122
Si Si4 0.303284 0.996230 0.671197
Si Si5 0.695938 0.304556 0.958756
Si Si6 0.697644 0.224220 0.329611
O O1 0.734460 0.198612 0.524697
O O2 0.000000 0.096450 0.522100
O O3 0.731864 0.000000 0.500000
O O4 0.782812 0.069054 0.619347
O O5 0.750000 0.588807 0.250000
O O6 0.781127 0.486406 0.135270
O O7 0.724137 0.665239 0.119790
O O8 0.000000 0.613478 0.171485
O O9 0.500000 0.562954 0.914440
O O10 0.710928 0.695772 0.874042
O O11 0.757990 0.614079 0.988114
O O12 0.250000 0.010274 0.750000
O O13 0.500000 0.005520 0.665899
O O14 0.258544 0.885812 0.651210
O O15 0.500000 0.300896 0.970454
O O16 0.750000 0.236586 0.250000
O O17 0.500000 0.235782 0.335777
#
# Coordination Sequence:
#
# PCOD9417126 Si02
#       6
#     8   8   8   8   8   8
#     4  10  21  39  63  90 121 159 202 246 296 356
#     4  12  26  44  66  91 122 159 201 247 297 355
#     4  11  22  39  64  91 122 158 197 244 300 360
#     4  10  21  36  56  83 117 158 202 251 303 357
#     4  10  23  42  64  91 123 159 199 245 297 354
#     4  10  20  34  54  84 121 159 203 252 303 358
#
# _framework density 21.979838000000001
#
# number of rings (size 3 to 8) (size 9 to 14) (size 15 to 20)
#    0.000    1.500    0.000    5.000    0.000    8.333 
#    0.000    0.000    0.000    0.000    0.000    0.000 
#    0.000    0.000    0.000    0.000    0.000    0.000 
#
# Total GULP energy -268402.232531 kJ/mol
# GULP energy per Si atom -5591.713178 kJ/mol
# Density = 2.192981 g / cm^3
# Si number density = 21.979838 Si / 1000 Ang^3
#
#
#
# Elastic Constant Matrix: (Units=GPa)
#
#
# Indices 1 2 3 4 5 6 
#
# 1 26.1586 -3.7721 -12.9871 0.0000 0.0000 0.0000
# 2 -3.7721 94.7691 41.0452 0.0000 0.0000 0.0000
# 3 -12.9871 41.0452 100.8360 0.0000 0.0000 0.0000
# 4 0.0000 0.0000 0.0000 -53.8914 0.0000 0.0000
# 5 0.0000 0.0000 0.0000 0.0000 26.7165 0.0000
# 6 0.0000 0.0000 0.0000 0.0000 0.0000 17.4270
#
#
#
# Elastic Compliance Matrix: (Units=1/GPa)
#
#
# Indices 1 2 3 4 5 6 
#
# 1 0.040889 -0.000793 0.005589 0.000000 0.000000 0.000000
# 2 -0.000793 0.012826 -0.005323 0.000000 0.000000 0.000000
# 3 0.005589 -0.005323 0.012804 0.000000 0.000000 0.000000
# 4 0.000000 0.000000 0.000000 -0.018556 0.000000 0.000000
# 5 0.000000 0.000000 0.000000 0.000000 0.037430 0.000000
# 6 0.000000 0.000000 0.000000 0.000000 0.000000 0.057382
#
#
# Mechanical properties :
#
#
# Convention : Reuss Voigt Hill
#
# Bulk Modulus (GPa) = 15.27553 30.03732 22.65642
# Shear Modulus (GPa) = 30.18414 11.21560 20.69987
#
# Velocity S-wave (km/s) = 3.70978 2.26136 3.07215
# Velocity P-wave (km/s) = 5.03138 4.52922 4.78689
#
# Compressibility (1/GPa) = 0.06546418
#
# Stress axis : x y z
#
# Youngs Moduli (GPa) = 24.45661 77.96805 78.10304
#
# Poissons Ratio (x) = 0.06184 -0.43652
# Poissons Ratio (y) = 0.01940 0.41573
# Poissons Ratio (z) = -0.13669 0.41501
#
# Static dielectric constant tensor:
#      x y z
#    x 1.773520 0.000000 0.000000 
#    y 0.000000 1.823220 0.000000 
#    z 0.000000 0.000000 1.667270 
# 
# From -- ./inp_files/26240.got.cif
#   From: 2010.05.17/outbox.cif.g08.bks.cpg/sg53_14_cif.got.tgz:26240.got - 2010.06.03 12:45:16.
