data_PCOD9417683
_publ_section_title
;
Structure prediction by ZEFSAII (Michael W. Deem and Ramdas Pophale) SiO2 
 PCOD9417683
Probable space group: P M N A
;
_chemical_formula_sum "Si O2"
_cell_formula_units_Z 56
_cell_length_a 9.747690
_cell_length_b 14.371343
_cell_length_c 20.218639
_cell_angle_alpha 90.000000
_cell_angle_beta 90.000000
_cell_angle_gamma 90.000000
_cell_volume 2832.376497
_symmetry_space_group_name_H-M "P M N A"
_symmetry_group_IT_number 53
_symmetry_cell_setting 'orthorhombic'
loop_
_space_group_symop_operation_xyz
x,y,z
1/2-x,-y,1/2+z
x,-y,-z
1/2-x,y,1/2-z
-x,-y,-z
1/2+x,y,1/2-z
-x,y,z
1/2+x,-y,1/2+z
loop_
_atom_site_type_symbol
_atom_site_label
_atom_site_fract_x
_atom_site_fract_y
_atom_site_fract_z
Si Si1 0.342052 0.334435 0.356780
Si Si2 0.344328 0.539153 0.309001
Si Si3 0.837894 0.985002 0.078242
Si Si4 0.153504 0.394657 0.474769
Si Si5 0.164307 0.861148 0.318867
Si Si6 0.339458 0.135224 0.309905
Si Si7 0.152342 0.659990 0.383801
O O1 0.500000 0.316467 0.374611
O O2 0.339219 0.427884 0.313384
O O3 0.258165 0.359864 0.421223
O O4 0.291683 0.240872 0.322433
O O5 0.250000 0.572497 0.250000
O O6 0.500000 0.569060 0.302140
O O7 0.272008 0.586716 0.370672
O O8 0.827495 0.079622 0.121385
O O9 0.000000 0.955413 0.081112
O O10 0.739489 0.916976 0.121163
O O11 0.804420 0.000000 0.000000
O O12 0.179381 0.500000 0.500000
O O13 0.154463 0.326328 0.537648
O O14 0.000000 0.396000 0.445940
O O15 0.250000 0.872392 0.250000
O O16 0.170013 0.753384 0.342170
O O17 0.000000 0.884841 0.311450
O O18 0.250000 0.094356 0.250000
O O19 0.500000 0.134309 0.290765
O O20 0.000000 0.620220 0.368443
#
# Coordination Sequence:
#
# PCOD9417683 Si02
#       7
#     8   8   8   8   8   8   8
#     4  10  22  37  56  85 118 153 198 246 294 354
#     4  11  22  35  54  81 114 153 197 244 293 348
#     4  10  23  43  67  95 126 160 199 247 307 369
#     4  10  20  36  58  83 116 159 201 246 299 353
#     4  11  24  42  65  92 124 160 204 254 305 365
#     4  10  22  41  63  90 122 158 201 248 302 362
#     4  10  22  39  58  85 120 157 200 246 298 358
#
# _framework density 19.771383
#
# number of rings (size 3 to 8) (size 9 to 14) (size 15 to 20)
#    0.000    1.714    1.429    2.143    2.000    6.286 
#    0.000    0.000    0.000    0.000    0.000    0.000 
#    0.000    0.000    0.000    0.000    0.000    0.000 
#
# Total GULP energy -312311.057461 kJ/mol
# GULP energy per Si atom -5576.983169 kJ/mol
# Density = 1.972638 g / cm^3
# Si number density = 19.771383 Si / 1000 Ang^3
#
#
#
# Elastic Constant Matrix: (Units=GPa)
#
#
# Indices 1 2 3 4 5 6 
#
# 1 114.4074 39.0668 72.4830 0.0000 0.0000 0.0000
# 2 39.0668 64.8412 18.0221 0.0000 0.0000 0.0000
# 3 72.4830 18.0221 120.2219 0.0000 0.0000 0.0000
# 4 0.0000 0.0000 0.0000 28.6253 0.0000 0.0000
# 5 0.0000 0.0000 0.0000 0.0000 33.8272 0.0000
# 6 0.0000 0.0000 0.0000 0.0000 0.0000 12.7551
#
#
#
# Elastic Compliance Matrix: (Units=1/GPa)
#
#
# Indices 1 2 3 4 5 6 
#
# 1 0.017269 -0.007837 -0.009237 0.000000 0.000000 0.000000
# 2 -0.007837 0.019650 0.001779 0.000000 0.000000 0.000000
# 3 -0.009237 0.001779 0.013620 0.000000 0.000000 0.000000
# 4 0.000000 0.000000 0.000000 0.034934 0.000000 0.000000
# 5 0.000000 0.000000 0.000000 0.000000 0.029562 0.000000
# 6 0.000000 0.000000 0.000000 0.000000 0.000000 0.078400
#
#
# Mechanical properties :
#
#
# Convention : Reuss Voigt Hill
#
# Bulk Modulus (GPa) = 50.12592 62.06825 56.09709
# Shear Modulus (GPa) = 21.67571 26.36811 24.02191
#
# Velocity S-wave (km/s) = 3.31466 3.65588 3.48944
# Velocity P-wave (km/s) = 6.32907 7.02010 6.68352
#
# Compressibility (1/GPa) = 0.01994976
#
# Stress axis : x y z
#
# Youngs Moduli (GPa) = 57.90809 50.89165 73.42112
#
# Poissons Ratio (x) = 0.39885 0.67817
# Poissons Ratio (y) = 0.45384 -0.13065
# Poissons Ratio (z) = 0.53488 -0.09056
#
# Static dielectric constant tensor:
#      x y z
#    x 1.703700 0.000000 0.000000 
#    y 0.000000 1.721730 0.000000 
#    z 0.000000 0.000000 1.715790 
# 
# From -- ./inp_files/30757.got.cif
#   From: 2010.05.17/outbox.cif.g08.bks.cpg/sg53_16_cif.got.tgz:30757.got - 2010.06.03 12:45:16.
