data_PCOD9417170
_publ_section_title
;
Structure prediction by ZEFSAII (Michael W. Deem and Ramdas Pophale) SiO2 
 PCOD9417170
Probable space group: P M N A
;
_chemical_formula_sum "Si O2"
_cell_formula_units_Z 64
_cell_length_a 18.059913
_cell_length_b 21.114229
_cell_length_c 8.937205
_cell_angle_alpha 90.000000
_cell_angle_beta 90.000000
_cell_angle_gamma 90.000000
_cell_volume 3407.945188
_symmetry_space_group_name_H-M "P M N A"
_symmetry_group_IT_number 53
_symmetry_cell_setting 'orthorhombic'
loop_
_space_group_symop_operation_xyz
x,y,z
1/2-x,-y,1/2+z
x,-y,-z
1/2-x,y,1/2-z
-x,-y,-z
1/2+x,y,1/2-z
-x,y,z
1/2+x,-y,1/2+z
loop_
_atom_site_type_symbol
_atom_site_label
_atom_site_fract_x
_atom_site_fract_y
_atom_site_fract_z
Si Si1 0.665033 0.029746 0.778826
Si Si2 0.356387 0.859346 0.461156
Si Si3 0.587384 0.517040 0.333145
Si Si4 0.418405 0.898938 0.752783
Si Si5 0.666164 0.245713 0.771036
Si Si6 0.809304 0.556816 0.614611
Si Si7 0.088671 0.631313 0.380211
Si Si8 0.188833 0.865128 0.511057
O O1 0.750000 0.009173 0.750000
O O2 0.644714 0.084076 0.659306
O O3 0.666317 0.068033 0.934556
O O4 0.612063 0.970515 0.758584
O O5 0.416423 0.873578 0.584785
O O6 0.359661 0.792102 0.377222
O O7 0.275960 0.865254 0.539454
O O8 0.613547 0.500000 0.500000
O O9 0.500000 0.506666 0.331842
O O10 0.625074 0.472845 0.211850
O O11 0.600774 0.587090 0.266897
O O12 0.500000 0.896418 0.818059
O O13 0.362264 0.856888 0.847721
O O14 0.750000 0.272129 0.750000
O O15 0.610718 0.298349 0.830417
O O16 0.675350 0.189881 0.891837
O O17 0.782747 0.500000 0.500000
O O18 0.750000 0.574124 0.750000
O O19 0.851806 0.607882 0.507186
O O20 0.000000 0.625794 0.420902
#
# Coordination Sequence:
#
# PCOD9417170 Si02
#       8
#     8   8   8   8   8   8   8   8
#     4   9  18  34  56  76  97 134 179 217 264 328
#     4   9  19  37  57  75 100 137 180 223 269 320
#     4   9  18  34  56  83 116 152 187 225 275 332
#     4  12  23  31  47  80 112 135 166 216 276 330
#     4   9  20  39  61  80  99 136 191 236 268 317
#     4  10  20  34  55  85 119 151 189 235 280 324
#     4  10  21  37  59  85 118 158 190 224 281 346
#     4   9  19  37  56  73  99 138 180 223 268 319
#
# _framework density 18.779644999999999
#
# number of rings (size 3 to 8) (size 9 to 14) (size 15 to 20)
#    0.000    2.375    0.000    4.125    0.000    9.500 
#    0.000    6.250    0.000    1.500    0.000    0.000 
#    0.000    0.000    0.000    0.000    0.000    0.000 
#
# Total GULP energy -356509.299978 kJ/mol
# GULP energy per Si atom -5570.457812 kJ/mol
# Density = 1.873690 g / cm^3
# Si number density = 18.779645 Si / 1000 Ang^3
#
#
#
# Elastic Constant Matrix: (Units=GPa)
#
#
# Indices 1 2 3 4 5 6 
#
# 1 62.6822 30.4747 44.4196 0.0000 0.0000 0.0000
# 2 30.4747 49.1992 14.9411 0.0000 0.0000 0.0000
# 3 44.4196 14.9411 85.6059 0.0000 0.0000 0.0000
# 4 0.0000 0.0000 0.0000 12.3403 0.0000 0.0000
# 5 0.0000 0.0000 0.0000 0.0000 127.1532 0.0000
# 6 0.0000 0.0000 0.0000 0.0000 0.0000 18.2507
#
#
#
# Elastic Compliance Matrix: (Units=1/GPa)
#
#
# Indices 1 2 3 4 5 6 
#
# 1 0.035023 -0.017080 -0.015192 0.000000 0.000000 0.000000
# 2 -0.017080 0.029793 0.003663 0.000000 0.000000 0.000000
# 3 -0.015192 0.003663 0.018925 0.000000 0.000000 0.000000
# 4 0.000000 0.000000 0.000000 0.081035 0.000000 0.000000
# 5 0.000000 0.000000 0.000000 0.000000 0.007865 0.000000
# 6 0.000000 0.000000 0.000000 0.000000 0.000000 0.054792
#
#
# Mechanical properties :
#
#
# Convention : Reuss Voigt Hill
#
# Bulk Modulus (GPa) = 37.70399 41.90648 39.80524
# Shear Modulus (GPa) = 17.03614 38.72563 27.88088
#
# Velocity S-wave (km/s) = 3.01518 4.54597 3.85727
# Velocity P-wave (km/s) = 5.67824 7.06525 6.40937
#
# Compressibility (1/GPa) = 0.02652239
#
# Stress axis : x y z
#
# Youngs Moduli (GPa) = 28.55231 33.56491 52.84002
#
# Poissons Ratio (x) = 0.57330 0.80275
# Poissons Ratio (y) = 0.48769 -0.19355
# Poissons Ratio (z) = 0.43377 -0.12295
#
# Static dielectric constant tensor:
#      x y z
#    x 1.665610 0.000000 0.000000 
#    y 0.000000 1.639540 0.000000 
#    z 0.000000 0.000000 1.681970 
# 
# From -- ./inp_files/10278.got.cif
#   From: 2010.05.17/outbox.cif.g08.bks.cpg/sg53_6_cif.got.tgz:10278.got - 2010.06.03 12:45:16.
