data_PCOD9417718
_publ_section_title
;
Structure prediction by ZEFSAII (Michael W. Deem and Ramdas Pophale) SiO2 
 PCOD9417718
Probable space group: P M N A
;
_chemical_formula_sum "Si O2"
_cell_formula_units_Z 48
_cell_length_a 10.214161
_cell_length_b 28.573585
_cell_length_c 8.844502
_cell_angle_alpha 90.000000
_cell_angle_beta 90.000000
_cell_angle_gamma 90.000000
_cell_volume 2581.313878
_symmetry_space_group_name_H-M "P M N A"
_symmetry_group_IT_number 53
_symmetry_cell_setting 'orthorhombic'
loop_
_space_group_symop_operation_xyz
x,y,z
1/2-x,-y,1/2+z
x,-y,-z
1/2-x,y,1/2-z
-x,-y,-z
1/2+x,y,1/2-z
-x,y,z
1/2+x,-y,1/2+z
loop_
_atom_site_type_symbol
_atom_site_label
_atom_site_fract_x
_atom_site_fract_y
_atom_site_fract_z
Si Si1 0.754796 0.103199 0.068931
Si Si2 0.500000 0.949178 0.426605
Si Si3 0.500000 0.946799 0.064018
Si Si4 0.745799 0.386942 0.431944
Si Si5 0.154427 0.793241 0.888602
Si Si6 0.500000 0.450054 0.424423
Si Si7 0.654262 0.704594 0.391841
Si Si8 0.500000 0.552995 0.938216
O O1 0.750000 0.094885 0.250000
O O2 0.784062 0.158367 0.049938
O O3 0.624541 0.082195 0.995726
O O4 0.873755 0.076930 0.990265
O O5 0.500000 0.950129 0.245413
O O6 0.500000 0.000000 0.500000
O O7 0.500000 0.000000 0.000000
O O8 0.750000 0.379861 0.250000
O O9 0.626750 0.421124 0.469438
O O10 0.714692 0.338154 0.511752
O O11 0.875242 0.415142 0.479501
O O12 0.250000 0.780013 0.750000
O O13 0.000000 0.801078 0.845077
O O14 0.156475 0.751723 0.009102
O O15 0.500000 0.500000 0.500000
O O16 0.500000 0.453132 0.243024
O O17 0.750000 0.710369 0.250000
O O18 0.500000 0.695163 0.354702
O O19 0.500000 0.500000 0.000000
#
# Coordination Sequence:
#
# PCOD9417718 Si02
#       8
#     8   4   4   8   8   4   8   4
#     4  11  23  43  67  97 129 171 218 271 324 386
#     4  12  24  42  65  92 133 172 219 274 326 390
#     4  12  26  42  65  98 131 178 223 268 330 384
#     4  10  21  40  62  88 120 167 209 256 311 373
#     4  10  23  44  70  98 129 168 211 258 317 383
#     4  10  20  36  59  84 121 162 203 256 314 368
#     4  11  25  43  63  95 131 166 208 263 319 373
#     4  10  22  36  59  92 121 156 211 258 308 378
#
# _framework density 18.595182000000001
#
# number of rings (size 3 to 8) (size 9 to 14) (size 15 to 20)
#    0.000    1.333    1.667    3.500    4.667    3.333 
#    0.000    0.000    0.000    0.000    0.000    0.000 
#    0.000    0.000    0.000    0.000    0.000    0.000 
#
# Total GULP energy -268070.035429 kJ/mol
# GULP energy per Si atom -5584.792405 kJ/mol
# Density = 1.855286 g / cm^3
# Si number density = 18.595182 Si / 1000 Ang^3
#
#
#
# Elastic Constant Matrix: (Units=GPa)
#
#
# Indices 1 2 3 4 5 6 
#
# 1 207.5421 92.2681 72.2355 0.0000 0.0000 0.0000
# 2 92.2681 137.0718 87.3227 0.0000 0.0000 0.0000
# 3 72.2355 87.3227 95.2044 0.0000 0.0000 0.0000
# 4 0.0000 0.0000 0.0000 36.7173 0.0000 0.0000
# 5 0.0000 0.0000 0.0000 0.0000 -8.5846 0.0000
# 6 0.0000 0.0000 0.0000 0.0000 0.0000 50.1105
#
#
#
# Elastic Compliance Matrix: (Units=1/GPa)
#
#
# Indices 1 2 3 4 5 6 
#
# 1 0.007099 -0.003241 -0.002414 0.000000 0.000000 0.000000
# 2 -0.003241 0.019030 -0.014996 0.000000 0.000000 0.000000
# 3 -0.002414 -0.014996 0.026089 0.000000 0.000000 0.000000
# 4 0.000000 0.000000 0.000000 0.027235 0.000000 0.000000
# 5 0.000000 0.000000 0.000000 0.000000 -0.116488 0.000000
# 6 0.000000 0.000000 0.000000 0.000000 0.000000 0.019956
#
#
# Mechanical properties :
#
#
# Convention : Reuss Voigt Hill
#
# Bulk Modulus (GPa) = 91.59277 104.83011 98.21144
# Shear Modulus (GPa) = 179.45579 28.18145 103.81862
#
# Velocity S-wave (km/s) = 9.83443 3.89720 7.48012
# Velocity P-wave (km/s) = 13.35357 8.76060 11.29305
#
# Compressibility (1/GPa) = 0.01091789
#
# Stress axis : x y z
#
# Youngs Moduli (GPa) = 140.85821 52.54790 38.32989
#
# Poissons Ratio (x) = 0.17031 0.09252
# Poissons Ratio (y) = 0.45654 0.57478
# Poissons Ratio (z) = 0.34000 0.78799
#
# Static dielectric constant tensor:
#      x y z
#    x 1.595290 0.000000 0.000000 
#    y 0.000000 1.625050 0.000000 
#    z 0.000000 0.000000 1.629210 
# 
# From -- ./inp_files/6862.got.cif
#   From: 2010.05.17/outbox.cif.g08.bks.cpg/sg53_4_cif.got.tgz:6862.got - 2010.06.03 12:45:16.
