data_PCOD9417422
_publ_section_title
;
Structure prediction by ZEFSAII (Michael W. Deem and Ramdas Pophale) SiO2 
 PCOD9417422
Probable space group: P M N A
;
_chemical_formula_sum "Si O2"
_cell_formula_units_Z 64
_cell_length_a 8.769665
_cell_length_b 24.530701
_cell_length_c 14.959702
_cell_angle_alpha 90.000000
_cell_angle_beta 90.000000
_cell_angle_gamma 90.000000
_cell_volume 3218.221301
_symmetry_space_group_name_H-M "P M N A"
_symmetry_group_IT_number 53
_symmetry_cell_setting 'orthorhombic'
loop_
_space_group_symop_operation_xyz
x,y,z
1/2-x,-y,1/2+z
x,-y,-z
1/2-x,y,1/2-z
-x,-y,-z
1/2+x,y,1/2-z
-x,y,z
1/2+x,-y,1/2+z
loop_
_atom_site_type_symbol
_atom_site_label
_atom_site_fract_x
_atom_site_fract_y
_atom_site_fract_z
Si Si1 0.316105 0.964339 0.847767
Si Si2 0.672682 0.607875 0.340366
Si Si3 0.181693 0.353397 0.150662
Si Si4 0.318659 0.562799 0.983142
Si Si5 0.316655 0.910603 0.153142
Si Si6 0.826563 0.261102 0.841572
Si Si7 0.685749 0.864868 0.970130
Si Si8 0.182205 0.745668 0.535702
O O1 0.250000 0.954000 0.750000
O O2 0.500000 0.962328 0.845145
O O3 0.275772 0.026671 0.871923
O O4 0.262700 0.917199 0.914283
O O5 0.750000 0.586306 0.250000
O O6 0.500000 0.587129 0.350714
O O7 0.770662 0.594003 0.426927
O O8 0.664058 0.673188 0.332261
O O9 0.250000 0.350064 0.250000
O O10 0.238596 0.302549 0.090292
O O11 0.000000 0.352572 0.154940
O O12 0.237324 0.407741 0.099475
O O13 0.500000 0.566175 0.969727
O O14 0.276281 0.500000 0.000000
O O15 0.250000 0.898495 0.250000
O O16 0.500000 0.907741 0.158892
O O17 0.263626 0.872397 0.072629
O O18 0.750000 0.240083 0.750000
O O19 0.000000 0.240540 0.851281
O O20 0.729912 0.253612 0.931557
O O21 0.500000 0.866089 0.971571
O O22 0.727906 0.806164 0.930948
O O23 0.000000 0.738839 0.542638
#
# Coordination Sequence:
#
# PCOD9417422 Si02
#       8
#     8   8   8   8   8   8   8   8
#     4   9  17  32  54  78 107 144 190 240 291 349
#     4  10  20  35  59  88 120 156 192 236 285 342
#     4  12  26  46  69  92 121 162 208 250 297 352
#     4  11  24  42  66  96 128 160 196 242 295 351
#     4   9  17  32  54  79 110 149 190 236 290 351
#     4  10  20  35  57  85 114 150 192 235 287 349
#     4   9  19  34  54  81 111 149 194 237 290 352
#     4  11  22  38  60  86 120 158 199 250 301 356
#
# _framework density 19.886759999999999
#
# number of rings (size 3 to 8) (size 9 to 14) (size 15 to 20)
#    0.000    1.875    1.250    3.000    0.000    5.000 
#    0.000    5.625    0.000    3.000    0.000    0.000 
#    0.000    0.000    0.000    0.000    0.000    0.000 
#
# Total GULP energy -357391.969688 kJ/mol
# GULP energy per Si atom -5584.249526 kJ/mol
# Density = 1.984150 g / cm^3
# Si number density = 19.886760 Si / 1000 Ang^3
#
#
#
# Elastic Constant Matrix: (Units=GPa)
#
#
# Indices 1 2 3 4 5 6 
#
# 1 68.4031 46.0086 35.4456 0.0000 0.0000 0.0000
# 2 46.0086 103.3301 52.8881 0.0000 0.0000 0.0000
# 3 35.4456 52.8881 111.2179 0.0000 0.0000 0.0000
# 4 0.0000 0.0000 0.0000 0.2924 0.0000 0.0000
# 5 0.0000 0.0000 0.0000 0.0000 27.8627 0.0000
# 6 0.0000 0.0000 0.0000 0.0000 0.0000 2.5477
#
#
#
# Elastic Compliance Matrix: (Units=1/GPa)
#
#
# Indices 1 2 3 4 5 6 
#
# 1 0.021628 -0.008065 -0.003058 0.000000 0.000000 0.000000
# 2 -0.008065 0.015798 -0.004942 0.000000 0.000000 0.000000
# 3 -0.003058 -0.004942 0.012316 0.000000 0.000000 0.000000
# 4 0.000000 0.000000 0.000000 3.419410 0.000000 0.000000
# 5 0.000000 0.000000 0.000000 0.000000 0.035890 0.000000
# 6 0.000000 0.000000 0.000000 0.000000 0.000000 0.392508
#
#
# Mechanical properties :
#
#
# Convention : Reuss Voigt Hill
#
# Bulk Modulus (GPa) = 56.77795 61.29284 59.03540
# Shear Modulus (GPa) = 1.27047 16.04783 8.65915
#
# Velocity S-wave (km/s) = 0.80015 2.84379 2.08894
# Velocity P-wave (km/s) = 5.42828 6.45528 5.96393
#
# Compressibility (1/GPa) = 0.01761247
#
# Stress axis : x y z
#
# Youngs Moduli (GPa) = 46.23542 63.29726 81.19422
#
# Poissons Ratio (x) = 0.51050 0.24827
# Poissons Ratio (y) = 0.37290 0.40129
# Poissons Ratio (z) = 0.14138 0.31284
#
# Static dielectric constant tensor:
#      x y z
#    x 1.682120 0.000000 0.000000 
#    y 0.000000 1.731350 0.000000 
#    z 0.000000 0.000000 1.673380 
# 
# From -- ./inp_files/21027.got.cif
#   From: 2010.05.17/outbox.cif.g08.bks.cpg/sg53_11_cif.got.tgz:21027.got - 2010.06.03 12:45:16.
