data_PCOD9417183
_publ_section_title
;
Structure prediction by ZEFSAII (Michael W. Deem and Ramdas Pophale) SiO2 
 PCOD9417183
Probable space group: P M N A
;
_chemical_formula_sum "Si O2"
_cell_formula_units_Z 48
_cell_length_a 15.632727
_cell_length_b 18.402076
_cell_length_c 8.432325
_cell_angle_alpha 90.000000
_cell_angle_beta 90.000000
_cell_angle_gamma 90.000000
_cell_volume 2425.765977
_symmetry_space_group_name_H-M "P M N A"
_symmetry_group_IT_number 53
_symmetry_cell_setting 'orthorhombic'
loop_
_space_group_symop_operation_xyz
x,y,z
1/2-x,-y,1/2+z
x,-y,-z
1/2-x,y,1/2-z
-x,-y,-z
1/2+x,y,1/2-z
-x,y,z
1/2+x,-y,1/2+z
loop_
_atom_site_type_symbol
_atom_site_label
_atom_site_fract_x
_atom_site_fract_y
_atom_site_fract_z
Si Si1 0.901486 0.303627 0.393671
Si Si2 0.237084 0.923525 0.937390
Si Si3 0.161899 0.800873 0.150948
Si Si4 0.263894 0.422395 0.061384
Si Si5 0.094580 0.854636 0.464215
Si Si6 0.597666 0.341698 0.480489
O O1 0.832338 0.358234 0.468737
O O2 0.883545 0.220424 0.442059
O O3 0.000000 0.318862 0.442474
O O4 0.896405 0.316213 0.204167
O O5 0.250000 0.921782 0.750000
O O6 0.183173 0.856799 0.009515
O O7 0.331997 0.912351 0.006868
O O8 0.201904 0.000000 0.000000
O O9 0.250000 0.788498 0.250000
O O10 0.098812 0.835304 0.279267
O O11 0.122766 0.727389 0.084907
O O12 0.250000 0.427002 0.250000
O O13 0.294064 0.500000 0.000000
O O14 0.171269 0.401105 0.991598
O O15 0.000000 0.877532 0.512974
O O16 0.500000 0.365265 0.509624
#
# Coordination Sequence:
#
# PCOD9417183 Si02
#       6
#     8   8   8   8   8   8
#     4   9  19  36  57  81 108 143 185 227 274 327
#     4  11  22  38  58  80 110 149 188 225 271 326
#     4  10  20  34  56  83 110 141 181 226 274 327
#     4  10  21  35  52  76 108 144 183 228 276 328
#     4  10  20  35  57  85 114 141 177 227 277 327
#     4  10  20  36  57  79 107 144 185 227 273 329
#
# _framework density 19.787564
#
# number of rings (size 3 to 8) (size 9 to 14) (size 15 to 20)
#    0.000    2.000    0.000    5.000    0.000    4.333 
#    0.000    0.833    0.000    3.500    0.000    0.000 
#    0.000    0.000    0.000    0.000    0.000    0.000 
#
# Total GULP energy -267997.659474 kJ/mol
# GULP energy per Si atom -5583.284572 kJ/mol
# Density = 1.974253 g / cm^3
# Si number density = 19.787564 Si / 1000 Ang^3
#
#
#
# Elastic Constant Matrix: (Units=GPa)
#
#
# Indices 1 2 3 4 5 6 
#
# 1 71.5669 6.7264 -5.9147 0.0000 0.0000 0.0000
# 2 6.7264 33.4432 -0.3981 0.0000 0.0000 0.0000
# 3 -5.9147 -0.3981 42.3733 0.0000 0.0000 0.0000
# 4 0.0000 0.0000 0.0000 21.4151 0.0000 0.0000
# 5 0.0000 0.0000 0.0000 0.0000 6.6328 0.0000
# 6 0.0000 0.0000 0.0000 0.0000 0.0000 75.8187
#
#
#
# Elastic Compliance Matrix: (Units=1/GPa)
#
#
# Indices 1 2 3 4 5 6 
#
# 1 0.014407 -0.002874 0.001984 0.000000 0.000000 0.000000
# 2 -0.002874 0.030478 -0.000115 0.000000 0.000000 0.000000
# 3 0.001984 -0.000115 0.023876 0.000000 0.000000 0.000000
# 4 0.000000 0.000000 0.000000 0.046696 0.000000 0.000000
# 5 0.000000 0.000000 0.000000 0.000000 0.150766 0.000000
# 6 0.000000 0.000000 0.000000 0.000000 0.000000 0.013189
#
#
# Mechanical properties :
#
#
# Convention : Reuss Voigt Hill
#
# Bulk Modulus (GPa) = 14.98105 16.46785 15.72445
# Shear Modulus (GPa) = 16.46513 30.57131 23.51822
#
# Velocity S-wave (km/s) = 2.88773 3.93488 3.45125
# Velocity P-wave (km/s) = 4.32505 5.38375 4.88318
#
# Compressibility (1/GPa) = 0.06675101
#
# Stress axis : x y z
#
# Youngs Moduli (GPa) = 69.41049 32.81043 41.88373
#
# Poissons Ratio (x) = 0.09430 -0.08310
# Poissons Ratio (y) = 0.19949 0.00481
# Poissons Ratio (z) = -0.13771 0.00377
#
# Static dielectric constant tensor:
#      x y z
#    x 1.719900 0.000000 0.000000 
#    y 0.000000 1.664690 0.000000 
#    z 0.000000 0.000000 1.540540 
# 
# From -- ./inp_files/8617.got.cif
#   From: 2010.05.17/outbox.cif.g08.bks.cpg/sg53_5_cif.got.tgz:8617.got - 2010.06.03 12:45:16.
