data_PCOD9417662
_publ_section_title
;
Structure prediction by ZEFSAII (Michael W. Deem and Ramdas Pophale) SiO2 
 PCOD9417662
Probable space group: P M N A
;
_chemical_formula_sum "Si O2"
_cell_formula_units_Z 48
_cell_length_a 8.491207
_cell_length_b 7.350950
_cell_length_c 35.383393
_cell_angle_alpha 90.000000
_cell_angle_beta 90.000000
_cell_angle_gamma 90.000000
_cell_volume 2208.576126
_symmetry_space_group_name_H-M "P M N A"
_symmetry_group_IT_number 53
_symmetry_cell_setting 'orthorhombic'
loop_
_space_group_symop_operation_xyz
x,y,z
1/2-x,-y,1/2+z
x,-y,-z
1/2-x,y,1/2-z
-x,-y,-z
1/2+x,y,1/2-z
-x,y,z
1/2+x,-y,1/2+z
loop_
_atom_site_type_symbol
_atom_site_label
_atom_site_fract_x
_atom_site_fract_y
_atom_site_fract_z
Si Si1 0.172673 0.456457 0.571239
Si Si2 0.000000 0.044275 0.954746
Si Si3 0.333475 0.952721 0.044346
Si Si4 0.182709 0.603278 0.150816
Si Si5 0.185920 0.680323 0.708392
Si Si6 0.000000 0.520830 0.044370
Si Si7 0.185755 0.112964 0.708348
O O1 0.204205 0.404944 0.614676
O O2 0.333186 0.555742 0.558812
O O3 0.000000 0.543161 0.566157
O O4 0.168387 0.266175 0.548343
O O5 0.000000 0.261835 0.948109
O O6 0.167784 0.979201 0.939118
O O7 0.000000 0.000000 0.000000
O O8 0.500000 0.015607 0.061315
O O9 0.334012 0.000000 0.000000
O O10 0.220160 0.431001 0.177166
O O11 0.000000 0.604611 0.138952
O O12 0.222633 0.776757 0.176511
O O13 0.250000 0.633308 0.750000
O O14 0.205368 0.896644 0.703414
O O15 0.000000 0.637400 0.706071
O O16 0.000000 0.500000 0.000000
O O17 0.250000 0.160438 0.750000
O O18 0.000000 0.155854 0.706369
#
# Coordination Sequence:
#
# PCOD9417662 Si02
#       7
#     8   4   8   8   8   4   8
#     4  10  20  36  58  83 116 156 198 251 312 373
#     4   8  14  26  48  72  98 128 164 218 266 330
#     4   8  14  26  48  74  99 131 174 223 278 338
#     4  12  23  37  61  88 126 167 210 259 318 382
#     4  10  21  38  61  89 124 167 214 263 313 371
#     4  10  20  36  58  82 112 144 194 240 306 370
#     4  10  21  38  61  90 123 162 210 260 308 371
#
# _framework density 21.733460999999998
#
# number of rings (size 3 to 8) (size 9 to 14) (size 15 to 20)
#    0.000    2.167    0.833    3.000    0.000    2.333 
#    0.000    0.000   14.667    0.000    0.000    0.000 
#    0.000    0.000    0.000    0.000    0.000    0.000 
#
# Total GULP energy -267965.557162 kJ/mol
# GULP energy per Si atom -5582.615774 kJ/mol
# Density = 2.168399 g / cm^3
# Si number density = 21.733461 Si / 1000 Ang^3
#
#
#
# Elastic Constant Matrix: (Units=GPa)
#
#
# Indices 1 2 3 4 5 6 
#
# 1 220.3491 18.1118 11.3810 0.0000 0.0000 0.0000
# 2 18.1118 64.7886 4.4784 0.0000 0.0000 0.0000
# 3 11.3810 4.4784 50.0754 0.0000 0.0000 0.0000
# 4 0.0000 0.0000 0.0000 22.5360 0.0000 0.0000
# 5 0.0000 0.0000 0.0000 0.0000 27.0311 0.0000
# 6 0.0000 0.0000 0.0000 0.0000 0.0000 -6.3186
#
#
#
# Elastic Compliance Matrix: (Units=1/GPa)
#
#
# Indices 1 2 3 4 5 6 
#
# 1 0.004690 -0.001245 -0.000955 0.000000 0.000000 0.000000
# 2 -0.001245 0.015861 -0.001136 0.000000 0.000000 0.000000
# 3 -0.000955 -0.001136 0.020288 0.000000 0.000000 0.000000
# 4 0.000000 0.000000 0.000000 0.044374 0.000000 0.000000
# 5 0.000000 0.000000 0.000000 0.000000 0.036994 0.000000
# 6 0.000000 0.000000 0.000000 0.000000 0.000000 -0.158263
#
#
# Mechanical properties :
#
#
# Convention : Reuss Voigt Hill
#
# Bulk Modulus (GPa) = 29.26605 44.79504 37.03054
# Shear Modulus (GPa) = -277.84473 28.73250 -124.55612
#
# Velocity S-wave (km/s) = -11.31899 3.63993 -7.57860
# Velocity P-wave (km/s) = 12.54316 6.19042 7.71393
#
# Compressibility (1/GPa) = 0.03416929
#
# Stress axis : x y z
#
# Youngs Moduli (GPa) = 213.22431 63.04628 49.28926
#
# Poissons Ratio (x) = 0.07850 0.04705
# Poissons Ratio (y) = 0.26548 0.05597
# Poissons Ratio (z) = 0.20353 0.07159
#
# Static dielectric constant tensor:
#      x y z
#    x 1.868580 0.000000 0.000000 
#    y 0.000000 1.790600 0.000000 
#    z 0.000000 0.000000 1.727950 
# 
# From -- ./inp_files/37826.got.cif
#   From: 2010.05.17/outbox.cif.g08.bks.cpg/sg53_19_cif.got.tgz:37826.got - 2010.06.03 12:45:16.
