data_PCOD9417163
_publ_section_title
;
Structure prediction by ZEFSAII (Michael W. Deem and Ramdas Pophale) SiO2 
 PCOD9417163
Probable space group: P M N A
;
_chemical_formula_sum "Si O2"
_cell_formula_units_Z 64
_cell_length_a 8.938434
_cell_length_b 17.741217
_cell_length_c 23.093766
_cell_angle_alpha 90.000000
_cell_angle_beta 90.000000
_cell_angle_gamma 90.000000
_cell_volume 3662.179327
_symmetry_space_group_name_H-M "P M N A"
_symmetry_group_IT_number 53
_symmetry_cell_setting 'orthorhombic'
loop_
_space_group_symop_operation_xyz
x,y,z
1/2-x,-y,1/2+z
x,-y,-z
1/2-x,y,1/2-z
-x,-y,-z
1/2+x,y,1/2-z
-x,y,z
1/2+x,-y,1/2+z
loop_
_atom_site_type_symbol
_atom_site_label
_atom_site_fract_x
_atom_site_fract_y
_atom_site_fract_z
Si Si1 0.820253 0.072476 0.810658
Si Si2 0.321409 0.820231 0.416957
Si Si3 0.178818 0.333674 0.549193
Si Si4 0.171475 0.488998 0.930389
Si Si5 0.320815 0.091345 0.356729
Si Si6 0.826753 0.087473 0.481615
Si Si7 0.820645 0.354110 0.413644
Si Si8 0.178646 0.256002 0.188909
O O1 0.750000 0.094966 0.750000
O O2 0.775756 0.128395 0.862385
O O3 0.000000 0.073785 0.806623
O O4 0.775541 0.986565 0.826031
O O5 0.500000 0.811337 0.416088
O O6 0.243225 0.739584 0.419744
O O7 0.271175 0.864737 0.474122
O O8 0.247756 0.409144 0.576822
O O9 0.218623 0.330974 0.480156
O O10 0.000000 0.336490 0.552428
O O11 0.260016 0.560741 0.905969
O O12 0.000000 0.487943 0.909817
O O13 0.168720 0.500000 0.000000
O O14 0.500000 0.087536 0.367457
O O15 0.235546 0.096296 0.417340
O O16 0.290844 0.166975 0.320866
O O17 0.000000 0.111806 0.484862
O O18 0.818353 0.000000 0.500000
O O19 0.747233 0.300622 0.365629
O O20 0.000000 0.352081 0.408676
O O21 0.250000 0.279775 0.250000
O O22 0.000000 0.266840 0.190019
#
# Coordination Sequence:
#
# PCOD9417163 Si02
#       8
#     8   8   8   8   8   8   8   8
#     4  10  22  38  56  76 100 137 183 228 273 319
#     4  11  22  36  55  78 109 145 182 223 273 327
#     4  10  20  34  55  85 117 145 179 222 275 329
#     4   9  17  31  54  83 113 143 176 211 258 320
#     4  10  21  38  57  78 106 142 182 226 276 328
#     4  11  22  34  52  80 109 140 178 223 276 328
#     4  10  20  35  55  80 113 147 180 221 271 325
#     4  11  23  37  55  78 107 145 189 232 276 327
#
# _framework density 17.475933000000001
#
# number of rings (size 3 to 8) (size 9 to 14) (size 15 to 20)
#    0.000    1.750    1.250    3.375    0.000    8.000 
#    0.000    0.000    0.000    0.750    0.000    3.500 
#    0.000    0.000    0.000    0.000    0.000    0.000 
#
# Total GULP energy -357441.916954 kJ/mol
# GULP energy per Si atom -5585.029952 kJ/mol
# Density = 1.743616 g / cm^3
# Si number density = 17.475933 Si / 1000 Ang^3
#
#
#
# Elastic Constant Matrix: (Units=GPa)
#
#
# Indices 1 2 3 4 5 6 
#
# 1 54.9618 44.8024 32.9778 0.0000 0.0000 0.0000
# 2 44.8024 121.7687 35.6579 0.0000 0.0000 0.0000
# 3 32.9778 35.6579 75.6046 0.0000 0.0000 0.0000
# 4 0.0000 0.0000 0.0000 12.0002 0.0000 0.0000
# 5 0.0000 0.0000 0.0000 0.0000 28.0201 0.0000
# 6 0.0000 0.0000 0.0000 0.0000 0.0000 25.9929
#
#
#
# Elastic Compliance Matrix: (Units=1/GPa)
#
#
# Indices 1 2 3 4 5 6 
#
# 1 0.030840 -0.008595 -0.009398 0.000000 0.000000 0.000000
# 2 -0.008595 0.011924 -0.001875 0.000000 0.000000 0.000000
# 3 -0.009398 -0.001875 0.018210 0.000000 0.000000 0.000000
# 4 0.000000 0.000000 0.000000 0.083332 0.000000 0.000000
# 5 0.000000 0.000000 0.000000 0.000000 0.035689 0.000000
# 6 0.000000 0.000000 0.000000 0.000000 0.000000 0.038472
#
#
# Mechanical properties :
#
#
# Convention : Reuss Voigt Hill
#
# Bulk Modulus (GPa) = 47.08520 53.24571 50.16546
# Shear Modulus (GPa) = 18.84798 22.46245 20.65522
#
# Velocity S-wave (km/s) = 3.28763 3.58905 3.44164
# Velocity P-wave (km/s) = 6.43527 6.90718 6.67540
#
# Compressibility (1/GPa) = 0.02123809
#
# Stress axis : x y z
#
# Youngs Moduli (GPa) = 32.42583 83.86791 54.91397
#
# Poissons Ratio (x) = 0.72082 0.51610
# Poissons Ratio (y) = 0.27869 0.10294
# Poissons Ratio (z) = 0.30475 0.15722
#
# Static dielectric constant tensor:
#      x y z
#    x 1.584340 0.000000 0.000000 
#    y 0.000000 1.594660 0.000000 
#    z 0.000000 0.000000 1.556160 
# 
# From -- ./inp_files/34503.got.cif
#   From: 2010.05.17/outbox.cif.g08.bks.cpg/sg53_18_cif.got.tgz:34503.got - 2010.06.03 12:45:16.
