data_PCOD9417060
_publ_section_title
;
Structure prediction by ZEFSAII (Michael W. Deem and Ramdas Pophale) SiO2 
 PCOD9417060
Probable space group: P M N A
;
_chemical_formula_sum "Si O2"
_cell_formula_units_Z 64
_cell_length_a 15.105055
_cell_length_b 18.829087
_cell_length_c 9.772628
_cell_angle_alpha 90.000000
_cell_angle_beta 90.000000
_cell_angle_gamma 90.000000
_cell_volume 2779.476078
_symmetry_space_group_name_H-M "P M N A"
_symmetry_group_IT_number 53
_symmetry_cell_setting 'orthorhombic'
loop_
_space_group_symop_operation_xyz
x,y,z
1/2-x,-y,1/2+z
x,-y,-z
1/2-x,y,1/2-z
-x,-y,-z
1/2+x,y,1/2-z
-x,y,z
1/2+x,-y,1/2+z
loop_
_atom_site_type_symbol
_atom_site_label
_atom_site_fract_x
_atom_site_fract_y
_atom_site_fract_z
Si Si1 0.144014 0.436759 0.587194
Si Si2 0.162757 0.324860 0.344335
Si Si3 0.891852 0.109436 0.736678
Si Si4 0.608349 0.853904 0.541955
Si Si5 0.606869 0.182138 0.024514
Si Si6 0.148591 0.560605 0.102283
Si Si7 0.902161 0.306553 0.067210
Si Si8 0.892411 0.950337 0.710631
O O1 0.102123 0.500000 0.500000
O O2 0.145415 0.371475 0.479580
O O3 0.247237 0.455872 0.611224
O O4 0.110080 0.431832 0.743803
O O5 0.250000 0.339438 0.250000
O O6 0.155738 0.244483 0.397212
O O7 0.093053 0.334091 0.222312
O O8 0.864539 0.125125 0.890442
O O9 0.866356 0.171456 0.632428
O O10 0.000000 0.108471 0.732760
O O11 0.860810 0.030642 0.695631
O O12 0.500000 0.855005 0.550038
O O13 0.636059 0.773060 0.571679
O O14 0.639585 0.911563 0.651515
O O15 0.500000 0.194841 0.035934
O O16 0.625546 0.105910 0.092253
O O17 0.109832 0.500000 0.000000
O O18 0.144896 0.636323 0.026824
O O19 0.000000 0.299536 0.007936
O O20 0.000000 0.955105 0.718017
#
# Coordination Sequence:
#
# PCOD9417060 Si02
#       8
#     8   8   8   8   8   8   8   8
#     4  10  22  39  66  92 117 150 199 247 283 343
#     4  12  23  39  60  88 115 160 204 241 291 353
#     4   9  17  28  49  80 115 148 190 242 290 345
#     4   9  17  29  47  77 114 152 190 235 290 347
#     4  10  20  34  53  83 119 151 189 246 304 348
#     4  10  21  40  65  92 120 152 194 244 295 351
#     4  11  22  38  59  86 125 162 195 244 305 360
#     4   9  15  28  49  78 110 147 191 235 290 351
#
# _framework density 23.025922999999999
#
# number of rings (size 3 to 8) (size 9 to 14) (size 15 to 20)
#    0.000    2.000    2.500    1.875    3.500    3.250 
#    0.000    0.625    0.000    2.625    6.500    0.000 
#    0.000    0.000    0.000    0.000    0.000    0.000 
#
# Total GULP energy -357087.167686 kJ/mol
# GULP energy per Si atom -5579.486995 kJ/mol
# Density = 2.297351 g / cm^3
# Si number density = 23.025923 Si / 1000 Ang^3
#
#
#
# Elastic Constant Matrix: (Units=GPa)
#
#
# Indices 1 2 3 4 5 6 
#
# 1 48.3786 5.2775 -6.4505 0.0000 0.0000 0.0000
# 2 5.2775 106.3260 70.3548 0.0000 0.0000 0.0000
# 3 -6.4505 70.3548 175.5695 0.0000 0.0000 0.0000
# 4 0.0000 0.0000 0.0000 24.5316 0.0000 0.0000
# 5 0.0000 0.0000 0.0000 0.0000 3.1691 0.0000
# 6 0.0000 0.0000 0.0000 0.0000 0.0000 12.4437
#
#
#
# Elastic Compliance Matrix: (Units=1/GPa)
#
#
# Indices 1 2 3 4 5 6 
#
# 1 0.021119 -0.002125 0.001628 0.000000 0.000000 0.000000
# 2 -0.002125 0.013013 -0.005292 0.000000 0.000000 0.000000
# 3 0.001628 -0.005292 0.007876 0.000000 0.000000 0.000000
# 4 0.000000 0.000000 0.000000 0.040764 0.000000 0.000000
# 5 0.000000 0.000000 0.000000 0.000000 0.315549 0.000000
# 6 0.000000 0.000000 0.000000 0.000000 0.000000 0.080362
#
#
# Mechanical properties :
#
#
# Convention : Reuss Voigt Hill
#
# Bulk Modulus (GPa) = 32.86473 52.07086 42.46779
# Shear Modulus (GPa) = 9.99189 25.43502 17.71346
#
# Velocity S-wave (km/s) = 2.08538 3.32720 2.77660
# Velocity P-wave (km/s) = 4.48356 6.11747 5.36310
#
# Compressibility (1/GPa) = 0.03042776
#
# Stress axis : x y z
#
# Youngs Moduli (GPa) = 47.35038 76.84913 126.96197
#
# Poissons Ratio (x) = 0.16332 -0.20664
# Poissons Ratio (y) = 0.10063 0.67195
# Poissons Ratio (z) = -0.07706 0.40672
#
# Static dielectric constant tensor:
#      x y z
#    x 1.953510 0.000000 0.000000 
#    y 0.000000 1.829100 0.000000 
#    z 0.000000 0.000000 1.862340 
# 
# From -- ./inp_files/11178.got.cif
#   From: 2010.05.17/outbox.cif.g08.bks.cpg/sg53_6_cif.got.tgz:11178.got - 2010.06.03 12:45:16.
