data_PCOD9417984
_publ_section_title
;
Structure prediction by ZEFSAII (Michael W. Deem and Ramdas Pophale) SiO2 
 PCOD9417984
Probable space group: P M N A
;
_chemical_formula_sum "Si O2"
_cell_formula_units_Z 44
_cell_length_a 24.222278
_cell_length_b 14.224449
_cell_length_c 6.689007
_cell_angle_alpha 90.000000
_cell_angle_beta 90.000000
_cell_angle_gamma 90.000000
_cell_volume 2304.687717
_symmetry_space_group_name_H-M "P M N A"
_symmetry_group_IT_number 53
_symmetry_cell_setting 'orthorhombic'
loop_
_space_group_symop_operation_xyz
x,y,z
1/2-x,-y,1/2+z
x,-y,-z
1/2-x,y,1/2-z
-x,-y,-z
1/2+x,y,1/2-z
-x,y,z
1/2+x,-y,1/2+z
loop_
_atom_site_type_symbol
_atom_site_label
_atom_site_fract_x
_atom_site_fract_y
_atom_site_fract_z
Si Si1 0.619306 0.792816 0.521371
Si Si2 0.118181 0.642194 0.660055
Si Si3 0.000000 0.055392 0.701251
Si Si4 0.000000 0.249705 0.863293
Si Si5 0.148265 0.500000 0.000000
Si Si6 0.000000 0.387856 0.528132
Si Si7 0.096174 0.000000 0.000000
Si Si8 0.812891 0.333789 0.734565
O O1 0.635525 0.734380 0.716433
O O2 0.554313 0.770452 0.491022
O O3 0.648677 0.747112 0.329307
O O4 0.628368 0.903746 0.539283
O O5 0.117028 0.557555 0.824006
O O6 0.161722 0.633807 0.477985
O O7 0.056889 0.648659 0.568618
O O8 0.000000 0.168403 0.692923
O O9 0.000000 0.000000 0.500000
O O10 0.945550 0.024169 0.820315
O O11 0.000000 0.350374 0.756651
O O12 0.182881 0.422502 0.882917
O O13 0.000000 0.500000 0.500000
O O14 0.750000 0.301552 0.750000
#
# Coordination Sequence:
#
# PCOD9417984 Si02
#       8
#     8   8   4   4   4   4   4   8
#     4  10  22  40  62  88 126 159 202 262 308 368
#     4  11  24  40  62  92 124 165 205 248 309 364
#     4   9  19  31  58  87 119 159 204 244 305 364
#     4  10  20  38  55  90 124 163 203 255 302 367
#     4  10  24  39  62  90 122 157 206 262 294 354
#     4  12  23  34  62  85 130 169 200 234 307 381
#     4   9  20  36  58  90 122 154 204 255 306 366
#     4  11  24  41  64  88 121 159 210 255 307 358
#
# _framework density 19.091524
#
# number of rings (size 3 to 8) (size 9 to 14) (size 15 to 20)
#    0.000    1.636    1.818    2.727    7.636    2.545 
#    0.000    0.000    4.000    0.000    0.000    0.000 
#    0.000    0.000    0.000    0.000    0.000    0.000 
#
# Total GULP energy -245484.663304 kJ/mol
# GULP energy per Si atom -5579.196893 kJ/mol
# Density = 1.904807 g / cm^3
# Si number density = 19.091524 Si / 1000 Ang^3
#
#
#
# Elastic Constant Matrix: (Units=GPa)
#
#
# Indices 1 2 3 4 5 6 
#
# 1 84.5078 -1.1797 23.2841 0.0000 0.0000 0.0000
# 2 -1.1797 121.6836 23.2051 0.0000 0.0000 0.0000
# 3 23.2841 23.2051 86.4388 0.0000 0.0000 0.0000
# 4 0.0000 0.0000 0.0000 25.8636 0.0000 0.0000
# 5 0.0000 0.0000 0.0000 0.0000 5.0432 0.0000
# 6 0.0000 0.0000 0.0000 0.0000 0.0000 6.6249
#
#
#
# Elastic Compliance Matrix: (Units=1/GPa)
#
#
# Indices 1 2 3 4 5 6 
#
# 1 0.012860 0.000828 -0.003686 0.000000 0.000000 0.000000
# 2 0.000828 0.008715 -0.002562 0.000000 0.000000 0.000000
# 3 -0.003686 -0.002562 0.013250 0.000000 0.000000 0.000000
# 4 0.000000 0.000000 0.000000 0.038664 0.000000 0.000000
# 5 0.000000 0.000000 0.000000 0.000000 0.198288 0.000000
# 6 0.000000 0.000000 0.000000 0.000000 0.000000 0.150946
#
#
# Mechanical properties :
#
#
# Convention : Reuss Voigt Hill
#
# Bulk Modulus (GPa) = 41.69697 42.58323 42.14010
# Shear Modulus (GPa) = 11.32348 23.99437 17.65893
#
# Velocity S-wave (km/s) = 2.43804 3.54899 3.04462
# Velocity P-wave (km/s) = 5.46016 6.25676 5.87198
#
# Compressibility (1/GPa) = 0.02398256
#
# Stress axis : x y z
#
# Youngs Moduli (GPa) = 77.75755 114.74829 75.47274
#
# Poissons Ratio (x) = -0.09498 0.27823
# Poissons Ratio (y) = -0.06436 0.19340
# Poissons Ratio (z) = 0.28665 0.29404
#
# Static dielectric constant tensor:
#      x y z
#    x 1.655040 0.000000 0.000000 
#    y 0.000000 1.700410 0.000000 
#    z 0.000000 0.000000 1.690420 
# 
# From -- ./inp_files/4461.got.cif
#   From: 2010.05.17/outbox.cif.g08.bks.cpg/sg53_3_cif.got.tgz:4461.got - 2010.06.03 12:45:16.
