data_PCOD9417313
_publ_section_title
;
Structure prediction by ZEFSAII (Michael W. Deem and Ramdas Pophale) SiO2 
 PCOD9417313
Probable space group: P M N A
;
_chemical_formula_sum "Si O2"
_cell_formula_units_Z 56
_cell_length_a 8.682113
_cell_length_b 22.270114
_cell_length_c 15.022264
_cell_angle_alpha 90.000000
_cell_angle_beta 90.000000
_cell_angle_gamma 90.000000
_cell_volume 2904.579475
_symmetry_space_group_name_H-M "P M N A"
_symmetry_group_IT_number 53
_symmetry_cell_setting 'orthorhombic'
loop_
_space_group_symop_operation_xyz
x,y,z
1/2-x,-y,1/2+z
x,-y,-z
1/2-x,y,1/2-z
-x,-y,-z
1/2+x,y,1/2-z
-x,y,z
1/2+x,-y,1/2+z
loop_
_atom_site_type_symbol
_atom_site_label
_atom_site_fract_x
_atom_site_fract_y
_atom_site_fract_z
Si Si1 0.815450 0.749153 0.150596
Si Si2 0.683692 0.529425 0.155854
Si Si3 0.184110 0.394999 0.156973
Si Si4 0.685523 0.367397 0.537544
Si Si5 0.685728 0.892229 0.844638
Si Si6 0.686347 0.858196 0.035760
Si Si7 0.314646 0.968802 0.155045
O O1 0.750000 0.749068 0.250000
O O2 0.768066 0.689276 0.097053
O O3 0.756154 0.806151 0.095604
O O4 0.000000 0.750499 0.154819
O O5 0.750000 0.553174 0.250000
O O6 0.500000 0.526472 0.160091
O O7 0.751418 0.462630 0.145699
O O8 0.738136 0.573176 0.077955
O O9 0.250000 0.370888 0.250000
O O10 0.000000 0.398269 0.164195
O O11 0.225267 0.360324 0.066528
O O12 0.500000 0.374180 0.543199
O O13 0.750000 0.871269 0.750000
O O14 0.500000 0.891495 0.840925
O O15 0.734679 0.962115 0.857384
O O16 0.734648 0.856550 0.932588
O O17 0.500000 0.854327 0.038989
O O18 0.730448 0.922572 0.078241
O O19 0.250000 0.947728 0.250000
O O20 0.500000 0.968993 0.158870
#
# Coordination Sequence:
#
# PCOD9417313 Si02
#       7
#     8   8   8   8   8   8   8
#     4  11  24  41  59  80 107 139 178 221 265 314
#     4  11  21  33  54  84 115 145 178 218 266 320
#     4  10  20  36  57  81 111 143 177 219 266 316
#     4  10  22  39  57  78 107 144 182 222 267 313
#     4   9  18  33  53  78 108 141 177 219 266 317
#     4  10  20  35  55  78 106 142 181 220 266 317
#     4   9  17  30  50  77 108 140 174 215 265 319
#
# _framework density 19.279899
#
# number of rings (size 3 to 8) (size 9 to 14) (size 15 to 20)
#    0.000    2.000    0.000    4.714    0.000    9.143 
#    0.000    0.714    0.000    7.714    0.000    0.000 
#    0.000    0.000    0.000    0.000    0.000    0.000 
#
# Total GULP energy -312749.027297 kJ/mol
# GULP energy per Si atom -5584.804059 kJ/mol
# Density = 1.923602 g / cm^3
# Si number density = 19.279899 Si / 1000 Ang^3
#
#
#
# Elastic Constant Matrix: (Units=GPa)
#
#
# Indices 1 2 3 4 5 6 
#
# 1 34.4155 18.0941 45.0453 0.0000 0.0000 0.0000
# 2 18.0941 43.1634 56.9607 0.0000 0.0000 0.0000
# 3 45.0453 56.9607 200.8117 0.0000 0.0000 0.0000
# 4 0.0000 0.0000 0.0000 33.4932 0.0000 0.0000
# 5 0.0000 0.0000 0.0000 0.0000 31.9088 0.0000
# 6 0.0000 0.0000 0.0000 0.0000 0.0000 55.3992
#
#
#
# Elastic Compliance Matrix: (Units=1/GPa)
#
#
# Indices 1 2 3 4 5 6 
#
# 1 0.042984 -0.008462 -0.007242 0.000000 0.000000 0.000000
# 2 -0.008462 0.038694 -0.009077 0.000000 0.000000 0.000000
# 3 -0.007242 -0.009077 0.009179 0.000000 0.000000 0.000000
# 4 0.000000 0.000000 0.000000 0.029857 0.000000 0.000000
# 5 0.000000 0.000000 0.000000 0.000000 0.031339 0.000000
# 6 0.000000 0.000000 0.000000 0.000000 0.000000 0.018051
#
#
# Mechanical properties :
#
#
# Convention : Reuss Voigt Hill
#
# Bulk Modulus (GPa) = 24.21636 57.62119 40.91877
# Shear Modulus (GPa) = 21.41948 34.71296 28.06622
#
# Velocity S-wave (km/s) = 3.33674 4.24780 3.81953
# Velocity P-wave (km/s) = 5.23764 7.34915 6.38133
#
# Compressibility (1/GPa) = 0.04129440
#
# Stress axis : x y z
#
# Youngs Moduli (GPa) = 23.26438 25.84357 108.94375
#
# Poissons Ratio (x) = 0.21870 0.78893
# Poissons Ratio (y) = 0.19687 0.98893
# Poissons Ratio (z) = 0.16847 0.23459
#
# Static dielectric constant tensor:
#      x y z
#    x 1.650540 0.000000 0.000000 
#    y 0.000000 1.653100 0.000000 
#    z 0.000000 0.000000 1.689250 
# 
# From -- ./inp_files/20554.got.cif
#   From: 2010.05.17/outbox.cif.g08.bks.cpg/sg53_11_cif.got.tgz:20554.got - 2010.06.03 12:45:16.
