data_PCOD9417724
_publ_section_title
;
Structure prediction by ZEFSAII (Michael W. Deem and Ramdas Pophale) SiO2 
 PCOD9417724
Probable space group: P M N A
;
_chemical_formula_sum "Si O2"
_cell_formula_units_Z 56
_cell_length_a 8.679550
_cell_length_b 22.309248
_cell_length_c 14.949985
_cell_angle_alpha 90.000000
_cell_angle_beta 90.000000
_cell_angle_gamma 90.000000
_cell_volume 2894.828886
_symmetry_space_group_name_H-M "P M N A"
_symmetry_group_IT_number 53
_symmetry_cell_setting 'orthorhombic'
loop_
_space_group_symop_operation_xyz
x,y,z
1/2-x,-y,1/2+z
x,-y,-z
1/2-x,y,1/2-z
-x,-y,-z
1/2+x,y,1/2-z
-x,y,z
1/2+x,-y,1/2+z
loop_
_atom_site_type_symbol
_atom_site_label
_atom_site_fract_x
_atom_site_fract_y
_atom_site_fract_z
Si Si1 0.184895 0.645911 0.150674
Si Si2 0.316670 0.389528 0.149276
Si Si3 0.315071 0.512685 0.351160
Si Si4 0.814915 0.046474 0.150797
Si Si5 0.816687 0.082527 0.651166
Si Si6 0.314297 0.849610 0.512257
Si Si7 0.686148 0.286534 0.475778
O O1 0.250000 0.655145 0.250000
O O2 0.227525 0.579056 0.115443
O O3 0.231249 0.693923 0.076423
O O4 0.000000 0.646727 0.158314
O O5 0.250000 0.384472 0.250000
O O6 0.500000 0.392296 0.154063
O O7 0.253926 0.452209 0.108082
O O8 0.260963 0.333179 0.092142
O O9 0.250000 0.513052 0.250000
O O10 0.500000 0.507480 0.351377
O O11 0.750000 0.057311 0.250000
O O12 0.771072 0.100320 0.085108
O O13 0.000000 0.042274 0.154127
O O14 0.749026 0.982226 0.120915
O O15 0.750000 0.093610 0.750000
O O16 0.761192 0.131726 0.581025
O O17 0.000000 0.079462 0.655699
O O18 0.500000 0.851267 0.502053
O O19 0.271360 0.782414 0.540434
O O20 0.500000 0.292019 0.468896
#
# Coordination Sequence:
#
# PCOD9417724 Si02
#       7
#     8   8   8   8   8   8   8
#     4   9  19  35  57  81 109 143 181 228 278 330
#     4  11  22  37  57  81 109 143 183 231 281 331
#     4   9  16  30  53  80 106 137 177 224 280 333
#     4  10  20  36  59  86 114 144 181 227 277 328
#     4  11  22  37  60  87 115 146 183 228 275 326
#     4  10  22  39  58  81 114 152 187 227 274 324
#     4  10  22  40  57  79 112 151 190 225 270 328
#
# _framework density 19.344840000000001
#
# number of rings (size 3 to 8) (size 9 to 14) (size 15 to 20)
#    0.000    2.000    0.000    5.571    0.000    6.286 
#    0.000    5.714    0.000    0.000    0.000    0.000 
#    0.000    0.000    0.000    0.000    0.000    0.000 
#
# Total GULP energy -312746.499056 kJ/mol
# GULP energy per Si atom -5584.758912 kJ/mol
# Density = 1.930081 g / cm^3
# Si number density = 19.344840 Si / 1000 Ang^3
#
#
#
# Elastic Constant Matrix: (Units=GPa)
#
#
# Indices 1 2 3 4 5 6 
#
# 1 48.0434 12.4088 2.3174 0.0000 0.0000 0.0000
# 2 12.4088 41.0165 -7.7294 0.0000 0.0000 0.0000
# 3 2.3174 -7.7294 31.6268 0.0000 0.0000 0.0000
# 4 0.0000 0.0000 0.0000 36.5043 0.0000 0.0000
# 5 0.0000 0.0000 0.0000 0.0000 22.4923 0.0000
# 6 0.0000 0.0000 0.0000 0.0000 0.0000 22.7395
#
#
#
# Elastic Compliance Matrix: (Units=1/GPa)
#
#
# Indices 1 2 3 4 5 6 
#
# 1 0.022951 -0.007611 -0.003542 0.000000 0.000000 0.000000
# 2 -0.007611 0.028081 0.007421 0.000000 0.000000 0.000000
# 3 -0.003542 0.007421 0.033692 0.000000 0.000000 0.000000
# 4 0.000000 0.000000 0.000000 0.027394 0.000000 0.000000
# 5 0.000000 0.000000 0.000000 0.000000 0.044460 0.000000
# 6 0.000000 0.000000 0.000000 0.000000 0.000000 0.043976
#
#
# Mechanical properties :
#
#
# Convention : Reuss Voigt Hill
#
# Bulk Modulus (GPa) = 12.94331 14.96450 13.95390
# Shear Modulus (GPa) = 21.38840 23.92656 22.65748
#
# Velocity S-wave (km/s) = 3.32872 3.52070 3.42605
# Velocity P-wave (km/s) = 4.63457 4.92742 4.78324
#
# Compressibility (1/GPa) = 0.07726001
#
# Stress axis : x y z
#
# Youngs Moduli (GPa) = 43.57091 35.61087 29.68086
#
# Poissons Ratio (x) = 0.27103 0.10512
# Poissons Ratio (y) = 0.33161 -0.22025
# Poissons Ratio (z) = 0.15432 -0.26425
#
# Static dielectric constant tensor:
#      x y z
#    x 1.648610 0.000000 0.000000 
#    y 0.000000 1.684940 0.000000 
#    z 0.000000 0.000000 1.660420 
# 
# From -- ./inp_files/20476.got.cif
#   From: 2010.05.17/outbox.cif.g08.bks.cpg/sg53_11_cif.got.tgz:20476.got - 2010.06.03 12:45:16.
