data_PCOD9417273
_publ_section_title
;
Structure prediction by ZEFSAII (Michael W. Deem and Ramdas Pophale) SiO2 
 PCOD9417273
Probable space group: P M N A
;
_chemical_formula_sum "Si O2"
_cell_formula_units_Z 56
_cell_length_a 8.568085
_cell_length_b 24.451332
_cell_length_c 14.691472
_cell_angle_alpha 90.000000
_cell_angle_beta 90.000000
_cell_angle_gamma 90.000000
_cell_volume 3077.879412
_symmetry_space_group_name_H-M "P M N A"
_symmetry_group_IT_number 53
_symmetry_cell_setting 'orthorhombic'
loop_
_space_group_symop_operation_xyz
x,y,z
1/2-x,-y,1/2+z
x,-y,-z
1/2-x,y,1/2-z
-x,-y,-z
1/2+x,y,1/2-z
-x,y,z
1/2+x,-y,1/2+z
loop_
_atom_site_type_symbol
_atom_site_label
_atom_site_fract_x
_atom_site_fract_y
_atom_site_fract_z
Si Si1 0.311853 0.439237 0.351572
Si Si2 0.687464 0.936084 1.000000
Si Si3 0.188147 0.560763 0.148428
Si Si4 0.313341 0.146738 0.647256
Si Si5 0.189496 0.352090 0.000000
Si Si6 0.813910 0.229739 0.500000
Si Si7 0.313341 0.853262 0.647256
O O1 0.250000 0.433046 0.250000
O O2 0.500000 0.439054 0.351118
O O3 0.263275 0.500000 0.384712
O O4 0.262097 0.389162 0.414204
O O5 0.500000 0.930377 1.000000
O O6 0.753820 0.905135 0.911378
O O7 0.753820 0.094866 0.911378
O O8 0.727403 0.000000 0.000000
O O9 0.250000 0.566954 0.250000
O O10 0.000000 0.560946 0.148882
O O11 0.237903 0.610838 0.085796
O O12 0.250000 0.146677 0.750000
O O13 0.500000 0.147054 0.648462
O O14 0.252976 0.198447 0.588556
O O15 0.262678 0.292499 0.000000
O O16 0.000000 0.347003 0.000000
O O17 0.747024 0.198447 0.411444
O O18 0.000000 0.224474 0.500000
O O19 0.250000 0.853323 0.750000
O O20 0.500000 0.852946 0.648462
#
# Coordination Sequence:
#
# PCOD9417273 Si02
#       7
#     8   8   8   8   8   8   8
#     4   9  18  33  53  76 103 136 174 218 269 326
#     4  10  21  38  60  89 123 154 188 230 273 322
#     4   9  18  33  53  76 103 136 174 218 269 326
#     4  11  22  39  62  85 113 150 190 231 279 329
#     4  10  20  35  54  76 105 141 180 220 271 331
#     4  11  23  39  57  81 112 144 186 234 280 331
#     4  11  22  39  62  85 113 150 190 231 279 329
#
# _framework density 18.194344999999998
#
# number of rings (size 3 to 8) (size 9 to 14) (size 15 to 20)
#    0.000    1.857    0.000    6.429    0.000    5.714 
#    0.000    2.857    0.000    4.286    0.000    0.000 
#    0.000    0.000    0.000    0.000    0.000    0.000 
#
# Total GULP energy -312711.196981 kJ/mol
# GULP energy per Si atom -5584.128518 kJ/mol
# Density = 1.815293 g / cm^3
# Si number density = 18.194345 Si / 1000 Ang^3
#
#
#
# Elastic Constant Matrix: (Units=GPa)
#
#
# Indices 1 2 3 4 5 6 
#
# 1 104.2590 69.0284 60.1303 0.0000 0.0000 0.0000
# 2 69.0284 201.7174 107.5847 0.0000 0.0000 0.0000
# 3 60.1303 107.5847 172.2959 0.0000 0.0000 0.0000
# 4 0.0000 0.0000 0.0000 9.8206 0.0000 0.0000
# 5 0.0000 0.0000 0.0000 0.0000 30.8488 0.0000
# 6 0.0000 0.0000 0.0000 0.0000 0.0000 29.4383
#
#
#
# Elastic Compliance Matrix: (Units=1/GPa)
#
#
# Indices 1 2 3 4 5 6 
#
# 1 0.013174 -0.003083 -0.002673 0.000000 0.000000 0.000000
# 2 -0.003083 0.008154 -0.004016 0.000000 0.000000 0.000000
# 3 -0.002673 -0.004016 0.009244 0.000000 0.000000 0.000000
# 4 0.000000 0.000000 0.000000 0.101827 0.000000 0.000000
# 5 0.000000 0.000000 0.000000 0.000000 0.032416 0.000000
# 6 0.000000 0.000000 0.000000 0.000000 0.000000 0.033969
#
#
# Mechanical properties :
#
#
# Convention : Reuss Voigt Hill
#
# Bulk Modulus (GPa) = 90.66202 105.75100 98.20651
# Shear Modulus (GPa) = 22.52215 30.12347 26.32281
#
# Velocity S-wave (km/s) = 3.52215 4.07338 3.80775
# Velocity P-wave (km/s) = 8.15344 8.96507 8.56887
#
# Compressibility (1/GPa) = 0.01102998
#
# Stress axis : x y z
#
# Youngs Moduli (GPa) = 75.90722 122.63773 108.17545
#
# Poissons Ratio (x) = 0.37805 0.28913
# Poissons Ratio (y) = 0.23400 0.43440
# Poissons Ratio (z) = 0.20288 0.49248
#
# Static dielectric constant tensor:
#      x y z
#    x 1.614190 0.000000 0.000000 
#    y 0.000000 1.612870 0.000000 
#    z 0.000000 0.000000 1.601150 
# 
# From -- ./inp_files/20527.got.cif
#   From: 2010.05.17/outbox.cif.g08.bks.cpg/sg53_11_cif.got.tgz:20527.got - 2010.06.03 12:45:16.
