data_PCOD9417840
_publ_section_title
;
Structure prediction by ZEFSAII (Michael W. Deem and Ramdas Pophale) SiO2 
 PCOD9417840
Probable space group: P M N A
;
_chemical_formula_sum "Si O2"
_cell_formula_units_Z 64
_cell_length_a 8.646053
_cell_length_b 21.302693
_cell_length_c 19.458195
_cell_angle_alpha 90.000000
_cell_angle_beta 90.000000
_cell_angle_gamma 90.000000
_cell_volume 3583.892327
_symmetry_space_group_name_H-M "P M N A"
_symmetry_group_IT_number 53
_symmetry_cell_setting 'orthorhombic'
loop_
_space_group_symop_operation_xyz
x,y,z
1/2-x,-y,1/2+z
x,-y,-z
1/2-x,y,1/2-z
-x,-y,-z
1/2+x,y,1/2-z
-x,y,z
1/2+x,-y,1/2+z
loop_
_atom_site_type_symbol
_atom_site_label
_atom_site_fract_x
_atom_site_fract_y
_atom_site_fract_z
Si Si1 0.315016 0.042188 0.172101
Si Si2 0.813378 0.776229 0.172824
Si Si3 0.815086 0.085247 0.827875
Si Si4 0.313318 0.472029 0.574428
Si Si5 0.187031 0.300984 0.413964
Si Si6 0.312950 0.672244 0.435628
Si Si7 0.314879 0.576762 0.826589
Si Si8 0.813344 0.819466 0.672583
O O1 0.250000 0.043173 0.250000
O O2 0.500000 0.037665 0.174348
O O3 0.270885 0.111098 0.144452
O O4 0.250231 0.978423 0.138860
O O5 0.750000 0.769416 0.250000
O O6 0.771400 0.845833 0.144452
O O7 0.760507 0.720893 0.122757
O O8 0.000000 0.774399 0.176744
O O9 0.750000 0.086274 0.750000
O O10 0.000000 0.080516 0.825595
O O11 0.268404 0.500000 0.500000
O O12 0.500000 0.474689 0.578884
O O13 0.264543 0.399470 0.578798
O O14 0.243583 0.515660 0.633138
O O15 0.252569 0.307316 0.490114
O O16 0.235053 0.361678 0.369499
O O17 0.238207 0.237629 0.375344
O O18 0.000000 0.300611 0.417205
O O19 0.500000 0.672962 0.437055
O O20 0.250000 0.579231 0.750000
O O21 0.500000 0.576420 0.824070
O O22 0.750000 0.812421 0.750000
O O23 0.000000 0.817572 0.676860
#
# Coordination Sequence:
#
# PCOD9417840 Si02
#       8
#     8   8   8   8   8   8   8   8
#     4   9  15  24  41  66  96 129 165 206 252 301
#     4   9  19  34  52  76 104 132 166 211 259 306
#     4   9  15  25  43  67  96 127 161 204 252 302
#     4  10  20  37  59  80 105 138 174 214 262 314
#     4  10  21  36  53  76 105 139 176 214 255 304
#     4  10  21  37  57  79 104 136 173 211 255 311
#     4  11  23  37  57  83 111 140 176 218 261 309
#     4   9  18  31  47  71 103 135 171 215 258 301
#
# _framework density 17.857679000000001
#
# number of rings (size 3 to 8) (size 9 to 14) (size 15 to 20)
#    0.000    2.375    1.250    2.250    0.000    3.750 
#    0.000    1.250    0.000    0.750    0.000    5.250 
#    0.000    0.000    0.000    0.000    0.000    0.000 
#
# Total GULP energy -356797.448980 kJ/mol
# GULP energy per Si atom -5574.960140 kJ/mol
# Density = 1.781703 g / cm^3
# Si number density = 17.857679 Si / 1000 Ang^3
#
#
#
# Elastic Constant Matrix: (Units=GPa)
#
#
# Indices 1 2 3 4 5 6 
#
# 1 19.7101 38.4156 19.0708 0.0000 0.0000 0.0000
# 2 38.4156 219.3334 85.2244 0.0000 0.0000 0.0000
# 3 19.0708 85.2244 98.3650 0.0000 0.0000 0.0000
# 4 0.0000 0.0000 0.0000 0.4861 0.0000 0.0000
# 5 0.0000 0.0000 0.0000 0.0000 22.6662 0.0000
# 6 0.0000 0.0000 0.0000 0.0000 0.0000 21.8688
#
#
#
# Elastic Compliance Matrix: (Units=1/GPa)
#
#
# Indices 1 2 3 4 5 6 
#
# 1 0.078625 -0.011831 -0.004993 0.000000 0.000000 0.000000
# 2 -0.011831 0.008653 -0.005204 0.000000 0.000000 0.000000
# 3 -0.004993 -0.005204 0.015643 0.000000 0.000000 0.000000
# 4 0.000000 0.000000 0.000000 2.057228 0.000000 0.000000
# 5 0.000000 0.000000 0.000000 0.000000 0.044119 0.000000
# 6 0.000000 0.000000 0.000000 0.000000 0.000000 0.045727
#
#
# Mechanical properties :
#
#
# Convention : Reuss Voigt Hill
#
# Bulk Modulus (GPa) = 16.98773 69.20332 43.09553
# Shear Modulus (GPa) = 2.16107 21.98406 12.07256
#
# Velocity S-wave (km/s) = 1.10127 3.51247 2.60290
# Velocity P-wave (km/s) = 3.33924 7.43550 5.76356
#
# Compressibility (1/GPa) = 0.05886601
#
# Stress axis : x y z
#
# Youngs Moduli (GPa) = 12.71852 115.56287 63.92731
#
# Poissons Ratio (x) = 1.36720 0.31922
# Poissons Ratio (y) = 0.15047 0.33265
# Poissons Ratio (z) = 0.06351 0.60134
#
# Static dielectric constant tensor:
#      x y z
#    x 1.605940 0.000000 0.000000 
#    y 0.000000 1.664010 0.000000 
#    z 0.000000 0.000000 1.563830 
# 
# From -- ./inp_files/31404.got.cif
#   From: 2010.05.17/outbox.cif.g08.bks.cpg/sg53_16_cif.got.tgz:31404.got - 2010.06.03 12:45:16.
