data_PCOD9417811
_publ_section_title
;
Structure prediction by ZEFSAII (Michael W. Deem and Ramdas Pophale) SiO2 
 PCOD9417811
Probable space group: P M N A
;
_chemical_formula_sum "Si O2"
_cell_formula_units_Z 40
_cell_length_a 16.271205
_cell_length_b 7.712541
_cell_length_c 16.602437
_cell_angle_alpha 90.000000
_cell_angle_beta 90.000000
_cell_angle_gamma 90.000000
_cell_volume 2083.478597
_symmetry_space_group_name_H-M "P M N A"
_symmetry_group_IT_number 53
_symmetry_cell_setting 'orthorhombic'
loop_
_space_group_symop_operation_xyz
x,y,z
1/2-x,-y,1/2+z
x,-y,-z
1/2-x,y,1/2-z
-x,-y,-z
1/2+x,y,1/2-z
-x,y,z
1/2+x,-y,1/2+z
loop_
_atom_site_type_symbol
_atom_site_label
_atom_site_fract_x
_atom_site_fract_y
_atom_site_fract_z
Si Si1 0.910241 0.046556 0.093751
Si Si2 0.671796 0.249672 0.190163
Si Si3 0.248106 0.547492 0.091942
Si Si4 0.228694 0.058629 0.593720
Si Si5 0.589360 0.415310 0.333843
O O1 0.904952 0.253692 0.104463
O O2 0.000000 0.993644 0.128621
O O3 0.823179 0.973177 0.124070
O O4 0.912194 0.000000 0.000000
O O5 0.750000 0.241335 0.250000
O O6 0.693443 0.397052 0.125475
O O7 0.600642 0.320457 0.247764
O O8 0.669500 0.065576 0.145479
O O9 0.286602 0.737406 0.098374
O O10 0.164897 0.538554 0.144997
O O11 0.227654 0.500000 0.000000
O O12 0.226011 0.000000 0.500000
O O13 0.500000 0.497979 0.340593
#
# Coordination Sequence:
#
# PCOD9417811 Si02
#       5
#     8   8   8   8   8
#     4   9  16  29  49  76 112 145 174 211 262 332
#     4  10  20  37  53  82 114 143 189 237 280 329
#     4  11  20  34  59  87 110 145 190 235 284 336
#     4  11  19  33  58  81 109 147 187 232 282 331
#     4  10  21  38  56  79 121 157 181 231 289 338
#
# _framework density 19.198661999999999
#
# number of rings (size 3 to 8) (size 9 to 14) (size 15 to 20)
#    0.000    1.800    6.000    1.200    0.000    3.600 
#    0.000    0.000    0.000    1.200    0.000    0.000 
#    0.000    0.000    0.000    0.000    0.000    0.000 
#
# Total GULP energy -222914.845713 kJ/mol
# GULP energy per Si atom -5572.871143 kJ/mol
# Density = 1.915497 g / cm^3
# Si number density = 19.198662 Si / 1000 Ang^3
#
#
#
# Elastic Constant Matrix: (Units=GPa)
#
#
# Indices 1 2 3 4 5 6 
#
# 1 21.9090 10.6065 12.9044 0.0000 0.0000 0.0000
# 2 10.6065 122.3500 39.7528 0.0000 0.0000 0.0000
# 3 12.9044 39.7528 71.7564 0.0000 0.0000 0.0000
# 4 0.0000 0.0000 0.0000 30.5031 0.0000 0.0000
# 5 0.0000 0.0000 0.0000 0.0000 10.4548 0.0000
# 6 0.0000 0.0000 0.0000 0.0000 0.0000 4.9605
#
#
#
# Elastic Compliance Matrix: (Units=1/GPa)
#
#
# Indices 1 2 3 4 5 6 
#
# 1 0.051363 -0.001770 -0.008256 0.000000 0.000000 0.000000
# 2 -0.001770 0.010028 -0.005237 0.000000 0.000000 0.000000
# 3 -0.008256 -0.005237 0.018322 0.000000 0.000000 0.000000
# 4 0.000000 0.000000 0.000000 0.032784 0.000000 0.000000
# 5 0.000000 0.000000 0.000000 0.000000 0.095650 0.000000
# 6 0.000000 0.000000 0.000000 0.000000 0.000000 0.201591
#
#
# Mechanical properties :
#
#
# Convention : Reuss Voigt Hill
#
# Bulk Modulus (GPa) = 20.33085 38.06031 29.19558
# Shear Modulus (GPa) = 10.94902 19.36712 15.15807
#
# Velocity S-wave (km/s) = 2.39069 3.17957 2.81292
# Velocity P-wave (km/s) = 4.27004 5.77469 5.07840
#
# Compressibility (1/GPa) = 0.04918634
#
# Stress axis : x y z
#
# Youngs Moduli (GPa) = 19.46916 99.71677 54.57817
#
# Poissons Ratio (x) = 0.17651 0.45062
# Poissons Ratio (y) = 0.03446 0.28585
# Poissons Ratio (z) = 0.16075 0.52226
#
# Static dielectric constant tensor:
#      x y z
#    x 1.712970 0.000000 0.000000 
#    y 0.000000 1.683030 0.000000 
#    z 0.000000 0.000000 1.670640 
# 
# From -- ./inp_files/23440.got.cif
#   From: 2010.05.17/outbox.cif.g08.bks.cpg/sg53_12_cif.got.tgz:23440.got - 2010.06.03 12:45:16.
