data_PCOD9417733
_publ_section_title
;
Structure prediction by ZEFSAII (Michael W. Deem and Ramdas Pophale) SiO2 
 PCOD9417733
Probable space group: P M N A
;
_chemical_formula_sum "Si O2"
_cell_formula_units_Z 48
_cell_length_a 30.619036
_cell_length_b 8.544701
_cell_length_c 9.980100
_cell_angle_alpha 90.000000
_cell_angle_beta 90.000000
_cell_angle_gamma 90.000000
_cell_volume 2611.098628
_symmetry_space_group_name_H-M "P M N A"
_symmetry_group_IT_number 53
_symmetry_cell_setting 'orthorhombic'
loop_
_space_group_symop_operation_xyz
x,y,z
1/2-x,-y,1/2+z
x,-y,-z
1/2-x,y,1/2-z
-x,-y,-z
1/2+x,y,1/2-z
-x,y,z
1/2+x,-y,1/2+z
loop_
_atom_site_type_symbol
_atom_site_label
_atom_site_fract_x
_atom_site_fract_y
_atom_site_fract_z
Si Si1 0.139288 0.313102 0.993047
Si Si2 0.653822 0.871671 0.220119
Si Si3 0.547752 0.164086 0.420416
Si Si4 0.800706 0.811010 0.774771
Si Si5 0.356724 0.320517 0.036458
Si Si6 0.572446 0.087008 0.127488
O O1 0.144725 0.240785 0.845138
O O2 0.142904 0.500000 0.000000
O O3 0.091253 0.262199 0.046690
O O4 0.177166 0.237595 0.085205
O O5 0.688907 0.005298 0.252735
O O6 0.610630 0.970794 0.180911
O O7 0.664159 0.771603 0.088743
O O8 0.500000 0.231984 0.458503
O O9 0.547281 0.130281 0.261553
O O10 0.552254 0.000000 0.500000
O O11 0.750000 0.781829 0.750000
O O12 0.827059 0.711289 0.664777
O O13 0.402943 0.239699 0.070570
O O14 0.361466 0.500000 0.000000
O O15 0.551276 0.000000 0.000000
#
# Coordination Sequence:
#
# PCOD9417733 Si02
#       6
#     8   8   8   8   8   8
#     4  12  23  39  62  88 123 162 197 251 309 359
#     4  10  20  36  60  85 113 157 203 239 293 361
#     4  11  21  38  64  91 122 159 205 252 293 358
#     4  11  23  40  61  86 117 155 202 250 299 364
#     4  10  20  36  59  87 115 151 193 242 299 354
#     4   9  18  35  59  86 114 153 196 240 288 351
#
# _framework density 18.383067
#
# number of rings (size 3 to 8) (size 9 to 14) (size 15 to 20)
#    0.000    1.500    5.000    3.000    0.000    4.000 
#    0.000    1.667    0.000    0.500    0.000    0.000 
#    0.000    0.000    0.000    0.000    0.000    0.000 
#
# Total GULP energy -267766.744901 kJ/mol
# GULP energy per Si atom -5578.473852 kJ/mol
# Density = 1.834123 g / cm^3
# Si number density = 18.383067 Si / 1000 Ang^3
#
#
#
# Elastic Constant Matrix: (Units=GPa)
#
#
# Indices 1 2 3 4 5 6 
#
# 1 61.2146 -2.3993 -15.1101 0.0000 0.0000 0.0000
# 2 -2.3993 102.6904 11.2395 0.0000 0.0000 0.0000
# 3 -15.1101 11.2395 80.6826 0.0000 0.0000 0.0000
# 4 0.0000 0.0000 0.0000 26.5987 0.0000 0.0000
# 5 0.0000 0.0000 0.0000 0.0000 -3.5807 0.0000
# 6 0.0000 0.0000 0.0000 0.0000 0.0000 1.4398
#
#
#
# Elastic Compliance Matrix: (Units=1/GPa)
#
#
# Indices 1 2 3 4 5 6 
#
# 1 0.017128 0.000050 0.003201 0.000000 0.000000 0.000000
# 2 0.000050 0.009889 -0.001368 0.000000 0.000000 0.000000
# 3 0.003201 -0.001368 0.013184 0.000000 0.000000 0.000000
# 4 0.000000 0.000000 0.000000 0.037596 0.000000 0.000000
# 5 0.000000 0.000000 0.000000 0.000000 -0.279272 0.000000
# 6 0.000000 0.000000 0.000000 0.000000 0.000000 0.694552
#
#
# Mechanical properties :
#
#
# Convention : Reuss Voigt Hill
#
# Bulk Modulus (GPa) = 22.74485 25.78306 24.26396
# Shear Modulus (GPa) = 9.92128 21.61539 15.76833
#
# Velocity S-wave (km/s) = 2.32566 3.43276 2.93194
# Velocity P-wave (km/s) = 4.42845 5.45598 4.96884
#
# Compressibility (1/GPa) = 0.04396599
#
# Stress axis : x y z
#
# Youngs Moduli (GPa) = 58.38396 101.12316 75.84786
#
# Poissons Ratio (x) = -0.00504 -0.24277
# Poissons Ratio (y) = -0.00291 0.10378
# Poissons Ratio (z) = -0.18687 0.13836
#
# Static dielectric constant tensor:
#      x y z
#    x 1.657340 0.000000 0.000000 
#    y 0.000000 1.612530 0.000000 
#    z 0.000000 0.000000 1.641150 
# 
# From -- ./inp_files/13041.got.cif
#   From: 2010.05.17/outbox.cif.g08.bks.cpg/sg53_7_cif.got.tgz:13041.got - 2010.06.03 12:45:16.
