data_PCOD9417976
_publ_section_title
;
Structure prediction by ZEFSAII (Michael W. Deem and Ramdas Pophale) SiO2 
 PCOD9417976
Probable space group: P M N A
;
_chemical_formula_sum "Si O2"
_cell_formula_units_Z 28
_cell_length_a 16.025841
_cell_length_b 5.071615
_cell_length_c 15.297426
_cell_angle_alpha 90.000000
_cell_angle_beta 90.000000
_cell_angle_gamma 90.000000
_cell_volume 1243.327296
_symmetry_space_group_name_H-M "P M N A"
_symmetry_group_IT_number 53
_symmetry_cell_setting 'orthorhombic'
loop_
_space_group_symop_operation_xyz
x,y,z
1/2-x,-y,1/2+z
x,-y,-z
1/2-x,y,1/2-z
-x,-y,-z
1/2+x,y,1/2-z
-x,y,z
1/2+x,-y,1/2+z
loop_
_atom_site_type_symbol
_atom_site_label
_atom_site_fract_x
_atom_site_fract_y
_atom_site_fract_z
Si Si1 0.368672 0.257805 0.556141
Si Si2 0.350268 0.293715 0.753072
Si Si3 0.703969 0.500000 0.000000
Si Si4 0.902522 0.208465 0.357357
O O1 0.404873 0.500000 0.500000
O O2 0.389441 0.235989 0.657718
O O3 0.269145 0.324469 0.555310
O O4 0.384566 0.000000 0.500000
O O5 0.250000 0.272430 0.750000
O O6 0.375985 0.587013 0.781328
O O7 0.382975 0.083720 0.823633
O O8 0.649785 0.690695 0.940075
O O9 0.000000 0.233044 0.376063
#
# Coordination Sequence:
#
# PCOD9417976 Si02
#       4
#     8   8   4   8
#     4  10  20  37  64  99 118 160 226 274 317 365
#     4  12  22  42  67  93 128 175 224 269 310 393
#     4  10  23  40  64  98 131 174 208 268 335 390
#     4  12  26  41  64  98 140 172 207 267 340 399
#
# _framework density 22.520218
#
# number of rings (size 3 to 8) (size 9 to 14) (size 15 to 20)
#    0.857    0.000    2.857    5.571    0.000    0.000 
#    0.000    2.857    0.000   17.143    0.000    0.000 
#    0.000    0.000    0.000    0.000    0.000    0.000 
#
# Total GULP energy -156629.728839 kJ/mol
# GULP energy per Si atom -5593.918887 kJ/mol
# Density = 2.246896 g / cm^3
# Si number density = 22.520218 Si / 1000 Ang^3
#
#
#
# Elastic Constant Matrix: (Units=GPa)
#
#
# Indices 1 2 3 4 5 6 
#
# 1 97.5801 -4.1965 -4.1530 0.0000 0.0000 0.0000
# 2 -4.1965 80.8389 -6.2946 0.0000 0.0000 0.0000
# 3 -4.1530 -6.2946 95.8618 0.0000 0.0000 0.0000
# 4 0.0000 0.0000 0.0000 43.2381 0.0000 0.0000
# 5 0.0000 0.0000 0.0000 0.0000 26.4218 0.0000
# 6 0.0000 0.0000 0.0000 0.0000 0.0000 14.6615
#
#
#
# Elastic Compliance Matrix: (Units=1/GPa)
#
#
# Indices 1 2 3 4 5 6 
#
# 1 0.010293 0.000572 0.000483 0.000000 0.000000 0.000000
# 2 0.000572 0.012466 0.000843 0.000000 0.000000 0.000000
# 3 0.000483 0.000843 0.010508 0.000000 0.000000 0.000000
# 4 0.000000 0.000000 0.000000 0.023128 0.000000 0.000000
# 5 0.000000 0.000000 0.000000 0.000000 0.037848 0.000000
# 6 0.000000 0.000000 0.000000 0.000000 0.000000 0.068206
#
#
# Mechanical properties :
#
#
# Convention : Reuss Voigt Hill
#
# Bulk Modulus (GPa) = 26.98008 27.22140 27.10074
# Shear Modulus (GPa) = 29.23887 36.12594 32.68241
#
# Velocity S-wave (km/s) = 3.60716 4.00954 3.81366
# Velocity P-wave (km/s) = 5.41804 5.79215 5.60821
#
# Compressibility (1/GPa) = 0.03706438
#
# Stress axis : x y z
#
# Youngs Moduli (GPa) = 97.15187 80.22048 95.16553
#
# Poissons Ratio (x) = -0.04588 -0.04601
# Poissons Ratio (y) = -0.05557 -0.08025
# Poissons Ratio (z) = -0.04697 -0.06765
#
# Static dielectric constant tensor:
#      x y z
#    x 1.826150 0.000000 0.000000 
#    y 0.000000 1.773200 0.000000 
#    z 0.000000 0.000000 1.836180 
# 
# From -- ./inp_files/23123.got.cif
#   From: 2010.05.17/outbox.cif.g08.bks.cpg/sg53_12_cif.got.tgz:23123.got - 2010.06.03 12:45:16.
