data_PCOD9417528
_publ_section_title
;
Structure prediction by ZEFSAII (Michael W. Deem and Ramdas Pophale) SiO2 
 PCOD9417528
Probable space group: P M N A
;
_chemical_formula_sum "Si O2"
_cell_formula_units_Z 64
_cell_length_a 8.554745
_cell_length_b 20.756872
_cell_length_c 20.443109
_cell_angle_alpha 90.000000
_cell_angle_beta 90.000000
_cell_angle_gamma 90.000000
_cell_volume 3630.077692
_symmetry_space_group_name_H-M "P M N A"
_symmetry_group_IT_number 53
_symmetry_cell_setting 'orthorhombic'
loop_
_space_group_symop_operation_xyz
x,y,z
1/2-x,-y,1/2+z
x,-y,-z
1/2-x,y,1/2-z
-x,-y,-z
1/2+x,y,1/2-z
-x,y,z
1/2+x,-y,1/2+z
loop_
_atom_site_type_symbol
_atom_site_label
_atom_site_fract_x
_atom_site_fract_y
_atom_site_fract_z
Si Si1 0.310963 0.926540 0.322369
Si Si2 0.188593 0.819320 0.075037
Si Si3 0.689289 0.818036 0.575468
Si Si4 0.812010 0.570144 0.322396
Si Si5 0.312614 0.676374 0.923515
Si Si6 0.313859 0.427733 0.322265
Si Si7 0.311229 0.926373 0.677710
Si Si8 0.811473 0.321852 0.574452
O O1 0.250000 0.910869 0.250000
O O2 0.500000 0.925496 0.321283
O O3 0.256895 0.874770 0.375693
O O4 0.262075 0.000115 0.337829
O O5 0.248923 0.748502 0.093344
O O6 0.000000 0.818388 0.076652
O O7 0.235780 0.831708 0.999722
O O8 0.500000 0.814218 0.577479
O O9 0.757479 0.748478 0.593821
O O10 0.740528 0.874325 0.624361
O O11 0.750000 0.586297 0.250000
O O12 0.751396 0.498713 0.338735
O O13 0.760498 0.622713 0.375633
O O14 0.000000 0.568633 0.320733
O O15 0.500000 0.672772 0.920230
O O16 0.240820 0.624230 0.875008
O O17 0.263506 0.665144 0.999225
O O18 0.250000 0.411164 0.250000
O O19 0.500000 0.430583 0.319401
O O20 0.250000 0.910593 0.750000
O O21 0.500000 0.925583 0.679016
O O22 0.000000 0.319723 0.575391
#
# Coordination Sequence:
#
# PCOD9417528 Si02
#       8
#     8   8   8   8   8   8   8   8
#     4   9  18  32  49  72  99 131 166 205 251 300
#     4   9  18  32  51  73  99 129 167 210 251 294
#     4   9  18  33  51  73  99 130 167 210 252 296
#     4  10  20  36  55  77 104 135 170 209 251 299
#     4  10  20  36  55  76 103 136 170 208 251 300
#     4  11  22  37  56  79 105 134 168 208 251 299
#     4   9  18  32  50  71  99 130 164 204 250 300
#     4   9  20  36  54  75 103 137 171 206 251 302
#
# _framework density 17.630476999999999
#
# number of rings (size 3 to 8) (size 9 to 14) (size 15 to 20)
#    0.000    2.500    0.000    2.625    0.000    4.500 
#    0.000    8.750    0.000    0.000    0.000    7.000 
#    0.000    0.000    0.000    0.000    0.000    0.000 
#
# Total GULP energy -357058.739479 kJ/mol
# GULP energy per Si atom -5579.042804 kJ/mol
# Density = 1.759035 g / cm^3
# Si number density = 17.630477 Si / 1000 Ang^3
#
#
#
# Elastic Constant Matrix: (Units=GPa)
#
#
# Indices 1 2 3 4 5 6 
#
# 1 35.5364 36.3164 32.1922 0.0000 0.0000 0.0000
# 2 36.3164 164.9613 136.1981 0.0000 0.0000 0.0000
# 3 32.1922 136.1981 130.6894 0.0000 0.0000 0.0000
# 4 0.0000 0.0000 0.0000 45.1057 0.0000 0.0000
# 5 0.0000 0.0000 0.0000 0.0000 22.8887 0.0000
# 6 0.0000 0.0000 0.0000 0.0000 0.0000 26.7430
#
#
#
# Elastic Compliance Matrix: (Units=1/GPa)
#
#
# Indices 1 2 3 4 5 6 
#
# 1 0.036665 -0.004407 -0.004439 0.000000 0.000000 0.000000
# 2 -0.004407 0.043966 -0.044734 0.000000 0.000000 0.000000
# 3 -0.004439 -0.044734 0.055364 0.000000 0.000000 0.000000
# 4 0.000000 0.000000 0.000000 0.022170 0.000000 0.000000
# 5 0.000000 0.000000 0.000000 0.000000 0.043690 0.000000
# 6 0.000000 0.000000 0.000000 0.000000 0.000000 0.037393
#
#
# Mechanical properties :
#
#
# Convention : Reuss Voigt Hill
#
# Bulk Modulus (GPa) = 34.67832 82.28895 58.48363
# Shear Modulus (GPa) = 14.04419 27.37950 20.71185
#
# Velocity S-wave (km/s) = 2.82545 3.94504 3.43122
# Velocity P-wave (km/s) = 5.50967 8.21746 6.99583
#
# Compressibility (1/GPa) = 0.02883646
#
# Stress axis : x y z
#
# Youngs Moduli (GPa) = 27.27400 22.74485 18.06218
#
# Poissons Ratio (x) = 0.10024 0.08017
# Poissons Ratio (y) = 0.12020 0.80799
# Poissons Ratio (z) = 0.12106 1.01746
#
# Static dielectric constant tensor:
#      x y z
#    x 1.602010 0.000000 0.000000 
#    y 0.000000 1.579170 0.000000 
#    z 0.000000 0.000000 1.586880 
# 
# From -- ./inp_files/31176.got.cif
#   From: 2010.05.17/outbox.cif.g08.bks.cpg/sg53_16_cif.got.tgz:31176.got - 2010.06.03 12:45:16.
