data_PCOD9417567
_publ_section_title
;
Structure prediction by ZEFSAII (Michael W. Deem and Ramdas Pophale) SiO2 
 PCOD9417567
Probable space group: P M N A
;
_chemical_formula_sum "Si O2"
_cell_formula_units_Z 48
_cell_length_a 8.622009
_cell_length_b 31.594743
_cell_length_c 9.513864
_cell_angle_alpha 90.000000
_cell_angle_beta 90.000000
_cell_angle_gamma 90.000000
_cell_volume 2591.673200
_symmetry_space_group_name_H-M "P M N A"
_symmetry_group_IT_number 53
_symmetry_cell_setting 'orthorhombic'
loop_
_space_group_symop_operation_xyz
x,y,z
1/2-x,-y,1/2+z
x,-y,-z
1/2-x,y,1/2-z
-x,-y,-z
1/2+x,y,1/2-z
-x,y,z
1/2+x,-y,1/2+z
loop_
_atom_site_type_symbol
_atom_site_label
_atom_site_fract_x
_atom_site_fract_y
_atom_site_fract_z
Si Si1 0.687472 0.040459 0.407306
Si Si2 0.813546 0.215261 0.907422
Si Si3 0.186190 0.541352 0.407966
Si Si4 0.813159 0.119610 0.907115
Si Si5 0.185436 0.381917 0.091682
Si Si6 0.685109 0.290988 0.093321
O O1 0.750000 0.037881 0.250000
O O2 0.500000 0.040674 0.401978
O O3 0.739434 0.083196 0.486660
O O4 0.735603 0.000000 0.500000
O O5 0.750000 0.219952 0.750000
O O6 0.770413 0.167326 0.952842
O O7 0.000000 0.218741 0.908797
O O8 0.740560 0.251747 0.001199
O O9 0.227100 0.500000 0.500000
O O10 0.250000 0.537827 0.250000
O O11 0.254856 0.581892 0.487960
O O12 0.000000 0.544680 0.403155
O O13 0.750000 0.112411 0.750000
O O14 0.000000 0.117972 0.899512
O O15 0.250000 0.389015 0.250000
O O16 0.246168 0.335930 0.043479
O O17 0.000000 0.381741 0.097688
O O18 0.750000 0.285022 0.250000
O O19 0.500000 0.293744 0.096193
#
# Coordination Sequence:
#
# PCOD9417567 Si02
#       6
#     8   8   8   8   8   8
#     4  10  21  36  54  79 109 141 180 224 271 325
#     4  10  20  36  56  81 112 146 186 230 279 332
#     4  11  24  41  62  89 120 154 193 236 283 335
#     4   9  19  35  55  79 108 142 181 226 273 326
#     4  11  22  39  62  87 117 152 191 235 284 336
#     4  11  22  38  59  84 114 149 189 232 282 335
#
# _framework density 18.520854
#
# number of rings (size 3 to 8) (size 9 to 14) (size 15 to 20)
#    0.000    1.667    0.000    6.000    0.000    5.667 
#    0.000    5.000    0.000    0.000    0.000    0.000 
#    0.000    0.000    0.000    0.000    0.000    0.000 
#
# Total GULP energy -268232.415533 kJ/mol
# GULP energy per Si atom -5588.175324 kJ/mol
# Density = 1.847870 g / cm^3
# Si number density = 18.520854 Si / 1000 Ang^3
#
#
#
# Elastic Constant Matrix: (Units=GPa)
#
#
# Indices 1 2 3 4 5 6 
#
# 1 93.4296 73.2371 52.6583 0.0000 0.0000 0.0000
# 2 73.2371 208.3925 128.2309 0.0000 0.0000 0.0000
# 3 52.6583 128.2309 130.5772 0.0000 0.0000 0.0000
# 4 0.0000 0.0000 0.0000 43.6473 0.0000 0.0000
# 5 0.0000 0.0000 0.0000 0.0000 36.9429 0.0000
# 6 0.0000 0.0000 0.0000 0.0000 0.0000 33.2416
#
#
#
# Elastic Compliance Matrix: (Units=1/GPa)
#
#
# Indices 1 2 3 4 5 6 
#
# 1 0.015021 -0.003921 -0.002207 0.000000 0.000000 0.000000
# 2 -0.003921 0.013150 -0.011332 0.000000 0.000000 0.000000
# 3 -0.002207 -0.011332 0.019677 0.000000 0.000000 0.000000
# 4 0.000000 0.000000 0.000000 0.022911 0.000000 0.000000
# 5 0.000000 0.000000 0.000000 0.000000 0.027069 0.000000
# 6 0.000000 0.000000 0.000000 0.000000 0.000000 0.030083
#
#
# Mechanical properties :
#
#
# Convention : Reuss Voigt Hill
#
# Bulk Modulus (GPa) = 77.35727 104.51687 90.93707
# Shear Modulus (GPa) = 29.91525 34.65121 32.28323
#
# Velocity S-wave (km/s) = 4.02334 4.33012 4.17954
# Velocity P-wave (km/s) = 7.96501 9.03075 8.51457
#
# Compressibility (1/GPa) = 0.01292703
#
# Stress axis : x y z
#
# Youngs Moduli (GPa) = 66.57549 76.04792 50.82074
#
# Poissons Ratio (x) = 0.29816 0.11217
# Poissons Ratio (y) = 0.26102 0.57591
# Poissons Ratio (z) = 0.14694 0.86179
#
# Static dielectric constant tensor:
#      x y z
#    x 1.626080 0.000000 0.000000 
#    y 0.000000 1.642550 0.000000 
#    z 0.000000 0.000000 1.584190 
# 
# From -- ./inp_files/6693.got.cif
#   From: 2010.05.17/outbox.cif.g08.bks.cpg/sg53_4_cif.got.tgz:6693.got - 2010.06.03 12:45:16.
