data_PCOD9417436
_publ_section_title
;
Structure prediction by ZEFSAII (Michael W. Deem and Ramdas Pophale) SiO2 
 PCOD9417436
Probable space group: P M N A
;
_chemical_formula_sum "Si O2"
_cell_formula_units_Z 40
_cell_length_a 20.100978
_cell_length_b 11.837941
_cell_length_c 8.292375
_cell_angle_alpha 90.000000
_cell_angle_beta 90.000000
_cell_angle_gamma 90.000000
_cell_volume 1973.205390
_symmetry_space_group_name_H-M "P M N A"
_symmetry_group_IT_number 53
_symmetry_cell_setting 'orthorhombic'
loop_
_space_group_symop_operation_xyz
x,y,z
1/2-x,-y,1/2+z
x,-y,-z
1/2-x,y,1/2-z
-x,-y,-z
1/2+x,y,1/2-z
-x,y,z
1/2+x,-y,1/2+z
loop_
_atom_site_type_symbol
_atom_site_label
_atom_site_fract_x
_atom_site_fract_y
_atom_site_fract_z
Si Si1 0.781539 0.196330 0.487666
Si Si2 0.700511 0.408919 0.628992
Si Si3 0.853304 0.843380 0.835490
Si Si4 0.426043 0.728442 0.369281
Si Si5 0.892984 0.938197 0.337921
O O1 0.749095 0.309756 0.560510
O O2 0.716185 0.133375 0.424457
O O3 0.830384 0.215388 0.333538
O O4 0.822482 0.118025 0.609609
O O5 0.679038 0.500000 0.500000
O O6 0.750000 0.471456 0.750000
O O7 0.633007 0.352539 0.693033
O O8 0.885837 0.961048 0.788116
O O9 0.899094 0.771616 0.956230
O O10 0.500000 0.679288 0.382098
O O11 0.428717 0.834798 0.248295
O O12 0.919423 0.000000 0.500000
#
# Coordination Sequence:
#
# PCOD9417436 Si02
#       5
#     8   8   8   8   8
#     4   9  19  36  56  90 123 155 202 263 312 354
#     4  11  24  41  70  92 118 153 212 269 321 367
#     4   9  20  32  58  88 127 164 206 241 300 370
#     4  11  24  41  59  89 130 166 205 255 311 374
#     4  10  20  35  57  88 128 171 204 247 302 371
#
# _framework density 20.271585000000002
#
# number of rings (size 3 to 8) (size 9 to 14) (size 15 to 20)
#    0.000    2.000    2.000    0.600    5.600   20.000 
#    0.000    3.000    0.000    0.600    0.000    0.000 
#    0.000    0.000    0.000    0.000    0.000    0.000 
#
# Total GULP energy -223027.653529 kJ/mol
# GULP energy per Si atom -5575.691338 kJ/mol
# Density = 2.022545 g / cm^3
# Si number density = 20.271585 Si / 1000 Ang^3
#
#
#
# Elastic Constant Matrix: (Units=GPa)
#
#
# Indices 1 2 3 4 5 6 
#
# 1 119.0115 6.8068 15.1449 0.0000 0.0000 0.0000
# 2 6.8068 17.4008 -9.9734 0.0000 0.0000 0.0000
# 3 15.1449 -9.9734 33.7707 0.0000 0.0000 0.0000
# 4 0.0000 0.0000 0.0000 31.6569 0.0000 0.0000
# 5 0.0000 0.0000 0.0000 0.0000 10.6321 0.0000
# 6 0.0000 0.0000 0.0000 0.0000 0.0000 -27.1280
#
#
#
# Elastic Compliance Matrix: (Units=1/GPa)
#
#
# Indices 1 2 3 4 5 6 
#
# 1 0.009669 -0.007545 -0.006565 0.000000 0.000000 0.000000
# 2 -0.007545 0.075065 0.025552 0.000000 0.000000 0.000000
# 3 -0.006565 0.025552 0.040102 0.000000 0.000000 0.000000
# 4 0.000000 0.000000 0.000000 0.031589 0.000000 0.000000
# 5 0.000000 0.000000 0.000000 0.000000 0.094055 0.000000
# 6 0.000000 0.000000 0.000000 0.000000 0.000000 -0.036862
#
#
# Mechanical properties :
#
#
# Convention : Reuss Voigt Hill
#
# Bulk Modulus (GPa) = 6.76946 21.57107 14.17027
# Shear Modulus (GPa) = 20.83565 13.57916 17.20741
#
# Velocity S-wave (km/s) = 3.20945 2.59098 2.91665
# Velocity P-wave (km/s) = 4.13288 4.42889 4.28344
#
# Compressibility (1/GPa) = 0.14772229
#
# Stress axis : x y z
#
# Youngs Moduli (GPa) = 103.41826 13.32170 24.93656
#
# Poissons Ratio (x) = 0.10051 0.16370
# Poissons Ratio (y) = 0.78029 -0.63719
# Poissons Ratio (z) = 0.67890 -0.34040
#
# Static dielectric constant tensor:
#      x y z
#    x 1.694550 0.000000 0.000000 
#    y 0.000000 1.698750 0.000000 
#    z 0.000000 0.000000 1.837310 
# 
# From -- ./inp_files/10769.got.cif
#   From: 2010.05.17/outbox.cif.g08.bks.cpg/sg53_6_cif.got.tgz:10769.got - 2010.06.03 12:45:16.
