data_PCOD9417693
_publ_section_title
;
Structure prediction by ZEFSAII (Michael W. Deem and Ramdas Pophale) SiO2 
 PCOD9417693
Probable space group: P M N A
;
_chemical_formula_sum "Si O2"
_cell_formula_units_Z 28
_cell_length_a 25.122453
_cell_length_b 9.866495
_cell_length_c 4.926871
_cell_angle_alpha 90.000000
_cell_angle_beta 90.000000
_cell_angle_gamma 90.000000
_cell_volume 1221.226259
_symmetry_space_group_name_H-M "P M N A"
_symmetry_group_IT_number 53
_symmetry_cell_setting 'orthorhombic'
loop_
_space_group_symop_operation_xyz
x,y,z
1/2-x,-y,1/2+z
x,-y,-z
1/2-x,y,1/2-z
-x,-y,-z
1/2+x,y,1/2-z
-x,y,z
1/2+x,-y,1/2+z
loop_
_atom_site_type_symbol
_atom_site_label
_atom_site_fract_x
_atom_site_fract_y
_atom_site_fract_z
Si Si1 0.303065 0.677811 0.899114
Si Si2 0.124776 0.640741 0.103126
Si Si3 0.062245 0.906026 0.264321
Si Si4 0.750000 0.067541 0.250000
O O1 0.250000 0.618124 0.750000
O O2 0.347221 0.687165 0.670155
O O3 0.285737 0.833860 0.939253
O O4 0.328432 0.617256 0.171910
O O5 0.089150 0.760715 0.219211
O O6 0.098435 0.500000 0.000000
O O7 0.000000 0.880282 0.329526
O O8 0.086026 0.000000 0.500000
O O9 0.064673 0.000000 0.000000
O O10 0.718089 0.000000 0.500000
#
# Coordination Sequence:
#
# PCOD9417693 Si02
#       4
#     8   8   8   4
#     4  10  24  40  58  91 131 175 223 276 323 398
#     4  12  24  41  66  98 130 177 227 276 337 404
#     4  10  23  44  69  97 131 172 219 279 351 414
#     4  10  20  36  58  84 122 168 222 272 324 384
#
# _framework density 22.927778
#
# number of rings (size 3 to 8) (size 9 to 14) (size 15 to 20)
#    0.857    0.571    0.000    5.143    0.000    9.714 
#    0.000    0.000    0.000    8.571    0.000    0.000 
#    0.000    0.000    0.000    0.000    0.000    0.000 
#
# Total GULP energy -156059.715342 kJ/mol
# GULP energy per Si atom -5573.561262 kJ/mol
# Density = 2.287559 g / cm^3
# Si number density = 22.927778 Si / 1000 Ang^3
#
#
#
# Elastic Constant Matrix: (Units=GPa)
#
#
# Indices 1 2 3 4 5 6 
#
# 1 62.2368 53.1627 8.9526 0.0000 0.0000 0.0000
# 2 53.1627 127.0627 34.1523 0.0000 0.0000 0.0000
# 3 8.9526 34.1523 126.0011 0.0000 0.0000 0.0000
# 4 0.0000 0.0000 0.0000 41.9135 0.0000 0.0000
# 5 0.0000 0.0000 0.0000 0.0000 -0.6183 0.0000
# 6 0.0000 0.0000 0.0000 0.0000 0.0000 7.2775
#
#
#
# Elastic Compliance Matrix: (Units=1/GPa)
#
#
# Indices 1 2 3 4 5 6 
#
# 1 0.025157 -0.010835 0.001149 0.000000 0.000000 0.000000
# 2 -0.010835 0.013155 -0.002796 0.000000 0.000000 0.000000
# 3 0.001149 -0.002796 0.008613 0.000000 0.000000 0.000000
# 4 0.000000 0.000000 0.000000 0.023859 0.000000 0.000000
# 5 0.000000 0.000000 0.000000 0.000000 -1.617406 0.000000
# 6 0.000000 0.000000 0.000000 0.000000 0.000000 0.137409
#
#
# Mechanical properties :
#
#
# Convention : Reuss Voigt Hill
#
# Bulk Modulus (GPa) = 45.53254 56.42622 50.97938
# Shear Modulus (GPa) = -3.63127 24.31675 10.34274
#
# Velocity S-wave (km/s) = -1.25985 3.26019 2.12622
# Velocity P-wave (km/s) = 4.21734 6.23182 5.32079
#
# Compressibility (1/GPa) = 0.02196232
#
# Stress axis : x y z
#
# Youngs Moduli (GPa) = 39.74988 76.01799 116.10943
#
# Poissons Ratio (x) = 0.82363 -0.13344
# Poissons Ratio (y) = 0.43068 0.32461
# Poissons Ratio (z) = -0.04568 0.21253
#
# Static dielectric constant tensor:
#      x y z
#    x 1.861140 0.000000 0.000000 
#    y 0.000000 2.134510 0.000000 
#    z 0.000000 0.000000 2.613200 
# 
# From -- ./inp_files/4123.got.cif
#   From: 2010.05.17/outbox.cif.g08.bks.cpg/sg53_3_cif.got.tgz:4123.got - 2010.06.03 12:45:16.
