data_PCOD9417930
_publ_section_title
;
Structure prediction by ZEFSAII (Michael W. Deem and Ramdas Pophale) SiO2 
 PCOD9417930
Probable space group: P M N A
;
_chemical_formula_sum "Si O2"
_cell_formula_units_Z 48
_cell_length_a 8.511149
_cell_length_b 15.566902
_cell_length_c 19.506877
_cell_angle_alpha 90.000000
_cell_angle_beta 90.000000
_cell_angle_gamma 90.000000
_cell_volume 2584.509486
_symmetry_space_group_name_H-M "P M N A"
_symmetry_group_IT_number 53
_symmetry_cell_setting 'orthorhombic'
loop_
_space_group_symop_operation_xyz
x,y,z
1/2-x,-y,1/2+z
x,-y,-z
1/2-x,y,1/2-z
-x,-y,-z
1/2+x,y,1/2-z
-x,y,z
1/2+x,-y,1/2+z
loop_
_atom_site_type_symbol
_atom_site_label
_atom_site_fract_x
_atom_site_fract_y
_atom_site_fract_z
Si Si1 0.810273 0.027058 0.423004
Si Si2 0.688577 0.223894 0.075657
Si Si3 0.811488 0.627042 0.827055
Si Si4 0.312028 0.123258 0.672928
Si Si5 0.190323 0.276911 0.925755
Si Si6 0.308620 0.528080 0.423605
O O1 0.762575 0.125511 0.410523
O O2 0.000000 0.022564 0.420519
O O3 0.761454 0.000000 0.500000
O O4 0.743269 0.960570 0.368376
O O5 0.500000 0.227125 0.076100
O O6 0.754260 0.290121 0.131038
O O7 0.748200 0.250819 0.000515
O O8 0.750000 0.627304 0.750000
O O9 0.756515 0.542311 0.868536
O O10 0.000000 0.626825 0.826607
O O11 0.250000 0.123930 0.750000
O O12 0.500000 0.124481 0.674436
O O13 0.257553 0.206853 0.629919
O O14 0.241082 0.374284 0.909538
O O15 0.000000 0.276040 0.928272
O O16 0.258663 0.500000 0.500000
O O17 0.500000 0.527254 0.423645
#
# Coordination Sequence:
#
# PCOD9417930 Si02
#       6
#     8   8   8   8   8   8
#     4  10  21  39  62  87 118 154 193 242 297 351
#     4  11  22  37  61  90 118 153 195 243 295 349
#     4  11  23  40  61  86 121 157 195 243 294 350
#     4  11  24  39  60  88 122 157 196 244 294 350
#     4  10  20  37  61  89 117 155 200 240 289 350
#     4   9  17  34  61  87 114 153 194 236 287 345
#
# _framework density 18.572189000000002
#
# number of rings (size 3 to 8) (size 9 to 14) (size 15 to 20)
#    0.000    1.667    3.333    1.500    0.000    3.667 
#    0.000    2.500    0.000    0.000    0.000    0.000 
#    0.000    0.000    0.000    0.000    0.000    0.000 
#
# Total GULP energy -268163.974562 kJ/mol
# GULP energy per Si atom -5586.749470 kJ/mol
# Density = 1.852992 g / cm^3
# Si number density = 18.572189 Si / 1000 Ang^3
#
#
#
# Elastic Constant Matrix: (Units=GPa)
#
#
# Indices 1 2 3 4 5 6 
#
# 1 25.2674 40.2785 33.4932 0.0000 0.0000 0.0000
# 2 40.2785 227.6793 126.1957 0.0000 0.0000 0.0000
# 3 33.4932 126.1957 198.4109 0.0000 0.0000 0.0000
# 4 0.0000 0.0000 0.0000 31.8346 0.0000 0.0000
# 5 0.0000 0.0000 0.0000 0.0000 31.2987 0.0000
# 6 0.0000 0.0000 0.0000 0.0000 0.0000 25.8817
#
#
#
# Elastic Compliance Matrix: (Units=1/GPa)
#
#
# Indices 1 2 3 4 5 6 
#
# 1 0.058238 -0.007497 -0.005063 0.000000 0.000000 0.000000
# 2 -0.007497 0.007749 -0.003663 0.000000 0.000000 0.000000
# 3 -0.005063 -0.003663 0.008224 0.000000 0.000000 0.000000
# 4 0.000000 0.000000 0.000000 0.031412 0.000000 0.000000
# 5 0.000000 0.000000 0.000000 0.000000 0.031950 0.000000
# 6 0.000000 0.000000 0.000000 0.000000 0.000000 0.038637
#
#
# Mechanical properties :
#
#
# Convention : Reuss Voigt Hill
#
# Bulk Modulus (GPa) = 23.94271 94.58803 59.26537
# Shear Modulus (GPa) = 22.46403 34.56235 28.51319
#
# Velocity S-wave (km/s) = 3.48163 4.31858 3.92249
# Velocity P-wave (km/s) = 5.39278 8.71248 7.24532
#
# Compressibility (1/GPa) = 0.04176637
#
# Stress axis : x y z
#
# Youngs Moduli (GPa) = 17.17085 129.05593 121.58948
#
# Poissons Ratio (x) = 0.96749 0.61560
# Poissons Ratio (y) = 0.12872 0.44536
# Poissons Ratio (z) = 0.08693 0.47271
#
# Static dielectric constant tensor:
#      x y z
#    x 1.639120 0.000000 0.000000 
#    y 0.000000 1.641250 0.000000 
#    z 0.000000 0.000000 1.594500 
# 
# From -- ./inp_files/26155.got.cif
#   From: 2010.05.17/outbox.cif.g08.bks.cpg/sg53_14_cif.got.tgz:26155.got - 2010.06.03 12:45:16.
