data_PCOD9417070
_publ_section_title
;
Structure prediction by ZEFSAII (Michael W. Deem and Ramdas Pophale) SiO2 
 PCOD9417070
Probable space group: P M N A
;
_chemical_formula_sum "Si O2"
_cell_formula_units_Z 64
_cell_length_a 7.789903
_cell_length_b 21.623445
_cell_length_c 18.535096
_cell_angle_alpha 90.000000
_cell_angle_beta 90.000000
_cell_angle_gamma 90.000000
_cell_volume 3122.135702
_symmetry_space_group_name_H-M "P M N A"
_symmetry_group_IT_number 53
_symmetry_cell_setting 'orthorhombic'
loop_
_space_group_symop_operation_xyz
x,y,z
1/2-x,-y,1/2+z
x,-y,-z
1/2-x,y,1/2-z
-x,-y,-z
1/2+x,y,1/2-z
-x,y,z
1/2+x,-y,1/2+z
loop_
_atom_site_type_symbol
_atom_site_label
_atom_site_fract_x
_atom_site_fract_y
_atom_site_fract_z
Si Si1 0.793095 0.860835 0.334676
Si Si2 0.797227 0.374759 0.166160
Si Si3 0.293278 0.618586 0.166092
Si Si4 0.704279 0.749227 0.916279
Si Si5 0.707463 0.870024 0.834713
Si Si6 0.205221 0.498563 0.418347
Si Si7 0.293615 0.004568 0.835065
Si Si8 0.789106 0.739725 0.419944
O O1 0.750000 0.853783 0.250000
O O2 0.731848 0.802334 0.380170
O O3 0.000000 0.861629 0.339915
O O4 0.729825 0.928439 0.361317
O O5 0.750000 0.380879 0.250000
O O6 0.730376 0.310839 0.132804
O O7 0.734453 0.433606 0.120818
O O8 0.000000 0.373263 0.160537
O O9 0.250000 0.621097 0.250000
O O10 0.500000 0.618317 0.160711
O O11 0.227264 0.555797 0.128931
O O12 0.231784 0.679242 0.123630
O O13 0.500000 0.758288 0.923133
O O14 0.774219 0.811207 0.878684
O O15 0.769458 0.738515 0.997248
O O16 0.750000 0.863580 0.750000
O O17 0.500000 0.870505 0.839707
O O18 0.769544 0.937639 0.861752
O O19 0.273887 0.500000 0.500000
O O20 0.000000 0.507001 0.423352
O O21 0.250000 0.004468 0.750000
O O22 0.500000 0.004658 0.843447
O O23 0.000000 0.739277 0.419337
#
# Coordination Sequence:
#
# PCOD9417070 Si02
#       8
#     8   8   8   8   8   8   8   8
#     4   9  16  28  48  72 100 134 171 211 255 306
#     4  12  25  40  59  83 110 140 178 222 265 311
#     4  10  20  34  54  78 103 133 171 211 249 296
#     4  10  20  36  55  74 101 137 176 217 265 319
#     4   9  17  29  48  72  97 128 167 212 259 308
#     4  10  21  39  62  85 111 144 176 209 257 315
#     4   8  14  25  42  68  98 127 164 208 254 303
#     4   9  18  33  52  74 101 136 173 209 256 311
#
# _framework density 20.498788999999999
#
# number of rings (size 3 to 8) (size 9 to 14) (size 15 to 20)
#    0.000    2.375    0.000    3.000    0.000    5.250 
#    0.000    3.125    0.000    3.750    0.000    0.000 
#    0.000   11.000    0.000    0.000    0.000    0.000 
#
# Total GULP energy -357148.226415 kJ/mol
# GULP energy per Si atom -5580.441038 kJ/mol
# Density = 2.045213 g / cm^3
# Si number density = 20.498789 Si / 1000 Ang^3
#
#
#
# Elastic Constant Matrix: (Units=GPa)
#
#
# Indices 1 2 3 4 5 6 
#
# 1 26.3298 1.4068 0.5927 0.0000 0.0000 0.0000
# 2 1.4068 186.8469 77.6688 0.0000 0.0000 0.0000
# 3 0.5927 77.6688 128.2274 0.0000 0.0000 0.0000
# 4 0.0000 0.0000 0.0000 -4.0572 0.0000 0.0000
# 5 0.0000 0.0000 0.0000 0.0000 19.7334 0.0000
# 6 0.0000 0.0000 0.0000 0.0000 0.0000 -111.7576
#
#
#
# Elastic Compliance Matrix: (Units=1/GPa)
#
#
# Indices 1 2 3 4 5 6 
#
# 1 0.037995 -0.000285 -0.000003 0.000000 0.000000 0.000000
# 2 -0.000285 0.007155 -0.004333 0.000000 0.000000 0.000000
# 3 -0.000003 -0.004333 0.010423 0.000000 0.000000 0.000000
# 4 0.000000 0.000000 0.000000 -0.246477 0.000000 0.000000
# 5 0.000000 0.000000 0.000000 0.000000 0.050676 0.000000
# 6 0.000000 0.000000 0.000000 0.000000 0.000000 -0.008948
#
#
# Mechanical properties :
#
#
# Convention : Reuss Voigt Hill
#
# Bulk Modulus (GPa) = 21.58334 55.63788 38.61061
# Shear Modulus (GPa) = -40.16360 -1.76724 -20.96542
#
# Velocity S-wave (km/s) = -4.43122 -0.92951 -3.20154
# Velocity P-wave (km/s) = 3.95335 5.10382 2.28254
#
# Compressibility (1/GPa) = 0.04633203
#
# Stress axis : x y z
#
# Youngs Moduli (GPa) = 26.31925 139.76026 95.94191
#
# Poissons Ratio (x) = 0.03980 0.00030
# Poissons Ratio (y) = 0.00749 0.41568
# Poissons Ratio (z) = 0.00008 0.60553
#
# Static dielectric constant tensor:
#      x y z
#    x 1.739160 0.000000 0.000000 
#    y 0.000000 1.652580 0.000000 
#    z 0.000000 0.000000 1.681940 
# 
# From -- ./inp_files/26786.got.cif
#   From: 2010.05.17/outbox.cif.g08.bks.cpg/sg53_14_cif.got.tgz:26786.got - 2010.06.03 12:45:16.
