data_PCOD9417988
_publ_section_title
;
Structure prediction by ZEFSAII (Michael W. Deem and Ramdas Pophale) SiO2 
 PCOD9417988
Probable space group: P M N A
;
_chemical_formula_sum "Si O2"
_cell_formula_units_Z 64
_cell_length_a 9.039906
_cell_length_b 16.598455
_cell_length_c 23.538818
_cell_angle_alpha 90.000000
_cell_angle_beta 90.000000
_cell_angle_gamma 90.000000
_cell_volume 3531.963696
_symmetry_space_group_name_H-M "P M N A"
_symmetry_group_IT_number 53
_symmetry_cell_setting 'orthorhombic'
loop_
_space_group_symop_operation_xyz
x,y,z
1/2-x,-y,1/2+z
x,-y,-z
1/2-x,y,1/2-z
-x,-y,-z
1/2+x,y,1/2-z
-x,y,z
1/2+x,-y,1/2+z
loop_
_atom_site_type_symbol
_atom_site_label
_atom_site_fract_x
_atom_site_fract_y
_atom_site_fract_z
Si Si1 0.665253 0.591607 0.980106
Si Si2 0.823575 0.046555 0.086130
Si Si3 0.678333 0.394086 0.812716
Si Si4 0.677800 0.286541 0.919112
Si Si5 0.676179 0.126867 0.187457
Si Si6 0.829253 0.718385 0.809833
Si Si7 0.175765 0.127974 0.970067
Si Si8 0.831447 0.547937 0.868872
O O1 0.500000 0.618855 0.961635
O O2 0.776604 0.583109 0.928561
O O3 0.651201 0.500000 0.000000
O O4 0.714596 0.647512 0.032123
O O5 0.733708 0.060938 0.143338
O O6 0.000000 0.057848 0.095758
O O7 0.802092 0.956002 0.063196
O O8 0.778218 0.107486 0.035033
O O9 0.750000 0.386757 0.750000
O O10 0.500000 0.395219 0.807579
O O11 0.721185 0.323278 0.857575
O O12 0.731603 0.477274 0.842583
O O13 0.500000 0.279723 0.918200
O O14 0.746109 0.202322 0.939184
O O15 0.750000 0.116921 0.250000
O O16 0.500000 0.128055 0.192680
O O17 0.737253 0.210873 0.160323
O O18 0.750000 0.715124 0.750000
O O19 0.826379 0.628043 0.831475
O O20 0.000000 0.744412 0.806566
O O21 0.000000 0.143966 0.971462
O O22 0.000000 0.517947 0.872406
#
# Coordination Sequence:
#
# PCOD9417988 Si02
#       8
#     8   8   8   8   8   8   8   8
#     4  10  20  38  57  78 113 154 187 227 282 334
#     4   9  19  39  61  86 118 150 185 228 284 343
#     4  11  23  41  61  82 112 152 194 241 291 339
#     4  10  22  39  59  85 118 152 189 236 288 338
#     4  11  22  36  57  84 114 152 191 232 281 338
#     4  10  21  36  52  76 111 147 186 229 274 326
#     4   9  20  38  63  88 115 150 186 233 286 340
#     4  11  23  36  55  84 112 148 193 237 282 333
#
# _framework density 18.120232000000001
#
# number of rings (size 3 to 8) (size 9 to 14) (size 15 to 20)
#    0.000    1.875    1.250    4.125    1.750    5.750 
#    0.000    1.875    0.000    1.500    0.000    0.000 
#    0.000    0.000    0.000    0.000    0.000    0.000 
#
# Total GULP energy -356764.924035 kJ/mol
# GULP energy per Si atom -5574.451938 kJ/mol
# Density = 1.807899 g / cm^3
# Si number density = 18.120232 Si / 1000 Ang^3
#
#
#
# Elastic Constant Matrix: (Units=GPa)
#
#
# Indices 1 2 3 4 5 6 
#
# 1 86.9220 42.5885 56.2414 0.0000 0.0000 0.0000
# 2 42.5885 75.6566 56.3014 0.0000 0.0000 0.0000
# 3 56.2414 56.3014 115.0047 0.0000 0.0000 0.0000
# 4 0.0000 0.0000 0.0000 27.2239 0.0000 0.0000
# 5 0.0000 0.0000 0.0000 0.0000 31.0906 0.0000
# 6 0.0000 0.0000 0.0000 0.0000 0.0000 34.5403
#
#
#
# Elastic Compliance Matrix: (Units=1/GPa)
#
#
# Indices 1 2 3 4 5 6 
#
# 1 0.018280 -0.005722 -0.006138 0.000000 0.000000 0.000000
# 2 -0.005722 0.022584 -0.008258 0.000000 0.000000 0.000000
# 3 -0.006138 -0.008258 0.015740 0.000000 0.000000 0.000000
# 4 0.000000 0.000000 0.000000 0.036732 0.000000 0.000000
# 5 0.000000 0.000000 0.000000 0.000000 0.032164 0.000000
# 6 0.000000 0.000000 0.000000 0.000000 0.000000 0.028952
#
#
# Mechanical properties :
#
#
# Convention : Reuss Voigt Hill
#
# Bulk Modulus (GPa) = 61.09769 65.31621 63.20695
# Shear Modulus (GPa) = 24.98206 26.73443 25.85825
#
# Velocity S-wave (km/s) = 3.71709 3.84525 3.78171
# Velocity P-wave (km/s) = 7.22589 7.47254 7.35025
#
# Compressibility (1/GPa) = 0.01636723
#
# Stress axis : x y z
#
# Youngs Moduli (GPa) = 54.70515 44.27924 63.53368
#
# Poissons Ratio (x) = 0.25338 0.38998
# Poissons Ratio (y) = 0.31304 0.52465
# Poissons Ratio (z) = 0.33579 0.36565
#
# Static dielectric constant tensor:
#      x y z
#    x 1.642430 0.000000 0.000000 
#    y 0.000000 1.968420 0.000000 
#    z 0.000000 0.000000 1.607280 
# 
# From -- ./inp_files/34351.got.cif
#   From: 2010.05.17/outbox.cif.g08.bks.cpg/sg53_18_cif.got.tgz:34351.got - 2010.06.03 12:45:16.
