data_PCOD9417172
_publ_section_title
;
Structure prediction by ZEFSAII (Michael W. Deem and Ramdas Pophale) SiO2 
 PCOD9417172
Probable space group: P M N A
;
_chemical_formula_sum "Si O2"
_cell_formula_units_Z 64
_cell_length_a 8.390411
_cell_length_b 18.593029
_cell_length_c 21.664392
_cell_angle_alpha 90.000000
_cell_angle_beta 90.000000
_cell_angle_gamma 90.000000
_cell_volume 3379.713504
_symmetry_space_group_name_H-M "P M N A"
_symmetry_group_IT_number 53
_symmetry_cell_setting 'orthorhombic'
loop_
_space_group_symop_operation_xyz
x,y,z
1/2-x,-y,1/2+z
x,-y,-z
1/2-x,y,1/2-z
-x,-y,-z
1/2+x,y,1/2-z
-x,y,z
1/2+x,-y,1/2+z
loop_
_atom_site_type_symbol
_atom_site_label
_atom_site_fract_x
_atom_site_fract_y
_atom_site_fract_z
Si Si1 0.690086 0.217398 0.509175
Si Si2 0.177032 0.574278 0.036343
Si Si3 0.691755 0.574994 0.814339
Si Si4 0.309124 0.738436 0.353930
Si Si5 0.191825 0.101846 0.817418
Si Si6 0.319269 0.584787 0.162989
Si Si7 0.691597 0.062191 0.950864
Si Si8 0.311391 0.330743 0.068415
O O1 0.500000 0.223893 0.503336
O O2 0.739470 0.257343 0.573593
O O3 0.736765 0.135705 0.522249
O O4 0.774400 0.248314 0.447938
O O5 0.307681 0.577677 0.089012
O O6 0.000000 0.583469 0.064382
O O7 0.183227 0.500000 0.000000
O O8 0.208887 0.632055 0.984580
O O9 0.750000 0.605512 0.750000
O O10 0.500000 0.569529 0.816309
O O11 0.755791 0.492418 0.818367
O O12 0.738099 0.628832 0.869167
O O13 0.500000 0.739624 0.352060
O O14 0.252567 0.814140 0.325039
O O15 0.254746 0.663051 0.324433
O O16 0.250000 0.076211 0.750000
O O17 0.250584 0.059855 0.879018
O O18 0.000000 0.101364 0.818534
O O19 0.500000 0.586757 0.185586
O O20 0.500000 0.066084 0.949385
O O21 0.736639 0.000000 0.000000
O O22 0.500000 0.343662 0.060458
#
# Coordination Sequence:
#
# PCOD9417172 Si02
#       8
#     8   8   8   8   8   8   8   8
#     4  10  20  34  55  86 116 143 179 219 273 334
#     4  11  21  31  48  75 102 133 173 221 278 332
#     4  10  24  40  52  70  96 135 185 232 285 338
#     4   9  19  33  49  76 111 145 183 224 269 327
#     4  10  21  37  58  84 119 160 200 239 282 339
#     4  11  21  33  50  73 102 138 181 231 282 333
#     4  10  21  38  62  92 125 159 194 233 279 334
#     4  11  21  35  55  77 103 134 174 227 276 327
#
# _framework density 18.936518
#
# number of rings (size 3 to 8) (size 9 to 14) (size 15 to 20)
#    0.000    1.750    2.500    3.000    0.000    6.500 
#    0.000    2.500    0.000    0.750    0.000    3.500 
#    0.000    0.000    0.000    0.000    0.000    0.000 
#
# Total GULP energy -356743.609798 kJ/mol
# GULP energy per Si atom -5574.118903 kJ/mol
# Density = 1.889342 g / cm^3
# Si number density = 18.936518 Si / 1000 Ang^3
#
#
#
# Elastic Constant Matrix: (Units=GPa)
#
#
# Indices 1 2 3 4 5 6 
#
# 1 35.5186 17.6199 16.3409 0.0000 0.0000 0.0000
# 2 17.6199 72.5466 53.1075 0.0000 0.0000 0.0000
# 3 16.3409 53.1075 121.4991 0.0000 0.0000 0.0000
# 4 0.0000 0.0000 0.0000 13.5312 0.0000 0.0000
# 5 0.0000 0.0000 0.0000 0.0000 19.0894 0.0000
# 6 0.0000 0.0000 0.0000 0.0000 0.0000 35.9195
#
#
#
# Elastic Compliance Matrix: (Units=1/GPa)
#
#
# Indices 1 2 3 4 5 6 
#
# 1 0.032159 -0.006830 -0.001340 0.000000 0.000000 0.000000
# 2 -0.006830 0.021721 -0.008576 0.000000 0.000000 0.000000
# 3 -0.001340 -0.008576 0.012159 0.000000 0.000000 0.000000
# 4 0.000000 0.000000 0.000000 0.073903 0.000000 0.000000
# 5 0.000000 0.000000 0.000000 0.000000 0.052385 0.000000
# 6 0.000000 0.000000 0.000000 0.000000 0.000000 0.027840
#
#
# Mechanical properties :
#
#
# Convention : Reuss Voigt Hill
#
# Bulk Modulus (GPa) = 30.72370 44.85565 37.78967
# Shear Modulus (GPa) = 18.90309 23.20776 21.05542
#
# Velocity S-wave (km/s) = 3.16291 3.50459 3.33813
# Velocity P-wave (km/s) = 5.44045 6.33364 5.90396
#
# Compressibility (1/GPa) = 0.03254817
#
# Stress axis : x y z
#
# Youngs Moduli (GPa) = 31.09572 46.03880 82.24265
#
# Poissons Ratio (x) = 0.31444 0.11019
# Poissons Ratio (y) = 0.21238 0.70528
# Poissons Ratio (z) = 0.04166 0.39481
#
# Static dielectric constant tensor:
#      x y z
#    x 1.658480 0.000000 0.000000 
#    y 0.000000 1.755810 0.000000 
#    z 0.000000 0.000000 1.701240 
# 
# From -- ./inp_files/31166.got.cif
#   From: 2010.05.17/outbox.cif.g08.bks.cpg/sg53_16_cif.got.tgz:31166.got - 2010.06.03 12:45:16.
