data_PCOD9417953
_publ_section_title
;
Structure prediction by ZEFSAII (Michael W. Deem and Ramdas Pophale) SiO2 
 PCOD9417953
Probable space group: P M N A
;
_chemical_formula_sum "Si O2"
_cell_formula_units_Z 64
_cell_length_a 8.374407
_cell_length_b 12.439937
_cell_length_c 32.066085
_cell_angle_alpha 90.000000
_cell_angle_beta 90.000000
_cell_angle_gamma 90.000000
_cell_volume 3340.551599
_symmetry_space_group_name_H-M "P M N A"
_symmetry_group_IT_number 53
_symmetry_cell_setting 'orthorhombic'
loop_
_space_group_symop_operation_xyz
x,y,z
1/2-x,-y,1/2+z
x,-y,-z
1/2-x,y,1/2-z
-x,-y,-z
1/2+x,y,1/2-z
-x,y,z
1/2+x,-y,1/2+z
loop_
_atom_site_type_symbol
_atom_site_label
_atom_site_fract_x
_atom_site_fract_y
_atom_site_fract_z
Si Si1 0.191539 0.765563 0.296348
Si Si2 0.307222 0.482048 0.796483
Si Si3 0.311571 0.139448 0.104764
Si Si4 0.313041 0.121557 0.487308
Si Si5 0.305003 0.484499 0.952043
Si Si6 0.686061 0.916251 0.369079
Si Si7 0.186512 0.756666 0.438153
Si Si8 0.305698 0.625654 0.873920
O O1 0.250000 0.791548 0.250000
O O2 0.240904 0.641769 0.304885
O O3 0.264932 0.846174 0.329477
O O4 0.000000 0.770675 0.298602
O O5 0.250000 0.511494 0.750000
O O6 0.500000 0.484538 0.796140
O O7 0.249653 0.558151 0.833891
O O8 0.500000 0.146826 0.095447
O O9 0.218925 0.134625 0.061227
O O10 0.263034 0.248995 0.127858
O O11 0.278890 0.028469 0.128288
O O12 0.500000 0.136896 0.496913
O O13 0.211288 0.204007 0.514618
O O14 0.268665 0.000000 0.500000
O O15 0.500000 0.485904 0.953220
O O16 0.257742 0.366319 0.935607
O O17 0.253725 0.572629 0.917953
O O18 0.250976 0.500000 0.000000
O O19 0.500000 0.941303 0.368839
O O20 0.724830 0.841560 0.408952
O O21 0.000000 0.759897 0.426664
O O22 0.500000 0.618962 0.873751
#
# Coordination Sequence:
#
# PCOD9417953 Si02
#       8
#     8   8   8   8   8   8   8   8
#     4  10  20  37  62  90 117 146 180 223 276 336
#     4   9  18  35  60  88 117 145 181 229 281 336
#     4  11  22  37  59  82 107 147 197 239 278 335
#     4  11  22  36  53  76 111 151 186 232 286 334
#     4   9  17  31  53  83 113 140 178 230 285 339
#     4  12  24  38  55  80 115 149 184 230 281 330
#     4  11  21  34  58  85 108 142 189 234 276 332
#     4   9  18  34  56  83 114 147 184 234 288 336
#
# _framework density 19.158512999999999
#
# number of rings (size 3 to 8) (size 9 to 14) (size 15 to 20)
#    0.000    1.750    1.250    4.125    0.000    5.000 
#    0.000    1.875    0.000   11.250    0.000    0.000 
#    0.000    0.000    0.000    0.000    0.000    0.000 
#
# Total GULP energy -357516.736356 kJ/mol
# GULP energy per Si atom -5586.199006 kJ/mol
# Density = 1.911491 g / cm^3
# Si number density = 19.158513 Si / 1000 Ang^3
#
#
#
# Elastic Constant Matrix: (Units=GPa)
#
#
# Indices 1 2 3 4 5 6 
#
# 1 14.2646 4.6973 -6.7098 0.0000 0.0000 0.0000
# 2 4.6973 119.9271 62.3999 0.0000 0.0000 0.0000
# 3 -6.7098 62.3999 109.3241 0.0000 0.0000 0.0000
# 4 0.0000 0.0000 0.0000 38.7069 0.0000 0.0000
# 5 0.0000 0.0000 0.0000 0.0000 27.0862 0.0000
# 6 0.0000 0.0000 0.0000 0.0000 0.0000 17.5667
#
#
#
# Elastic Compliance Matrix: (Units=1/GPa)
#
#
# Indices 1 2 3 4 5 6 
#
# 1 0.076980 -0.007786 0.009169 0.000000 0.000000 0.000000
# 2 -0.007786 0.012648 -0.007697 0.000000 0.000000 0.000000
# 3 0.009169 -0.007697 0.014103 0.000000 0.000000 0.000000
# 4 0.000000 0.000000 0.000000 0.025835 0.000000 0.000000
# 5 0.000000 0.000000 0.000000 0.000000 0.036919 0.000000
# 6 0.000000 0.000000 0.000000 0.000000 0.000000 0.056926
#
#
# Mechanical properties :
#
#
# Convention : Reuss Voigt Hill
#
# Bulk Modulus (GPa) = 10.97657 40.47672 25.72665
# Shear Modulus (GPa) = 18.76818 28.88054 23.82436
#
# Velocity S-wave (km/s) = 3.13329 3.88680 3.53021
# Velocity P-wave (km/s) = 4.33956 6.42776 5.48397
#
# Compressibility (1/GPa) = 0.09110313
#
# Stress axis : x y z
#
# Youngs Moduli (GPa) = 12.99035 79.06179 70.90557
#
# Poissons Ratio (x) = 0.61555 -0.65010
# Poissons Ratio (y) = 0.10114 0.54578
# Poissons Ratio (z) = -0.11910 0.60856
#
# Static dielectric constant tensor:
#      x y z
#    x 1.654380 0.000000 0.000000 
#    y 0.000000 1.671130 0.000000 
#    z 0.000000 0.000000 1.661170 
# 
# From -- ./inp_files/38118.got.cif
#   From: 2010.05.17/outbox.cif.g08.bks.cpg/sg53_20_cif.got.tgz:38118.got - 2010.06.03 12:45:16.
