data_PCOD9417581
_publ_section_title
;
Structure prediction by ZEFSAII (Michael W. Deem and Ramdas Pophale) SiO2 
 PCOD9417581
Probable space group: P M N A
;
_chemical_formula_sum "Si O2"
_cell_formula_units_Z 48
_cell_length_a 8.077593
_cell_length_b 32.520313
_cell_length_c 9.658238
_cell_angle_alpha 90.000000
_cell_angle_beta 90.000000
_cell_angle_gamma 90.000000
_cell_volume 2537.082484
_symmetry_space_group_name_H-M "P M N A"
_symmetry_group_IT_number 53
_symmetry_cell_setting 'orthorhombic'
loop_
_space_group_symop_operation_xyz
x,y,z
1/2-x,-y,1/2+z
x,-y,-z
1/2-x,y,1/2-z
-x,-y,-z
1/2+x,y,1/2-z
-x,y,z
1/2+x,-y,1/2+z
loop_
_atom_site_type_symbol
_atom_site_label
_atom_site_fract_x
_atom_site_fract_y
_atom_site_fract_z
Si Si1 0.302147 0.885631 0.407995
Si Si2 0.696776 0.037970 0.090740
Si Si3 0.799745 0.717284 0.910294
Si Si4 0.199945 0.206922 0.907672
Si Si5 0.299660 0.461577 0.410632
Si Si6 0.800519 0.627983 0.911435
O O1 0.250000 0.895303 0.250000
O O2 0.500000 0.885082 0.411340
O O3 0.242501 0.919770 0.514596
O O4 0.240957 0.839360 0.441941
O O5 0.750000 0.036582 0.250000
O O6 0.500000 0.034526 0.090084
O O7 0.766573 0.000000 0.000000
O O8 0.750000 0.720541 0.750000
O O9 0.742073 0.672413 0.966003
O O10 0.000000 0.717382 0.916884
O O11 0.737646 0.756537 0.994933
O O12 0.250000 0.215119 0.750000
O O13 0.000000 0.206425 0.916143
O O14 0.238081 0.500000 0.500000
O O15 0.250000 0.465590 0.250000
O O16 0.500000 0.461671 0.416180
O O17 0.241969 0.416539 0.464705
O O18 0.750000 0.628082 0.750000
O O19 0.000000 0.627963 0.920784
#
# Coordination Sequence:
#
# PCOD9417581 Si02
#       6
#     8   8   8   8   8   8
#     4  10  20  36  57  79 105 137 173 210 250 297
#     4  11  24  40  59  83 110 140 173 210 252 296
#     4   9  17  30  48  70  94 121 158 200 240 283
#     4   9  19  34  51  73 101 133 165 199 242 291
#     4   9  17  29  45  65  89 118 153 192 236 285
#     4   8  14  26  44  63  86 118 153 191 234 281
#
# _framework density 18.919370000000001
#
# number of rings (size 3 to 8) (size 9 to 14) (size 15 to 20)
#    0.000    2.667    0.000    1.500    0.000    5.000 
#    0.000    2.500    0.000    0.000    0.000    0.000 
#    0.000    0.000    0.000    0.000    0.000    0.000 
#
# Total GULP energy -267479.838260 kJ/mol
# GULP energy per Si atom -5572.496630 kJ/mol
# Density = 1.887631 g / cm^3
# Si number density = 18.919370 Si / 1000 Ang^3
#
#
#
# Elastic Constant Matrix: (Units=GPa)
#
#
# Indices 1 2 3 4 5 6 
#
# 1 19.2026 17.7336 9.6382 0.0000 0.0000 0.0000
# 2 17.7336 213.8016 115.5882 0.0000 0.0000 0.0000
# 3 9.6382 115.5882 96.3776 0.0000 0.0000 0.0000
# 4 0.0000 0.0000 0.0000 35.9453 0.0000 0.0000
# 5 0.0000 0.0000 0.0000 0.0000 26.2554 0.0000
# 6 0.0000 0.0000 0.0000 0.0000 0.0000 38.4368
#
#
#
# Elastic Compliance Matrix: (Units=1/GPa)
#
#
# Indices 1 2 3 4 5 6 
#
# 1 0.056396 -0.004632 -0.000085 0.000000 0.000000 0.000000
# 2 -0.004632 0.013683 -0.015947 0.000000 0.000000 0.000000
# 3 -0.000085 -0.015947 0.029510 0.000000 0.000000 0.000000
# 4 0.000000 0.000000 0.000000 0.027820 0.000000 0.000000
# 5 0.000000 0.000000 0.000000 0.000000 0.038087 0.000000
# 6 0.000000 0.000000 0.000000 0.000000 0.000000 0.026017
#
#
# Mechanical properties :
#
#
# Convention : Reuss Voigt Hill
#
# Bulk Modulus (GPa) = 17.16382 68.36686 42.76534
# Shear Modulus (GPa) = 19.82066 32.55562 26.18814
#
# Velocity S-wave (km/s) = 3.24024 4.15270 3.72452
# Velocity P-wave (km/s) = 4.80527 7.69465 6.41476
#
# Compressibility (1/GPa) = 0.05826208
#
# Stress axis : x y z
#
# Youngs Moduli (GPa) = 17.73163 73.08337 33.88661
#
# Poissons Ratio (x) = 0.33853 0.00286
# Poissons Ratio (y) = 0.08213 0.54040
# Poissons Ratio (z) = 0.00150 1.16547
#
# Static dielectric constant tensor:
#      x y z
#    x 1.659450 0.000000 0.000000 
#    y 0.000000 1.731400 0.000000 
#    z 0.000000 0.000000 1.589210 
# 
# From -- ./inp_files/6607.got.cif
#   From: 2010.05.17/outbox.cif.g08.bks.cpg/sg53_4_cif.got.tgz:6607.got - 2010.06.03 12:45:16.
