data_PCOD9417073
_publ_section_title
;
Structure prediction by ZEFSAII (Michael W. Deem and Ramdas Pophale) SiO2 
 PCOD9417073
Probable space group: P M N A
;
_chemical_formula_sum "Si O2"
_cell_formula_units_Z 64
_cell_length_a 9.336747
_cell_length_b 21.926483
_cell_length_c 16.911319
_cell_angle_alpha 90.000000
_cell_angle_beta 90.000000
_cell_angle_gamma 90.000000
_cell_volume 3462.119460
_symmetry_space_group_name_H-M "P M N A"
_symmetry_group_IT_number 53
_symmetry_cell_setting 'orthorhombic'
loop_
_space_group_symop_operation_xyz
x,y,z
1/2-x,-y,1/2+z
x,-y,-z
1/2-x,y,1/2-z
-x,-y,-z
1/2+x,y,1/2-z
-x,y,z
1/2+x,-y,1/2+z
loop_
_atom_site_type_symbol
_atom_site_label
_atom_site_fract_x
_atom_site_fract_y
_atom_site_fract_z
Si Si1 0.829987 0.216108 0.667388
Si Si2 0.165880 0.767428 0.671509
Si Si3 0.326642 0.428495 0.997344
Si Si4 0.337956 0.134453 0.399319
Si Si5 0.327702 0.008660 0.328986
Si Si6 0.162111 0.888273 0.081667
Si Si7 0.168975 0.621686 0.668597
Si Si8 0.827866 0.359287 0.664964
O O1 0.750000 0.206147 0.750000
O O2 0.764268 0.165949 0.609512
O O3 0.804325 0.287370 0.646083
O O4 0.000000 0.208124 0.675108
O O5 0.250000 0.786305 0.750000
O O6 0.240306 0.806254 0.604043
O O7 0.180356 0.694991 0.663102
O O8 0.000000 0.782215 0.677609
O O9 0.500000 0.421510 0.997518
O O10 0.280771 0.397275 0.913744
O O11 0.292078 0.500000 0.000000
O O12 0.277938 0.402271 0.082976
O O13 0.500000 0.149664 0.372761
O O14 0.279944 0.076970 0.350528
O O15 0.345551 0.111653 0.488147
O O16 0.250000 0.989118 0.250000
O O17 0.500000 0.011360 0.321445
O O18 0.293850 0.955519 0.390850
O O19 0.000000 0.876673 0.112993
O O20 0.250000 0.602747 0.750000
O O21 0.000000 0.605699 0.676691
O O22 0.750000 0.372597 0.750000
O O23 0.000000 0.368506 0.675626
#
# Coordination Sequence:
#
# PCOD9417073 Si02
#       8
#     8   8   8   8   8   8   8   8
#     4  10  20  34  54  78 107 139 177 221 268 320
#     4  10  20  34  54  78 107 139 177 221 268 320
#     4   9  18  34  57  83 111 148 189 224 268 331
#     4  10  21  36  54  77 105 137 174 217 267 319
#     4  10  21  37  55  73  99 136 175 216 264 316
#     4  10  21  36  54  77 105 137 174 217 267 319
#     4   9  19  35  56  81 112 147 185 229 276 326
#     4   9  19  35  56  81 112 147 185 229 276 326
#
# _framework density 18.485786000000001
#
# number of rings (size 3 to 8) (size 9 to 14) (size 15 to 20)
#    0.000    2.375    0.000    1.875    1.750    6.500 
#    0.000    0.625    0.000    3.000    0.000    0.000 
#    0.000    0.000    0.000    0.000    0.000    0.000 
#
# Total GULP energy -356580.016091 kJ/mol
# GULP energy per Si atom -5571.562751 kJ/mol
# Density = 1.844371 g / cm^3
# Si number density = 18.485786 Si / 1000 Ang^3
#
#
#
# Elastic Constant Matrix: (Units=GPa)
#
#
# Indices 1 2 3 4 5 6 
#
# 1 41.8378 32.8391 27.2746 0.0000 0.0000 0.0000
# 2 32.8391 37.3234 26.6241 0.0000 0.0000 0.0000
# 3 27.2746 26.6241 82.0259 0.0000 0.0000 0.0000
# 4 0.0000 0.0000 0.0000 35.6480 0.0000 0.0000
# 5 0.0000 0.0000 0.0000 0.0000 28.1454 0.0000
# 6 0.0000 0.0000 0.0000 0.0000 0.0000 19.2142
#
#
#
# Elastic Compliance Matrix: (Units=1/GPa)
#
#
# Indices 1 2 3 4 5 6 
#
# 1 0.078684 -0.065803 -0.004805 0.000000 0.000000 0.000000
# 2 -0.065803 0.089896 -0.007298 0.000000 0.000000 0.000000
# 3 -0.004805 -0.007298 0.016158 0.000000 0.000000 0.000000
# 4 0.000000 0.000000 0.000000 0.028052 0.000000 0.000000
# 5 0.000000 0.000000 0.000000 0.000000 0.035530 0.000000
# 6 0.000000 0.000000 0.000000 0.000000 0.000000 0.052045
#
#
# Mechanical properties :
#
#
# Convention : Reuss Voigt Hill
#
# Bulk Modulus (GPa) = 34.57159 37.18474 35.87816
# Shear Modulus (GPa) = 10.73381 21.56480 16.14931
#
# Velocity S-wave (km/s) = 2.41229 3.41920 2.95889
# Velocity P-wave (km/s) = 5.14793 5.97887 5.57889
#
# Compressibility (1/GPa) = 0.02892549
#
# Stress axis : x y z
#
# Youngs Moduli (GPa) = 12.70911 11.12400 61.88926
#
# Poissons Ratio (x) = 0.73199 0.29737
# Poissons Ratio (y) = 0.83629 0.45169
# Poissons Ratio (z) = 0.06107 0.08119
#
# Static dielectric constant tensor:
#      x y z
#    x 1.646030 0.000000 0.000000 
#    y 0.000000 1.630550 0.000000 
#    z 0.000000 0.000000 1.655760 
# 
# From -- ./inp_files/20816.got.cif
#   From: 2010.05.17/outbox.cif.g08.bks.cpg/sg53_11_cif.got.tgz:20816.got - 2010.06.03 12:45:16.
