data_PCOD9417563
_publ_section_title
;
Structure prediction by ZEFSAII (Michael W. Deem and Ramdas Pophale) SiO2 
 PCOD9417563
Probable space group: P M N A
;
_chemical_formula_sum "Si O2"
_cell_formula_units_Z 40
_cell_length_a 8.615750
_cell_length_b 26.250102
_cell_length_c 9.642735
_cell_angle_alpha 90.000000
_cell_angle_beta 90.000000
_cell_angle_gamma 90.000000
_cell_volume 2180.842569
_symmetry_space_group_name_H-M "P M N A"
_symmetry_group_IT_number 53
_symmetry_cell_setting 'orthorhombic'
loop_
_space_group_symop_operation_xyz
x,y,z
1/2-x,-y,1/2+z
x,-y,-z
1/2-x,y,1/2-z
-x,-y,-z
1/2+x,y,1/2-z
-x,y,z
1/2+x,-y,1/2+z
loop_
_atom_site_type_symbol
_atom_site_label
_atom_site_fract_x
_atom_site_fract_y
_atom_site_fract_z
Si Si1 0.313635 0.549022 0.406174
Si Si2 0.686625 0.839575 0.093954
Si Si3 0.687084 0.953701 0.094989
Si Si4 0.814703 0.249686 0.096559
Si Si5 0.185632 0.360850 0.405220
O O1 0.272021 0.500000 0.500000
O O2 0.250000 0.544472 0.250000
O O3 0.500000 0.552597 0.400721
O O4 0.246145 0.597965 0.485533
O O5 0.750000 0.835384 0.250000
O O6 0.500000 0.835093 0.093578
O O7 0.728973 0.896818 0.043837
O O8 0.759949 0.795303 0.002763
O O9 0.750000 0.959248 0.250000
O O10 0.500000 0.955654 0.099970
O O11 0.743262 0.000000 0.000000
O O12 0.750000 0.239244 0.250000
O O13 0.745447 0.304586 0.055173
O O14 0.000000 0.253263 0.100197
O O15 0.250000 0.371876 0.250000
O O16 0.000000 0.361166 0.399610
#
# Coordination Sequence:
#
# PCOD9417563 Si02
#       5
#     8   8   8   8   8
#     4  11  24  41  62  89 120 154 193 235 281 333
#     4  10  20  36  56  80 111 146 186 230 279 333
#     4   9  19  35  54  78 108 142 181 226 275 329
#     4  11  22  38  59  84 114 148 188 231 280 334
#     4  11  22  39  62  87 117 151 189 233 282 333
#
# _framework density 18.341535
#
# number of rings (size 3 to 8) (size 9 to 14) (size 15 to 20)
#    0.000    1.600    0.000    6.600    0.000    6.000 
#    0.000    6.000    0.000    0.000    0.000    0.000 
#    0.000    0.000    0.000    0.000    0.000    0.000 
#
# Total GULP energy -223507.805324 kJ/mol
# GULP energy per Si atom -5587.695133 kJ/mol
# Density = 1.829979 g / cm^3
# Si number density = 18.341535 Si / 1000 Ang^3
#
#
#
# Elastic Constant Matrix: (Units=GPa)
#
#
# Indices 1 2 3 4 5 6 
#
# 1 108.3640 72.5020 56.8084 0.0000 0.0000 0.0000
# 2 72.5020 182.7248 124.2220 0.0000 0.0000 0.0000
# 3 56.8084 124.2220 116.4918 0.0000 0.0000 0.0000
# 4 0.0000 0.0000 0.0000 46.3053 0.0000 0.0000
# 5 0.0000 0.0000 0.0000 0.0000 35.6248 0.0000
# 6 0.0000 0.0000 0.0000 0.0000 0.0000 32.6181
#
#
#
# Elastic Compliance Matrix: (Units=1/GPa)
#
#
# Indices 1 2 3 4 5 6 
#
# 1 0.012848 -0.003048 -0.003015 0.000000 0.000000 0.000000
# 2 -0.003048 0.020620 -0.020502 0.000000 0.000000 0.000000
# 3 -0.003015 -0.020502 0.031917 0.000000 0.000000 0.000000
# 4 0.000000 0.000000 0.000000 0.021596 0.000000 0.000000
# 5 0.000000 0.000000 0.000000 0.000000 0.028070 0.000000
# 6 0.000000 0.000000 0.000000 0.000000 0.000000 0.030658
#
#
# Mechanical properties :
#
#
# Convention : Reuss Voigt Hill
#
# Bulk Modulus (GPa) = 81.59997 101.62728 91.61362
# Shear Modulus (GPa) = 24.63984 33.17953 28.90968
#
# Velocity S-wave (km/s) = 3.66920 4.25783 3.97443
# Velocity P-wave (km/s) = 7.90800 8.92752 8.43318
#
# Compressibility (1/GPa) = 0.01225491
#
# Stress axis : x y z
#
# Youngs Moduli (GPa) = 77.83189 48.49703 31.33157
#
# Poissons Ratio (x) = 0.14783 0.09447
# Poissons Ratio (y) = 0.23725 0.64235
# Poissons Ratio (z) = 0.23467 0.99427
#
# Static dielectric constant tensor:
#      x y z
#    x 1.616060 0.000000 0.000000 
#    y 0.000000 1.633470 0.000000 
#    z 0.000000 0.000000 1.563540 
# 
# From -- ./inp_files/6288.got.cif
#   From: 2010.05.17/outbox.cif.g08.bks.cpg/sg53_4_cif.got.tgz:6288.got - 2010.06.03 12:45:16.
