data_PCOD9417123
_publ_section_title
;
Structure prediction by ZEFSAII (Michael W. Deem and Ramdas Pophale) SiO2 
 PCOD9417123
Probable space group: P M N A
;
_chemical_formula_sum "Si O2"
_cell_formula_units_Z 64
_cell_length_a 9.150223
_cell_length_b 23.958717
_cell_length_c 14.890882
_cell_angle_alpha 90.000000
_cell_angle_beta 90.000000
_cell_angle_gamma 90.000000
_cell_volume 3264.492373
_symmetry_space_group_name_H-M "P M N A"
_symmetry_group_IT_number 53
_symmetry_cell_setting 'orthorhombic'
loop_
_space_group_symop_operation_xyz
x,y,z
1/2-x,-y,1/2+z
x,-y,-z
1/2-x,y,1/2-z
-x,-y,-z
1/2+x,y,1/2-z
-x,y,z
1/2+x,-y,1/2+z
loop_
_atom_site_type_symbol
_atom_site_label
_atom_site_fract_x
_atom_site_fract_y
_atom_site_fract_z
Si Si1 0.831621 0.902797 0.837941
Si Si2 0.826052 0.863152 0.341703
Si Si3 0.325085 0.824014 0.967763
Si Si4 0.174355 0.612362 0.528037
Si Si5 0.674305 0.718857 0.846473
Si Si6 0.329467 0.530409 0.657374
Si Si7 0.670897 0.604474 0.342721
Si Si8 0.670423 0.024536 0.596632
O O1 0.750000 0.881495 0.750000
O O2 0.754287 0.876800 0.924082
O O3 0.000000 0.886119 0.836493
O O4 0.824665 0.969780 0.841411
O O5 0.750000 0.845337 0.250000
O O6 0.792517 0.823457 0.426536
O O7 0.765531 0.924530 0.368001
O O8 0.000000 0.866108 0.329816
O O9 0.500000 0.830735 0.958983
O O10 0.280161 0.770405 0.910058
O O11 0.202366 0.662585 0.597699
O O12 0.248501 0.558626 0.573870
O O13 0.246048 0.624733 0.431701
O O14 0.000000 0.604830 0.518319
O O15 0.750000 0.719458 0.750000
O O16 0.500000 0.723109 0.832928
O O17 0.250000 0.547664 0.750000
O O18 0.500000 0.546826 0.658903
O O19 0.322268 0.463322 0.652708
O O20 0.750000 0.621301 0.250000
O O21 0.500000 0.620246 0.342482
O O22 0.500000 0.042601 0.588768
O O23 0.716387 0.000000 0.500000
#
# Coordination Sequence:
#
# PCOD9417123 Si02
#       8
#     8   8   8   8   8   8   8   8
#     4  11  22  35  55  82 113 146 182 224 273 331
#     4  11  23  38  60  85 113 149 189 233 280 335
#     4  10  22  41  61  82 110 145 187 234 283 333
#     4  11  22  36  57  84 116 154 193 239 290 344
#     4  10  23  42  62  86 115 146 185 233 286 339
#     4  10  20  34  54  83 119 156 195 239 286 343
#     4  10  21  37  57  83 117 156 196 238 285 338
#     4  10  20  36  56  82 116 150 183 225 274 330
#
# _framework density 19.604884999999999
#
# number of rings (size 3 to 8) (size 9 to 14) (size 15 to 20)
#    0.000    1.625    1.250    3.375    0.000    9.250 
#    0.000    0.625    0.000    1.500    0.000    0.000 
#    0.000    0.000    0.000    0.000    0.000    0.000 
#
# Total GULP energy -357613.126080 kJ/mol
# GULP energy per Si atom -5587.705095 kJ/mol
# Density = 1.956026 g / cm^3
# Si number density = 19.604885 Si / 1000 Ang^3
#
#
#
# Elastic Constant Matrix: (Units=GPa)
#
#
# Indices 1 2 3 4 5 6 
#
# 1 90.1924 30.7105 81.0921 0.0000 0.0000 0.0000
# 2 30.7105 37.0317 27.1449 0.0000 0.0000 0.0000
# 3 81.0921 27.1449 179.4152 0.0000 0.0000 0.0000
# 4 0.0000 0.0000 0.0000 -3.6187 0.0000 0.0000
# 5 0.0000 0.0000 0.0000 0.0000 38.1264 0.0000
# 6 0.0000 0.0000 0.0000 0.0000 0.0000 12.2210
#
#
#
# Elastic Compliance Matrix: (Units=1/GPa)
#
#
# Indices 1 2 3 4 5 6 
#
# 1 0.023142 -0.012962 -0.008499 0.000000 0.000000 0.000000
# 2 -0.012962 0.037633 0.000165 0.000000 0.000000 0.000000
# 3 -0.008499 0.000165 0.009390 0.000000 0.000000 0.000000
# 4 0.000000 0.000000 0.000000 -0.276340 0.000000 0.000000
# 5 0.000000 0.000000 0.000000 0.000000 0.026229 0.000000
# 6 0.000000 0.000000 0.000000 0.000000 0.000000 0.081826
#
#
# Mechanical properties :
#
#
# Convention : Reuss Voigt Hill
#
# Bulk Modulus (GPa) = 36.26751 64.94827 50.60789
# Shear Modulus (GPa) = -107.90334 20.52519 -43.68908
#
# Velocity S-wave (km/s) = -7.42688 3.23916 -4.72580
# Velocity P-wave (km/s) = 7.41655 6.86950 1.97677
#
# Compressibility (1/GPa) = 0.02757289
#
# Stress axis : x y z
#
# Youngs Moduli (GPa) = 43.21107 26.57271 106.49703
#
# Poissons Ratio (x) = 0.34444 0.90508
# Poissons Ratio (y) = 0.56011 -0.01757
# Poissons Ratio (z) = 0.36724 -0.00438
#
# Static dielectric constant tensor:
#      x y z
#    x 1.656900 0.000000 0.000000 
#    y 0.000000 1.695380 0.000000 
#    z 0.000000 0.000000 1.723150 
# 
# From -- ./inp_files/20808.got.cif
#   From: 2010.05.17/outbox.cif.g08.bks.cpg/sg53_11_cif.got.tgz:20808.got - 2010.06.03 12:45:16.
