data_PCOD9417238
_publ_section_title
;
Structure prediction by ZEFSAII (Michael W. Deem and Ramdas Pophale) SiO2 
 PCOD9417238
Probable space group: P M N A
;
_chemical_formula_sum "Si O2"
_cell_formula_units_Z 28
_cell_length_a 20.270759
_cell_length_b 14.278082
_cell_length_c 5.035541
_cell_angle_alpha 90.000000
_cell_angle_beta 90.000000
_cell_angle_gamma 90.000000
_cell_volume 1457.424341
_symmetry_space_group_name_H-M "P M N A"
_symmetry_group_IT_number 53
_symmetry_cell_setting 'orthorhombic'
loop_
_space_group_symop_operation_xyz
x,y,z
1/2-x,-y,1/2+z
x,-y,-z
1/2-x,y,1/2-z
-x,-y,-z
1/2+x,y,1/2-z
-x,y,z
1/2+x,-y,1/2+z
loop_
_atom_site_type_symbol
_atom_site_label
_atom_site_fract_x
_atom_site_fract_y
_atom_site_fract_z
Si Si1 0.630333 0.805459 0.290645
Si Si2 0.829295 0.307216 0.279203
Si Si3 0.796007 0.500000 0.500000
Si Si4 0.500000 0.930839 0.253252
Si Si5 0.250000 0.060827 0.750000
O O1 0.634754 0.723520 0.510033
O O2 0.563676 0.864156 0.272482
O O3 0.690250 0.875920 0.354199
O O4 0.645826 0.761100 0.006978
O O5 0.750000 0.296580 0.250000
O O6 0.836753 0.413713 0.380671
O O7 0.750000 0.532793 0.250000
O O8 0.500000 0.000000 0.500000
O O9 0.500000 0.000000 0.000000
O O10 0.226292 0.000000 0.500000
#
# Coordination Sequence:
#
# PCOD9417238 Si02
#       5
#     8   8   4   4   4
#     4  12  23  39  63  87 123 161 206 257 302 372
#     4  11  20  38  61  95 125 156 202 251 313 365
#     4  10  20  34  60  95 132 161 192 252 314 380
#     4  12  26  46  62  85 122 169 218 250 306 376
#     4  12  22  36  56  86 114 150 198 258 314 344
#
# _framework density 19.211977000000001
#
# number of rings (size 3 to 8) (size 9 to 14) (size 15 to 20)
#    0.000    0.571    2.857    8.571    0.000    0.000 
#    0.000    0.000    0.000    5.143    0.000    0.000 
#    0.000    0.000    0.000    0.000    0.000    0.000 
#
# Total GULP energy -156526.110531 kJ/mol
# GULP energy per Si atom -5590.218233 kJ/mol
# Density = 1.916825 g / cm^3
# Si number density = 19.211977 Si / 1000 Ang^3
#
#
#
# Elastic Constant Matrix: (Units=GPa)
#
#
# Indices 1 2 3 4 5 6 
#
# 1 113.3412 64.4447 21.9015 0.0000 0.0000 0.0000
# 2 64.4447 100.4602 18.9471 0.0000 0.0000 0.0000
# 3 21.9015 18.9471 107.4213 0.0000 0.0000 0.0000
# 4 0.0000 0.0000 0.0000 54.6629 0.0000 0.0000
# 5 0.0000 0.0000 0.0000 0.0000 18.5999 0.0000
# 6 0.0000 0.0000 0.0000 0.0000 0.0000 22.7084
#
#
#
# Elastic Compliance Matrix: (Units=1/GPa)
#
#
# Indices 1 2 3 4 5 6 
#
# 1 0.014068 -0.008775 -0.001320 0.000000 0.000000 0.000000
# 2 -0.008775 0.015771 -0.000993 0.000000 0.000000 0.000000
# 3 -0.001320 -0.000993 0.009753 0.000000 0.000000 0.000000
# 4 0.000000 0.000000 0.000000 0.018294 0.000000 0.000000
# 5 0.000000 0.000000 0.000000 0.000000 0.053764 0.000000
# 6 0.000000 0.000000 0.000000 0.000000 0.000000 0.044037
#
#
# Mechanical properties :
#
#
# Convention : Reuss Voigt Hill
#
# Bulk Modulus (GPa) = 57.42051 59.08992 58.25521
# Shear Modulus (GPa) = 27.22315 33.58954 30.40635
#
# Velocity S-wave (km/s) = 3.76837 4.18588 3.98260
# Velocity P-wave (km/s) = 6.99192 7.36109 7.17888
#
# Compressibility (1/GPa) = 0.01741538
#
# Stress axis : x y z
#
# Youngs Moduli (GPa) = 71.08547 63.40891 102.52832
#
# Poissons Ratio (x) = 0.55643 0.13538
# Poissons Ratio (y) = 0.62379 0.10176
# Poissons Ratio (z) = 0.09386 0.06293
#
# Static dielectric constant tensor:
#      x y z
#    x 1.656270 0.000000 0.000000 
#    y 0.000000 1.686000 0.000000 
#    z 0.000000 0.000000 2.019050 
# 
# From -- ./inp_files/2572.got.cif
#   From: 2010.05.17/outbox.cif.g08.bks.cpg/sg53_2_cif.got.tgz:2572.got - 2010.06.03 12:45:16.
