data_PCOD9417878
_publ_section_title
;
Structure prediction by ZEFSAII (Michael W. Deem and Ramdas Pophale) SiO2 
 PCOD9417878
Probable space group: P M N A
;
_chemical_formula_sum "Si O2"
_cell_formula_units_Z 56
_cell_length_a 8.659307
_cell_length_b 17.636480
_cell_length_c 20.062309
_cell_angle_alpha 90.000000
_cell_angle_beta 90.000000
_cell_angle_gamma 90.000000
_cell_volume 3063.909706
_symmetry_space_group_name_H-M "P M N A"
_symmetry_group_IT_number 53
_symmetry_cell_setting 'orthorhombic'
loop_
_space_group_symop_operation_xyz
x,y,z
1/2-x,-y,1/2+z
x,-y,-z
1/2-x,y,1/2-z
-x,-y,-z
1/2+x,y,1/2-z
-x,y,z
1/2+x,-y,1/2+z
loop_
_atom_site_type_symbol
_atom_site_label
_atom_site_fract_x
_atom_site_fract_y
_atom_site_fract_z
Si Si1 0.684414 0.545721 0.405579
Si Si2 0.685239 0.771744 0.565674
Si Si3 0.684656 0.393841 0.045656
Si Si4 0.684987 0.192993 0.586156
Si Si5 0.316806 0.323553 0.821556
Si Si6 0.815508 0.883977 0.676693
Si Si7 0.814834 0.949181 0.177436
O O1 0.500000 0.540499 0.407119
O O2 0.742350 0.586785 0.473409
O O3 0.758527 0.462374 0.407462
O O4 0.741090 0.597806 0.345376
O O5 0.500000 0.767610 0.571761
O O6 0.755597 0.687585 0.568785
O O7 0.721988 0.804328 0.491990
O O8 0.753067 0.825669 0.622245
O O9 0.500000 0.394762 0.039981
O O10 0.500000 0.205591 0.592925
O O11 0.770432 0.260111 0.624747
O O12 0.722186 0.114037 0.622471
O O13 0.250000 0.300935 0.750000
O O14 0.500000 0.331238 0.818464
O O15 0.750000 0.865206 0.750000
O O16 0.000000 0.883421 0.678609
O O17 0.756361 0.969006 0.661223
O O18 0.750000 0.925993 0.250000
O O19 0.000000 0.956476 0.182113
#
# Coordination Sequence:
#
# PCOD9417878 Si02
#       7
#     8   8   8   8   8   8   8
#     4  11  21  37  59  84 115 156 199 241 292 349
#     4  11  22  39  62  89 122 158 196 245 300 355
#     4  11  21  36  59  89 118 151 195 243 292 345
#     4  10  22  38  59  87 121 158 200 244 296 357
#     4  12  24  38  58  85 122 162 203 251 301 357
#     4  11  23  41  63  87 115 152 197 247 302 361
#     4  10  20  37  59  85 116 157 201 244 294 354
#
# _framework density 18.277301000000001
#
# number of rings (size 3 to 8) (size 9 to 14) (size 15 to 20)
#    0.000    1.143    1.429    8.143    0.000    3.429 
#    0.000    3.571    0.000    0.000    0.000    0.000 
#    0.000    0.000    0.000    0.000    0.000    0.000 
#
# Total GULP energy -313141.624930 kJ/mol
# GULP energy per Si atom -5591.814731 kJ/mol
# Density = 1.823570 g / cm^3
# Si number density = 18.277301 Si / 1000 Ang^3
#
#
#
# Elastic Constant Matrix: (Units=GPa)
#
#
# Indices 1 2 3 4 5 6 
#
# 1 131.0060 67.3276 58.1655 0.0000 0.0000 0.0000
# 2 67.3276 131.5132 77.2710 0.0000 0.0000 0.0000
# 3 58.1655 77.2710 93.1691 0.0000 0.0000 0.0000
# 4 0.0000 0.0000 0.0000 26.6715 0.0000 0.0000
# 5 0.0000 0.0000 0.0000 0.0000 44.4522 0.0000
# 6 0.0000 0.0000 0.0000 0.0000 0.0000 37.8990
#
#
#
# Elastic Compliance Matrix: (Units=1/GPa)
#
#
# Indices 1 2 3 4 5 6 
#
# 1 0.011199 -0.003170 -0.004362 0.000000 0.000000 0.000000
# 2 -0.003170 0.015728 -0.011065 0.000000 0.000000 0.000000
# 3 -0.004362 -0.011065 0.022634 0.000000 0.000000 0.000000
# 4 0.000000 0.000000 0.000000 0.037493 0.000000 0.000000
# 5 0.000000 0.000000 0.000000 0.000000 0.022496 0.000000
# 6 0.000000 0.000000 0.000000 0.000000 0.000000 0.026386
#
#
# Mechanical properties :
#
#
# Convention : Reuss Voigt Hill
#
# Bulk Modulus (GPa) = 80.87053 84.57963 82.72508
# Shear Modulus (GPa) = 28.20807 31.99949 30.10378
#
# Velocity S-wave (km/s) = 3.93280 4.18877 4.06280
# Velocity P-wave (km/s) = 8.06009 8.35288 8.20779
#
# Compressibility (1/GPa) = 0.01236544
#
# Stress axis : x y z
#
# Youngs Moduli (GPa) = 89.29005 63.58010 44.18191
#
# Poissons Ratio (x) = 0.20157 0.19274
# Poissons Ratio (y) = 0.28308 0.48888
# Poissons Ratio (z) = 0.38953 0.70352
#
# Static dielectric constant tensor:
#      x y z
#    x 1.609180 0.000000 0.000000 
#    y 0.000000 1.615870 0.000000 
#    z 0.000000 0.000000 1.614900 
# 
# From -- ./inp_files/31058.got.cif
#   From: 2010.05.17/outbox.cif.g08.bks.cpg/sg53_16_cif.got.tgz:31058.got - 2010.06.03 12:45:16.
