data_PCOD9417416
_publ_section_title
;
Structure prediction by ZEFSAII (Michael W. Deem and Ramdas Pophale) SiO2 
 PCOD9417416
Probable space group: P M N A
;
_chemical_formula_sum "Si O2"
_cell_formula_units_Z 64
_cell_length_a 9.832185
_cell_length_b 14.313691
_cell_length_c 25.058578
_cell_angle_alpha 90.000000
_cell_angle_beta 90.000000
_cell_angle_gamma 90.000000
_cell_volume 3526.615415
_symmetry_space_group_name_H-M "P M N A"
_symmetry_group_IT_number 53
_symmetry_cell_setting 'orthorhombic'
loop_
_space_group_symop_operation_xyz
x,y,z
1/2-x,-y,1/2+z
x,-y,-z
1/2-x,y,1/2-z
-x,-y,-z
1/2+x,y,1/2-z
-x,y,z
1/2+x,-y,1/2+z
loop_
_atom_site_type_symbol
_atom_site_label
_atom_site_fract_x
_atom_site_fract_y
_atom_site_fract_z
Si Si1 0.655733 0.767613 0.990146
Si Si2 0.150199 0.070139 0.048801
Si Si3 0.844494 0.855386 0.700866
Si Si4 0.157559 0.576414 0.800853
Si Si5 0.843808 0.028693 0.632122
Si Si6 0.343589 0.685970 0.878507
Si Si7 0.657450 0.248870 0.884111
Si Si8 0.658051 0.351336 0.699048
O O1 0.500000 0.804746 0.986648
O O2 0.675823 0.741235 0.051915
O O3 0.764363 0.844037 0.973365
O O4 0.666528 0.692241 0.942534
O O5 0.235926 0.015058 0.092320
O O6 0.000000 0.097756 0.068298
O O7 0.135957 0.000000 0.000000
O O8 0.750000 0.830422 0.750000
O O9 0.828049 0.964042 0.684354
O O10 0.822419 0.788151 0.649367
O O11 0.000000 0.841018 0.717036
O O12 0.250000 0.603598 0.750000
O O13 0.233061 0.619685 0.851758
O O14 0.158813 0.463953 0.803971
O O15 0.000000 0.606527 0.795589
O O16 0.000000 0.012392 0.613488
O O17 0.826408 0.140104 0.633358
O O18 0.500000 0.658135 0.865407
O O19 0.500000 0.275556 0.871955
O O20 0.766379 0.308806 0.852000
O O21 0.750000 0.323914 0.750000
O O22 0.500000 0.321563 0.703895
#
# Coordination Sequence:
#
# PCOD9417416 Si02
#       8
#     8   8   8   8   8   8   8   8
#     4  10  20  36  57  81 113 152 190 229 278 334
#     4  11  21  31  49  79 110 143 189 237 278 318
#     4  10  21  35  51  75 109 147 186 228 279 333
#     4  10  21  38  61  87 111 144 185 231 285 337
#     4  10  20  36  55  75 106 149 191 230 274 330
#     4  10  20  35  57  84 112 146 187 232 279 333
#     4  10  21  36  60  87 111 147 193 234 280 332
#     4  10  22  41  64  86 113 144 182 233 285 336
#
# _framework density 18.147711999999999
#
# number of rings (size 3 to 8) (size 9 to 14) (size 15 to 20)
#    0.000    1.875    2.500    1.500    0.000    6.000 
#    0.000    1.875    0.000    3.750    0.000    0.000 
#    0.000    0.000    0.000    0.000    0.000    0.000 
#
# Total GULP energy -356864.919884 kJ/mol
# GULP energy per Si atom -5576.014373 kJ/mol
# Density = 1.810641 g / cm^3
# Si number density = 18.147712 Si / 1000 Ang^3
#
#
#
# Elastic Constant Matrix: (Units=GPa)
#
#
# Indices 1 2 3 4 5 6 
#
# 1 140.9281 46.0269 63.5437 0.0000 0.0000 0.0000
# 2 46.0269 28.3688 28.7733 0.0000 0.0000 0.0000
# 3 63.5437 28.7733 78.5379 0.0000 0.0000 0.0000
# 4 0.0000 0.0000 0.0000 24.5847 0.0000 0.0000
# 5 0.0000 0.0000 0.0000 0.0000 30.9457 0.0000
# 6 0.0000 0.0000 0.0000 0.0000 0.0000 32.3757
#
#
#
# Elastic Compliance Matrix: (Units=1/GPa)
#
#
# Indices 1 2 3 4 5 6 
#
# 1 0.016531 -0.021093 -0.005647 0.000000 0.000000 0.000000
# 2 -0.021093 0.083008 -0.013345 0.000000 0.000000 0.000000
# 3 -0.005647 -0.013345 0.022191 0.000000 0.000000 0.000000
# 4 0.000000 0.000000 0.000000 0.040676 0.000000 0.000000
# 5 0.000000 0.000000 0.000000 0.000000 0.032315 0.000000
# 6 0.000000 0.000000 0.000000 0.000000 0.000000 0.030887
#
#
# Mechanical properties :
#
#
# Convention : Reuss Voigt Hill
#
# Bulk Modulus (GPa) = 24.06205 58.28029 41.17117
# Shear Modulus (GPa) = 15.64304 24.88061 20.26183
#
# Velocity S-wave (km/s) = 2.93914 3.70673 3.34502
# Velocity P-wave (km/s) = 4.98055 7.10661 6.13636
#
# Compressibility (1/GPa) = 0.04155922
#
# Stress axis : x y z
#
# Youngs Moduli (GPa) = 60.49184 12.04708 45.06350
#
# Poissons Ratio (x) = 0.25411 0.25449
# Poissons Ratio (y) = 1.27596 0.60136
# Poissons Ratio (z) = 0.34162 0.16077
#
# Static dielectric constant tensor:
#      x y z
#    x 1.637730 0.000000 0.000000 
#    y 0.000000 1.630470 0.000000 
#    z 0.000000 0.000000 1.629270 
# 
# From -- ./inp_files/34320.got.cif
#   From: 2010.05.17/outbox.cif.g08.bks.cpg/sg53_18_cif.got.tgz:34320.got - 2010.06.03 12:45:16.
