data_PCOD9417375
_publ_section_title
;
Structure prediction by ZEFSAII (Michael W. Deem and Ramdas Pophale) SiO2 
 PCOD9417375
Probable space group: P M N A
;
_chemical_formula_sum "Si O2"
_cell_formula_units_Z 48
_cell_length_a 8.738810
_cell_length_b 20.347443
_cell_length_c 14.417738
_cell_angle_alpha 90.000000
_cell_angle_beta 90.000000
_cell_angle_gamma 90.000000
_cell_volume 2563.653149
_symmetry_space_group_name_H-M "P M N A"
_symmetry_group_IT_number 53
_symmetry_cell_setting 'orthorhombic'
loop_
_space_group_symop_operation_xyz
x,y,z
1/2-x,-y,1/2+z
x,-y,-z
1/2-x,y,1/2-z
-x,-y,-z
1/2+x,y,1/2-z
-x,y,z
1/2+x,-y,1/2+z
loop_
_atom_site_type_symbol
_atom_site_label
_atom_site_fract_x
_atom_site_fract_y
_atom_site_fract_z
Si Si1 0.184191 0.228697 0.647651
Si Si2 0.685746 0.900256 0.038313
Si Si3 0.817867 0.623488 0.650905
Si Si4 0.682415 0.532484 0.150288
Si Si5 0.318314 0.648923 0.460234
Si Si6 0.184903 0.031655 0.352221
O O1 0.250000 0.218108 0.750000
O O2 0.234423 0.168917 0.580736
O O3 0.245095 0.296703 0.606324
O O4 0.000000 0.230018 0.651380
O O5 0.500000 0.900640 0.036986
O O6 0.730716 0.960200 0.106415
O O7 0.734037 0.917474 0.933263
O O8 0.750000 0.643369 0.750000
O O9 0.786938 0.545113 0.639787
O O10 0.740204 0.659021 0.564647
O O11 0.000000 0.632698 0.649155
O O12 0.750000 0.552403 0.250000
O O13 0.500000 0.542073 0.147994
O O14 0.759701 0.577932 0.073951
O O15 0.500000 0.651672 0.455456
O O16 0.250000 0.042821 0.250000
O O17 0.000000 0.032970 0.347040
#
# Coordination Sequence:
#
# PCOD9417375 Si02
#       6
#     8   8   8   8   8   8
#     4  11  22  38  57  78 106 142 180 220 268 321
#     4   8  17  33  54  77 108 146 178 212 263 322
#     4  10  21  38  59  82 107 137 175 221 272 324
#     4  10  20  35  56  82 110 139 174 219 271 325
#     4  12  24  37  54  78 108 143 182 223 266 317
#     4   9  16  31  54  82 110 139 176 217 263 313
#
# _framework density 18.723282999999999
#
# number of rings (size 3 to 8) (size 9 to 14) (size 15 to 20)
#    0.000    2.000    0.000    5.500    0.000    4.000 
#    0.000    5.000    0.000    2.000    0.000    0.000 
#    0.000    0.000    0.000    0.000    0.000    0.000 
#
# Total GULP energy -268067.658019 kJ/mol
# GULP energy per Si atom -5584.742875 kJ/mol
# Density = 1.868067 g / cm^3
# Si number density = 18.723283 Si / 1000 Ang^3
#
#
#
# Elastic Constant Matrix: (Units=GPa)
#
#
# Indices 1 2 3 4 5 6 
#
# 1 44.3301 21.7163 33.0664 0.0000 0.0000 0.0000
# 2 21.7163 28.2735 20.4104 0.0000 0.0000 0.0000
# 3 33.0664 20.4104 141.7588 0.0000 0.0000 0.0000
# 4 0.0000 0.0000 0.0000 25.4526 0.0000 0.0000
# 5 0.0000 0.0000 0.0000 0.0000 37.0960 0.0000
# 6 0.0000 0.0000 0.0000 0.0000 0.0000 26.0351
#
#
#
# Elastic Compliance Matrix: (Units=1/GPa)
#
#
# Indices 1 2 3 4 5 6 
#
# 1 0.039573 -0.026485 -0.005418 0.000000 0.000000 0.000000
# 2 -0.026485 0.057196 -0.002057 0.000000 0.000000 0.000000
# 3 -0.005418 -0.002057 0.008614 0.000000 0.000000 0.000000
# 4 0.000000 0.000000 0.000000 0.039289 0.000000 0.000000
# 5 0.000000 0.000000 0.000000 0.000000 0.026957 0.000000
# 6 0.000000 0.000000 0.000000 0.000000 0.000000 0.038410
#
#
# Mechanical properties :
#
#
# Convention : Reuss Voigt Hill
#
# Bulk Modulus (GPa) = 26.69175 40.52763 33.60969
# Shear Modulus (GPa) = 17.21487 26.99468 22.10477
#
# Velocity S-wave (km/s) = 3.03551 3.80118 3.43972
# Velocity P-wave (km/s) = 5.15486 6.39984 5.81079
#
# Compressibility (1/GPa) = 0.03746475
#
# Stress axis : x y z
#
# Youngs Moduli (GPa) = 25.26959 17.48363 116.08814
#
# Poissons Ratio (x) = 0.46305 0.62891
# Poissons Ratio (y) = 0.66925 0.23884
# Poissons Ratio (z) = 0.13690 0.03597
#
# Static dielectric constant tensor:
#      x y z
#    x 1.624340 0.000000 0.000000 
#    y 0.000000 1.643990 0.000000 
#    z 0.000000 0.000000 1.651790 
# 
# From -- ./inp_files/20236.got.cif
#   From: 2010.05.17/outbox.cif.g08.bks.cpg/sg53_11_cif.got.tgz:20236.got - 2010.06.03 12:45:16.
