data_PCOD9417599
_publ_section_title
;
Structure prediction by ZEFSAII (Michael W. Deem and Ramdas Pophale) SiO2 
 PCOD9417599
Probable space group: P M N A
;
_chemical_formula_sum "Si O2"
_cell_formula_units_Z 40
_cell_length_a 8.836362
_cell_length_b 13.929817
_cell_length_c 18.423835
_cell_angle_alpha 90.000000
_cell_angle_beta 90.000000
_cell_angle_gamma 90.000000
_cell_volume 2267.769687
_symmetry_space_group_name_H-M "P M N A"
_symmetry_group_IT_number 53
_symmetry_cell_setting 'orthorhombic'
loop_
_space_group_symop_operation_xyz
x,y,z
1/2-x,-y,1/2+z
x,-y,-z
1/2-x,y,1/2-z
-x,-y,-z
1/2+x,y,1/2-z
-x,y,z
1/2+x,-y,1/2+z
loop_
_atom_site_type_symbol
_atom_site_label
_atom_site_fract_x
_atom_site_fract_y
_atom_site_fract_z
Si Si1 0.179839 0.300275 0.455765
Si Si2 0.318747 0.385855 0.887894
Si Si3 0.180722 0.102676 0.534605
Si Si4 0.179921 0.191257 0.825873
Si Si5 0.820141 0.416625 0.171081
O O1 0.211792 0.365760 0.526853
O O2 0.213279 0.191473 0.480542
O O3 0.271537 0.336464 0.387020
O O4 0.000000 0.308167 0.440868
O O5 0.500000 0.387756 0.878420
O O6 0.250404 0.295306 0.845169
O O7 0.247140 0.483463 0.859307
O O8 0.270114 0.122947 0.608289
O O9 0.000000 0.107639 0.550086
O O10 0.214633 0.000000 0.500000
O O11 0.250000 0.158522 0.750000
O O12 0.000000 0.198557 0.821121
O O13 0.750000 0.397992 0.250000
O O14 0.000000 0.423646 0.176606
#
# Coordination Sequence:
#
# PCOD9417599 Si02
#       5
#     8   8   8   8   8
#     4   9  19  36  57  80 107 139 175 217 265 319
#     4  10  20  36  57  80 109 143 178 218 268 321
#     4   9  19  38  62  84 108 140 177 220 273 328
#     4  11  21  34  54  82 114 143 178 223 270 319
#     4  12  24  36  52  76 109 146 184 222 262 312
#
# _framework density 17.638475
#
# number of rings (size 3 to 8) (size 9 to 14) (size 15 to 20)
#    0.000    1.800    0.000    6.600    0.000    6.800 
#    0.000    1.000    0.000    0.000    0.000    0.000 
#    0.000    0.000    0.000    0.000    0.000    0.000 
#
# Total GULP energy -223521.350555 kJ/mol
# GULP energy per Si atom -5588.033764 kJ/mol
# Density = 1.759833 g / cm^3
# Si number density = 17.638475 Si / 1000 Ang^3
#
#
#
# Elastic Constant Matrix: (Units=GPa)
#
#
# Indices 1 2 3 4 5 6 
#
# 1 123.6293 59.0534 93.8607 0.0000 0.0000 0.0000
# 2 59.0534 76.8150 72.1242 0.0000 0.0000 0.0000
# 3 93.8607 72.1242 137.9634 0.0000 0.0000 0.0000
# 4 0.0000 0.0000 0.0000 11.6374 0.0000 0.0000
# 5 0.0000 0.0000 0.0000 0.0000 33.6874 0.0000
# 6 0.0000 0.0000 0.0000 0.0000 0.0000 28.9653
#
#
#
# Elastic Compliance Matrix: (Units=1/GPa)
#
#
# Indices 1 2 3 4 5 6 
#
# 1 0.017475 -0.004462 -0.009557 0.000000 0.000000 0.000000
# 2 -0.004462 0.026708 -0.010927 0.000000 0.000000 0.000000
# 3 -0.009557 -0.010927 0.019462 0.000000 0.000000 0.000000
# 4 0.000000 0.000000 0.000000 0.085930 0.000000 0.000000
# 5 0.000000 0.000000 0.000000 0.000000 0.029685 0.000000
# 6 0.000000 0.000000 0.000000 0.000000 0.000000 0.034524
#
#
# Mechanical properties :
#
#
# Convention : Reuss Voigt Hill
#
# Bulk Modulus (GPa) = 72.69918 87.60935 80.15426
# Shear Modulus (GPa) = 18.63868 22.41600 20.52734
#
# Velocity S-wave (km/s) = 3.25423 3.56878 3.41513
# Velocity P-wave (km/s) = 7.44485 8.17061 7.81616
#
# Compressibility (1/GPa) = 0.01375531
#
# Stress axis : x y z
#
# Youngs Moduli (GPa) = 57.22377 37.44205 51.38140
#
# Poissons Ratio (x) = 0.16705 0.49103
# Poissons Ratio (y) = 0.25531 0.56144
# Poissons Ratio (z) = 0.54686 0.40913
#
# Static dielectric constant tensor:
#      x y z
#    x 1.585770 0.000000 0.000000 
#    y 0.000000 1.582610 0.000000 
#    z 0.000000 0.000000 1.594150 
# 
# From -- ./inp_files/19838.got.cif
#   From: 2010.05.17/outbox.cif.g08.bks.cpg/sg53_10_cif.got.tgz:19838.got - 2010.06.03 12:45:16.
