data_PCOD9417525
_publ_section_title
;
Structure prediction by ZEFSAII (Michael W. Deem and Ramdas Pophale) SiO2 
 PCOD9417525
Probable space group: P M N A
;
_chemical_formula_sum "Si O2"
_cell_formula_units_Z 40
_cell_length_a 8.888887
_cell_length_b 9.713090
_cell_length_c 26.661626
_cell_angle_alpha 90.000000
_cell_angle_beta 90.000000
_cell_angle_gamma 90.000000
_cell_volume 2301.926381
_symmetry_space_group_name_H-M "P M N A"
_symmetry_group_IT_number 53
_symmetry_cell_setting 'orthorhombic'
loop_
_space_group_symop_operation_xyz
x,y,z
1/2-x,-y,1/2+z
x,-y,-z
1/2-x,y,1/2-z
-x,-y,-z
1/2+x,y,1/2-z
-x,y,z
1/2+x,-y,1/2+z
loop_
_atom_site_type_symbol
_atom_site_label
_atom_site_fract_x
_atom_site_fract_y
_atom_site_fract_z
Si Si1 0.180421 0.352730 0.302865
Si Si2 0.182488 0.841613 0.605273
Si Si3 0.180559 0.674479 0.303491
Si Si4 0.678744 0.145812 0.608193
Si Si5 0.327072 0.833168 0.005256
O O1 0.250000 0.307203 0.250000
O O2 0.226373 0.259108 0.349727
O O3 0.220176 0.513080 0.310788
O O4 0.000000 0.345085 0.298939
O O5 0.221998 0.784072 0.549879
O O6 0.000000 0.858407 0.605228
O O7 0.256985 0.990572 0.611889
O O8 0.250000 0.717135 0.250000
O O9 0.247370 0.763669 0.348329
O O10 0.000000 0.687037 0.302099
O O11 0.500000 0.144714 0.612742
O O12 0.727716 0.200865 0.553279
O O13 0.500000 0.791182 0.014634
O O14 0.326368 0.000000 0.000000
#
# Coordination Sequence:
#
# PCOD9417525 Si02
#       5
#     8   8   8   8   8
#     4   9  19  35  55  76  99 130 166 205 251 301
#     4   9  18  34  54  76 102 132 168 209 252 299
#     4  10  20  36  55  74  99 132 168 206 250 298
#     4  11  21  32  50  77 105 134 168 206 249 296
#     4   8  15  30  51  72  98 133 168 205 250 296
#
# _framework density 17.376750999999999
#
# number of rings (size 3 to 8) (size 9 to 14) (size 15 to 20)
#    0.000    2.600    0.000    3.600    0.000    6.000 
#    0.000    3.000    0.000    6.000    0.000    0.000 
#    0.000    0.000    0.000    0.000    0.000    0.000 
#
# Total GULP energy -223040.053537 kJ/mol
# GULP energy per Si atom -5576.001338 kJ/mol
# Density = 1.733720 g / cm^3
# Si number density = 17.376751 Si / 1000 Ang^3
#
#
#
# Elastic Constant Matrix: (Units=GPa)
#
#
# Indices 1 2 3 4 5 6 
#
# 1 62.2766 34.4892 68.1798 0.0000 0.0000 0.0000
# 2 34.4892 48.4562 76.1854 0.0000 0.0000 0.0000
# 3 68.1798 76.1854 198.0920 0.0000 0.0000 0.0000
# 4 0.0000 0.0000 0.0000 -77.2260 0.0000 0.0000
# 5 0.0000 0.0000 0.0000 0.0000 32.9980 0.0000
# 6 0.0000 0.0000 0.0000 0.0000 0.0000 -10.8490
#
#
#
# Elastic Compliance Matrix: (Units=1/GPa)
#
#
# Indices 1 2 3 4 5 6 
#
# 1 0.028375 -0.012247 -0.005056 0.000000 0.000000 0.000000
# 2 -0.012247 0.057490 -0.017895 0.000000 0.000000 0.000000
# 3 -0.005056 -0.017895 0.013671 0.000000 0.000000 0.000000
# 4 0.000000 0.000000 0.000000 -0.012949 0.000000 0.000000
# 5 0.000000 0.000000 0.000000 0.000000 0.030305 0.000000
# 6 0.000000 0.000000 0.000000 0.000000 0.000000 -0.092174
#
#
# Mechanical properties :
#
#
# Convention : Reuss Voigt Hill
#
# Bulk Modulus (GPa) = 34.31766 74.05928 54.18847
# Shear Modulus (GPa) = 47.69764 -2.35072 22.67346
#
# Velocity S-wave (km/s) = 5.24487 -1.16436 3.61614
# Velocity P-wave (km/s) = 7.51467 6.39567 6.97764
#
# Compressibility (1/GPa) = 0.02913952
#
# Stress axis : x y z
#
# Youngs Moduli (GPa) = 35.24200 17.39444 73.14836
#
# Poissons Ratio (x) = 0.21302 0.36986
# Poissons Ratio (y) = 0.43160 1.30900
# Poissons Ratio (z) = 0.17819 0.31128
#
# Static dielectric constant tensor:
#      x y z
#    x 1.580210 0.000000 0.000000 
#    y 0.000000 1.571790 0.000000 
#    z 0.000000 0.000000 1.601410 
# 
# From -- ./inp_files/30361.got.cif
#   From: 2010.05.17/outbox.cif.g08.bks.cpg/sg53_16_cif.got.tgz:30361.got - 2010.06.03 12:45:16.
