data_PCOD9417471
_publ_section_title
;
Structure prediction by ZEFSAII (Michael W. Deem and Ramdas Pophale) SiO2 
 PCOD9417471
Probable space group: P M N A
;
_chemical_formula_sum "Si O2"
_cell_formula_units_Z 48
_cell_length_a 8.737710
_cell_length_b 10.341277
_cell_length_c 28.407905
_cell_angle_alpha 90.000000
_cell_angle_beta 90.000000
_cell_angle_gamma 90.000000
_cell_volume 2566.912145
_symmetry_space_group_name_H-M "P M N A"
_symmetry_group_IT_number 53
_symmetry_cell_setting 'orthorhombic'
loop_
_space_group_symop_operation_xyz
x,y,z
1/2-x,-y,1/2+z
x,-y,-z
1/2-x,y,1/2-z
-x,-y,-z
1/2+x,y,1/2-z
-x,y,z
1/2+x,-y,1/2+z
loop_
_atom_site_type_symbol
_atom_site_label
_atom_site_fract_x
_atom_site_fract_y
_atom_site_fract_z
Si Si1 0.320322 0.473890 0.944488
Si Si2 0.318078 0.276493 0.394956
Si Si3 0.317300 0.642655 0.800210
Si Si4 0.683395 0.029187 0.054233
Si Si5 0.316762 0.777843 0.397938
Si Si6 0.683351 0.645865 0.299658
O O1 0.500000 0.475714 0.931473
O O2 0.233908 0.588031 0.917545
O O3 0.248510 0.337265 0.930284
O O4 0.308405 0.500000 0.000000
O O5 0.500000 0.271781 0.391014
O O6 0.243176 0.272466 0.343315
O O7 0.257359 0.160989 0.427326
O O8 0.250000 0.685098 0.750000
O O9 0.500000 0.641039 0.798832
O O10 0.256098 0.495914 0.807777
O O11 0.500000 0.039943 0.056737
O O12 0.741339 0.911038 0.086105
O O13 0.725354 0.000000 0.000000
O O14 0.500000 0.785496 0.403038
O O15 0.282458 0.736387 0.344151
O O16 0.750000 0.693942 0.250000
O O17 0.500000 0.630596 0.296097
#
# Coordination Sequence:
#
# PCOD9417471 Si02
#       6
#     8   8   8   8   8   8
#     4  11  23  38  59  88 120 156 202 254 307 363
#     4  12  24  40  62  90 123 160 206 254 307 367
#     4  11  21  36  61  91 125 161 201 249 307 363
#     4  11  25  44  64  87 120 163 208 254 311 374
#     4  11  23  39  61  90 122 158 203 251 304 365
#     4  10  20  35  58  90 124 158 199 246 300 360
#
# _framework density 18.69951
#
# number of rings (size 3 to 8) (size 9 to 14) (size 15 to 20)
#    0.000    1.000    1.667    7.000    0.000    8.667 
#    0.000    0.833    0.000    2.000    0.000    0.000 
#    0.000    0.000    0.000    0.000    0.000    0.000 
#
# Total GULP energy -268511.190397 kJ/mol
# GULP energy per Si atom -5593.983133 kJ/mol
# Density = 1.865695 g / cm^3
# Si number density = 18.699510 Si / 1000 Ang^3
#
#
#
# Elastic Constant Matrix: (Units=GPa)
#
#
# Indices 1 2 3 4 5 6 
#
# 1 105.6027 -0.6841 42.1454 0.0000 0.0000 0.0000
# 2 -0.6841 22.6496 -16.1683 0.0000 0.0000 0.0000
# 3 42.1454 -16.1683 77.8861 0.0000 0.0000 0.0000
# 4 0.0000 0.0000 0.0000 31.1884 0.0000 0.0000
# 5 0.0000 0.0000 0.0000 0.0000 49.9540 0.0000
# 6 0.0000 0.0000 0.0000 0.0000 0.0000 37.3156
#
#
#
# Elastic Compliance Matrix: (Units=1/GPa)
#
#
# Indices 1 2 3 4 5 6 
#
# 1 0.012590 -0.005263 -0.007905 0.000000 0.000000 0.000000
# 2 -0.005263 0.054032 0.014064 0.000000 0.000000 0.000000
# 3 -0.007905 0.014064 0.020037 0.000000 0.000000 0.000000
# 4 0.000000 0.000000 0.000000 0.032063 0.000000 0.000000
# 5 0.000000 0.000000 0.000000 0.000000 0.020018 0.000000
# 6 0.000000 0.000000 0.000000 0.000000 0.000000 0.026798
#
#
# Mechanical properties :
#
#
# Convention : Reuss Voigt Hill
#
# Bulk Modulus (GPa) = 11.30576 28.52493 19.91534
# Shear Modulus (GPa) = 25.87586 35.74795 30.81191
#
# Velocity S-wave (km/s) = 3.72394 4.37705 4.06364
# Velocity P-wave (km/s) = 4.95474 6.39001 5.71759
#
# Compressibility (1/GPa) = 0.08845049
#
# Stress axis : x y z
#
# Youngs Moduli (GPa) = 79.42598 18.50767 49.90876
#
# Poissons Ratio (x) = 0.09740 0.39455
# Poissons Ratio (y) = 0.41801 -0.70193
# Poissons Ratio (z) = 0.62789 -0.26030
#
# Static dielectric constant tensor:
#      x y z
#    x 1.623080 0.000000 0.000000 
#    y 0.000000 1.607680 0.000000 
#    z 0.000000 0.000000 1.648800 
# 
# From -- ./inp_files/37713.got.cif
#   From: 2010.05.17/outbox.cif.g08.bks.cpg/sg53_19_cif.got.tgz:37713.got - 2010.06.03 12:45:16.
