data_PCOD9417789
_publ_section_title
;
Structure prediction by ZEFSAII (Michael W. Deem and Ramdas Pophale) SiO2 
 PCOD9417789
Probable space group: P M N A
;
_chemical_formula_sum "Si O2"
_cell_formula_units_Z 48
_cell_length_a 15.115998
_cell_length_b 19.002658
_cell_length_c 9.165575
_cell_angle_alpha 90.000000
_cell_angle_beta 90.000000
_cell_angle_gamma 90.000000
_cell_volume 2632.757711
_symmetry_space_group_name_H-M "P M N A"
_symmetry_group_IT_number 53
_symmetry_cell_setting 'orthorhombic'
loop_
_space_group_symop_operation_xyz
x,y,z
1/2-x,-y,1/2+z
x,-y,-z
1/2-x,y,1/2-z
-x,-y,-z
1/2+x,y,1/2-z
-x,y,z
1/2+x,-y,1/2+z
loop_
_atom_site_type_symbol
_atom_site_label
_atom_site_fract_x
_atom_site_fract_y
_atom_site_fract_z
Si Si1 0.500000 0.073498 0.078511
Si Si2 0.296167 0.792532 0.097702
Si Si3 0.000000 0.213443 0.557660
Si Si4 0.329473 0.534005 0.655279
Si Si5 0.500000 0.708099 0.758165
Si Si6 0.192217 0.069094 0.394822
Si Si7 0.500000 0.546239 0.851280
Si Si8 0.810877 0.699677 0.882422
O O1 0.408513 0.078405 0.161445
O O2 0.500000 0.129523 0.947483
O O3 0.500000 0.000000 0.000000
O O4 0.250000 0.810335 0.250000
O O5 0.400243 0.767988 0.114203
O O6 0.291905 0.861087 0.992620
O O7 0.234732 0.732768 0.023453
O O8 0.000000 0.236276 0.388140
O O9 0.344480 0.500000 0.500000
O O10 0.250000 0.502450 0.750000
O O11 0.414233 0.528177 0.757273
O O12 0.306339 0.615164 0.620338
O O13 0.500000 0.632511 0.846174
O O14 0.587368 0.715248 0.658944
O O15 0.250000 0.063533 0.250000
O O16 0.199819 0.000000 0.500000
O O17 0.500000 0.500000 0.000000
O O18 0.750000 0.726523 0.750000
#
# Coordination Sequence:
#
# PCOD9417789 Si02
#       8
#     4   8   4   8   4   8   4   8
#     4   8  18  34  55  83 111 146 190 232 283 341
#     4  11  23  38  58  88 121 152 197 245 297 354
#     4  10  20  37  61  79 115 160 189 233 302 347
#     4  10  21  37  58  83 115 148 192 242 296 347
#     4  10  20  36  62  85 114 151 203 235 294 356
#     4  10  20  37  60  85 115 156 197 240 294 348
#     4  10  21  39  59  85 115 154 192 242 289 362
#     4  10  20  37  58  82 111 151 194 241 284 353
#
# _framework density 18.231833000000002
#
# number of rings (size 3 to 8) (size 9 to 14) (size 15 to 20)
#    0.000    2.000    1.667    1.750    2.333    1.333 
#    3.000    1.250    0.000    0.000    0.000    0.000 
#    0.000    0.000    0.000    0.000    0.000    0.000 
#
# Total GULP energy -267220.834560 kJ/mol
# GULP energy per Si atom -5567.100720 kJ/mol
# Density = 1.819034 g / cm^3
# Si number density = 18.231833 Si / 1000 Ang^3
#
#
#
# Elastic Constant Matrix: (Units=GPa)
#
#
# Indices 1 2 3 4 5 6 
#
# 1 157.6528 40.6955 61.8374 0.0000 0.0000 0.0000
# 2 40.6955 59.0003 45.3923 0.0000 0.0000 0.0000
# 3 61.8374 45.3923 107.7783 0.0000 0.0000 0.0000
# 4 0.0000 0.0000 0.0000 10.6082 0.0000 0.0000
# 5 0.0000 0.0000 0.0000 0.0000 11.6030 0.0000
# 6 0.0000 0.0000 0.0000 0.0000 0.0000 15.1704
#
#
#
# Elastic Compliance Matrix: (Units=1/GPa)
#
#
# Indices 1 2 3 4 5 6 
#
# 1 0.008562 -0.003146 -0.003588 0.000000 0.000000 0.000000
# 2 -0.003146 0.026229 -0.009242 0.000000 0.000000 0.000000
# 3 -0.003588 -0.009242 0.015229 0.000000 0.000000 0.000000
# 4 0.000000 0.000000 0.000000 0.094267 0.000000 0.000000
# 5 0.000000 0.000000 0.000000 0.000000 0.086184 0.000000
# 6 0.000000 0.000000 0.000000 0.000000 0.000000 0.065918
#
#
# Mechanical properties :
#
#
# Convention : Reuss Voigt Hill
#
# Bulk Modulus (GPa) = 55.34063 68.92020 62.13042
# Shear Modulus (GPa) = 14.95377 19.24339 17.09858
#
# Velocity S-wave (km/s) = 2.86702 3.25234 3.06574
# Velocity P-wave (km/s) = 6.43269 7.21026 6.83255
#
# Compressibility (1/GPa) = 0.01806991
#
# Stress axis : x y z
#
# Youngs Moduli (GPa) = 116.79110 38.12552 65.66342
#
# Poissons Ratio (x) = 0.11993 0.23559
# Poissons Ratio (y) = 0.36737 0.60686
# Poissons Ratio (z) = 0.41902 0.35236
#
# Static dielectric constant tensor:
#      x y z
#    x 1.664210 0.000000 0.000000 
#    y 0.000000 1.669440 0.000000 
#    z 0.000000 0.000000 1.589220 
# 
# From -- ./inp_files/8770.got.cif
#   From: 2010.05.17/outbox.cif.g08.bks.cpg/sg53_5_cif.got.tgz:8770.got - 2010.06.03 12:45:16.
