data_PCOD9417224
_publ_section_title
;
Structure prediction by ZEFSAII (Michael W. Deem and Ramdas Pophale) SiO2 
 PCOD9417224
Probable space group: P M N A
;
_chemical_formula_sum "Si O2"
_cell_formula_units_Z 32
_cell_length_a 20.634061
_cell_length_b 16.094677
_cell_length_c 5.191067
_cell_angle_alpha 90.000000
_cell_angle_beta 90.000000
_cell_angle_gamma 90.000000
_cell_volume 1723.945808
_symmetry_space_group_name_H-M "P M N A"
_symmetry_group_IT_number 53
_symmetry_cell_setting 'orthorhombic'
loop_
_space_group_symop_operation_xyz
x,y,z
1/2-x,-y,1/2+z
x,-y,-z
1/2-x,y,1/2-z
-x,-y,-z
1/2+x,y,1/2-z
-x,y,z
1/2+x,-y,1/2+z
loop_
_atom_site_type_symbol
_atom_site_label
_atom_site_fract_x
_atom_site_fract_y
_atom_site_fract_z
Si Si1 0.295631 0.592308 0.001430
Si Si2 0.642981 0.234047 0.912683
Si Si3 0.354670 0.000000 0.500000
Si Si4 0.750000 0.879919 0.250000
Si Si5 0.924140 0.836061 0.900007
O O1 0.250000 0.593624 0.250000
O O2 0.342843 0.669595 0.039889
O O3 0.326222 0.500000 0.000000
O O4 0.250000 0.602744 0.750000
O O5 0.711139 0.182610 0.939510
O O6 0.615165 0.209777 0.631114
O O7 0.593670 0.205158 0.130225
O O8 0.306106 0.942556 0.337949
O O9 0.400076 0.931284 0.628942
O O10 0.000000 0.833152 0.957006
#
# Coordination Sequence:
#
# PCOD9417224 Si02
#       5
#     8   8   4   4   8
#     4  10  20  35  59  92 123 146 177 227 295 362
#     4  11  22  37  62  85 119 151 184 246 287 351
#     4  10  21  36  56  84 115 152 190 254 282 344
#     4  10  20  34  58  88 118 142 192 230 318 342
#     4  11  24  40  58  80 113 162 206 236 276 330
#
# _framework density 18.562068
#
# number of rings (size 3 to 8) (size 9 to 14) (size 15 to 20)
#    0.000    1.500    1.250    4.125    3.500    3.000 
#    0.000    6.250    0.000    4.500    0.000    0.000 
#    0.000    0.000    0.000    0.000    0.000    0.000 
#
# Total GULP energy -178418.001894 kJ/mol
# GULP energy per Si atom -5575.562559 kJ/mol
# Density = 1.851982 g / cm^3
# Si number density = 18.562068 Si / 1000 Ang^3
#
#
#
# Elastic Constant Matrix: (Units=GPa)
#
#
# Indices 1 2 3 4 5 6 
#
# 1 74.6384 42.5094 5.2934 0.0000 0.0000 0.0000
# 2 42.5094 145.9889 2.2364 0.0000 0.0000 0.0000
# 3 5.2934 2.2364 70.2829 0.0000 0.0000 0.0000
# 4 0.0000 0.0000 0.0000 18.0482 0.0000 0.0000
# 5 0.0000 0.0000 0.0000 0.0000 22.5155 0.0000
# 6 0.0000 0.0000 0.0000 0.0000 0.0000 11.0604
#
#
#
# Elastic Compliance Matrix: (Units=1/GPa)
#
#
# Indices 1 2 3 4 5 6 
#
# 1 0.016141 -0.004684 -0.001067 0.000000 0.000000 0.000000
# 2 -0.004684 0.008212 0.000091 0.000000 0.000000 0.000000
# 3 -0.001067 0.000091 0.014306 0.000000 0.000000 0.000000
# 4 0.000000 0.000000 0.000000 0.055407 0.000000 0.000000
# 5 0.000000 0.000000 0.000000 0.000000 0.044414 0.000000
# 6 0.000000 0.000000 0.000000 0.000000 0.000000 0.090412
#
#
# Mechanical properties :
#
#
# Convention : Reuss Voigt Hill
#
# Bulk Modulus (GPa) = 36.57478 43.44317 40.00898
# Shear Modulus (GPa) = 20.05426 26.38290 23.21858
#
# Velocity S-wave (km/s) = 3.29049 3.77415 3.54059
# Velocity P-wave (km/s) = 5.84665 6.51516 6.18994
#
# Compressibility (1/GPa) = 0.02734124
#
# Stress axis : x y z
#
# Youngs Moduli (GPa) = 61.95362 121.76949 69.90248
#
# Poissons Ratio (x) = 0.57033 0.07456
# Poissons Ratio (y) = 0.29017 -0.00639
# Poissons Ratio (z) = 0.06608 -0.01114
#
# Static dielectric constant tensor:
#      x y z
#    x 1.623500 0.000000 0.000000 
#    y 0.000000 1.676040 0.000000 
#    z 0.000000 0.000000 1.661030 
# 
# From -- ./inp_files/1988.got.cif
#   From: 2010.05.17/outbox.cif.g08.bks.cpg/sg53_1_cif.got.tgz:1988.got - 2010.06.03 12:45:16.
