data_PCOD9417899
_publ_section_title
;
Structure prediction by ZEFSAII (Michael W. Deem and Ramdas Pophale) SiO2 
 PCOD9417899
Probable space group: P M N A
;
_chemical_formula_sum "Si O2"
_cell_formula_units_Z 56
_cell_length_a 9.016297
_cell_length_b 21.429931
_cell_length_c 15.695309
_cell_angle_alpha 90.000000
_cell_angle_beta 90.000000
_cell_angle_gamma 90.000000
_cell_volume 3032.625986
_symmetry_space_group_name_H-M "P M N A"
_symmetry_group_IT_number 53
_symmetry_cell_setting 'orthorhombic'
loop_
_space_group_symop_operation_xyz
x,y,z
1/2-x,-y,1/2+z
x,-y,-z
1/2-x,y,1/2-z
-x,-y,-z
1/2+x,y,1/2-z
-x,y,z
1/2+x,-y,1/2+z
loop_
_atom_site_type_symbol
_atom_site_label
_atom_site_fract_x
_atom_site_fract_y
_atom_site_fract_z
Si Si1 0.823000 0.637976 0.161167
Si Si2 0.178381 0.148414 0.003639
Si Si3 0.323190 0.489522 0.899827
Si Si4 0.175738 0.088744 0.662650
Si Si5 0.177010 0.627192 0.661947
Si Si6 0.669214 0.028574 0.404112
Si Si7 0.322397 0.293012 0.487120
O O1 0.750000 0.657567 0.250000
O O2 0.764412 0.569115 0.136851
O O3 0.784485 0.682665 0.081781
O O4 0.000000 0.636726 0.170348
O O5 0.259505 0.126054 0.918062
O O6 0.212732 0.220019 0.022357
O O7 0.000000 0.142518 0.990351
O O8 0.215517 0.099924 0.079531
O O9 0.500000 0.477733 0.891422
O O10 0.286620 0.554243 0.853455
O O11 0.291594 0.500000 0.000000
O O12 0.250000 0.110996 0.750000
O O13 0.000000 0.094028 0.666342
O O14 0.224971 0.016688 0.648123
O O15 0.250000 0.648214 0.750000
O O16 0.239397 0.665987 0.582747
O O17 0.000000 0.632862 0.665570
O O18 0.500000 0.025332 0.370990
O O19 0.666164 0.000000 0.500000
O O20 0.500000 0.300963 0.476524
#
# Coordination Sequence:
#
# PCOD9417899 Si02
#       7
#     8   8   8   8   8   8   8
#     4  11  23  37  57  84 116 152 191 236 287 345
#     4   9  19  37  58  79 109 146 183 224 275 331
#     4  10  20  37  60  86 114 145 185 237 294 346
#     4  11  21  33  53  82 114 144 181 227 272 326
#     4  11  23  39  61  85 113 148 190 240 291 346
#     4   8  15  31  54  77 103 136 171 213 265 316
#     4  10  22  40  60  84 115 153 195 237 284 341
#
# _framework density 18.465844000000001
#
# number of rings (size 3 to 8) (size 9 to 14) (size 15 to 20)
#    0.000    2.000    1.429    3.429    0.000    6.857 
#    0.000    2.143    0.000    0.000    0.000    0.000 
#    0.000    0.000    0.000    0.000    0.000    0.000 
#
# Total GULP energy -312696.902395 kJ/mol
# GULP energy per Si atom -5583.873257 kJ/mol
# Density = 1.842382 g / cm^3
# Si number density = 18.465844 Si / 1000 Ang^3
#
#
#
# Elastic Constant Matrix: (Units=GPa)
#
#
# Indices 1 2 3 4 5 6 
#
# 1 38.4453 20.4471 18.3145 0.0000 0.0000 0.0000
# 2 20.4471 90.2846 7.5568 0.0000 0.0000 0.0000
# 3 18.3145 7.5568 65.2757 0.0000 0.0000 0.0000
# 4 0.0000 0.0000 0.0000 5.7429 0.0000 0.0000
# 5 0.0000 0.0000 0.0000 0.0000 31.0977 0.0000
# 6 0.0000 0.0000 0.0000 0.0000 0.0000 8.0972
#
#
#
# Elastic Compliance Matrix: (Units=1/GPa)
#
#
# Indices 1 2 3 4 5 6 
#
# 1 0.033841 -0.006937 -0.008692 0.000000 0.000000 0.000000
# 2 -0.006937 0.012606 0.000487 0.000000 0.000000 0.000000
# 3 -0.008692 0.000487 0.017702 0.000000 0.000000 0.000000
# 4 0.000000 0.000000 0.000000 0.174129 0.000000 0.000000
# 5 0.000000 0.000000 0.000000 0.000000 0.032157 0.000000
# 6 0.000000 0.000000 0.000000 0.000000 0.000000 0.123499
#
#
# Mechanical properties :
#
#
# Convention : Reuss Voigt Hill
#
# Bulk Modulus (GPa) = 29.52812 31.84916 30.68864
# Shear Modulus (GPa) = 11.48093 18.83338 15.15716
#
# Velocity S-wave (km/s) = 2.49617 3.19706 2.86811
# Velocity P-wave (km/s) = 4.93287 5.55997 5.25578
#
# Compressibility (1/GPa) = 0.03386603
#
# Stress axis : x y z
#
# Youngs Moduli (GPa) = 29.55019 79.32548 56.49103
#
# Poissons Ratio (x) = 0.55024 0.49100
# Poissons Ratio (y) = 0.20498 -0.02750
# Poissons Ratio (z) = 0.25684 -0.03861
#
# Static dielectric constant tensor:
#      x y z
#    x 1.611270 0.000000 0.000000 
#    y 0.000000 1.640640 0.000000 
#    z 0.000000 0.000000 1.629560 
# 
# From -- ./inp_files/20625.got.cif
#   From: 2010.05.17/outbox.cif.g08.bks.cpg/sg53_11_cif.got.tgz:20625.got - 2010.06.03 12:45:16.
