data_PCOD9417601
_publ_section_title
;
Structure prediction by ZEFSAII (Michael W. Deem and Ramdas Pophale) SiO2 
 PCOD9417601
Probable space group: P M N A
;
_chemical_formula_sum "Si O2"
_cell_formula_units_Z 48
_cell_length_a 15.099056
_cell_length_b 16.214866
_cell_length_c 9.246431
_cell_angle_alpha 90.000000
_cell_angle_beta 90.000000
_cell_angle_gamma 90.000000
_cell_volume 2263.796025
_symmetry_space_group_name_H-M "P M N A"
_symmetry_group_IT_number 53
_symmetry_cell_setting 'orthorhombic'
loop_
_space_group_symop_operation_xyz
x,y,z
1/2-x,-y,1/2+z
x,-y,-z
1/2-x,y,1/2-z
-x,-y,-z
1/2+x,y,1/2-z
-x,y,z
1/2+x,-y,1/2+z
loop_
_atom_site_type_symbol
_atom_site_label
_atom_site_fract_x
_atom_site_fract_y
_atom_site_fract_z
Si Si1 0.603087 0.844651 0.356934
Si Si2 0.608136 0.663427 0.328770
Si Si3 0.653182 0.000318 0.825791
Si Si4 0.152685 0.161683 0.183078
Si Si5 0.604030 0.653689 0.654228
Si Si6 0.891152 0.498832 0.663555
O O1 0.500000 0.836124 0.400557
O O2 0.632249 0.757227 0.288554
O O3 0.610674 0.918232 0.243400
O O4 0.652708 0.857415 0.510421
O O5 0.500000 0.660890 0.326777
O O6 0.641010 0.651105 0.492360
O O7 0.637961 0.586572 0.235260
O O8 0.750000 0.000947 0.750000
O O9 0.609849 0.915923 0.765702
O O10 0.656511 0.000000 0.000000
O O11 0.250000 0.168910 0.250000
O O12 0.112118 0.252124 0.205822
O O13 0.500000 0.636221 0.639528
O O14 0.639495 0.580959 0.753989
O O15 0.861141 0.500000 0.500000
O O16 0.000000 0.499272 0.664043
#
# Coordination Sequence:
#
# PCOD9417601 Si02
#       6
#     8   8   8   8   8   8
#     4  10  21  38  61  87 115 149 193 244 289 335
#     4   8  15  29  49  75 105 138 178 220 269 328
#     4  11  23  39  58  81 112 152 193 232 286 354
#     4  10  20  36  57  80 109 147 186 229 284 344
#     4   9  17  30  51  75 100 138 185 227 267 321
#     4   9  16  26  44  72 105 138 173 220 274 324
#
# _framework density 21.203323000000001
#
# number of rings (size 3 to 8) (size 9 to 14) (size 15 to 20)
#    0.000    2.500    0.000    4.500    0.000    5.667 
#    0.000    1.667    0.000    5.000    0.000    0.000 
#    0.000    0.000    0.000    0.000    0.000    0.000 
#
# Total GULP energy -267716.228220 kJ/mol
# GULP energy per Si atom -5577.421421 kJ/mol
# Density = 2.115506 g / cm^3
# Si number density = 21.203323 Si / 1000 Ang^3
#
#
#
# Elastic Constant Matrix: (Units=GPa)
#
#
# Indices 1 2 3 4 5 6 
#
# 1 34.5069 -2.3285 12.7861 0.0000 0.0000 0.0000
# 2 -2.3285 212.5985 126.2705 0.0000 0.0000 0.0000
# 3 12.7861 126.2705 141.9504 0.0000 0.0000 0.0000
# 4 0.0000 0.0000 0.0000 -5.1002 0.0000 0.0000
# 5 0.0000 0.0000 0.0000 0.0000 15.6917 0.0000
# 6 0.0000 0.0000 0.0000 0.0000 0.0000 38.5512
#
#
#
# Elastic Compliance Matrix: (Units=1/GPa)
#
#
# Indices 1 2 3 4 5 6 
#
# 1 0.031763 0.004340 -0.006722 0.000000 0.000000 0.000000
# 2 0.004340 0.010566 -0.009789 0.000000 0.000000 0.000000
# 3 -0.006722 -0.009789 0.016358 0.000000 0.000000 0.000000
# 4 0.000000 0.000000 0.000000 -0.196072 0.000000 0.000000
# 5 0.000000 0.000000 0.000000 0.000000 0.063728 0.000000
# 6 0.000000 0.000000 0.000000 0.000000 0.000000 0.025940
#
#
# Mechanical properties :
#
#
# Convention : Reuss Voigt Hill
#
# Bulk Modulus (GPa) = 29.11634 73.61245 51.36439
# Shear Modulus (GPa) = -419.20836 26.65040 -196.27898
#
# Velocity S-wave (km/s) = -14.07615 3.54912 -9.63176
# Velocity P-wave (km/s) = 15.82473 7.18246 9.97082
#
# Compressibility (1/GPa) = 0.03434498
#
# Stress axis : x y z
#
# Youngs Moduli (GPa) = 31.48291 94.64716 61.13118
#
# Poissons Ratio (x) = -0.41080 0.41092
# Poissons Ratio (y) = -0.13664 0.59844
# Poissons Ratio (z) = 0.21163 0.92654
#
# Static dielectric constant tensor:
#      x y z
#    x 1.831410 0.000000 0.000000 
#    y 0.000000 1.810830 0.000000 
#    z 0.000000 0.000000 1.726330 
# 
# From -- ./inp_files/9945.got.cif
#   From: 2010.05.17/outbox.cif.g08.bks.cpg/sg53_5_cif.got.tgz:9945.got - 2010.06.03 12:45:16.
