data_PCOD9417355
_publ_section_title
;
Structure prediction by ZEFSAII (Michael W. Deem and Ramdas Pophale) SiO2 
 PCOD9417355
Probable space group: P M N A
;
_chemical_formula_sum "Si O2"
_cell_formula_units_Z 48
_cell_length_a 8.677142
_cell_length_b 31.839339
_cell_length_c 9.222468
_cell_angle_alpha 90.000000
_cell_angle_beta 90.000000
_cell_angle_gamma 90.000000
_cell_volume 2547.932419
_symmetry_space_group_name_H-M "P M N A"
_symmetry_group_IT_number 53
_symmetry_cell_setting 'orthorhombic'
loop_
_space_group_symop_operation_xyz
x,y,z
1/2-x,-y,1/2+z
x,-y,-z
1/2-x,y,1/2-z
-x,-y,-z
1/2+x,y,1/2-z
-x,y,z
1/2+x,-y,1/2+z
loop_
_atom_site_type_symbol
_atom_site_label
_atom_site_fract_x
_atom_site_fract_y
_atom_site_fract_z
Si Si1 0.814061 0.294902 0.588047
Si Si2 0.685254 0.621571 0.912500
Si Si3 0.184914 0.457679 0.912425
Si Si4 0.184838 0.958491 0.088136
Si Si5 0.186078 0.212443 0.411621
Si Si6 0.314889 0.870402 0.087062
O O1 0.750000 0.297125 0.750000
O O2 0.768254 0.335590 0.494605
O O3 0.763362 0.252416 0.506931
O O4 0.000000 0.294435 0.595557
O O5 0.750000 0.620927 0.750000
O O6 0.500000 0.619817 0.907383
O O7 0.747767 0.582134 0.002652
O O8 0.250000 0.459398 0.750000
O O9 0.000000 0.454395 0.906753
O O10 0.225424 0.500000 0.000000
O O11 0.250000 0.962412 0.250000
O O12 0.252143 0.914778 0.028358
O O13 0.000000 0.955471 0.092410
O O14 0.228662 0.000000 0.000000
O O15 0.250000 0.215102 0.250000
O O16 0.232487 0.169160 0.489868
O O17 0.000000 0.213155 0.405638
O O18 0.250000 0.865286 0.250000
O O19 0.500000 0.872036 0.094430
#
# Coordination Sequence:
#
# PCOD9417355 Si02
#       6
#     8   8   8   8   8   8
#     4  10  22  39  59  85 115 149 189 231 278 333
#     4  11  23  39  61  88 119 154 193 238 287 339
#     4  11  24  41  62  88 119 155 195 240 289 342
#     4  10  21  36  55  79 107 141 180 222 271 325
#     4  10  22  38  56  82 113 145 183 226 274 327
#     4  10  20  35  56  80 107 141 181 224 270 323
#
# _framework density 18.838805000000001
#
# number of rings (size 3 to 8) (size 9 to 14) (size 15 to 20)
#    0.000    1.667    0.000    5.000    0.000    9.333 
#    0.000    3.333    0.000    0.000    0.000    0.000 
#    0.000    0.000    0.000    0.000    0.000    0.000 
#
# Total GULP energy -268305.698926 kJ/mol
# GULP energy per Si atom -5589.702061 kJ/mol
# Density = 1.879593 g / cm^3
# Si number density = 18.838805 Si / 1000 Ang^3
#
#
#
# Elastic Constant Matrix: (Units=GPa)
#
#
# Indices 1 2 3 4 5 6 
#
# 1 41.7687 59.2798 43.5930 0.0000 0.0000 0.0000
# 2 59.2798 223.1439 121.3993 0.0000 0.0000 0.0000
# 3 43.5930 121.3993 170.1246 0.0000 0.0000 0.0000
# 4 0.0000 0.0000 0.0000 35.3075 0.0000 0.0000
# 5 0.0000 0.0000 0.0000 0.0000 36.0989 0.0000
# 6 0.0000 0.0000 0.0000 0.0000 0.0000 -48.2002
#
#
#
# Elastic Compliance Matrix: (Units=1/GPa)
#
#
# Indices 1 2 3 4 5 6 
#
# 1 0.040348 -0.008327 -0.004397 0.000000 0.000000 0.000000
# 2 -0.008327 0.009044 -0.004320 0.000000 0.000000 0.000000
# 3 -0.004397 -0.004320 0.010087 0.000000 0.000000 0.000000
# 4 0.000000 0.000000 0.000000 0.028323 0.000000 0.000000
# 5 0.000000 0.000000 0.000000 0.000000 0.027702 0.000000
# 6 0.000000 0.000000 0.000000 0.000000 0.000000 -0.020747
#
#
# Mechanical properties :
#
#
# Convention : Reuss Voigt Hill
#
# Bulk Modulus (GPa) = 39.38253 98.17572 68.77912
# Shear Modulus (GPa) = 36.41473 18.69223 27.55348
#
# Velocity S-wave (km/s) = 4.40132 3.15337 3.82853
# Velocity P-wave (km/s) = 6.83953 8.09228 7.49214
#
# Compressibility (1/GPa) = 0.02539197
#
# Stress axis : x y z
#
# Youngs Moduli (GPa) = 24.78445 110.57593 99.13426
#
# Poissons Ratio (x) = 0.92071 0.43590
# Poissons Ratio (y) = 0.20637 0.42824
# Poissons Ratio (z) = 0.10898 0.47767
#
# Static dielectric constant tensor:
#      x y z
#    x 1.638240 0.000000 0.000000 
#    y 0.000000 1.652710 0.000000 
#    z 0.000000 0.000000 1.602660 
# 
# From -- ./inp_files/6630.got.cif
#   From: 2010.05.17/outbox.cif.g08.bks.cpg/sg53_4_cif.got.tgz:6630.got - 2010.06.03 12:45:16.
