data_PCOD9417377
_publ_section_title
;
Structure prediction by ZEFSAII (Michael W. Deem and Ramdas Pophale) SiO2 
 PCOD9417377
Probable space group: P M N A
;
_chemical_formula_sum "Si O2"
_cell_formula_units_Z 56
_cell_length_a 8.812942
_cell_length_b 15.742510
_cell_length_c 23.590993
_cell_angle_alpha 90.000000
_cell_angle_beta 90.000000
_cell_angle_gamma 90.000000
_cell_volume 3272.963119
_symmetry_space_group_name_H-M "P M N A"
_symmetry_group_IT_number 53
_symmetry_cell_setting 'orthorhombic'
loop_
_space_group_symop_operation_xyz
x,y,z
1/2-x,-y,1/2+z
x,-y,-z
1/2-x,y,1/2-z
-x,-y,-z
1/2+x,y,1/2-z
-x,y,z
1/2+x,-y,1/2+z
loop_
_atom_site_type_symbol
_atom_site_label
_atom_site_fract_x
_atom_site_fract_y
_atom_site_fract_z
Si Si1 0.181775 0.675244 0.313513
Si Si2 0.180364 0.687659 0.813306
Si Si3 0.817398 0.900794 0.491021
Si Si4 0.318636 0.514292 0.813203
Si Si5 0.819227 0.836445 0.125955
Si Si6 0.819417 0.838306 0.614675
Si Si7 0.319352 0.995711 0.189571
O O1 0.250000 0.682818 0.250000
O O2 0.214338 0.579830 0.336469
O O3 0.250753 0.747755 0.352756
O O4 0.000000 0.684412 0.309616
O O5 0.250000 0.699173 0.750000
O O6 0.244440 0.598885 0.838376
O O7 0.230393 0.765061 0.852875
O O8 0.000000 0.682989 0.807930
O O9 0.737094 0.861675 0.436581
O O10 0.781574 0.850570 0.548713
O O11 0.000000 0.898439 0.482165
O O12 0.776705 0.000000 0.500000
O O13 0.250000 0.511661 0.750000
O O14 0.500000 0.524970 0.810834
O O15 0.000000 0.833726 0.128332
O O16 0.757157 0.910090 0.167259
O O17 0.791498 0.928226 0.645528
O O18 0.000000 0.821084 0.619349
O O19 0.250000 0.019497 0.250000
O O20 0.500000 0.983260 0.194095
#
# Coordination Sequence:
#
# PCOD9417377 Si02
#       7
#     8   8   8   8   8   8   8
#     4  10  20  35  56  82 112 145 181 224 271 325
#     4  11  21  33  53  81 115 147 179 219 268 323
#     4  10  20  40  62  79 101 139 186 229 273 319
#     4   9  17  31  53  79 108 142 180 219 266 321
#     4  12  24  36  54  80 110 144 180 224 269 321
#     4  10  21  37  58  79 105 140 180 225 270 320
#     4  11  22  37  54  77 108 143 179 220 271 322
#
# _framework density 17.109877000000001
#
# number of rings (size 3 to 8) (size 9 to 14) (size 15 to 20)
#    0.000    1.571    1.429    5.571    0.000    4.857 
#    0.000    0.000    0.000    0.857    0.000    6.000 
#    0.000    0.000    0.000    0.000    0.000    0.000 
#
# Total GULP energy -312707.584216 kJ/mol
# GULP energy per Si atom -5584.064004 kJ/mol
# Density = 1.707093 g / cm^3
# Si number density = 17.109877 Si / 1000 Ang^3
#
#
#
# Elastic Constant Matrix: (Units=GPa)
#
#
# Indices 1 2 3 4 5 6 
#
# 1 84.9017 54.5877 23.4026 0.0000 0.0000 0.0000
# 2 54.5877 108.7400 12.8261 0.0000 0.0000 0.0000
# 3 23.4026 12.8261 47.2393 0.0000 0.0000 0.0000
# 4 0.0000 0.0000 0.0000 5.7947 0.0000 0.0000
# 5 0.0000 0.0000 0.0000 0.0000 26.5726 0.0000
# 6 0.0000 0.0000 0.0000 0.0000 0.0000 24.9496
#
#
#
# Elastic Compliance Matrix: (Units=1/GPa)
#
#
# Indices 1 2 3 4 5 6 
#
# 1 0.019529 -0.008949 -0.007245 0.000000 0.000000 0.000000
# 2 -0.008949 0.013601 0.000740 0.000000 0.000000 0.000000
# 3 -0.007245 0.000740 0.024557 0.000000 0.000000 0.000000
# 4 0.000000 0.000000 0.000000 0.172571 0.000000 0.000000
# 5 0.000000 0.000000 0.000000 0.000000 0.037633 0.000000
# 6 0.000000 0.000000 0.000000 0.000000 0.000000 0.040081
#
#
# Mechanical properties :
#
#
# Convention : Reuss Voigt Hill
#
# Bulk Modulus (GPa) = 37.34105 46.94599 42.14352
# Shear Modulus (GPa) = 14.37581 21.46770 17.92176
#
# Velocity S-wave (km/s) = 2.90177 3.54601 3.23995
# Velocity P-wave (km/s) = 5.75315 6.65305 6.21940
#
# Compressibility (1/GPa) = 0.02678018
#
# Stress axis : x y z
#
# Youngs Moduli (GPa) = 51.20518 73.52185 40.72158
#
# Poissons Ratio (x) = 0.65796 0.29503
# Poissons Ratio (y) = 0.45824 -0.03015
# Poissons Ratio (z) = 0.37099 -0.05444
#
# Static dielectric constant tensor:
#      x y z
#    x 1.571030 0.000000 0.000000 
#    y 0.000000 1.594670 0.000000 
#    z 0.000000 0.000000 1.545830 
# 
# From -- ./inp_files/30753.got.cif
#   From: 2010.05.17/outbox.cif.g08.bks.cpg/sg53_16_cif.got.tgz:30753.got - 2010.06.03 12:45:16.
