data_PCOD9417105
_publ_section_title
;
Structure prediction by ZEFSAII (Michael W. Deem and Ramdas Pophale) SiO2 
 PCOD9417105
Probable space group: P M N A
;
_chemical_formula_sum "Si O2"
_cell_formula_units_Z 64
_cell_length_a 14.876844
_cell_length_b 9.574862
_cell_length_c 25.338692
_cell_angle_alpha 90.000000
_cell_angle_beta 90.000000
_cell_angle_gamma 90.000000
_cell_volume 3609.337759
_symmetry_space_group_name_H-M "P M N A"
_symmetry_group_IT_number 53
_symmetry_cell_setting 'orthorhombic'
loop_
_space_group_symop_operation_xyz
x,y,z
1/2-x,-y,1/2+z
x,-y,-z
1/2-x,y,1/2-z
-x,-y,-z
1/2+x,y,1/2-z
-x,y,z
1/2+x,-y,1/2+z
loop_
_atom_site_type_symbol
_atom_site_label
_atom_site_fract_x
_atom_site_fract_y
_atom_site_fract_z
Si Si1 0.099881 0.792251 0.783159
Si Si2 0.718641 0.710092 0.365360
Si Si3 0.898841 0.546876 0.343363
Si Si4 0.104243 0.634631 0.031076
Si Si5 0.396995 0.104006 0.455597
Si Si6 0.347473 0.487383 0.726138
Si Si7 0.774211 0.956386 0.857002
Si Si8 0.898354 0.219358 0.343793
O O1 0.113803 0.629545 0.798475
O O2 0.102385 0.791925 0.719839
O O3 0.000000 0.837683 0.800440
O O4 0.177052 0.889562 0.806199
O O5 0.818137 0.641085 0.365189
O O6 0.664534 0.679152 0.419252
O O7 0.666914 0.632348 0.317110
O O8 0.726399 0.875896 0.355893
O O9 0.898727 0.558270 0.279175
O O10 0.879601 0.382972 0.355558
O O11 0.000000 0.580189 0.361949
O O12 0.000000 0.611512 0.048476
O O13 0.138670 0.500000 0.000000
O O14 0.101961 0.750629 0.985632
O O15 0.500000 0.062652 0.442705
O O16 0.361104 0.000000 0.500000
O O17 0.336580 0.094889 0.404755
O O18 0.250000 0.526303 0.750000
O O19 0.676824 0.886460 0.863631
O O20 0.000000 0.188015 0.361797
#
# Coordination Sequence:
#
# PCOD9417105 Si02
#       8
#     8   8   8   8   8   8   8   8
#     4  10  20  34  54  81 111 148 188 222 262 320
#     4  11  23  35  54  85 114 142 180 226 276 328
#     4   9  19  38  58  78 109 148 186 226 271 317
#     4  10  23  40  58  82 109 139 180 227 271 322
#     4  10  21  40  58  77 111 147 175 213 273 331
#     4   9  18  34  54  78 110 148 186 222 264 316
#     4  12  22  34  56  83 113 146 180 221 275 330
#     4   9  20  38  58  80 109 146 189 227 262 317
#
# _framework density 17.731784999999999
#
# number of rings (size 3 to 8) (size 9 to 14) (size 15 to 20)
#    0.000    2.000    1.250    4.125    3.500    5.000 
#    0.000    1.250    0.000    1.500    0.000    0.000 
#    0.000    0.000    0.000    0.000    0.000    0.000 
#
# Total GULP energy -356927.383227 kJ/mol
# GULP energy per Si atom -5576.990363 kJ/mol
# Density = 1.769143 g / cm^3
# Si number density = 17.731785 Si / 1000 Ang^3
#
#
#
# Elastic Constant Matrix: (Units=GPa)
#
#
# Indices 1 2 3 4 5 6 
#
# 1 105.9215 39.1133 30.6991 0.0000 0.0000 0.0000
# 2 39.1133 89.2831 31.5862 0.0000 0.0000 0.0000
# 3 30.6991 31.5862 42.2981 0.0000 0.0000 0.0000
# 4 0.0000 0.0000 0.0000 21.9463 0.0000 0.0000
# 5 0.0000 0.0000 0.0000 0.0000 29.1429 0.0000
# 6 0.0000 0.0000 0.0000 0.0000 0.0000 13.1649
#
#
#
# Elastic Compliance Matrix: (Units=1/GPa)
#
#
# Indices 1 2 3 4 5 6 
#
# 1 0.012555 -0.003094 -0.006802 0.000000 0.000000 0.000000
# 2 -0.003094 0.015984 -0.009691 0.000000 0.000000 0.000000
# 3 -0.006802 -0.009691 0.035815 0.000000 0.000000 0.000000
# 4 0.000000 0.000000 0.000000 0.045566 0.000000 0.000000
# 5 0.000000 0.000000 0.000000 0.000000 0.034314 0.000000
# 6 0.000000 0.000000 0.000000 0.000000 0.000000 0.075960
#
#
# Mechanical properties :
#
#
# Convention : Reuss Voigt Hill
#
# Bulk Modulus (GPa) = 39.71212 48.92219 44.31716
# Shear Modulus (GPa) = 18.67356 21.92443 20.29899
#
# Velocity S-wave (km/s) = 3.24869 3.52013 3.38713
# Velocity P-wave (km/s) = 6.04290 6.64618 6.35171
#
# Compressibility (1/GPa) = 0.02518123
#
# Stress axis : x y z
#
# Youngs Moduli (GPa) = 79.65152 62.56284 27.92145
#
# Poissons Ratio (x) = 0.19355 0.18991
# Poissons Ratio (y) = 0.24642 0.27058
# Poissons Ratio (z) = 0.54177 0.60628
#
# Static dielectric constant tensor:
#      x y z
#    x 1.634500 0.000000 0.000000 
#    y 0.000000 1.589550 0.000000 
#    z 0.000000 0.000000 1.453210 
# 
# From -- ./inp_files/35382.got.cif
#   From: 2010.05.17/outbox.cif.g08.bks.cpg/sg53_18_cif.got.tgz:35382.got - 2010.06.03 12:45:16.
