data_PCOD9417687
_publ_section_title
;
Structure prediction by ZEFSAII (Michael W. Deem and Ramdas Pophale) SiO2 
 PCOD9417687
Probable space group: P M N A
;
_chemical_formula_sum "Si O2"
_cell_formula_units_Z 48
_cell_length_a 8.555394
_cell_length_b 31.314774
_cell_length_c 9.692764
_cell_angle_alpha 90.000000
_cell_angle_beta 90.000000
_cell_angle_gamma 90.000000
_cell_volume 2596.790629
_symmetry_space_group_name_H-M "P M N A"
_symmetry_group_IT_number 53
_symmetry_cell_setting 'orthorhombic'
loop_
_space_group_symop_operation_xyz
x,y,z
1/2-x,-y,1/2+z
x,-y,-z
1/2-x,y,1/2-z
-x,-y,-z
1/2+x,y,1/2-z
-x,y,z
1/2+x,-y,1/2+z
loop_
_atom_site_type_symbol
_atom_site_label
_atom_site_fract_x
_atom_site_fract_y
_atom_site_fract_z
Si Si1 0.686622 0.287241 0.097966
Si Si2 0.811426 0.865503 0.904594
Si Si3 0.688038 0.617675 0.598635
Si Si4 0.688657 0.539757 0.405309
Si Si5 0.311159 0.038490 0.404007
Si Si6 0.812073 0.786995 0.095004
O O1 0.750000 0.275303 0.250000
O O2 0.500000 0.286754 0.100793
O O3 0.745710 0.335264 0.069625
O O4 0.750082 0.254212 0.986277
O O5 0.750000 0.857611 0.750000
O O6 0.762767 0.913532 0.947471
O O7 0.000000 0.864667 0.899365
O O8 0.759781 0.828911 0.009603
O O9 0.750000 0.604622 0.750000
O O10 0.500000 0.619851 0.604373
O O11 0.735060 0.583238 0.483890
O O12 0.740823 0.500000 0.500000
O O13 0.750000 0.537266 0.250000
O O14 0.500000 0.538739 0.400362
O O15 0.250000 0.032155 0.250000
O O16 0.500000 0.037715 0.402828
O O17 0.255320 0.000000 0.500000
O O18 0.750000 0.788057 0.250000
O O19 0.000000 0.786037 0.096294
#
# Coordination Sequence:
#
# PCOD9417687 Si02
#       6
#     8   8   8   8   8   8
#     4  11  22  38  60  84 111 145 184 224 271 325
#     4   9  19  35  55  77 103 138 178 219 263 317
#     4  10  20  36  58  84 113 144 183 226 269 320
#     4  10  22  38  57  83 113 146 184 225 269 320
#     4   9  18  33  52  76 106 138 174 216 262 314
#     4  11  23  38  55  79 110 142 180 225 275 325
#
# _framework density 18.484356999999999
#
# number of rings (size 3 to 8) (size 9 to 14) (size 15 to 20)
#    0.000    2.000    0.000    4.500    0.000    6.000 
#    0.000    1.667    0.000    0.000    0.000    0.000 
#    0.000    0.000    0.000    0.000    0.000    0.000 
#
# Total GULP energy -268082.099431 kJ/mol
# GULP energy per Si atom -5585.043738 kJ/mol
# Density = 1.844229 g / cm^3
# Si number density = 18.484357 Si / 1000 Ang^3
#
#
#
# Elastic Constant Matrix: (Units=GPa)
#
#
# Indices 1 2 3 4 5 6 
#
# 1 53.7846 40.3919 38.2359 0.0000 0.0000 0.0000
# 2 40.3919 140.0511 129.5617 0.0000 0.0000 0.0000
# 3 38.2359 129.5617 167.3408 0.0000 0.0000 0.0000
# 4 0.0000 0.0000 0.0000 38.3592 0.0000 0.0000
# 5 0.0000 0.0000 0.0000 0.0000 35.4042 0.0000
# 6 0.0000 0.0000 0.0000 0.0000 0.0000 -87.4435
#
#
#
# Elastic Compliance Matrix: (Units=1/GPa)
#
#
# Indices 1 2 3 4 5 6 
#
# 1 0.023742 -0.006445 -0.000435 0.000000 0.000000 0.000000
# 2 -0.006445 0.026914 -0.019365 0.000000 0.000000 0.000000
# 3 -0.000435 -0.019365 0.021068 0.000000 0.000000 0.000000
# 4 0.000000 0.000000 0.000000 0.026069 0.000000 0.000000
# 5 0.000000 0.000000 0.000000 0.000000 0.028245 0.000000
# 6 0.000000 0.000000 0.000000 0.000000 0.000000 -0.011436
#
#
# Mechanical properties :
#
#
# Convention : Reuss Voigt Hill
#
# Bulk Modulus (GPa) = 51.99072 86.39504 69.19288
# Shear Modulus (GPa) = 28.81785 7.46312 18.14049
#
# Velocity S-wave (km/s) = 3.95275 2.01154 3.13612
# Velocity P-wave (km/s) = 7.00145 7.22745 7.11535
#
# Compressibility (1/GPa) = 0.01923420
#
# Stress axis : x y z
#
# Youngs Moduli (GPa) = 42.11937 37.15588 47.46493
#
# Poissons Ratio (x) = 0.23948 0.02063
# Poissons Ratio (y) = 0.27147 0.91915
# Poissons Ratio (z) = 0.01831 0.71952
#
# Static dielectric constant tensor:
#      x y z
#    x 1.625230 0.000000 0.000000 
#    y 0.000000 1.646450 0.000000 
#    z 0.000000 0.000000 1.590110 
# 
# From -- ./inp_files/6651.got.cif
#   From: 2010.05.17/outbox.cif.g08.bks.cpg/sg53_4_cif.got.tgz:6651.got - 2010.06.03 12:45:16.
