data_PCOD9417064
_publ_section_title
;
Structure prediction by ZEFSAII (Michael W. Deem and Ramdas Pophale) SiO2 
 PCOD9417064
Probable space group: P M N A
;
_chemical_formula_sum "Si O2"
_cell_formula_units_Z 48
_cell_length_a 13.375466
_cell_length_b 8.919024
_cell_length_c 23.086360
_cell_angle_alpha 90.000000
_cell_angle_beta 90.000000
_cell_angle_gamma 90.000000
_cell_volume 2754.112763
_symmetry_space_group_name_H-M "P M N A"
_symmetry_group_IT_number 53
_symmetry_cell_setting 'orthorhombic'
loop_
_space_group_symop_operation_xyz
x,y,z
1/2-x,-y,1/2+z
x,-y,-z
1/2-x,y,1/2-z
-x,-y,-z
1/2+x,y,1/2-z
-x,y,z
1/2+x,-y,1/2+z
loop_
_atom_site_type_symbol
_atom_site_label
_atom_site_fract_x
_atom_site_fract_y
_atom_site_fract_z
Si Si1 0.718632 0.408582 0.683825
Si Si2 0.610244 0.706275 0.711646
Si Si3 0.614384 0.358612 0.152453
Si Si4 0.381196 0.841085 0.396937
Si Si5 0.726647 0.153061 0.384863
Si Si6 0.115854 0.337709 0.017010
O O1 0.750000 0.367492 0.750000
O O2 0.636544 0.539817 0.689977
O O3 0.812316 0.495454 0.653150
O O4 0.669430 0.274156 0.648316
O O5 0.500000 0.751827 0.693663
O O6 0.615405 0.695591 0.780557
O O7 0.686653 0.814314 0.679900
O O8 0.500000 0.393313 0.136719
O O9 0.661533 0.220500 0.116361
O O10 0.500000 0.872213 0.383526
O O11 0.380294 0.765029 0.460126
O O12 0.310274 0.986933 0.398905
O O13 0.670078 0.260221 0.429945
O O14 0.000000 0.359569 0.033659
O O15 0.158138 0.500000 0.000000
#
# Coordination Sequence:
#
# PCOD9417064 Si02
#       6
#     8   8   8   8   8   8
#     4   9  18  32  52  75 102 136 174 212 251 297
#     4   9  16  30  52  76 101 133 174 216 257 302
#     4   9  19  35  54  74  99 137 183 220 246 285
#     4  11  22  34  51  80 112 135 160 204 264 320
#     4  11  20  32  51  76 108 138 167 207 260 312
#     4  10  20  34  54  77 101 133 171 210 257 312
#
# _framework density 17.428481000000001
#
# number of rings (size 3 to 8) (size 9 to 14) (size 15 to 20)
#    0.000    2.167    0.000    6.000    0.000    4.667 
#    0.000    0.833    0.000    6.500    0.000    0.000 
#    0.000    0.000    0.000    0.000    0.000    0.000 
#
# Total GULP energy -267369.722891 kJ/mol
# GULP energy per Si atom -5570.202560 kJ/mol
# Density = 1.738881 g / cm^3
# Si number density = 17.428481 Si / 1000 Ang^3
#
#
#
# Elastic Constant Matrix: (Units=GPa)
#
#
# Indices 1 2 3 4 5 6 
#
# 1 105.1451 32.5064 15.8384 0.0000 0.0000 0.0000
# 2 32.5064 90.0815 20.6257 0.0000 0.0000 0.0000
# 3 15.8384 20.6257 38.5504 0.0000 0.0000 0.0000
# 4 0.0000 0.0000 0.0000 18.1126 0.0000 0.0000
# 5 0.0000 0.0000 0.0000 0.0000 20.0332 0.0000
# 6 0.0000 0.0000 0.0000 0.0000 0.0000 13.9168
#
#
#
# Elastic Compliance Matrix: (Units=1/GPa)
#
#
# Indices 1 2 3 4 5 6 
#
# 1 0.010949 -0.003329 -0.002717 0.000000 0.000000 0.000000
# 2 -0.003329 0.013663 -0.005942 0.000000 0.000000 0.000000
# 3 -0.002717 -0.005942 0.030236 0.000000 0.000000 0.000000
# 4 0.000000 0.000000 0.000000 0.055210 0.000000 0.000000
# 5 0.000000 0.000000 0.000000 0.000000 0.049917 0.000000
# 6 0.000000 0.000000 0.000000 0.000000 0.000000 0.071855
#
#
# Mechanical properties :
#
#
# Convention : Reuss Voigt Hill
#
# Bulk Modulus (GPa) = 32.39329 41.30198 36.84764
# Shear Modulus (GPa) = 18.79004 21.39962 20.09483
#
# Velocity S-wave (km/s) = 3.28704 3.50788 3.39925
# Velocity P-wave (km/s) = 5.74743 6.33690 6.04935
#
# Compressibility (1/GPa) = 0.03087059
#
# Stress axis : x y z
#
# Youngs Moduli (GPa) = 91.33133 73.19074 33.07322
#
# Poissons Ratio (x) = 0.24364 0.08987
# Poissons Ratio (y) = 0.30403 0.19654
# Poissons Ratio (z) = 0.24818 0.43493
#
# Static dielectric constant tensor:
#      x y z
#    x 1.638120 0.000000 0.000000 
#    y 0.000000 1.595600 0.000000 
#    z 0.000000 0.000000 1.600970 
# 
# From -- ./inp_files/32279.got.cif
#   From: 2010.05.17/outbox.cif.g08.bks.cpg/sg53_17_cif.got.tgz:32279.got - 2010.06.03 12:45:16.
