data_PCOD9417704
_publ_section_title
;
Structure prediction by ZEFSAII (Michael W. Deem and Ramdas Pophale) SiO2 
 PCOD9417704
Probable space group: P M N A
;
_chemical_formula_sum "Si O2"
_cell_formula_units_Z 24
_cell_length_a 9.304490
_cell_length_b 7.718526
_cell_length_c 12.711726
_cell_angle_alpha 90.000000
_cell_angle_beta 90.000000
_cell_angle_gamma 90.000000
_cell_volume 912.917365
_symmetry_space_group_name_H-M "P M N A"
_symmetry_group_IT_number 53
_symmetry_cell_setting 'orthorhombic'
loop_
_space_group_symop_operation_xyz
x,y,z
1/2-x,-y,1/2+z
x,-y,-z
1/2-x,y,1/2-z
-x,-y,-z
1/2+x,y,1/2-z
-x,y,z
1/2+x,-y,1/2+z
loop_
_atom_site_type_symbol
_atom_site_label
_atom_site_fract_x
_atom_site_fract_y
_atom_site_fract_z
Si Si1 0.500000 0.492976 0.646268
Si Si2 0.500000 0.943797 0.879224
Si Si3 0.000000 0.339197 0.628117
Si Si4 0.248641 0.500000 0.000000
Si Si5 0.250000 0.075879 0.250000
Si Si6 0.000000 0.911715 0.112682
O O1 0.500000 0.466813 0.771246
O O2 0.357907 0.570455 0.591944
O O3 0.500000 0.294301 0.606186
O O4 0.500000 0.141796 0.834186
O O5 0.364424 0.843844 0.830975
O O6 0.500000 0.000000 0.000000
O O7 0.858233 0.370722 0.558481
O O8 0.145856 0.972884 0.170327
O O9 0.000000 0.000000 0.000000
#
# Coordination Sequence:
#
# PCOD9417704 Si02
#       6
#     4   4   4   4   4   4
#     4  11  21  41  69  87 125 163 209 250 307 374
#     4  11  22  38  68  97 120 161 207 256 304 382
#     4  11  21  41  69  87 125 163 209 250 307 374
#     4  10  24  36  64  98 114 164 216 256 294 362
#     4  10  20  36  58  96 118 166 198 236 314 348
#     4  11  22  38  68  97 120 161 207 256 304 382
#
# _framework density 26.289345999999998
#
# number of rings (size 3 to 8) (size 9 to 14) (size 15 to 20)
#    0.000    1.333    3.333    4.000    0.000    0.000 
#    0.000    0.000   73.333    0.000    0.000    0.000 
#    0.000    0.000    0.000    0.000    0.000    0.000 
#
# Total GULP energy -134139.959869 kJ/mol
# GULP energy per Si atom -5589.164995 kJ/mol
# Density = 2.622951 g / cm^3
# Si number density = 26.289346 Si / 1000 Ang^3
#
#
#
# Elastic Constant Matrix: (Units=GPa)
#
#
# Indices 1 2 3 4 5 6 
#
# 1 228.4999 37.8512 82.4961 0.0000 0.0000 0.0000
# 2 37.8512 77.0264 26.8857 0.0000 0.0000 0.0000
# 3 82.4961 26.8857 202.8937 0.0000 0.0000 0.0000
# 4 0.0000 0.0000 0.0000 37.2199 0.0000 0.0000
# 5 0.0000 0.0000 0.0000 0.0000 19.3491 0.0000
# 6 0.0000 0.0000 0.0000 0.0000 0.0000 24.7347
#
#
#
# Elastic Compliance Matrix: (Units=1/GPa)
#
#
# Indices 1 2 3 4 5 6 
#
# 1 0.005403 -0.001980 -0.001934 0.000000 0.000000 0.000000
# 2 -0.001980 0.014338 -0.001095 0.000000 0.000000 0.000000
# 3 -0.001934 -0.001095 0.005860 0.000000 0.000000 0.000000
# 4 0.000000 0.000000 0.000000 0.026867 0.000000 0.000000
# 5 0.000000 0.000000 0.000000 0.000000 0.051682 0.000000
# 6 0.000000 0.000000 0.000000 0.000000 0.000000 0.040429
#
#
# Mechanical properties :
#
#
# Convention : Reuss Voigt Hill
#
# Bulk Modulus (GPa) = 64.17463 89.20957 76.69210
# Shear Modulus (GPa) = 31.29084 40.33987 35.81536
#
# Velocity S-wave (km/s) = 3.45374 3.92146 3.69501
# Velocity P-wave (km/s) = 6.35361 7.38317 6.88765
#
# Compressibility (1/GPa) = 0.01558248
#
# Stress axis : x y z
#
# Youngs Moduli (GPa) = 185.09300 69.74669 170.63976
#
# Poissons Ratio (x) = 0.13808 0.33008
# Poissons Ratio (y) = 0.36643 0.18684
# Poissons Ratio (z) = 0.35804 0.07637
#
# Static dielectric constant tensor:
#      x y z
#    x 2.213560 0.000000 0.000000 
#    y 0.000000 2.031950 0.000000 
#    z 0.000000 0.000000 2.178610 
# 
# From -- ./inp_files/13628.got.cif
#   From: 2010.05.17/outbox.cif.g08.bks.cpg/sg53_7_cif.got.tgz:13628.got - 2010.06.03 12:45:16.
