data_PCOD9417543
_publ_section_title
;
Structure prediction by ZEFSAII (Michael W. Deem and Ramdas Pophale) SiO2 
 PCOD9417543
Probable space group: P M N A
;
_chemical_formula_sum "Si O2"
_cell_formula_units_Z 56
_cell_length_a 8.833671
_cell_length_b 20.868883
_cell_length_c 15.196165
_cell_angle_alpha 90.000000
_cell_angle_beta 90.000000
_cell_angle_gamma 90.000000
_cell_volume 2801.395490
_symmetry_space_group_name_H-M "P M N A"
_symmetry_group_IT_number 53
_symmetry_cell_setting 'orthorhombic'
loop_
_space_group_symop_operation_xyz
x,y,z
1/2-x,-y,1/2+z
x,-y,-z
1/2-x,y,1/2-z
-x,-y,-z
1/2+x,y,1/2-z
-x,y,z
1/2+x,-y,1/2+z
loop_
_atom_site_type_symbol
_atom_site_label
_atom_site_fract_x
_atom_site_fract_y
_atom_site_fract_z
Si Si1 0.677585 0.477086 0.661824
Si Si2 0.818648 0.227572 0.527712
Si Si3 0.817460 0.970172 0.849416
Si Si4 0.329850 0.614706 0.863151
Si Si5 0.322858 0.254664 0.338450
Si Si6 0.169690 0.365090 0.569791
Si Si7 0.817864 0.094611 0.966985
O O1 0.750000 0.449388 0.750000
O O2 0.500000 0.488668 0.667477
O O3 0.764376 0.543902 0.647828
O O4 0.717676 0.421978 0.593417
O O5 0.754393 0.232616 0.428506
O O6 0.775123 0.291995 0.581567
O O7 0.755768 0.160902 0.562604
O O8 0.000000 0.227856 0.524135
O O9 0.750000 0.962775 0.750000
O O10 0.000000 0.965528 0.840916
O O11 0.772097 0.922644 0.931140
O O12 0.780990 0.038451 0.896902
O O13 0.500000 0.620498 0.824136
O O14 0.212799 0.669263 0.834659
O O15 0.347503 0.628075 0.965743
O O16 0.250000 0.225952 0.250000
O O17 0.500000 0.241884 0.340929
O O18 0.000000 0.374224 0.609041
O O19 0.000000 0.099690 0.968849
#
# Coordination Sequence:
#
# PCOD9417543 Si02
#       7
#     8   8   8   8   8   8   8
#     4  12  24  36  53  76 102 133 174 222 272 324
#     4  10  21  37  57  81 109 144 183 223 270 324
#     4   9  19  36  59  87 119 153 190 231 276 324
#     4  10  20  36  56  77 104 136 171 217 274 331
#     4  11  21  34  52  76 108 143 182 227 275 330
#     4   9  20  38  56  75 103 136 172 217 267 320
#     4   9  19  37  58  83 118 156 189 227 276 330
#
# _framework density 19.990034999999999
#
# number of rings (size 3 to 8) (size 9 to 14) (size 15 to 20)
#    0.000    2.000    0.000    6.000    0.000    6.857 
#    0.000    3.571    0.000    1.714    0.000    0.000 
#    0.000    0.000    0.000    0.000    0.000    0.000 
#
# Total GULP energy -312168.054352 kJ/mol
# GULP energy per Si atom -5574.429542 kJ/mol
# Density = 1.994454 g / cm^3
# Si number density = 19.990035 Si / 1000 Ang^3
#
#
#
# Elastic Constant Matrix: (Units=GPa)
#
#
# Indices 1 2 3 4 5 6 
#
# 1 56.8820 7.5567 0.8161 0.0000 0.0000 0.0000
# 2 7.5567 57.8512 -6.3417 0.0000 0.0000 0.0000
# 3 0.8161 -6.3417 38.3542 0.0000 0.0000 0.0000
# 4 0.0000 0.0000 0.0000 3.8486 0.0000 0.0000
# 5 0.0000 0.0000 0.0000 0.0000 25.0571 0.0000
# 6 0.0000 0.0000 0.0000 0.0000 0.0000 26.8837
#
#
#
# Elastic Compliance Matrix: (Units=1/GPa)
#
#
# Indices 1 2 3 4 5 6 
#
# 1 0.017914 -0.002426 -0.000782 0.000000 0.000000 0.000000
# 2 -0.002426 0.017933 0.003017 0.000000 0.000000 0.000000
# 3 -0.000782 0.003017 0.026588 0.000000 0.000000 0.000000
# 4 0.000000 0.000000 0.000000 0.259836 0.000000 0.000000
# 5 0.000000 0.000000 0.000000 0.000000 0.039909 0.000000
# 6 0.000000 0.000000 0.000000 0.000000 0.000000 0.037197
#
#
# Mechanical properties :
#
#
# Convention : Reuss Voigt Hill
#
# Bulk Modulus (GPa) = 16.11526 17.46106 16.78816
# Shear Modulus (GPa) = 11.89218 21.22829 16.56024
#
# Velocity S-wave (km/s) = 2.44171 3.26228 2.88136
# Velocity P-wave (km/s) = 4.00355 4.78997 4.41431
#
# Compressibility (1/GPa) = 0.06205298
#
# Stress axis : x y z
#
# Youngs Moduli (GPa) = 55.82314 55.76224 37.61063
#
# Poissons Ratio (x) = 0.13526 0.02942
# Poissons Ratio (y) = 0.13541 -0.11346
# Poissons Ratio (z) = 0.04367 -0.16822
#
# Static dielectric constant tensor:
#      x y z
#    x 1.679750 0.000000 0.000000 
#    y 0.000000 1.756050 0.000000 
#    z 0.000000 0.000000 1.796840 
# 
# From -- ./inp_files/20579.got.cif
#   From: 2010.05.17/outbox.cif.g08.bks.cpg/sg53_11_cif.got.tgz:20579.got - 2010.06.03 12:45:16.
