data_PCOD9417707
_publ_section_title
;
Structure prediction by ZEFSAII (Michael W. Deem and Ramdas Pophale) SiO2 
 PCOD9417707
Probable space group: P M N A
;
_chemical_formula_sum "Si O2"
_cell_formula_units_Z 40
_cell_length_a 8.663063
_cell_length_b 13.169158
_cell_length_c 18.679062
_cell_angle_alpha 90.000000
_cell_angle_beta 90.000000
_cell_angle_gamma 90.000000
_cell_volume 2131.005372
_symmetry_space_group_name_H-M "P M N A"
_symmetry_group_IT_number 53
_symmetry_cell_setting 'orthorhombic'
loop_
_space_group_symop_operation_xyz
x,y,z
1/2-x,-y,1/2+z
x,-y,-z
1/2-x,y,1/2-z
-x,-y,-z
1/2+x,y,1/2-z
-x,y,z
1/2+x,-y,1/2+z
loop_
_atom_site_type_symbol
_atom_site_label
_atom_site_fract_x
_atom_site_fract_y
_atom_site_fract_z
Si Si1 0.186222 0.808510 0.829947
Si Si2 0.813300 0.009166 0.917174
Si Si3 0.185555 0.615294 0.924273
Si Si4 0.814722 0.602649 0.416441
Si Si5 0.315149 0.801717 0.170489
O O1 0.250000 0.809194 0.750000
O O2 0.234647 0.909083 0.873205
O O3 0.233328 0.707847 0.873429
O O4 0.000000 0.808832 0.827030
O O5 0.000000 0.014965 0.915376
O O6 0.746599 0.108674 0.879802
O O7 0.766091 0.000000 0.000000
O O8 0.243517 0.506255 0.896627
O O9 0.000000 0.614127 0.929846
O O10 0.254942 0.627696 0.003715
O O11 0.769894 0.693193 0.363347
O O12 0.000000 0.594201 0.418200
O O13 0.250000 0.813626 0.250000
O O14 0.500000 0.806394 0.172736
#
# Coordination Sequence:
#
# PCOD9417707 Si02
#       5
#     8   8   8   8   8
#     4  10  22  37  55  82 113 146 182 224 275 327
#     4  10  21  39  62  85 112 146 185 230 279 334
#     4  10  20  36  59  84 110 145 188 228 272 328
#     4  10  21  37  57  83 113 145 184 230 278 325
#     4  11  24  39  57  83 115 150 188 232 281 333
#
# _framework density 18.770484
#
# number of rings (size 3 to 8) (size 9 to 14) (size 15 to 20)
#    0.000    1.800    0.000    4.800    0.000   10.000 
#    0.000    4.000    0.000    0.000    0.000    0.000 
#    0.000    0.000    0.000    0.000    0.000    0.000 
#
# Total GULP energy -223551.588696 kJ/mol
# GULP energy per Si atom -5588.789717 kJ/mol
# Density = 1.872776 g / cm^3
# Si number density = 18.770484 Si / 1000 Ang^3
#
#
#
# Elastic Constant Matrix: (Units=GPa)
#
#
# Indices 1 2 3 4 5 6 
#
# 1 24.3130 17.4308 13.1268 0.0000 0.0000 0.0000
# 2 17.4308 92.3313 42.1240 0.0000 0.0000 0.0000
# 3 13.1268 42.1240 83.5902 0.0000 0.0000 0.0000
# 4 0.0000 0.0000 0.0000 -19.7616 0.0000 0.0000
# 5 0.0000 0.0000 0.0000 0.0000 -9.2523 0.0000
# 6 0.0000 0.0000 0.0000 0.0000 0.0000 41.4259
#
#
#
# Elastic Compliance Matrix: (Units=1/GPa)
#
#
# Indices 1 2 3 4 5 6 
#
# 1 0.048529 -0.007382 -0.003901 0.000000 0.000000 0.000000
# 2 -0.007382 0.015187 -0.006494 0.000000 0.000000 0.000000
# 3 -0.003901 -0.006494 0.015848 0.000000 0.000000 0.000000
# 4 0.000000 0.000000 0.000000 -0.050603 0.000000 0.000000
# 5 0.000000 0.000000 0.000000 0.000000 -0.108082 0.000000
# 6 0.000000 0.000000 0.000000 0.000000 0.000000 0.024140
#
#
# Mechanical properties :
#
#
# Convention : Reuss Voigt Hill
#
# Bulk Modulus (GPa) = 22.72185 38.39973 30.56079
# Shear Modulus (GPa) = -1050.87167 10.98592 -519.94288
#
# Velocity S-wave (km/s) = -23.68689 2.42187 -16.66138
# Velocity P-wave (km/s) = 27.12859 5.32189 18.81007
#
# Compressibility (1/GPa) = 0.04401050
#
# Stress axis : x y z
#
# Youngs Moduli (GPa) = 20.60637 65.84635 63.09846
#
# Poissons Ratio (x) = 0.48607 0.24614
# Poissons Ratio (y) = 0.15211 0.40976
# Poissons Ratio (z) = 0.08038 0.42760
#
# Static dielectric constant tensor:
#      x y z
#    x 1.637620 0.000000 0.000000 
#    y 0.000000 1.638820 0.000000 
#    z 0.000000 0.000000 1.612900 
# 
# From -- ./inp_files/25859.got.cif
#   From: 2010.05.17/outbox.cif.g08.bks.cpg/sg53_13_cif.got.tgz:25859.got - 2010.06.03 12:45:16.
