data_PCOD9417307
_publ_section_title
;
Structure prediction by ZEFSAII (Michael W. Deem and Ramdas Pophale) SiO2 
 PCOD9417307
Probable space group: P M N A
;
_chemical_formula_sum "Si O2"
_cell_formula_units_Z 36
_cell_length_a 22.301343
_cell_length_b 15.427656
_cell_length_c 4.918874
_cell_angle_alpha 90.000000
_cell_angle_beta 90.000000
_cell_angle_gamma 90.000000
_cell_volume 1692.375236
_symmetry_space_group_name_H-M "P M N A"
_symmetry_group_IT_number 53
_symmetry_cell_setting 'orthorhombic'
loop_
_space_group_symop_operation_xyz
x,y,z
1/2-x,-y,1/2+z
x,-y,-z
1/2-x,y,1/2-z
-x,-y,-z
1/2+x,y,1/2-z
-x,y,z
1/2+x,-y,1/2+z
loop_
_atom_site_type_symbol
_atom_site_label
_atom_site_fract_x
_atom_site_fract_y
_atom_site_fract_z
Si Si1 0.642124 0.325976 0.863795
Si Si2 0.117861 0.904189 0.933327
Si Si3 0.209167 0.500000 0.500000
Si Si4 0.432704 0.275009 0.350795
Si Si5 0.807508 0.853522 0.432535
O O1 0.617400 0.307335 0.563478
O O2 0.689161 0.250882 0.960284
O O3 0.670621 0.419574 0.893929
O O4 0.585823 0.314634 0.063733
O O5 0.073910 0.829462 0.829650
O O6 0.174233 0.899268 0.717204
O O7 0.138849 0.873936 0.228700
O O8 0.095228 0.000000 0.000000
O O9 0.250000 0.530731 0.750000
O O10 0.500000 0.297539 0.432028
O O11 0.750000 0.878724 0.250000
#
# Coordination Sequence:
#
# PCOD9417307 Si02
#       5
#     8   8   4   8   8
#     4  10  22  39  59  89 117 148 196 237 282 349
#     4  10  21  35  54  83 113 146 196 242 277 338
#     4  12  24  40  65  92 121 152 188 236 286 340
#     4  10  21  40  62  83 117 157 192 239 294 338
#     4  10  20  35  55  77 113 155 186 228 290 345
#
# _framework density 21.271877
#
# number of rings (size 3 to 8) (size 9 to 14) (size 15 to 20)
#    0.000    1.778    0.000    4.000    0.000    5.778 
#    0.000    3.333    0.000    9.333    0.000    0.000 
#    0.000    0.000    0.000    0.000    0.000    0.000 
#
# Total GULP energy -200810.946547 kJ/mol
# GULP energy per Si atom -5578.081849 kJ/mol
# Density = 2.122346 g / cm^3
# Si number density = 21.271877 Si / 1000 Ang^3
#
#
#
# Elastic Constant Matrix: (Units=GPa)
#
#
# Indices 1 2 3 4 5 6 
#
# 1 48.5546 14.1162 3.3356 0.0000 0.0000 0.0000
# 2 14.1162 86.4076 3.4032 0.0000 0.0000 0.0000
# 3 3.3356 3.4032 102.3270 0.0000 0.0000 0.0000
# 4 0.0000 0.0000 0.0000 23.9450 0.0000 0.0000
# 5 0.0000 0.0000 0.0000 0.0000 80.1436 0.0000
# 6 0.0000 0.0000 0.0000 0.0000 0.0000 -1.4329
#
#
#
# Elastic Compliance Matrix: (Units=1/GPa)
#
#
# Indices 1 2 3 4 5 6 
#
# 1 0.021658 -0.003515 -0.000589 0.000000 0.000000 0.000000
# 2 -0.003515 0.012159 -0.000290 0.000000 0.000000 0.000000
# 3 -0.000589 -0.000290 0.009801 0.000000 0.000000 0.000000
# 4 0.000000 0.000000 0.000000 0.041762 0.000000 0.000000
# 5 0.000000 0.000000 0.000000 0.000000 0.012478 0.000000
# 6 0.000000 0.000000 0.000000 0.000000 0.000000 -0.697880
#
#
# Mechanical properties :
#
#
# Convention : Reuss Voigt Hill
#
# Bulk Modulus (GPa) = 28.71075 30.99992 29.85533
# Shear Modulus (GPa) = -8.62628 34.96007 13.16690
#
# Velocity S-wave (km/s) = -2.01595 4.05839 2.49063
# Velocity P-wave (km/s) = 2.84739 6.04695 4.72616
#
# Compressibility (1/GPa) = 0.03483017
#
# Stress axis : x y z
#
# Youngs Moduli (GPa) = 46.17285 82.24563 102.02592
#
# Poissons Ratio (x) = 0.28909 0.06010
# Poissons Ratio (y) = 0.16230 0.02957
# Poissons Ratio (z) = 0.02720 0.02383
#
# Static dielectric constant tensor:
#      x y z
#    x 1.781810 0.000000 0.000000 
#    y 0.000000 1.822240 0.000000 
#    z 0.000000 0.000000 1.745200 
# 
# From -- ./inp_files/2777.got.cif
#   From: 2010.05.17/outbox.cif.g08.bks.cpg/sg53_2_cif.got.tgz:2777.got - 2010.06.03 12:45:16.
