data_PCOD9417267
_publ_section_title
;
Structure prediction by ZEFSAII (Michael W. Deem and Ramdas Pophale) SiO2 
 PCOD9417267
Probable space group: P M N A
;
_chemical_formula_sum "Si O2"
_cell_formula_units_Z 56
_cell_length_a 7.843580
_cell_length_b 22.661914
_cell_length_c 15.155371
_cell_angle_alpha 90.000000
_cell_angle_beta 90.000000
_cell_angle_gamma 90.000000
_cell_volume 2693.875310
_symmetry_space_group_name_H-M "P M N A"
_symmetry_group_IT_number 53
_symmetry_cell_setting 'orthorhombic'
loop_
_space_group_symop_operation_xyz
x,y,z
1/2-x,-y,1/2+z
x,-y,-z
1/2-x,y,1/2-z
-x,-y,-z
1/2+x,y,1/2-z
-x,y,z
1/2+x,-y,1/2+z
loop_
_atom_site_type_symbol
_atom_site_label
_atom_site_fract_x
_atom_site_fract_y
_atom_site_fract_z
Si Si1 0.202176 0.749832 0.147562
Si Si2 0.205107 0.028679 0.651759
Si Si3 0.209266 0.639094 0.035049
Si Si4 0.205268 0.863981 0.464672
Si Si5 0.795107 0.604408 0.847545
Si Si6 0.204842 0.530506 0.151609
Si Si7 0.204984 0.106592 0.347242
O O1 0.250000 0.750398 0.250000
O O2 0.271707 0.693392 0.094060
O O3 0.251353 0.809334 0.097038
O O4 0.000000 0.745272 0.144275
O O5 0.250000 0.050200 0.750000
O O6 0.268373 0.075145 0.579772
O O7 0.000000 0.026141 0.643974
O O8 0.268432 0.961388 0.644537
O O9 0.264108 0.577449 0.079611
O O10 0.000000 0.639519 0.036410
O O11 0.263513 0.640404 0.932994
O O12 0.266004 0.859264 0.565803
O O13 0.000000 0.867854 0.467059
O O14 0.750000 0.626329 0.750000
O O15 0.730464 0.536617 0.856550
O O16 0.000000 0.601969 0.851336
O O17 0.250000 0.551690 0.250000
O O18 0.000000 0.527731 0.144268
O O19 0.250000 0.129162 0.250000
O O20 0.000000 0.104657 0.350027
#
# Coordination Sequence:
#
# PCOD9417267 Si02
#       7
#     8   8   8   8   8   8   8
#     4  11  23  38  55  75 101 132 168 208 248 294
#     4   9  17  30  50  76 104 133 164 202 251 302
#     4   9  18  33  52  72  97 133 170 202 242 294
#     4  10  20  35  54  75 102 136 172 208 249 297
#     4   9  17  31  51  75 101 128 162 203 247 295
#     4   9  16  28  49  75 101 129 161 200 247 297
#     4   9  18  33  53  77 104 133 166 207 253 300
#
# _framework density 20.787897000000001
#
# number of rings (size 3 to 8) (size 9 to 14) (size 15 to 20)
#    0.000    2.571    0.000    2.143    0.000    5.714 
#    0.000    3.571    0.000   11.143    0.000    0.000 
#    0.000    0.000    0.000    0.000    0.000    0.000 
#
# Total GULP energy -312480.833639 kJ/mol
# GULP energy per Si atom -5580.014886 kJ/mol
# Density = 2.074058 g / cm^3
# Si number density = 20.787897 Si / 1000 Ang^3
#
#
#
# Elastic Constant Matrix: (Units=GPa)
#
#
# Indices 1 2 3 4 5 6 
#
# 1 22.1569 3.4154 7.7863 0.0000 0.0000 0.0000
# 2 3.4154 45.6664 66.6318 0.0000 0.0000 0.0000
# 3 7.7863 66.6318 218.3219 0.0000 0.0000 0.0000
# 4 0.0000 0.0000 0.0000 33.9236 0.0000 0.0000
# 5 0.0000 0.0000 0.0000 0.0000 24.2033 0.0000
# 6 0.0000 0.0000 0.0000 0.0000 0.0000 14.4381
#
#
#
# Elastic Compliance Matrix: (Units=1/GPa)
#
#
# Indices 1 2 3 4 5 6 
#
# 1 0.045795 -0.001878 -0.001060 0.000000 0.000000 0.000000
# 2 -0.001878 0.039555 -0.012005 0.000000 0.000000 0.000000
# 3 -0.001060 -0.012005 0.008282 0.000000 0.000000 0.000000
# 4 0.000000 0.000000 0.000000 0.029478 0.000000 0.000000
# 5 0.000000 0.000000 0.000000 0.000000 0.041317 0.000000
# 6 0.000000 0.000000 0.000000 0.000000 0.000000 0.069261
#
#
# Mechanical properties :
#
#
# Convention : Reuss Voigt Hill
#
# Bulk Modulus (GPa) = 15.68754 49.09024 32.38889
# Shear Modulus (GPa) = 17.55471 28.40044 22.97758
#
# Velocity S-wave (km/s) = 2.90913 3.70023 3.32826
# Velocity P-wave (km/s) = 4.34130 6.47469 5.51219
#
# Compressibility (1/GPa) = 0.06374485
#
# Stress axis : x y z
#
# Youngs Moduli (GPa) = 21.83659 25.28110 120.74091
#
# Poissons Ratio (x) = 0.04749 0.12798
# Poissons Ratio (y) = 0.04102 1.44953
# Poissons Ratio (z) = 0.02315 0.30351
#
# Static dielectric constant tensor:
#      x y z
#    x 1.766590 0.000000 0.000000 
#    y 0.000000 1.737200 0.000000 
#    z 0.000000 0.000000 1.732780 
# 
# From -- ./inp_files/14983.got.cif
#   From: 2010.05.17/outbox.cif.g08.bks.cpg/sg53_8_cif.got.tgz:14983.got - 2010.06.03 12:45:16.
