data_PCOD9417374
_publ_section_title
;
Structure prediction by ZEFSAII (Michael W. Deem and Ramdas Pophale) SiO2 
 PCOD9417374
Probable space group: P M N A
;
_chemical_formula_sum "Si O2"
_cell_formula_units_Z 64
_cell_length_a 9.108865
_cell_length_b 20.806339
_cell_length_c 17.732168
_cell_angle_alpha 90.000000
_cell_angle_beta 90.000000
_cell_angle_gamma 90.000000
_cell_volume 3360.638304
_symmetry_space_group_name_H-M "P M N A"
_symmetry_group_IT_number 53
_symmetry_cell_setting 'orthorhombic'
loop_
_space_group_symop_operation_xyz
x,y,z
1/2-x,-y,1/2+z
x,-y,-z
1/2-x,y,1/2-z
-x,-y,-z
1/2+x,y,1/2-z
-x,y,z
1/2+x,-y,1/2+z
loop_
_atom_site_type_symbol
_atom_site_label
_atom_site_fract_x
_atom_site_fract_y
_atom_site_fract_z
Si Si1 0.323491 0.622410 0.374391
Si Si2 0.324442 0.621089 0.550562
Si Si3 0.672631 0.977216 0.672753
Si Si4 0.676801 0.107039 0.046363
Si Si5 0.177116 0.519337 0.825976
Si Si6 0.827790 0.881121 0.116084
Si Si7 0.168090 0.250689 0.448349
Si Si8 0.830648 0.247162 0.632200
O O1 0.500000 0.630610 0.369786
O O2 0.282858 0.614129 0.462874
O O3 0.281822 0.555307 0.336481
O O4 0.245561 0.686398 0.344193
O O5 0.500000 0.621894 0.552458
O O6 0.275426 0.562438 0.602944
O O7 0.265131 0.689865 0.577397
O O8 0.750000 0.956729 0.750000
O O9 0.500000 0.960929 0.672342
O O10 0.684874 0.054257 0.664308
O O11 0.752882 0.944453 0.602008
O O12 0.500000 0.100487 0.041116
O O13 0.710260 0.179121 0.076587
O O14 0.747065 0.104134 0.963278
O O15 0.250000 0.544407 0.750000
O O16 0.000000 0.522014 0.821389
O O17 0.754678 0.817957 0.152223
O O18 0.000000 0.868168 0.101774
O O19 0.173579 0.248213 0.540092
O O20 0.000000 0.262692 0.426848
O O21 0.000000 0.244569 0.655959
#
# Coordination Sequence:
#
# PCOD9417374 Si02
#       8
#     8   8   8   8   8   8   8   8
#     4   9  17  32  54  76 100 131 168 211 255 302
#     4   9  17  31  53  77  99 129 169 211 253 299
#     4  11  24  39  55  77 107 142 180 221 264 313
#     4  10  20  35  57  83 110 140 175 216 262 313
#     4  10  21  35  50  72 102 135 171 209 253 304
#     4  10  20  35  56  82 109 138 175 217 262 313
#     4   8  16  30  49  77 107 131 161 206 256 304
#     4   9  17  30  51  80 108 132 165 211 261 310
#
# _framework density 19.044
#
# number of rings (size 3 to 8) (size 9 to 14) (size 15 to 20)
#    0.000    2.500    0.000    3.000    0.000    9.500 
#    0.000    1.250    0.000    5.250    0.000    0.000 
#    0.000    0.000    0.000    0.000    0.000    0.000 
#
# Total GULP energy -357109.743540 kJ/mol
# GULP energy per Si atom -5579.839743 kJ/mol
# Density = 1.900065 g / cm^3
# Si number density = 19.044000 Si / 1000 Ang^3
#
#
#
# Elastic Constant Matrix: (Units=GPa)
#
#
# Indices 1 2 3 4 5 6 
#
# 1 63.8641 38.5076 28.9152 0.0000 0.0000 0.0000
# 2 38.5076 81.5254 17.7818 0.0000 0.0000 0.0000
# 3 28.9152 17.7818 49.9797 0.0000 0.0000 0.0000
# 4 0.0000 0.0000 0.0000 -12.6357 0.0000 0.0000
# 5 0.0000 0.0000 0.0000 0.0000 16.1897 0.0000
# 6 0.0000 0.0000 0.0000 0.0000 0.0000 25.8957
#
#
#
# Elastic Compliance Matrix: (Units=1/GPa)
#
#
# Indices 1 2 3 4 5 6 
#
# 1 0.027363 -0.010269 -0.012177 0.000000 0.000000 0.000000
# 2 -0.010269 0.017152 -0.000161 0.000000 0.000000 0.000000
# 3 -0.012177 -0.000161 0.027111 0.000000 0.000000 0.000000
# 4 0.000000 0.000000 0.000000 -0.079141 0.000000 0.000000
# 5 0.000000 0.000000 0.000000 0.000000 0.061768 0.000000
# 6 0.000000 0.000000 0.000000 0.000000 0.000000 0.038617
#
#
# Mechanical properties :
#
#
# Convention : Reuss Voigt Hill
#
# Bulk Modulus (GPa) = 37.86344 40.64206 39.25275
# Shear Modulus (GPa) = 34.03975 13.23424 23.63699
#
# Velocity S-wave (km/s) = 4.23238 2.63901 3.52686
# Velocity P-wave (km/s) = 6.61886 5.53835 6.10257
#
# Compressibility (1/GPa) = 0.02641070
#
# Stress axis : x y z
#
# Youngs Moduli (GPa) = 36.54533 58.30348 36.88599
#
# Poissons Ratio (x) = 0.59870 0.44917
# Poissons Ratio (y) = 0.37527 0.00595
# Poissons Ratio (z) = 0.44502 0.00941
#
# Static dielectric constant tensor:
#      x y z
#    x 1.642090 0.000000 0.000000 
#    y 0.000000 1.669140 0.000000 
#    z 0.000000 0.000000 1.646260 
# 
# From -- ./inp_files/26928.got.cif
#   From: 2010.05.17/outbox.cif.g08.bks.cpg/sg53_14_cif.got.tgz:26928.got - 2010.06.03 12:45:16.
