data_PCOD9417946
_publ_section_title
;
Structure prediction by ZEFSAII (Michael W. Deem and Ramdas Pophale) SiO2 
 PCOD9417946
Probable space group: P M N A
;
_chemical_formula_sum "Si O2"
_cell_formula_units_Z 64
_cell_length_a 30.239361
_cell_length_b 12.000985
_cell_length_c 9.507422
_cell_angle_alpha 90.000000
_cell_angle_beta 90.000000
_cell_angle_gamma 90.000000
_cell_volume 3450.263578
_symmetry_space_group_name_H-M "P M N A"
_symmetry_group_IT_number 53
_symmetry_cell_setting 'orthorhombic'
loop_
_space_group_symop_operation_xyz
x,y,z
1/2-x,-y,1/2+z
x,-y,-z
1/2-x,y,1/2-z
-x,-y,-z
1/2+x,y,1/2-z
-x,y,z
1/2+x,-y,1/2+z
loop_
_atom_site_type_symbol
_atom_site_label
_atom_site_fract_x
_atom_site_fract_y
_atom_site_fract_z
Si Si1 0.612752 0.733759 0.269128
Si Si2 0.052753 0.632330 0.996637
Si Si3 0.234393 0.884405 0.414561
Si Si4 0.179948 0.243959 0.997033
Si Si5 0.276782 0.443661 0.631359
Si Si6 0.614120 0.276306 0.258345
Si Si7 0.632175 0.132807 0.985032
Si Si8 0.653872 0.500763 0.163952
O O1 0.572765 0.690075 0.364513
O O2 0.647013 0.796281 0.374395
O O3 0.603571 0.816568 0.141943
O O4 0.635163 0.621907 0.205256
O O5 0.073746 0.701652 0.866290
O O6 0.000000 0.635883 0.992205
O O7 0.066285 0.500000 0.000000
O O8 0.250000 0.896481 0.250000
O O9 0.271847 0.808363 0.486781
O O10 0.184019 0.841379 0.441426
O O11 0.236284 0.000000 0.500000
O O12 0.187438 0.371725 0.952149
O O13 0.155037 0.238013 0.143137
O O14 0.252712 0.500000 0.500000
O O15 0.250000 0.373126 0.750000
O O16 0.302700 0.521387 0.740553
O O17 0.621871 0.399693 0.198365
O O18 0.615731 0.192409 0.127428
O O19 0.629137 0.000000 0.000000
O O20 0.661753 0.500000 0.000000
#
# Coordination Sequence:
#
# PCOD9417946 Si02
#       8
#     8   8   8   8   8   8   8   8
#     4  10  20  37  62  88 127 162 197 251 313 375
#     4  10  21  40  70 103 130 155 194 250 319 396
#     4  11  24  40  57  82 118 163 226 280 310 338
#     4  10  22  35  56  78 115 163 202 250 312 357
#     4  11  22  33  46  73 112 154 205 246 290 367
#     4  11  22  39  62  91 125 162 201 254 314 385
#     4  11  25  41  62  89 123 170 222 264 306 357
#     4  11  20  34  55  84 118 160 196 238 312 364
#
# _framework density 18.549306999999999
#
# number of rings (size 3 to 8) (size 9 to 14) (size 15 to 20)
#    0.000    1.375    5.000    0.750    5.250    1.000 
#    0.000    2.500    0.000    4.500    0.000    0.000 
#    0.000    0.000    0.000    0.000    0.000    0.000 
#
# Total GULP energy -356401.127291 kJ/mol
# GULP energy per Si atom -5568.767614 kJ/mol
# Density = 1.850709 g / cm^3
# Si number density = 18.549307 Si / 1000 Ang^3
#
#
#
# Elastic Constant Matrix: (Units=GPa)
#
#
# Indices 1 2 3 4 5 6 
#
# 1 72.9709 28.2016 44.2335 0.0000 0.0000 0.0000
# 2 28.2016 74.2739 43.6865 0.0000 0.0000 0.0000
# 3 44.2335 43.6865 165.7729 0.0000 0.0000 0.0000
# 4 0.0000 0.0000 0.0000 25.7153 0.0000 0.0000
# 5 0.0000 0.0000 0.0000 0.0000 3.1893 0.0000
# 6 0.0000 0.0000 0.0000 0.0000 0.0000 18.9416
#
#
#
# Elastic Compliance Matrix: (Units=1/GPa)
#
#
# Indices 1 2 3 4 5 6 
#
# 1 0.017604 -0.004641 -0.003474 0.000000 0.000000 0.000000
# 2 -0.004641 0.017157 -0.003283 0.000000 0.000000 0.000000
# 3 -0.003474 -0.003283 0.007825 0.000000 0.000000 0.000000
# 4 0.000000 0.000000 0.000000 0.038887 0.000000 0.000000
# 5 0.000000 0.000000 0.000000 0.000000 0.313553 0.000000
# 6 0.000000 0.000000 0.000000 0.000000 0.000000 0.052794
#
#
# Mechanical properties :
#
#
# Convention : Reuss Voigt Hill
#
# Bulk Modulus (GPa) = 50.53289 60.58454 55.55872
# Shear Modulus (GPa) = 10.47754 22.69562 16.58658
#
# Velocity S-wave (km/s) = 2.37923 3.50169 2.99354
# Velocity P-wave (km/s) = 5.90333 7.00581 6.47807
#
# Compressibility (1/GPa) = 0.01978909
#
# Stress axis : x y z
#
# Youngs Moduli (GPa) = 56.80659 58.28609 127.80206
#
# Poissons Ratio (x) = 0.27048 0.44402
# Poissons Ratio (y) = 0.26361 0.41959
# Poissons Ratio (z) = 0.19736 0.19136
#
# Static dielectric constant tensor:
#      x y z
#    x 1.683060 0.000000 0.000000 
#    y 0.000000 1.689250 0.000000 
#    z 0.000000 0.000000 1.727400 
# 
# From -- ./inp_files/13237.got.cif
#   From: 2010.05.17/outbox.cif.g08.bks.cpg/sg53_7_cif.got.tgz:13237.got - 2010.06.03 12:45:16.
