data_PCOD9417244
_publ_section_title
;
Structure prediction by ZEFSAII (Michael W. Deem and Ramdas Pophale) SiO2 
 PCOD9417244
Probable space group: P M N A
;
_chemical_formula_sum "Si O2"
_cell_formula_units_Z 56
_cell_length_a 9.135243
_cell_length_b 20.769618
_cell_length_c 16.028897
_cell_angle_alpha 90.000000
_cell_angle_beta 90.000000
_cell_angle_gamma 90.000000
_cell_volume 3041.250906
_symmetry_space_group_name_H-M "P M N A"
_symmetry_group_IT_number 53
_symmetry_cell_setting 'orthorhombic'
loop_
_space_group_symop_operation_xyz
x,y,z
1/2-x,-y,1/2+z
x,-y,-z
1/2-x,y,1/2-z
-x,-y,-z
1/2+x,y,1/2-z
-x,y,z
1/2+x,-y,1/2+z
loop_
_atom_site_type_symbol
_atom_site_label
_atom_site_fract_x
_atom_site_fract_y
_atom_site_fract_z
Si Si1 0.168891 0.009160 0.328440
Si Si2 0.843339 0.930029 0.956005
Si Si3 0.175552 0.741896 0.333551
Si Si4 0.825466 0.386892 0.337966
Si Si5 0.829709 0.124966 0.871008
Si Si6 0.177283 0.640805 0.476146
Si Si7 0.674054 0.540539 0.162916
O O1 0.250000 0.038144 0.250000
O O2 0.250821 0.941197 0.344484
O O3 0.000000 0.997100 0.316193
O O4 0.201563 0.059880 0.401082
O O5 0.000000 0.921398 0.910682
O O6 0.830576 0.878446 0.028514
O O7 0.854971 0.000000 0.000000
O O8 0.250000 0.713796 0.250000
O O9 0.241037 0.813325 0.342454
O O10 0.212330 0.701479 0.416801
O O11 0.000000 0.742837 0.324125
O O12 0.750000 0.367514 0.250000
O O13 0.771947 0.358157 0.427325
O O14 0.804139 0.464086 0.347558
O O15 0.000000 0.375046 0.330144
O O16 0.000000 0.125592 0.843114
O O17 0.224479 0.579786 0.418991
O O18 0.000000 0.636903 0.482000
O O19 0.750000 0.559462 0.250000
O O20 0.500000 0.552462 0.171421
#
# Coordination Sequence:
#
# PCOD9417244 Si02
#       7
#     8   8   8   8   8   8   8
#     4  11  20  30  48  74 103 131 161 197 239 288
#     4   8  16  31  49  69  94 123 155 195 241 286
#     4  11  22  35  51  72  99 131 169 208 248 297
#     4   9  17  31  51  74  98 126 164 207 251 300
#     4  10  20  35  52  70  97 130 164 201 242 290
#     4   9  18  32  50  71  98 134 170 204 246 300
#     4   9  16  28  48  73 101 132 164 201 248 301
#
# _framework density 18.413475999999999
#
# number of rings (size 3 to 8) (size 9 to 14) (size 15 to 20)
#    0.000    2.429    0.000    4.286    0.000    4.857 
#    0.000    2.857    0.000    4.286    0.000    4.000 
#    0.000    0.000    0.000    0.000    0.000    0.000 
#
# Total GULP energy -311812.913133 kJ/mol
# GULP energy per Si atom -5568.087735 kJ/mol
# Density = 1.837157 g / cm^3
# Si number density = 18.413476 Si / 1000 Ang^3
#
#
#
# Elastic Constant Matrix: (Units=GPa)
#
#
# Indices 1 2 3 4 5 6 
#
# 1 80.0197 20.2207 45.5368 0.0000 0.0000 0.0000
# 2 20.2207 35.1391 36.4298 0.0000 0.0000 0.0000
# 3 45.5368 36.4298 148.0076 0.0000 0.0000 0.0000
# 4 0.0000 0.0000 0.0000 17.7702 0.0000 0.0000
# 5 0.0000 0.0000 0.0000 0.0000 30.6034 0.0000
# 6 0.0000 0.0000 0.0000 0.0000 0.0000 26.0064
#
#
#
# Elastic Compliance Matrix: (Units=1/GPa)
#
#
# Indices 1 2 3 4 5 6 
#
# 1 0.015897 -0.005474 -0.003544 0.000000 0.000000 0.000000
# 2 -0.005474 0.040093 -0.008184 0.000000 0.000000 0.000000
# 3 -0.003544 -0.008184 0.009861 0.000000 0.000000 0.000000
# 4 0.000000 0.000000 0.000000 0.056274 0.000000 0.000000
# 5 0.000000 0.000000 0.000000 0.000000 0.032676 0.000000
# 6 0.000000 0.000000 0.000000 0.000000 0.000000 0.038452
#
#
# Mechanical properties :
#
#
# Convention : Reuss Voigt Hill
#
# Bulk Modulus (GPa) = 31.79907 51.94900 41.87404
# Shear Modulus (GPa) = 20.99615 25.60794 23.30204
#
# Velocity S-wave (km/s) = 3.38044 3.73328 3.56123
# Velocity P-wave (km/s) = 5.70468 6.84521 6.30081
#
# Compressibility (1/GPa) = 0.03144746
#
# Stress axis : x y z
#
# Youngs Moduli (GPa) = 62.90613 24.94193 101.40926
#
# Poissons Ratio (x) = 0.13653 0.35934
# Poissons Ratio (y) = 0.34435 0.82995
# Poissons Ratio (z) = 0.22291 0.20413
#
# Static dielectric constant tensor:
#      x y z
#    x 1.666790 0.000000 0.000000 
#    y 0.000000 1.628600 0.000000 
#    z 0.000000 0.000000 1.172960 
# 
# From -- ./inp_files/26724.got.cif
#   From: 2010.05.17/outbox.cif.g08.bks.cpg/sg53_14_cif.got.tgz:26724.got - 2010.06.03 12:45:16.
