data_PCOD9417735
_publ_section_title
;
Structure prediction by ZEFSAII (Michael W. Deem and Ramdas Pophale) SiO2 
 PCOD9417735
Probable space group: P M N A
;
_chemical_formula_sum "Si O2"
_cell_formula_units_Z 56
_cell_length_a 8.890216
_cell_length_b 17.955067
_cell_length_c 19.694595
_cell_angle_alpha 90.000000
_cell_angle_beta 90.000000
_cell_angle_gamma 90.000000
_cell_volume 3143.738381
_symmetry_space_group_name_H-M "P M N A"
_symmetry_group_IT_number 53
_symmetry_cell_setting 'orthorhombic'
loop_
_space_group_symop_operation_xyz
x,y,z
1/2-x,-y,1/2+z
x,-y,-z
1/2-x,y,1/2-z
-x,-y,-z
1/2+x,y,1/2-z
-x,y,z
1/2+x,-y,1/2+z
loop_
_atom_site_type_symbol
_atom_site_label
_atom_site_fract_x
_atom_site_fract_y
_atom_site_fract_z
Si Si1 0.179561 0.021435 0.921867
Si Si2 0.318783 0.560755 0.404806
Si Si3 0.180910 0.896726 0.675275
Si Si4 0.320562 0.309348 0.822354
Si Si5 0.319275 0.603235 0.559408
Si Si6 0.680750 0.239594 0.080124
Si Si7 0.181151 0.181426 0.569234
O O1 0.239890 0.104667 0.911327
O O2 0.000000 0.018118 0.912790
O O3 0.258300 0.963594 0.871448
O O4 0.214509 0.000000 0.000000
O O5 0.500000 0.564908 0.398851
O O6 0.242347 0.612318 0.349386
O O7 0.278505 0.591925 0.479886
O O8 0.275113 0.473767 0.403805
O O9 0.250000 0.900769 0.750000
O O10 0.224081 0.819469 0.637807
O O11 0.000000 0.900412 0.678430
O O12 0.250000 0.290952 0.750000
O O13 0.500000 0.312671 0.817134
O O14 0.281195 0.246621 0.877954
O O15 0.500000 0.608359 0.562288
O O16 0.248567 0.678452 0.587437
O O17 0.500000 0.245431 0.079560
O O18 0.726774 0.206599 0.006604
O O19 0.000000 0.171055 0.569271
#
# Coordination Sequence:
#
# PCOD9417735 Si02
#       7
#     8   8   8   8   8   8   8
#     4  11  23  38  61  92 120 152 196 239 285 345
#     4   9  18  34  54  82 116 150 189 233 288 342
#     4  11  24  42  63  86 119 156 191 238 295 350
#     4  11  23  38  57  82 115 155 194 238 291 347
#     4   9  18  32  56  86 115 147 187 239 287 336
#     4  10  20  36  59  87 117 151 193 240 288 341
#     4  10  21  38  59  85 116 152 196 241 290 342
#
# _framework density 17.813186999999999
#
# number of rings (size 3 to 8) (size 9 to 14) (size 15 to 20)
#    0.000    1.857    2.857    2.143    0.000    4.571 
#    0.000    3.571    0.000    1.714    0.000    0.000 
#    0.000    0.000    0.000    0.000    0.000    0.000 
#
# Total GULP energy -312732.466425 kJ/mol
# GULP energy per Si atom -5584.508329 kJ/mol
# Density = 1.777264 g / cm^3
# Si number density = 17.813187 Si / 1000 Ang^3
#
#
#
# Elastic Constant Matrix: (Units=GPa)
#
#
# Indices 1 2 3 4 5 6 
#
# 1 36.1479 50.2939 49.6558 0.0000 0.0000 0.0000
# 2 50.2939 157.4017 70.7335 0.0000 0.0000 0.0000
# 3 49.6558 70.7335 127.0456 0.0000 0.0000 0.0000
# 4 0.0000 0.0000 0.0000 25.8503 0.0000 0.0000
# 5 0.0000 0.0000 0.0000 0.0000 48.8165 0.0000
# 6 0.0000 0.0000 0.0000 0.0000 0.0000 35.9446
#
#
#
# Elastic Compliance Matrix: (Units=1/GPa)
#
#
# Indices 1 2 3 4 5 6 
#
# 1 0.080685 -0.015483 -0.022915 0.000000 0.000000 0.000000
# 2 -0.015483 0.011444 -0.000320 0.000000 0.000000 0.000000
# 3 -0.022915 -0.000320 0.017006 0.000000 0.000000 0.000000
# 4 0.000000 0.000000 0.000000 0.038684 0.000000 0.000000
# 5 0.000000 0.000000 0.000000 0.000000 0.020485 0.000000
# 6 0.000000 0.000000 0.000000 0.000000 0.000000 0.027821
#
#
# Mechanical properties :
#
#
# Convention : Reuss Voigt Hill
#
# Bulk Modulus (GPa) = 31.54783 73.55127 52.54955
# Shear Modulus (GPa) = 17.59769 32.11642 24.85706
#
# Velocity S-wave (km/s) = 3.14650 4.25073 3.73960
# Velocity P-wave (km/s) = 5.56322 8.09145 6.94338
#
# Compressibility (1/GPa) = 0.03169790
#
# Stress axis : x y z
#
# Youngs Moduli (GPa) = 12.39386 87.37992 58.80315
#
# Poissons Ratio (x) = 1.35292 1.34750
# Poissons Ratio (y) = 0.19190 0.01882
# Poissons Ratio (z) = 0.28401 0.02797
#
# Static dielectric constant tensor:
#      x y z
#    x 1.594850 0.000000 0.000000 
#    y 0.000000 1.590260 0.000000 
#    z 0.000000 0.000000 1.591230 
# 
# From -- ./inp_files/30971.got.cif
#   From: 2010.05.17/outbox.cif.g08.bks.cpg/sg53_16_cif.got.tgz:30971.got - 2010.06.03 12:45:16.
