data_PCOD9417514
_publ_section_title
;
Structure prediction by ZEFSAII (Michael W. Deem and Ramdas Pophale) SiO2 
 PCOD9417514
Probable space group: P M N A
;
_chemical_formula_sum "Si O2"
_cell_formula_units_Z 48
_cell_length_a 17.404812
_cell_length_b 17.075595
_cell_length_c 9.347375
_cell_angle_alpha 90.000000
_cell_angle_beta 90.000000
_cell_angle_gamma 90.000000
_cell_volume 2778.016676
_symmetry_space_group_name_H-M "P M N A"
_symmetry_group_IT_number 53
_symmetry_cell_setting 'orthorhombic'
loop_
_space_group_symop_operation_xyz
x,y,z
1/2-x,-y,1/2+z
x,-y,-z
1/2-x,y,1/2-z
-x,-y,-z
1/2+x,y,1/2-z
-x,y,z
1/2+x,-y,1/2+z
loop_
_atom_site_type_symbol
_atom_site_label
_atom_site_fract_x
_atom_site_fract_y
_atom_site_fract_z
Si Si1 0.246046 0.921286 0.079449
Si Si2 0.090903 0.703907 0.274697
Si Si3 0.591658 0.412751 0.519816
Si Si4 0.416096 0.847800 0.440770
Si Si5 0.692463 0.757862 0.968415
Si Si6 0.360876 0.726259 0.655074
O O1 0.250000 0.928448 0.250000
O O2 0.156499 0.903760 0.046822
O O3 0.294386 0.846668 0.023356
O O4 0.270744 0.000000 0.000000
O O5 0.115505 0.637068 0.160535
O O6 0.095261 0.787110 0.190996
O O7 0.147852 0.710566 0.408637
O O8 0.000000 0.692532 0.311731
O O9 0.623744 0.500000 0.500000
O O10 0.500000 0.418658 0.534612
O O11 0.608500 0.359483 0.381735
O O12 0.500000 0.885059 0.427873
O O13 0.412898 0.790156 0.576509
O O14 0.778048 0.730212 0.924906
O O15 0.647455 0.748573 0.819689
#
# Coordination Sequence:
#
# PCOD9417514 Si02
#       6
#     8   8   8   8   8   8
#     4  11  23  36  58  79 109 143 176 229 282 327
#     4   9  17  32  56  80 103 141 182 219 268 322
#     4   9  18  34  55  81 112 143 178 220 270 323
#     4   9  18  34  55  78 103 141 186 220 264 326
#     4  10  20  36  53  81 107 140 188 226 263 324
#     4   9  19  32  54  78 110 142 186 222 262 319
#
# _framework density 17.278514000000001
#
# number of rings (size 3 to 8) (size 9 to 14) (size 15 to 20)
#    0.000    2.500    1.667    1.500    4.667    1.667 
#    0.000    4.167    0.000    4.000    0.000    0.000 
#    0.000    0.000    0.000    0.000    0.000    0.000 
#
# Total GULP energy -267338.413535 kJ/mol
# GULP energy per Si atom -5569.550282 kJ/mol
# Density = 1.723919 g / cm^3
# Si number density = 17.278514 Si / 1000 Ang^3
#
#
#
# Elastic Constant Matrix: (Units=GPa)
#
#
# Indices 1 2 3 4 5 6 
#
# 1 40.3806 11.6841 35.1356 0.0000 0.0000 0.0000
# 2 11.6841 93.1994 45.8383 0.0000 0.0000 0.0000
# 3 35.1356 45.8383 129.5146 0.0000 0.0000 0.0000
# 4 0.0000 0.0000 0.0000 6.5903 0.0000 0.0000
# 5 0.0000 0.0000 0.0000 0.0000 -11.8388 0.0000
# 6 0.0000 0.0000 0.0000 0.0000 0.0000 -57.9691
#
#
#
# Elastic Compliance Matrix: (Units=1/GPa)
#
#
# Indices 1 2 3 4 5 6 
#
# 1 0.032424 0.000316 -0.008908 0.000000 0.000000 0.000000
# 2 0.000316 0.012994 -0.004685 0.000000 0.000000 0.000000
# 3 -0.008908 -0.004685 0.011796 0.000000 0.000000 0.000000
# 4 0.000000 0.000000 0.000000 0.151738 0.000000 0.000000
# 5 0.000000 0.000000 0.000000 0.000000 -0.084468 0.000000
# 6 0.000000 0.000000 0.000000 0.000000 0.000000 -0.017251
#
#
# Mechanical properties :
#
#
# Convention : Reuss Voigt Hill
#
# Bulk Modulus (GPa) = 32.61485 49.82340 41.21913
# Shear Modulus (GPa) = 34.72062 -1.28110 16.71976
#
# Velocity S-wave (km/s) = 4.48757 -0.86200 3.11410
# Velocity P-wave (km/s) = 6.76521 5.28274 6.06940
#
# Compressibility (1/GPa) = 0.03066088
#
# Stress axis : x y z
#
# Youngs Moduli (GPa) = 30.84144 76.95777 84.77537
#
# Poissons Ratio (x) = -0.02435 0.75520
# Poissons Ratio (y) = -0.00976 0.39715
# Poissons Ratio (z) = 0.27474 0.36053
#
# Static dielectric constant tensor:
#      x y z
#    x 1.623730 0.000000 0.000000 
#    y 0.000000 1.584130 0.000000 
#    z 0.000000 0.000000 1.587330 
# 
# From -- ./inp_files/10103.got.cif
#   From: 2010.05.17/outbox.cif.g08.bks.cpg/sg53_6_cif.got.tgz:10103.got - 2010.06.03 12:45:16.
