data_PCOD9417690
_publ_section_title
;
Structure prediction by ZEFSAII (Michael W. Deem and Ramdas Pophale) SiO2 
 PCOD9417690
Probable space group: P M N A
;
_chemical_formula_sum "Si O2"
_cell_formula_units_Z 40
_cell_length_a 8.596873
_cell_length_b 26.332657
_cell_length_c 9.355349
_cell_angle_alpha 90.000000
_cell_angle_beta 90.000000
_cell_angle_gamma 90.000000
_cell_volume 2117.849948
_symmetry_space_group_name_H-M "P M N A"
_symmetry_group_IT_number 53
_symmetry_cell_setting 'orthorhombic'
loop_
_space_group_symop_operation_xyz
x,y,z
1/2-x,-y,1/2+z
x,-y,-z
1/2-x,y,1/2-z
-x,-y,-z
1/2+x,y,1/2-z
-x,y,z
1/2+x,-y,1/2+z
loop_
_atom_site_type_symbol
_atom_site_label
_atom_site_fract_x
_atom_site_fract_y
_atom_site_fract_z
Si Si1 0.687712 0.048943 0.909673
Si Si2 0.687085 0.648962 0.089718
Si Si3 0.812240 0.450587 0.410787
Si Si4 0.685898 0.742705 0.589533
Si Si5 0.312793 0.852922 0.909521
O O1 0.750000 0.046690 0.750000
O O2 0.500000 0.048054 0.906092
O O3 0.734648 0.100963 0.988273
O O4 0.740459 0.000000 0.000000
O O5 0.750000 0.643977 0.250000
O O6 0.500000 0.651027 0.092676
O O7 0.734981 0.600274 0.994995
O O8 0.751997 0.699375 0.014858
O O9 0.760631 0.500000 0.500000
O O10 0.750000 0.451197 0.250000
O O11 0.000000 0.451362 0.405002
O O12 0.750000 0.733614 0.750000
O O13 0.500000 0.742400 0.593801
O O14 0.745767 0.798428 0.544872
O O15 0.250000 0.862798 0.750000
O O16 0.500000 0.849889 0.904811
#
# Coordination Sequence:
#
# PCOD9417690 Si02
#       5
#     8   8   8   8   8
#     4  10  22  38  57  83 113 146 185 229 277 333
#     4  11  23  39  59  85 117 152 193 237 285 339
#     4  10  22  39  60  87 117 150 189 233 282 338
#     4  11  22  38  60  85 115 151 192 236 285 338
#     4  10  20  36  58  84 114 147 188 233 280 336
#
# _framework density 18.887080000000001
#
# number of rings (size 3 to 8) (size 9 to 14) (size 15 to 20)
#    0.000    1.600    0.000    6.000    0.000    6.400 
#    0.000    2.000    0.000    0.000    0.000    0.000 
#    0.000    0.000    0.000    0.000    0.000    0.000 
#
# Total GULP energy -223632.296564 kJ/mol
# GULP energy per Si atom -5590.807414 kJ/mol
# Density = 1.884409 g / cm^3
# Si number density = 18.887080 Si / 1000 Ang^3
#
#
#
# Elastic Constant Matrix: (Units=GPa)
#
#
# Indices 1 2 3 4 5 6 
#
# 1 68.5208 54.5438 46.1794 0.0000 0.0000 0.0000
# 2 54.5438 196.2299 144.4815 0.0000 0.0000 0.0000
# 3 46.1794 144.4815 177.1004 0.0000 0.0000 0.0000
# 4 0.0000 0.0000 0.0000 43.3297 0.0000 0.0000
# 5 0.0000 0.0000 0.0000 0.0000 38.5992 0.0000
# 6 0.0000 0.0000 0.0000 0.0000 0.0000 -13.6675
#
#
#
# Elastic Compliance Matrix: (Units=1/GPa)
#
#
# Indices 1 2 3 4 5 6 
#
# 1 0.018922 -0.004074 -0.001611 0.000000 0.000000 0.000000
# 2 -0.004074 0.013639 -0.010064 0.000000 0.000000 0.000000
# 3 -0.001611 -0.010064 0.014277 0.000000 0.000000 0.000000
# 4 0.000000 0.000000 0.000000 0.023079 0.000000 0.000000
# 5 0.000000 0.000000 0.000000 0.000000 0.025907 0.000000
# 6 0.000000 0.000000 0.000000 0.000000 0.000000 -0.073166
#
#
# Mechanical properties :
#
#
# Convention : Reuss Voigt Hill
#
# Bulk Modulus (GPa) = 65.18624 103.58451 84.38538
# Shear Modulus (GPa) = 84.36054 26.76204 55.56129
#
# Velocity S-wave (km/s) = 6.69049 3.76832 5.42969
# Velocity P-wave (km/s) = 9.70939 8.59633 9.16976
#
# Compressibility (1/GPa) = 0.01534066
#
# Stress axis : x y z
#
# Youngs Moduli (GPa) = 52.84752 73.32057 70.04152
#
# Poissons Ratio (x) = 0.29869 0.11281
# Poissons Ratio (y) = 0.21529 0.70493
# Poissons Ratio (z) = 0.08512 0.73793
#
# Static dielectric constant tensor:
#      x y z
#    x 1.638120 0.000000 0.000000 
#    y 0.000000 1.648010 0.000000 
#    z 0.000000 0.000000 1.605610 
# 
# From -- ./inp_files/6279.got.cif
#   From: 2010.05.17/outbox.cif.g08.bks.cpg/sg53_4_cif.got.tgz:6279.got - 2010.06.03 12:45:16.
