data_PCOD9417142
_publ_section_title
;
Structure prediction by ZEFSAII (Michael W. Deem and Ramdas Pophale) SiO2 
 PCOD9417142
Probable space group: P M N A
;
_chemical_formula_sum "Si O2"
_cell_formula_units_Z 64
_cell_length_a 17.323101
_cell_length_b 17.566105
_cell_length_c 9.842641
_cell_angle_alpha 90.000000
_cell_angle_beta 90.000000
_cell_angle_gamma 90.000000
_cell_volume 2995.109860
_symmetry_space_group_name_H-M "P M N A"
_symmetry_group_IT_number 53
_symmetry_cell_setting 'orthorhombic'
loop_
_space_group_symop_operation_xyz
x,y,z
1/2-x,-y,1/2+z
x,-y,-z
1/2-x,y,1/2-z
-x,-y,-z
1/2+x,y,1/2-z
-x,y,z
1/2+x,-y,1/2+z
loop_
_atom_site_type_symbol
_atom_site_label
_atom_site_fract_x
_atom_site_fract_y
_atom_site_fract_z
Si Si1 0.094640 0.496228 0.343906
Si Si2 0.909363 0.579291 0.086733
Si Si3 0.825686 0.221569 0.339896
Si Si4 0.907947 0.923168 0.706534
Si Si5 0.839040 0.914761 0.004924
Si Si6 0.783427 0.209695 0.613137
Si Si7 0.907354 0.652887 0.825504
Si Si8 0.088324 0.093913 0.713242
O O1 0.120502 0.500000 0.500000
O O2 0.121594 0.561249 0.236984
O O3 0.116977 0.417158 0.271203
O O4 0.000000 0.498702 0.345079
O O5 0.000000 0.597832 0.106229
O O6 0.907049 0.500000 0.000000
O O7 0.876923 0.640306 0.979407
O O8 0.750000 0.208651 0.250000
O O9 0.865901 0.141972 0.376978
O O10 0.806883 0.260111 0.484351
O O11 0.880901 0.271150 0.246450
O O12 0.000000 0.917108 0.699744
O O13 0.887266 0.009284 0.666045
O O14 0.878129 0.905819 0.859001
O O15 0.778520 0.850353 0.049251
O O16 0.903105 0.913281 0.123339
O O17 0.803430 0.000000 0.000000
O O18 0.750000 0.246812 0.750000
O O19 0.855105 0.159696 0.666423
O O20 0.000000 0.650438 0.832955
O O21 0.000000 0.107459 0.673771
#
# Coordination Sequence:
#
# PCOD9417142 Si02
#       8
#     8   8   8   8   8   8   8   8
#     4   8  13  25  52  85 112 138 177 224 268 316
#     4   7  11  23  46  76 109 139 168 210 261 310
#     4  12  24  37  54  74 107 149 192 226 278 346
#     4  10  20  34  55  83 109 136 182 241 294 343
#     4   9  17  32  56  78 103 137 179 231 289 351
#     4  10  22  38  56  74 103 147 192 233 288 357
#     4   9  18  33  52  79 111 143 178 222 275 326
#     4   9  19  33  54  82 109 134 173 239 306 356
#
# _framework density 21.368164
#
# number of rings (size 3 to 8) (size 9 to 14) (size 15 to 20)
#    0.000    2.750    1.250    2.250    1.750    3.000 
#    0.000    2.500    0.000    2.250    0.000    0.000 
#    0.000    0.000    0.000    0.000    0.000    0.000 
#
# Total GULP energy -356822.942100 kJ/mol
# GULP energy per Si atom -5575.358470 kJ/mol
# Density = 2.131953 g / cm^3
# Si number density = 21.368164 Si / 1000 Ang^3
#
#
#
# Elastic Constant Matrix: (Units=GPa)
#
#
# Indices 1 2 3 4 5 6 
#
# 1 30.7643 3.2056 8.6513 0.0000 0.0000 0.0000
# 2 3.2056 20.1870 7.4680 0.0000 0.0000 0.0000
# 3 8.6513 7.4680 142.1617 0.0000 0.0000 0.0000
# 4 0.0000 0.0000 0.0000 17.3870 0.0000 0.0000
# 5 0.0000 0.0000 0.0000 0.0000 -17.2557 0.0000
# 6 0.0000 0.0000 0.0000 0.0000 0.0000 -14.6232
#
#
#
# Elastic Compliance Matrix: (Units=1/GPa)
#
#
# Indices 1 2 3 4 5 6 
#
# 1 0.033495 -0.004655 -0.001794 0.000000 0.000000 0.000000
# 2 -0.004655 0.051166 -0.002405 0.000000 0.000000 0.000000
# 3 -0.001794 -0.002405 0.007270 0.000000 0.000000 0.000000
# 4 0.000000 0.000000 0.000000 0.057514 0.000000 0.000000
# 5 0.000000 0.000000 0.000000 0.000000 -0.057952 0.000000
# 6 0.000000 0.000000 0.000000 0.000000 0.000000 -0.068385
#
#
# Mechanical properties :
#
#
# Convention : Reuss Voigt Hill
#
# Bulk Modulus (GPa) = 13.47290 25.75142 19.61216
# Shear Modulus (GPa) = 76.27064 8.68749 42.47906
#
# Velocity S-wave (km/s) = 5.98089 2.01853 4.46349
# Velocity P-wave (km/s) = 7.34939 4.18450 5.98012
#
# Compressibility (1/GPa) = 0.07422305
#
# Stress axis : x y z
#
# Youngs Moduli (GPa) = 29.85543 19.54438 137.55692
#
# Poissons Ratio (x) = 0.09098 0.24675
# Poissons Ratio (y) = 0.13898 0.33076
# Poissons Ratio (z) = 0.05355 0.04700
#
# Static dielectric constant tensor:
#      x y z
#    x 1.752550 0.000000 0.000000 
#    y 0.000000 1.809370 0.000000 
#    z 0.000000 0.000000 1.837930 
# 
# From -- ./inp_files/10212.got.cif
#   From: 2010.05.17/outbox.cif.g08.bks.cpg/sg53_6_cif.got.tgz:10212.got - 2010.06.03 12:45:16.
