data_PCOD9417239
_publ_section_title
;
Structure prediction by ZEFSAII (Michael W. Deem and Ramdas Pophale) SiO2 
 PCOD9417239
Probable space group: P M N A
;
_chemical_formula_sum "Si O2"
_cell_formula_units_Z 32
_cell_length_a 21.411831
_cell_length_b 8.658882
_cell_length_c 7.652322
_cell_angle_alpha 90.000000
_cell_angle_beta 90.000000
_cell_angle_gamma 90.000000
_cell_volume 1418.759768
_symmetry_space_group_name_H-M "P M N A"
_symmetry_group_IT_number 53
_symmetry_cell_setting 'orthorhombic'
loop_
_space_group_symop_operation_xyz
x,y,z
1/2-x,-y,1/2+z
x,-y,-z
1/2-x,y,1/2-z
-x,-y,-z
1/2+x,y,1/2-z
-x,y,z
1/2+x,-y,1/2+z
loop_
_atom_site_type_symbol
_atom_site_label
_atom_site_fract_x
_atom_site_fract_y
_atom_site_fract_z
Si Si1 0.929109 0.666183 0.962553
Si Si2 0.590343 0.325753 0.054286
Si Si3 0.189848 0.877399 0.639711
Si Si4 0.927982 0.086918 0.757160
O O1 0.931101 0.687999 0.755164
O O2 0.000000 0.653503 0.030956
O O3 0.897836 0.500000 0.000000
O O4 0.906076 0.810084 0.077127
O O5 0.663076 0.280648 0.061803
O O6 0.577017 0.500000 0.000000
O O7 0.567052 0.201978 0.910830
O O8 0.250000 0.841554 0.750000
O O9 0.212838 0.000000 0.500000
O O10 0.127979 0.966141 0.718230
O O11 0.000000 0.026813 0.785115
#
# Coordination Sequence:
#
# PCOD9417239 Si02
#       4
#     8   8   8   8
#     4  10  20  34  60  96 132 170 208 262 328 380
#     4  11  22  39  63  94 130 171 213 268 329 393
#     4  10  25  45  67  92 128 173 219 273 335 392
#     4  10  22  41  65  98 131 168 219 272 328 392
#
# _framework density 22.554908999999999
#
# number of rings (size 3 to 8) (size 9 to 14) (size 15 to 20)
#    0.000    1.750    2.500    0.750    3.500    6.500 
#    0.000    8.750    0.000    0.000    0.000    0.000 
#    0.000    0.000    0.000    0.000    0.000    0.000 
#
# Total GULP energy -178409.899020 kJ/mol
# GULP energy per Si atom -5575.309344 kJ/mol
# Density = 2.250357 g / cm^3
# Si number density = 22.554909 Si / 1000 Ang^3
#
#
#
# Elastic Constant Matrix: (Units=GPa)
#
#
# Indices 1 2 3 4 5 6 
#
# 1 81.4695 10.7659 3.0399 0.0000 0.0000 0.0000
# 2 10.7659 85.7616 15.1000 0.0000 0.0000 0.0000
# 3 3.0399 15.1000 121.2700 0.0000 0.0000 0.0000
# 4 0.0000 0.0000 0.0000 36.1780 0.0000 0.0000
# 5 0.0000 0.0000 0.0000 0.0000 31.1799 0.0000
# 6 0.0000 0.0000 0.0000 0.0000 0.0000 -1.6689
#
#
#
# Elastic Compliance Matrix: (Units=1/GPa)
#
#
# Indices 1 2 3 4 5 6 
#
# 1 0.012483 -0.001546 -0.000120 0.000000 0.000000 0.000000
# 2 -0.001546 0.012113 -0.001470 0.000000 0.000000 0.000000
# 3 -0.000120 -0.001470 0.008432 0.000000 0.000000 0.000000
# 4 0.000000 0.000000 0.000000 0.027641 0.000000 0.000000
# 5 0.000000 0.000000 0.000000 0.000000 0.032072 0.000000
# 6 0.000000 0.000000 0.000000 0.000000 0.000000 -0.599213
#
#
# Mechanical properties :
#
#
# Convention : Reuss Voigt Hill
#
# Bulk Modulus (GPa) = 37.37371 38.47919 37.92645
# Shear Modulus (GPa) = -10.17747 30.44418 10.13335
#
# Velocity S-wave (km/s) = -2.12652 3.67792 2.12191
# Velocity P-wave (km/s) = 3.25217 5.92734 4.78069
#
# Compressibility (1/GPa) = 0.02675677
#
# Stress axis : x y z
#
# Youngs Moduli (GPa) = 80.10698 82.55575 118.59505
#
# Poissons Ratio (x) = 0.12762 0.01428
# Poissons Ratio (y) = 0.12383 0.17428
# Poissons Ratio (z) = 0.00965 0.12132
#
# Static dielectric constant tensor:
#      x y z
#    x 1.821720 0.000000 0.000000 
#    y 0.000000 1.939740 0.000000 
#    z 0.000000 0.000000 1.906600 
# 
# From -- ./inp_files/10442.got.cif
#   From: 2010.05.17/outbox.cif.g08.bks.cpg/sg53_6_cif.got.tgz:10442.got - 2010.06.03 12:45:16.
