data_PCOD9417996
_publ_section_title
;
Structure prediction by ZEFSAII (Michael W. Deem and Ramdas Pophale) SiO2 
 PCOD9417996
Probable space group: P M N A
;
_chemical_formula_sum "Si O2"
_cell_formula_units_Z 48
_cell_length_a 9.350069
_cell_length_b 30.115069
_cell_length_c 9.191959
_cell_angle_alpha 90.000000
_cell_angle_beta 90.000000
_cell_angle_gamma 90.000000
_cell_volume 2588.253184
_symmetry_space_group_name_H-M "P M N A"
_symmetry_group_IT_number 53
_symmetry_cell_setting 'orthorhombic'
loop_
_space_group_symop_operation_xyz
x,y,z
1/2-x,-y,1/2+z
x,-y,-z
1/2-x,y,1/2-z
-x,-y,-z
1/2+x,y,1/2-z
-x,y,z
1/2+x,-y,1/2+z
loop_
_atom_site_type_symbol
_atom_site_label
_atom_site_fract_x
_atom_site_fract_y
_atom_site_fract_z
Si Si1 0.500000 0.544976 0.587189
Si Si2 0.173741 0.297630 0.905540
Si Si3 0.823924 0.793003 0.409655
Si Si4 0.743592 0.613246 0.576782
Si Si5 0.500000 0.450660 0.065977
Si Si6 0.672069 0.130380 0.404648
Si Si7 0.831112 0.041664 0.902628
O O1 0.500000 0.500000 0.500000
O O2 0.626974 0.576637 0.546660
O O3 0.500000 0.539495 0.760937
O O4 0.250000 0.304876 0.750000
O O5 0.256205 0.253805 0.963125
O O6 0.000000 0.291245 0.894437
O O7 0.209286 0.340712 0.000106
O O8 0.750000 0.799396 0.250000
O O9 0.759527 0.831004 0.512589
O O10 0.000000 0.792666 0.402381
O O11 0.750000 0.621632 0.750000
O O12 0.875518 0.583592 0.528752
O O13 0.500000 0.500000 0.000000
O O14 0.750000 0.123583 0.250000
O O15 0.500000 0.139993 0.389514
O O16 0.684927 0.086214 0.502725
O O17 0.750000 0.044598 0.750000
O O18 0.000000 0.035363 0.872964
O O19 0.781388 0.000000 0.000000
#
# Coordination Sequence:
#
# PCOD9417996 Si02
#       7
#     4   8   8   8   4   8   8
#     4  10  20  38  58  82 116 150 190 236 289 342
#     4  11  23  40  62  90 120 154 198 247 298 357
#     4  11  23  41  64  90 122 159 202 253 308 368
#     4  10  22  39  59  84 117 154 190 237 293 351
#     4  10  22  36  58  86 114 150 194 238 287 352
#     4  11  23  40  62  91 127 165 211 261 311 371
#     4  10  22  39  61  91 126 167 213 262 316 372
#
# _framework density 18.545324999999998
#
# number of rings (size 3 to 8) (size 9 to 14) (size 15 to 20)
#    0.000    1.500    0.833    5.000    2.333    5.000 
#    0.000    1.667    0.000    0.000    0.000    0.000 
#    0.000    0.000    0.000    0.000    0.000    0.000 
#
# Total GULP energy -267441.295249 kJ/mol
# GULP energy per Si atom -5571.693651 kJ/mol
# Density = 1.850311 g / cm^3
# Si number density = 18.545325 Si / 1000 Ang^3
#
#
#
# Elastic Constant Matrix: (Units=GPa)
#
#
# Indices 1 2 3 4 5 6 
#
# 1 197.7171 80.3512 62.5107 0.0000 0.0000 0.0000
# 2 80.3512 155.7793 73.2428 0.0000 0.0000 0.0000
# 3 62.5107 73.2428 87.7671 0.0000 0.0000 0.0000
# 4 0.0000 0.0000 0.0000 43.2560 0.0000 0.0000
# 5 0.0000 0.0000 0.0000 0.0000 27.9645 0.0000
# 6 0.0000 0.0000 0.0000 0.0000 0.0000 26.9755
#
#
#
# Elastic Compliance Matrix: (Units=1/GPa)
#
#
# Indices 1 2 3 4 5 6 
#
# 1 0.006906 -0.002056 -0.003203 0.000000 0.000000 0.000000
# 2 -0.002056 0.011177 -0.007863 0.000000 0.000000 0.000000
# 3 -0.003203 -0.007863 0.020236 0.000000 0.000000 0.000000
# 4 0.000000 0.000000 0.000000 0.023118 0.000000 0.000000
# 5 0.000000 0.000000 0.000000 0.000000 0.035760 0.000000
# 6 0.000000 0.000000 0.000000 0.000000 0.000000 0.037071
#
#
# Mechanical properties :
#
#
# Convention : Reuss Voigt Hill
#
# Bulk Modulus (GPa) = 82.80952 97.05254 89.93103
# Shear Modulus (GPa) = 30.38854 34.64979 32.51916
#
# Velocity S-wave (km/s) = 4.05237 4.32717 4.19202
# Velocity P-wave (km/s) = 8.16364 8.79841 8.48696
#
# Compressibility (1/GPa) = 0.01207591
#
# Stress axis : x y z
#
# Youngs Moduli (GPa) = 144.80241 89.47152 49.41633
#
# Poissons Ratio (x) = 0.18398 0.15826
# Poissons Ratio (y) = 0.29776 0.38854
# Poissons Ratio (z) = 0.46375 0.70348
#
# Static dielectric constant tensor:
#      x y z
#    x 1.616350 0.000000 0.000000 
#    y 0.000000 1.612890 0.000000 
#    z 0.000000 0.000000 1.619880 
# 
# From -- ./inp_files/6857.got.cif
#   From: 2010.05.17/outbox.cif.g08.bks.cpg/sg53_4_cif.got.tgz:6857.got - 2010.06.03 12:45:16.
