data_PCOD9417162
_publ_section_title
;
Structure prediction by ZEFSAII (Michael W. Deem and Ramdas Pophale) SiO2 
 PCOD9417162
Probable space group: P M N A
;
_chemical_formula_sum "Si O2"
_cell_formula_units_Z 56
_cell_length_a 15.853267
_cell_length_b 9.564452
_cell_length_c 21.129573
_cell_angle_alpha 90.000000
_cell_angle_beta 90.000000
_cell_angle_gamma 90.000000
_cell_volume 3203.830907
_symmetry_space_group_name_H-M "P M N A"
_symmetry_group_IT_number 53
_symmetry_cell_setting 'orthorhombic'
loop_
_space_group_symop_operation_xyz
x,y,z
1/2-x,-y,1/2+z
x,-y,-z
1/2-x,y,1/2-z
-x,-y,-z
1/2+x,y,1/2-z
-x,y,z
1/2+x,-y,1/2+z
loop_
_atom_site_type_symbol
_atom_site_label
_atom_site_fract_x
_atom_site_fract_y
_atom_site_fract_z
Si Si1 0.757222 0.007905 0.677954
Si Si2 0.277163 0.552891 0.822406
Si Si3 0.679132 0.790577 0.602162
Si Si4 0.736474 0.719017 0.092601
Si Si5 0.405702 0.786383 0.845222
Si Si6 0.594013 0.665867 0.486501
Si Si7 0.346110 0.156844 0.021929
O O1 0.750000 0.052706 0.750000
O O2 0.765237 0.139618 0.632798
O O3 0.677899 0.913497 0.654012
O O4 0.839592 0.907624 0.673953
O O5 0.250000 0.530214 0.750000
O O6 0.211775 0.654542 0.859866
O O7 0.281856 0.411948 0.862653
O O8 0.363652 0.641598 0.823402
O O9 0.607146 0.746602 0.553389
O O10 0.754209 0.844293 0.555795
O O11 0.828481 0.702283 0.059796
O O12 0.667677 0.740525 0.037018
O O13 0.500000 0.807089 0.821477
O O14 0.404780 0.789869 0.921866
O O15 0.600186 0.500000 0.500000
O O16 0.500000 0.695769 0.461477
O O17 0.367762 0.000000 0.000000
#
# Coordination Sequence:
#
# PCOD9417162 Si02
#       7
#     8   8   8   8   8   8   8
#     4  10  20  37  59  80 109 149 193 221 269 337
#     4  10  20  36  56  79 106 149 191 219 265 329
#     4   9  17  32  54  76 104 143 184 220 263 330
#     4  11  19  35  58  84 110 146 184 226 271 343
#     4  10  21  37  57  83 110 141 186 236 276 320
#     4  10  20  34  55  85 116 144 179 236 288 322
#     4   9  16  32  54  79 105 141 172 218 275 329
#
# _framework density 17.479075999999999
#
# number of rings (size 3 to 8) (size 9 to 14) (size 15 to 20)
#    0.000    2.429    4.286    2.143    0.000    0.286 
#    0.000    7.857    0.000    0.000    0.000    0.000 
#    0.000    0.000    0.000    0.000    0.000    0.000 
#
# Total GULP energy -311793.182959 kJ/mol
# GULP energy per Si atom -5567.735410 kJ/mol
# Density = 1.743929 g / cm^3
# Si number density = 17.479076 Si / 1000 Ang^3
#
#
#
# Elastic Constant Matrix: (Units=GPa)
#
#
# Indices 1 2 3 4 5 6 
#
# 1 71.4168 1.1582 2.9548 0.0000 0.0000 0.0000
# 2 1.1582 54.7749 5.3759 0.0000 0.0000 0.0000
# 3 2.9548 5.3759 75.0148 0.0000 0.0000 0.0000
# 4 0.0000 0.0000 0.0000 20.5730 0.0000 0.0000
# 5 0.0000 0.0000 0.0000 0.0000 0.4945 0.0000
# 6 0.0000 0.0000 0.0000 0.0000 0.0000 5.1105
#
#
#
# Elastic Compliance Matrix: (Units=1/GPa)
#
#
# Indices 1 2 3 4 5 6 
#
# 1 0.014028 -0.000244 -0.000535 0.000000 0.000000 0.000000
# 2 -0.000244 0.018390 -0.001308 0.000000 0.000000 0.000000
# 3 -0.000535 -0.001308 0.013446 0.000000 0.000000 0.000000
# 4 0.000000 0.000000 0.000000 0.048607 0.000000 0.000000
# 5 0.000000 0.000000 0.000000 0.000000 2.022287 0.000000
# 6 0.000000 0.000000 0.000000 0.000000 0.000000 0.195675
#
#
# Mechanical properties :
#
#
# Convention : Reuss Voigt Hill
#
# Bulk Modulus (GPa) = 23.98712 24.46493 24.22603
# Shear Modulus (GPa) = 2.14546 18.01678 10.08112
#
# Velocity S-wave (km/s) = 1.10910 3.21403 2.40417
# Velocity P-wave (km/s) = 3.92343 5.27261 4.64724
#
# Compressibility (1/GPa) = 0.04168904
#
# Stress axis : x y z
#
# Youngs Moduli (GPa) = 71.28395 54.37710 74.37407
#
# Poissons Ratio (x) = 0.01327 0.03980
# Poissons Ratio (y) = 0.01740 0.09730
# Poissons Ratio (z) = 0.03814 0.07114
#
# Static dielectric constant tensor:
#      x y z
#    x 1.592170 0.000000 0.000000 
#    y 0.000000 1.592250 0.000000 
#    z 0.000000 0.000000 1.625930 
# 
# From -- ./inp_files/32767.got.cif
#   From: 2010.05.17/outbox.cif.g08.bks.cpg/sg53_17_cif.got.tgz:32767.got - 2010.06.03 12:45:16.
