data_PCOD9417384
_publ_section_title
;
Structure prediction by ZEFSAII (Michael W. Deem and Ramdas Pophale) SiO2 
 PCOD9417384
Probable space group: P M N A
;
_chemical_formula_sum "Si O2"
_cell_formula_units_Z 36
_cell_length_a 20.506446
_cell_length_b 17.288033
_cell_length_c 5.279070
_cell_angle_alpha 90.000000
_cell_angle_beta 90.000000
_cell_angle_gamma 90.000000
_cell_volume 1871.515388
_symmetry_space_group_name_H-M "P M N A"
_symmetry_group_IT_number 53
_symmetry_cell_setting 'orthorhombic'
loop_
_space_group_symop_operation_xyz
x,y,z
1/2-x,-y,1/2+z
x,-y,-z
1/2-x,y,1/2-z
-x,-y,-z
1/2+x,y,1/2-z
-x,y,z
1/2+x,-y,1/2+z
loop_
_atom_site_type_symbol
_atom_site_label
_atom_site_fract_x
_atom_site_fract_y
_atom_site_fract_z
Si Si1 0.750000 0.801214 0.250000
Si Si2 0.183725 0.924073 0.623965
Si Si3 0.078612 0.451727 0.748689
Si Si4 0.116985 0.723912 0.203892
Si Si5 0.073789 0.188885 0.278563
O O1 0.785357 0.858341 0.445097
O O2 0.691751 0.748132 0.350240
O O3 0.250000 0.955338 0.750000
O O4 0.127327 0.878389 0.772385
O O5 0.152824 0.000000 0.500000
O O6 0.097358 0.500000 0.500000
O O7 0.109241 0.366931 0.754725
O O8 0.000000 0.441626 0.743166
O O9 0.095055 0.500000 0.000000
O O10 0.091843 0.768074 0.457288
O O11 0.078361 0.752247 0.956211
O O12 0.000000 0.159039 0.298093
#
# Coordination Sequence:
#
# PCOD9417384 Si02
#       5
#     4   8   8   8   8
#     4  10  22  38  60  86 114 160 206 244 294 362
#     4  11  21  38  62  86 120 161 207 250 302 365
#     4  10  20  35  56  83 115 153 195 240 297 359
#     4  11  22  39  62  87 122 157 201 249 299 360
#     4  11  23  38  61  91 122 158 202 254 306 355
#
# _framework density 19.235749999999999
#
# number of rings (size 3 to 8) (size 9 to 14) (size 15 to 20)
#    0.000    1.333    3.333    3.333    0.000    2.222 
#    0.000    1.111    0.000    4.667    0.000    0.000 
#    0.000    0.000    0.000    0.000    0.000    0.000 
#
# Total GULP energy -200810.263517 kJ/mol
# GULP energy per Si atom -5578.062875 kJ/mol
# Density = 1.919197 g / cm^3
# Si number density = 19.235750 Si / 1000 Ang^3
#
#
#
# Elastic Constant Matrix: (Units=GPa)
#
#
# Indices 1 2 3 4 5 6 
#
# 1 98.4928 36.6758 18.6401 0.0000 0.0000 0.0000
# 2 36.6758 119.1860 32.0465 0.0000 0.0000 0.0000
# 3 18.6401 32.0465 97.7326 0.0000 0.0000 0.0000
# 4 0.0000 0.0000 0.0000 31.3410 0.0000 0.0000
# 5 0.0000 0.0000 0.0000 0.0000 -1.2052 0.0000
# 6 0.0000 0.0000 0.0000 0.0000 0.0000 16.2796
#
#
#
# Elastic Compliance Matrix: (Units=1/GPa)
#
#
# Indices 1 2 3 4 5 6 
#
# 1 0.011582 -0.003257 -0.001141 0.000000 0.000000 0.000000
# 2 -0.003257 0.010118 -0.002696 0.000000 0.000000 0.000000
# 3 -0.001141 -0.002696 0.011334 0.000000 0.000000 0.000000
# 4 0.000000 0.000000 0.000000 0.031907 0.000000 0.000000
# 5 0.000000 0.000000 0.000000 0.000000 -0.829734 0.000000
# 6 0.000000 0.000000 0.000000 0.000000 0.000000 0.061427
#
#
# Mechanical properties :
#
#
# Convention : Reuss Voigt Hill
#
# Bulk Modulus (GPa) = 53.06657 54.45959 53.76308
# Shear Modulus (GPa) = -7.32174 24.48633 8.58230
#
# Velocity S-wave (km/s) = -1.95310 3.57173 2.11455
# Velocity P-wave (km/s) = 4.74987 6.73667 5.82855
#
# Compressibility (1/GPa) = 0.01884425
#
# Stress axis : x y z
#
# Youngs Moduli (GPa) = 86.34212 98.83847 88.23224
#
# Poissons Ratio (x) = 0.32194 0.10067
# Poissons Ratio (y) = 0.28123 0.23790
# Poissons Ratio (z) = 0.09851 0.26650
#
# Static dielectric constant tensor:
#      x y z
#    x 1.689030 0.000000 0.000000 
#    y 0.000000 1.667800 0.000000 
#    z 0.000000 0.000000 1.847560 
# 
# From -- ./inp_files/2755.got.cif
#   From: 2010.05.17/outbox.cif.g08.bks.cpg/sg53_2_cif.got.tgz:2755.got - 2010.06.03 12:45:16.
