data_PCOD9417276
_publ_section_title
;
Structure prediction by ZEFSAII (Michael W. Deem and Ramdas Pophale) SiO2 
 PCOD9417276
Probable space group: P M N A
;
_chemical_formula_sum "Si O2"
_cell_formula_units_Z 48
_cell_length_a 8.612496
_cell_length_b 18.083738
_cell_length_c 16.074260
_cell_angle_alpha 90.000000
_cell_angle_beta 90.000000
_cell_angle_gamma 90.000000
_cell_volume 2503.503646
_symmetry_space_group_name_H-M "P M N A"
_symmetry_group_IT_number 53
_symmetry_cell_setting 'orthorhombic'
loop_
_space_group_symop_operation_xyz
x,y,z
1/2-x,-y,1/2+z
x,-y,-z
1/2-x,y,1/2-z
-x,-y,-z
1/2+x,y,1/2-z
-x,y,z
1/2+x,-y,1/2+z
loop_
_atom_site_type_symbol
_atom_site_label
_atom_site_fract_x
_atom_site_fract_y
_atom_site_fract_z
Si Si1 0.686871 0.182808 0.655008
Si Si2 0.315695 0.346058 0.157775
Si Si3 0.312120 0.818444 0.844276
Si Si4 0.812284 0.346729 0.842913
Si Si5 0.312201 0.086036 0.996339
Si Si6 0.827591 0.495968 0.097516
O O1 0.750000 0.172120 0.750000
O O2 0.500000 0.179942 0.659773
O O3 0.733692 0.265798 0.623416
O O4 0.746751 0.125376 0.586321
O O5 0.250000 0.350884 0.250000
O O6 0.500000 0.345489 0.158478
O O7 0.264248 0.264764 0.127414
O O8 0.260456 0.420518 0.114826
O O9 0.250000 0.831680 0.750000
O O10 0.500000 0.821083 0.838903
O O11 0.262541 0.873936 0.917528
O O12 0.750000 0.344864 0.750000
O O13 0.754658 0.425217 0.877727
O O14 0.000000 0.349315 0.847356
O O15 0.500000 0.090867 0.992382
O O16 0.268225 0.000000 0.000000
O O17 0.000000 0.490179 0.137579
O O18 0.845602 0.500000 0.000000
#
# Coordination Sequence:
#
# PCOD9417276 Si02
#       6
#     8   8   8   8   8   8
#     4  10  21  38  61  87 116 152 194 236 284 341
#     4  10  20  35  54  77 105 141 185 228 274 327
#     4   9  20  38  59  84 114 150 190 233 284 339
#     4   9  19  35  53  76 104 142 185 226 273 323
#     4  10  22  40  61  87 119 151 185 234 291 344
#     4  10  21  34  50  76 111 146 182 226 274 322
#
# _framework density 19.17313
#
# number of rings (size 3 to 8) (size 9 to 14) (size 15 to 20)
#    0.000    2.333    0.000    1.500    2.333    5.333 
#    0.000    1.667    0.000    0.000    0.000    0.000 
#    0.000    0.000    0.000    0.000    0.000    0.000 
#
# Total GULP energy -267361.107175 kJ/mol
# GULP energy per Si atom -5570.023066 kJ/mol
# Density = 1.912949 g / cm^3
# Si number density = 19.173130 Si / 1000 Ang^3
#
#
#
# Elastic Constant Matrix: (Units=GPa)
#
#
# Indices 1 2 3 4 5 6 
#
# 1 22.7613 43.7047 22.1651 0.0000 0.0000 0.0000
# 2 43.7047 208.3108 103.2522 0.0000 0.0000 0.0000
# 3 22.1651 103.2522 95.6795 0.0000 0.0000 0.0000
# 4 0.0000 0.0000 0.0000 46.7206 0.0000 0.0000
# 5 0.0000 0.0000 0.0000 0.0000 22.7282 0.0000
# 6 0.0000 0.0000 0.0000 0.0000 0.0000 23.4948
#
#
#
# Elastic Compliance Matrix: (Units=1/GPa)
#
#
# Indices 1 2 3 4 5 6 
#
# 1 0.073605 -0.015031 -0.000831 0.000000 0.000000 0.000000
# 2 -0.015031 0.013391 -0.010969 0.000000 0.000000 0.000000
# 3 -0.000831 -0.010969 0.022481 0.000000 0.000000 0.000000
# 4 0.000000 0.000000 0.000000 0.021404 0.000000 0.000000
# 5 0.000000 0.000000 0.000000 0.000000 0.043998 0.000000
# 6 0.000000 0.000000 0.000000 0.000000 0.000000 0.042563
#
#
# Mechanical properties :
#
#
# Convention : Reuss Voigt Hill
#
# Bulk Modulus (GPa) = 17.91611 73.88841 45.90226
# Shear Modulus (GPa) = 17.25886 29.09737 23.17811
#
# Velocity S-wave (km/s) = 3.00352 3.89988 3.48067
# Velocity P-wave (km/s) = 4.62524 7.67463 6.33612
#
# Compressibility (1/GPa) = 0.05581568
#
# Stress axis : x y z
#
# Youngs Moduli (GPa) = 13.58613 74.67804 44.48251
#
# Poissons Ratio (x) = 1.12247 0.03695
# Poissons Ratio (y) = 0.20421 0.48791
# Poissons Ratio (z) = 0.01129 0.81911
#
# Static dielectric constant tensor:
#      x y z
#    x 1.764700 0.000000 0.000000 
#    y 0.000000 1.765730 0.000000 
#    z 0.000000 0.000000 1.629230 
# 
# From -- ./inp_files/20225.got.cif
#   From: 2010.05.17/outbox.cif.g08.bks.cpg/sg53_11_cif.got.tgz:20225.got - 2010.06.03 12:45:16.
