data_PCOD9417231
_publ_section_title
;
Structure prediction by ZEFSAII (Michael W. Deem and Ramdas Pophale) SiO2 
 PCOD9417231
Probable space group: P M N A
;
_chemical_formula_sum "Si O2"
_cell_formula_units_Z 64
_cell_length_a 24.072701
_cell_length_b 15.132140
_cell_length_c 9.469616
_cell_angle_alpha 90.000000
_cell_angle_beta 90.000000
_cell_angle_gamma 90.000000
_cell_volume 3449.511052
_symmetry_space_group_name_H-M "P M N A"
_symmetry_group_IT_number 53
_symmetry_cell_setting 'orthorhombic'
loop_
_space_group_symop_operation_xyz
x,y,z
1/2-x,-y,1/2+z
x,-y,-z
1/2-x,y,1/2-z
-x,-y,-z
1/2+x,y,1/2-z
-x,y,z
1/2+x,-y,1/2+z
loop_
_atom_site_type_symbol
_atom_site_label
_atom_site_fract_x
_atom_site_fract_y
_atom_site_fract_z
Si Si1 0.434595 0.309330 0.261428
Si Si2 0.638946 0.725367 0.467249
Si Si3 0.119064 0.511015 0.661858
Si Si4 0.562667 0.813866 0.990133
Si Si5 0.209555 0.436359 0.876221
Si Si6 0.939682 0.667369 0.277846
Si Si7 0.674611 0.911386 0.092453
Si Si8 0.801665 0.094724 0.923717
O O1 0.500000 0.325925 0.280843
O O2 0.402347 0.297356 0.406793
O O3 0.406980 0.393082 0.184004
O O4 0.428778 0.220407 0.168595
O O5 0.686024 0.650439 0.452865
O O6 0.605513 0.711824 0.322138
O O7 0.662350 0.823880 0.481170
O O8 0.139558 0.500000 0.500000
O O9 0.163113 0.490784 0.786811
O O10 0.074611 0.433059 0.686255
O O11 0.500000 0.855840 0.002744
O O12 0.559269 0.724537 0.081246
O O13 0.617491 0.863104 0.047285
O O14 0.250000 0.408275 0.750000
O O15 0.231560 0.500000 0.000000
O O16 0.000000 0.672380 0.208239
O O17 0.678757 0.921448 0.261901
O O18 0.736983 0.873908 0.063421
O O19 0.673537 0.000000 0.000000
O O20 0.806908 0.000000 0.000000
#
# Coordination Sequence:
#
# PCOD9417231 Si02
#       8
#     8   8   8   8   8   8   8   8
#     4  11  23  39  61  91 128 164 212 266 312 369
#     4  11  23  41  63  89 125 163 207 253 324 375
#     4  11  21  37  58  86 123 164 209 259 303 358
#     4  10  21  38  61  92 124 162 204 251 314 374
#     4  11  24  42  60  89 125 167 209 254 308 378
#     4  10  20  34  59  86 117 162 206 249 301 366
#     4  10  22  42  67  91 122 153 203 259 311 376
#     4  10  23  42  66  94 121 159 206 261 316 377
#
# _framework density 18.553356000000001
#
# number of rings (size 3 to 8) (size 9 to 14) (size 15 to 20)
#    0.000    1.500    3.750    1.125    3.500    0.750 
#    2.250    1.875    0.000    1.875    0.000    0.000 
#    0.000    0.000    0.000    0.000    0.000    0.000 
#
# Total GULP energy -356562.738010 kJ/mol
# GULP energy per Si atom -5571.292781 kJ/mol
# Density = 1.851113 g / cm^3
# Si number density = 18.553356 Si / 1000 Ang^3
#
#
#
# Elastic Constant Matrix: (Units=GPa)
#
#
# Indices 1 2 3 4 5 6 
#
# 1 92.4056 41.1487 23.8805 0.0000 0.0000 0.0000
# 2 41.1487 61.8132 22.1494 0.0000 0.0000 0.0000
# 3 23.8805 22.1494 84.7403 0.0000 0.0000 0.0000
# 4 0.0000 0.0000 0.0000 23.8065 0.0000 0.0000
# 5 0.0000 0.0000 0.0000 0.0000 18.3390 0.0000
# 6 0.0000 0.0000 0.0000 0.0000 0.0000 32.2566
#
#
#
# Elastic Compliance Matrix: (Units=1/GPa)
#
#
# Indices 1 2 3 4 5 6 
#
# 1 0.015643 -0.009747 -0.001861 0.000000 0.000000 0.000000
# 2 -0.009747 0.023922 -0.003506 0.000000 0.000000 0.000000
# 3 -0.001861 -0.003506 0.013242 0.000000 0.000000 0.000000
# 4 0.000000 0.000000 0.000000 0.042005 0.000000 0.000000
# 5 0.000000 0.000000 0.000000 0.000000 0.054529 0.000000
# 6 0.000000 0.000000 0.000000 0.000000 0.000000 0.031001
#
#
# Mechanical properties :
#
#
# Convention : Reuss Voigt Hill
#
# Bulk Modulus (GPa) = 44.28726 45.92403 45.10565
# Shear Modulus (GPa) = 22.92566 24.99910 23.96238
#
# Velocity S-wave (km/s) = 3.51901 3.67470 3.59770
# Velocity P-wave (km/s) = 6.35872 6.54299 6.45151
#
# Compressibility (1/GPa) = 0.02257986
#
# Stress axis : x y z
#
# Youngs Moduli (GPa) = 63.92641 41.80175 75.51983
#
# Poissons Ratio (x) = 0.40743 0.14052
# Poissons Ratio (y) = 0.62307 0.26478
# Poissons Ratio (z) = 0.11895 0.14656
#
# Static dielectric constant tensor:
#      x y z
#    x 1.680350 0.000000 0.000000 
#    y 0.000000 1.606110 0.000000 
#    z 0.000000 0.000000 1.626980 
# 
# From -- ./inp_files/11930.got.cif
#   From: 2010.05.17/outbox.cif.g08.bks.cpg/sg53_6_cif.got.tgz:11930.got - 2010.06.03 12:45:16.
