data_PCOD9417652
_publ_section_title
;
Structure prediction by ZEFSAII (Michael W. Deem and Ramdas Pophale) SiO2 
 PCOD9417652
Probable space group: P M N A
;
_chemical_formula_sum "Si O2"
_cell_formula_units_Z 40
_cell_length_a 8.701379
_cell_length_b 26.124163
_cell_length_c 9.774387
_cell_angle_alpha 90.000000
_cell_angle_beta 90.000000
_cell_angle_gamma 90.000000
_cell_volume 2221.876934
_symmetry_space_group_name_H-M "P M N A"
_symmetry_group_IT_number 53
_symmetry_cell_setting 'orthorhombic'
loop_
_space_group_symop_operation_xyz
x,y,z
1/2-x,-y,1/2+z
x,-y,-z
1/2-x,y,1/2-z
-x,-y,-z
1/2+x,y,1/2-z
-x,y,z
1/2+x,-y,1/2+z
loop_
_atom_site_type_symbol
_atom_site_label
_atom_site_fract_x
_atom_site_fract_y
_atom_site_fract_z
Si Si1 0.684481 0.251064 0.403012
Si Si2 0.815287 0.338410 0.597545
Si Si3 0.184331 0.843267 0.098312
Si Si4 0.315624 0.953538 0.099248
Si Si5 0.185111 0.544718 0.400161
O O1 0.750000 0.249536 0.250000
O O2 0.500000 0.253899 0.397255
O O3 0.748402 0.299050 0.488370
O O4 0.727031 0.200503 0.490349
O O5 0.750000 0.328148 0.750000
O O6 0.772653 0.397085 0.560184
O O7 0.000000 0.334337 0.602017
O O8 0.250000 0.831917 0.250000
O O9 0.248586 0.898646 0.055416
O O10 0.000000 0.845735 0.108262
O O11 0.250000 0.963483 0.250000
O O12 0.500000 0.949831 0.105365
O O13 0.273136 0.000000 0.000000
O O14 0.239905 0.500000 0.500000
O O15 0.250000 0.535675 0.250000
O O16 0.000000 0.542959 0.395523
#
# Coordination Sequence:
#
# PCOD9417652 Si02
#       5
#     8   8   8   8   8
#     4  11  24  39  56  81 111 143 180 225 276 324
#     4  10  20  36  58  81 108 144 184 224 268 323
#     4  10  21  37  58  81 106 141 181 220 265 318
#     4  10  21  36  56  82 110 142 179 219 264 314
#     4   9  19  35  54  79 109 141 179 221 266 317
#
# _framework density 18.002797999999999
#
# number of rings (size 3 to 8) (size 9 to 14) (size 15 to 20)
#    0.000    2.000    0.000    4.200    0.000    9.200 
#    0.000    6.000    0.000    0.000    0.000    0.000 
#    0.000    0.000    0.000    0.000    0.000    0.000 
#
# Total GULP energy -223378.207485 kJ/mol
# GULP energy per Si atom -5584.455187 kJ/mol
# Density = 1.796182 g / cm^3
# Si number density = 18.002798 Si / 1000 Ang^3
#
#
#
# Elastic Constant Matrix: (Units=GPa)
#
#
# Indices 1 2 3 4 5 6 
#
# 1 50.9586 62.7306 52.0763 0.0000 0.0000 0.0000
# 2 62.7306 192.8476 143.8415 0.0000 0.0000 0.0000
# 3 52.0763 143.8415 139.5599 0.0000 0.0000 0.0000
# 4 0.0000 0.0000 0.0000 37.5169 0.0000 0.0000
# 5 0.0000 0.0000 0.0000 0.0000 31.0784 0.0000
# 6 0.0000 0.0000 0.0000 0.0000 0.0000 27.1681
#
#
#
# Elastic Compliance Matrix: (Units=1/GPa)
#
#
# Indices 1 2 3 4 5 6 
#
# 1 0.033685 -0.006841 -0.005518 0.000000 0.000000 0.000000
# 2 -0.006841 0.023814 -0.021992 0.000000 0.000000 0.000000
# 3 -0.005518 -0.021992 0.031891 0.000000 0.000000 0.000000
# 4 0.000000 0.000000 0.000000 0.026655 0.000000 0.000000
# 5 0.000000 0.000000 0.000000 0.000000 0.032177 0.000000
# 6 0.000000 0.000000 0.000000 0.000000 0.000000 0.036808
#
#
# Mechanical properties :
#
#
# Convention : Reuss Voigt Hill
#
# Bulk Modulus (GPa) = 48.33930 100.07366 74.20648
# Shear Modulus (GPa) = 19.18441 27.46721 23.32581
#
# Velocity S-wave (km/s) = 3.26795 3.91028 3.60346
# Velocity P-wave (km/s) = 6.41472 8.72328 7.65651
#
# Compressibility (1/GPa) = 0.02068710
#
# Stress axis : x y z
#
# Youngs Moduli (GPa) = 29.68719 41.99152 31.35642
#
# Poissons Ratio (x) = 0.28727 0.17303
# Poissons Ratio (y) = 0.20309 0.68960
# Poissons Ratio (z) = 0.16382 0.92349
#
# Static dielectric constant tensor:
#      x y z
#    x 1.606020 0.000000 0.000000 
#    y 0.000000 1.622430 0.000000 
#    z 0.000000 0.000000 1.574990 
# 
# From -- ./inp_files/6313.got.cif
#   From: 2010.05.17/outbox.cif.g08.bks.cpg/sg53_4_cif.got.tgz:6313.got - 2010.06.03 12:45:16.
