data_PCOD9417272
_publ_section_title
;
Structure prediction by ZEFSAII (Michael W. Deem and Ramdas Pophale) SiO2 
 PCOD9417272
Probable space group: P M N A
;
_chemical_formula_sum "Si O2"
_cell_formula_units_Z 48
_cell_length_a 8.421558
_cell_length_b 12.260737
_cell_length_c 26.654863
_cell_angle_alpha 90.000000
_cell_angle_beta 90.000000
_cell_angle_gamma 90.000000
_cell_volume 2752.234759
_symmetry_space_group_name_H-M "P M N A"
_symmetry_group_IT_number 53
_symmetry_cell_setting 'orthorhombic'
loop_
_space_group_symop_operation_xyz
x,y,z
1/2-x,-y,1/2+z
x,-y,-z
1/2-x,y,1/2-z
-x,-y,-z
1/2+x,y,1/2-z
-x,y,z
1/2+x,-y,1/2+z
loop_
_atom_site_type_symbol
_atom_site_label
_atom_site_fract_x
_atom_site_fract_y
_atom_site_fract_z
Si Si1 0.812010 0.468367 0.056710
Si Si2 0.685247 0.229087 0.071893
Si Si3 0.315371 0.153324 0.530621
Si Si4 0.188516 0.672809 0.393274
Si Si5 0.307410 0.009536 0.113304
Si Si6 0.309906 0.831987 0.193648
O O1 0.777028 0.342601 0.068599
O O2 0.727420 0.547713 0.096342
O O3 0.000000 0.488079 0.058507
O O4 0.756975 0.500000 0.000000
O O5 0.500000 0.253376 0.079507
O O6 0.737631 0.136662 0.111611
O O7 0.710256 0.170219 0.018379
O O8 0.500000 0.145706 0.516651
O O9 0.284149 0.259074 0.565107
O O10 0.264543 0.052676 0.565319
O O11 0.233739 0.726184 0.339954
O O12 0.000000 0.692575 0.400523
O O13 0.500000 0.004009 0.109487
O O14 0.257731 0.938271 0.161540
O O15 0.250000 0.829363 0.250000
O O16 0.500000 0.835461 0.195330
#
# Coordination Sequence:
#
# PCOD9417272 Si02
#       6
#     8   8   8   8   8   8
#     4  11  22  34  50  76 109 141 178 222 260 304
#     4  11  21  33  51  71 101 145 182 211 250 307
#     4  11  20  30  47  74 106 138 173 215 258 301
#     4  10  20  35  54  76 104 140 180 215 255 312
#     4   9  20  36  51  73 103 136 175 213 254 311
#     4   9  19  36  58  82 104 128 166 217 268 316
#
# _framework density 17.440372
#
# number of rings (size 3 to 8) (size 9 to 14) (size 15 to 20)
#    0.000    1.833    1.667    4.500    0.000    7.333 
#    0.000    0.000    0.000    1.000    0.000    2.333 
#    0.000    0.000    0.000    0.000    0.000    0.000 
#
# Total GULP energy -267843.054115 kJ/mol
# GULP energy per Si atom -5580.063627 kJ/mol
# Density = 1.740068 g / cm^3
# Si number density = 17.440372 Si / 1000 Ang^3
#
#
#
# Elastic Constant Matrix: (Units=GPa)
#
#
# Indices 1 2 3 4 5 6 
#
# 1 25.4059 13.5550 6.2943 0.0000 0.0000 0.0000
# 2 13.5550 118.3780 49.5694 0.0000 0.0000 0.0000
# 3 6.2943 49.5694 90.7804 0.0000 0.0000 0.0000
# 4 0.0000 0.0000 0.0000 8.2066 0.0000 0.0000
# 5 0.0000 0.0000 0.0000 0.0000 22.4679 0.0000
# 6 0.0000 0.0000 0.0000 0.0000 0.0000 20.2975
#
#
#
# Elastic Compliance Matrix: (Units=1/GPa)
#
#
# Indices 1 2 3 4 5 6 
#
# 1 0.041932 -0.004646 -0.000370 0.000000 0.000000 0.000000
# 2 -0.004646 0.011466 -0.005939 0.000000 0.000000 0.000000
# 3 -0.000370 -0.005939 0.014284 0.000000 0.000000 0.000000
# 4 0.000000 0.000000 0.000000 0.121854 0.000000 0.000000
# 5 0.000000 0.000000 0.000000 0.000000 0.044508 0.000000
# 6 0.000000 0.000000 0.000000 0.000000 0.000000 0.049267
#
#
# Mechanical properties :
#
#
# Convention : Reuss Voigt Hill
#
# Bulk Modulus (GPa) = 21.84788 41.48907 31.66848
# Shear Modulus (GPa) = 15.60164 21.20410 18.40287
#
# Velocity S-wave (km/s) = 2.99418 3.49062 3.25189
# Velocity P-wave (km/s) = 4.95054 6.33140 5.68307
#
# Compressibility (1/GPa) = 0.04577104
#
# Stress axis : x y z
#
# Youngs Moduli (GPa) = 23.84835 87.21129 70.00780
#
# Poissons Ratio (x) = 0.40522 0.02592
# Poissons Ratio (y) = 0.11081 0.41577
# Poissons Ratio (z) = 0.00883 0.51794
#
# Static dielectric constant tensor:
#      x y z
#    x 1.587360 0.000000 0.000000 
#    y 0.000000 1.634240 0.000000 
#    z 0.000000 0.000000 1.578110 
# 
# From -- ./inp_files/33867.got.cif
#   From: 2010.05.17/outbox.cif.g08.bks.cpg/sg53_17_cif.got.tgz:33867.got - 2010.06.03 12:45:16.
