data_PCOD9417366
_publ_section_title
;
Structure prediction by ZEFSAII (Michael W. Deem and Ramdas Pophale) SiO2 
 PCOD9417366
Probable space group: P M N A
;
_chemical_formula_sum "Si O2"
_cell_formula_units_Z 56
_cell_length_a 9.530221
_cell_length_b 18.825013
_cell_length_c 16.110650
_cell_angle_alpha 90.000000
_cell_angle_beta 90.000000
_cell_angle_gamma 90.000000
_cell_volume 2890.355880
_symmetry_space_group_name_H-M "P M N A"
_symmetry_group_IT_number 53
_symmetry_cell_setting 'orthorhombic'
loop_
_space_group_symop_operation_xyz
x,y,z
1/2-x,-y,1/2+z
x,-y,-z
1/2-x,y,1/2-z
-x,-y,-z
1/2+x,y,1/2-z
-x,y,z
1/2+x,-y,1/2+z
loop_
_atom_site_type_symbol
_atom_site_label
_atom_site_fract_x
_atom_site_fract_y
_atom_site_fract_z
Si Si1 0.335063 0.037269 0.909480
Si Si2 0.168070 0.657676 0.331160
Si Si3 0.160747 0.081490 0.175353
Si Si4 0.162798 0.415124 0.492390
Si Si5 0.832780 0.798223 0.417101
Si Si6 0.843419 0.220769 0.073236
Si Si7 0.665576 0.360300 0.333641
O O1 0.500000 0.033753 0.885807
O O2 0.289558 0.119615 0.907479
O O3 0.237457 0.990097 0.851538
O O4 0.324812 0.000000 0.000000
O O5 0.250000 0.631671 0.250000
O O6 0.202415 0.617585 0.417652
O O7 0.204220 0.740813 0.347271
O O8 0.000000 0.651237 0.319025
O O9 0.250000 0.112900 0.250000
O O10 0.164240 0.139973 0.103421
O O11 0.000000 0.069214 0.198658
O O12 0.165965 0.500000 0.500000
O O13 0.261957 0.392811 0.415991
O O14 0.000000 0.393212 0.475645
O O15 0.769317 0.768998 0.502315
O O16 0.000000 0.798873 0.423929
O O17 0.825474 0.275562 0.148424
O O18 0.000000 0.233920 0.038990
O O19 0.750000 0.378697 0.250000
O O20 0.500000 0.378851 0.327376
#
# Coordination Sequence:
#
# PCOD9417366 Si02
#       7
#     8   8   8   8   8   8   8
#     4  10  20  35  56  81 109 146 193 244 301 361
#     4  10  22  40  63  90 121 159 202 248 300 356
#     4  11  23  37  54  79 113 150 192 242 298 355
#     4  10  22  42  67  95 127 161 200 248 302 361
#     4  10  20  36  60  86 113 151 199 249 302 357
#     4  10  21  36  57  86 116 152 198 246 298 355
#     4  11  23  39  62  93 127 163 203 249 300 358
#
# _framework density 19.374777999999999
#
# number of rings (size 3 to 8) (size 9 to 14) (size 15 to 20)
#    0.000    1.714    2.857    1.286    0.000    4.571 
#    0.000    2.857    0.000    0.000    0.000    0.000 
#    0.000    0.000    0.000    0.000    0.000    0.000 
#
# Total GULP energy -312427.606561 kJ/mol
# GULP energy per Si atom -5579.064403 kJ/mol
# Density = 1.933068 g / cm^3
# Si number density = 19.374778 Si / 1000 Ang^3
#
#
#
# Elastic Constant Matrix: (Units=GPa)
#
#
# Indices 1 2 3 4 5 6 
#
# 1 79.4049 30.9927 66.3780 0.0000 0.0000 0.0000
# 2 30.9927 81.0713 33.3011 0.0000 0.0000 0.0000
# 3 66.3780 33.3011 119.5823 0.0000 0.0000 0.0000
# 4 0.0000 0.0000 0.0000 15.9117 0.0000 0.0000
# 5 0.0000 0.0000 0.0000 0.0000 35.9391 0.0000
# 6 0.0000 0.0000 0.0000 0.0000 0.0000 22.3943
#
#
#
# Elastic Compliance Matrix: (Units=1/GPa)
#
#
# Indices 1 2 3 4 5 6 
#
# 1 0.024764 -0.004314 -0.012545 0.000000 0.000000 0.000000
# 2 -0.004314 0.014680 -0.001693 0.000000 0.000000 0.000000
# 3 -0.012545 -0.001693 0.015797 0.000000 0.000000 0.000000
# 4 0.000000 0.000000 0.000000 0.062847 0.000000 0.000000
# 5 0.000000 0.000000 0.000000 0.000000 0.027825 0.000000
# 6 0.000000 0.000000 0.000000 0.000000 0.000000 0.044654
#
#
# Mechanical properties :
#
#
# Convention : Reuss Voigt Hill
#
# Bulk Modulus (GPa) = 55.13642 60.15578 57.64610
# Shear Modulus (GPa) = 21.39338 24.80815 23.10077
#
# Velocity S-wave (km/s) = 3.32654 3.58220 3.45673
# Velocity P-wave (km/s) = 6.57830 6.94445 6.76386
#
# Compressibility (1/GPa) = 0.01813683
#
# Stress axis : x y z
#
# Youngs Moduli (GPa) = 40.38072 68.12176 63.30174
#
# Poissons Ratio (x) = 0.29389 0.79411
# Poissons Ratio (y) = 0.17421 0.10718
# Poissons Ratio (z) = 0.50657 0.11535
#
# Static dielectric constant tensor:
#      x y z
#    x 1.659400 0.000000 0.000000 
#    y 0.000000 1.709580 0.000000 
#    z 0.000000 0.000000 1.673880 
# 
# From -- ./inp_files/20503.got.cif
#   From: 2010.05.17/outbox.cif.g08.bks.cpg/sg53_11_cif.got.tgz:20503.got - 2010.06.03 12:45:16.
