data_PCOD9417983
_publ_section_title
;
Structure prediction by ZEFSAII (Michael W. Deem and Ramdas Pophale) SiO2 
 PCOD9417983
Probable space group: P M N A
;
_chemical_formula_sum "Si O2"
_cell_formula_units_Z 44
_cell_length_a 28.374415
_cell_length_b 9.335768
_cell_length_c 7.449056
_cell_angle_alpha 90.000000
_cell_angle_beta 90.000000
_cell_angle_gamma 90.000000
_cell_volume 1973.232256
_symmetry_space_group_name_H-M "P M N A"
_symmetry_group_IT_number 53
_symmetry_cell_setting 'orthorhombic'
loop_
_space_group_symop_operation_xyz
x,y,z
1/2-x,-y,1/2+z
x,-y,-z
1/2-x,y,1/2-z
-x,-y,-z
1/2+x,y,1/2-z
-x,y,z
1/2+x,-y,1/2+z
loop_
_atom_site_type_symbol
_atom_site_label
_atom_site_fract_x
_atom_site_fract_y
_atom_site_fract_z
Si Si1 0.102407 0.759464 0.581772
Si Si2 0.750000 0.881448 0.250000
Si Si3 0.602861 0.171965 0.499577
Si Si4 0.810415 0.637880 0.129091
Si Si5 0.825915 0.000000 0.500000
Si Si6 0.500000 0.169869 0.484123
Si Si7 0.664854 0.500000 0.000000
Si Si8 0.500000 0.831360 0.944955
O O1 0.138763 0.867727 0.489955
O O2 0.129266 0.612067 0.584928
O O3 0.050419 0.767526 0.497477
O O4 0.100185 0.803931 0.787638
O O5 0.773318 0.769138 0.109580
O O6 0.709345 0.979366 0.166531
O O7 0.640532 0.278723 0.588361
O O8 0.550123 0.212087 0.567334
O O9 0.612591 0.000000 0.500000
O O10 0.808453 0.575675 0.333597
O O11 0.804596 0.500000 0.000000
O O12 0.500000 0.195928 0.270315
O O13 0.500000 0.000000 0.500000
O O14 0.500000 0.000000 0.000000
#
# Coordination Sequence:
#
# PCOD9417983 Si02
#       8
#     8   4   8   8   4   4   4   4
#     4  11  23  43  70 103 149 183 238 290 356 430
#     4  12  30  44  74 104 134 180 248 300 360 410
#     4  10  21  41  71 101 138 180 232 289 349 411
#     4  12  27  49  72  99 139 190 231 292 359 425
#     4  12  26  45  70 104 136 181 240 308 346 422
#     4   8  18  34  61 100 134 176 222 273 344 412
#     4  12  26  47  70 104 148 192 232 283 356 436
#     4  10  20  37  68 106 142 190 227 292 358 417
#
# _framework density 22.298441
#
# number of rings (size 3 to 8) (size 9 to 14) (size 15 to 20)
#    0.000    1.091    4.545    1.091    5.091    1.818 
#    0.000    1.364    0.000    0.000    0.000    0.000 
#    0.000    0.000    0.000    0.000    0.000    0.000 
#
# Total GULP energy -245451.584067 kJ/mol
# GULP energy per Si atom -5578.445092 kJ/mol
# Density = 2.224769 g / cm^3
# Si number density = 22.298441 Si / 1000 Ang^3
#
#
#
# Elastic Constant Matrix: (Units=GPa)
#
#
# Indices 1 2 3 4 5 6 
#
# 1 121.1408 -7.5138 -4.2637 0.0000 0.0000 0.0000
# 2 -7.5138 33.0359 -15.2299 0.0000 0.0000 0.0000
# 3 -4.2637 -15.2299 76.1169 0.0000 0.0000 0.0000
# 4 0.0000 0.0000 0.0000 43.6805 0.0000 0.0000
# 5 0.0000 0.0000 0.0000 0.0000 92.9225 0.0000
# 6 0.0000 0.0000 0.0000 0.0000 0.0000 -19.5036
#
#
#
# Elastic Compliance Matrix: (Units=1/GPa)
#
#
# Indices 1 2 3 4 5 6 
#
# 1 0.008434 0.002353 0.000943 0.000000 0.000000 0.000000
# 2 0.002353 0.034002 0.006935 0.000000 0.000000 0.000000
# 3 0.000943 0.006935 0.014578 0.000000 0.000000 0.000000
# 4 0.000000 0.000000 0.000000 0.022894 0.000000 0.000000
# 5 0.000000 0.000000 0.000000 0.000000 0.010762 0.000000
# 6 0.000000 0.000000 0.000000 0.000000 0.000000 -0.051273
#
#
# Mechanical properties :
#
#
# Convention : Reuss Voigt Hill
#
# Bulk Modulus (GPa) = 12.90692 19.58653 16.24672
# Shear Modulus (GPa) = 111.70683 40.57327 76.14005
#
# Velocity S-wave (km/s) = 7.08555 4.27025 5.84979
# Velocity P-wave (km/s) = 8.52882 5.75468 7.27520
#
# Compressibility (1/GPa) = 0.07747785
#
# Stress axis : x y z
#
# Youngs Moduli (GPa) = 118.56756 29.40961 68.59573
#
# Poissons Ratio (x) = -0.06920 -0.06470
# Poissons Ratio (y) = -0.27900 -0.47573
# Poissons Ratio (z) = -0.11184 -0.20396
#
# Static dielectric constant tensor:
#      x y z
#    x 1.897390 0.000000 0.000000 
#    y 0.000000 1.721660 0.000000 
#    z 0.000000 0.000000 1.836730 
# 
# From -- ./inp_files/12956.got.cif
#   From: 2010.05.17/outbox.cif.g08.bks.cpg/sg53_7_cif.got.tgz:12956.got - 2010.06.03 12:45:16.
