data_PCOD9417339
_publ_section_title
;
Structure prediction by ZEFSAII (Michael W. Deem and Ramdas Pophale) SiO2 
 PCOD9417339
Probable space group: P M N A
;
_chemical_formula_sum "Si O2"
_cell_formula_units_Z 64
_cell_length_a 16.880065
_cell_length_b 16.208801
_cell_length_c 12.830806
_cell_angle_alpha 90.000000
_cell_angle_beta 90.000000
_cell_angle_gamma 90.000000
_cell_volume 3510.580560
_symmetry_space_group_name_H-M "P M N A"
_symmetry_group_IT_number 53
_symmetry_cell_setting 'orthorhombic'
loop_
_space_group_symop_operation_xyz
x,y,z
1/2-x,-y,1/2+z
x,-y,-z
1/2-x,y,1/2-z
-x,-y,-z
1/2+x,y,1/2-z
-x,y,z
1/2+x,-y,1/2+z
loop_
_atom_site_type_symbol
_atom_site_label
_atom_site_fract_x
_atom_site_fract_y
_atom_site_fract_z
Si Si1 0.406366 0.598641 0.503516
Si Si2 0.155552 0.345163 0.227872
Si Si3 0.666415 0.251255 0.978258
Si Si4 0.091175 0.830287 0.292665
Si Si5 0.333865 0.167683 0.197321
Si Si6 0.405371 0.582377 0.936153
Si Si7 0.405069 0.001463 0.121612
Si Si8 0.691895 0.300211 0.662192
O O1 0.399190 0.500000 0.500000
O O2 0.500000 0.619780 0.502874
O O3 0.366719 0.629645 0.611090
O O4 0.362205 0.638283 0.404161
O O5 0.250000 0.346312 0.250000
O O6 0.129836 0.249485 0.247331
O O7 0.117263 0.406410 0.314142
O O8 0.599458 0.210804 0.906644
O O9 0.747301 0.256614 0.915486
O O10 0.680304 0.199837 0.081044
O O11 0.638699 0.342087 0.009052
O O12 0.123911 0.922207 0.312614
O O13 0.139964 0.770131 0.217847
O O14 0.000000 0.833717 0.259288
O O15 0.250000 0.148556 0.250000
O O16 0.384078 0.085254 0.181794
O O17 0.500000 0.591374 0.944437
O O18 0.383150 0.500000 0.000000
O O19 0.500000 0.993146 0.116081
O O20 0.376635 0.000000 0.000000
O O21 0.750000 0.340054 0.750000
#
# Coordination Sequence:
#
# PCOD9417339 Si02
#       8
#     8   8   8   8   8   8   8   8
#     4  11  24  41  60  84 116 154 198 244 293 351
#     4  10  22  39  60  85 116 156 197 239 291 352
#     4  10  20  35  55  82 113 148 186 234 287 340
#     4  10  20  36  57  81 111 147 188 234 285 341
#     4  10  20  35  56  82 114 145 185 229 282 341
#     4  10  21  36  57  87 119 152 195 244 295 347
#     4  10  20  35  57  86 114 145 185 232 286 345
#     4  10  22  38  58  83 113 151 195 239 295 348
#
# _framework density 18.230602999999999
#
# number of rings (size 3 to 8) (size 9 to 14) (size 15 to 20)
#    0.000    1.875    1.250    3.375    0.000    8.500 
#    0.000    2.500    0.000    0.000    0.000    7.875 
#    0.000    0.000    0.000    0.000    0.000    0.000 
#
# Total GULP energy -356929.189971 kJ/mol
# GULP energy per Si atom -5577.018593 kJ/mol
# Density = 1.818911 g / cm^3
# Si number density = 18.230603 Si / 1000 Ang^3
#
#
#
# Elastic Constant Matrix: (Units=GPa)
#
#
# Indices 1 2 3 4 5 6 
#
# 1 70.5711 43.3587 42.3904 0.0000 0.0000 0.0000
# 2 43.3587 101.0283 67.3675 0.0000 0.0000 0.0000
# 3 42.3904 67.3675 111.8459 0.0000 0.0000 0.0000
# 4 0.0000 0.0000 0.0000 16.3561 0.0000 0.0000
# 5 0.0000 0.0000 0.0000 0.0000 22.0430 0.0000
# 6 0.0000 0.0000 0.0000 0.0000 0.0000 14.5668
#
#
#
# Elastic Compliance Matrix: (Units=1/GPa)
#
#
# Indices 1 2 3 4 5 6 
#
# 1 0.020305 -0.005988 -0.004089 0.000000 0.000000 0.000000
# 2 -0.005988 0.018308 -0.008758 0.000000 0.000000 0.000000
# 3 -0.004089 -0.008758 0.015766 0.000000 0.000000 0.000000
# 4 0.000000 0.000000 0.000000 0.061139 0.000000 0.000000
# 5 0.000000 0.000000 0.000000 0.000000 0.045366 0.000000
# 6 0.000000 0.000000 0.000000 0.000000 0.000000 0.068649
#
#
# Mechanical properties :
#
#
# Convention : Reuss Voigt Hill
#
# Bulk Modulus (GPa) = 59.84722 65.51983 62.68353
# Shear Modulus (GPa) = 18.33024 19.28175 18.80600
#
# Velocity S-wave (km/s) = 3.17435 3.25569 3.21528
# Velocity P-wave (km/s) = 6.80694 7.08168 6.94567
#
# Compressibility (1/GPa) = 0.01670921
#
# Stress axis : x y z
#
# Youngs Moduli (GPa) = 49.24828 54.62123 63.42814
#
# Poissons Ratio (x) = 0.32705 0.25938
# Poissons Ratio (y) = 0.29488 0.55550
# Poissons Ratio (z) = 0.20139 0.47837
#
# Static dielectric constant tensor:
#      x y z
#    x 1.628200 0.000000 0.000000 
#    y 0.000000 1.637990 0.000000 
#    z 0.000000 0.000000 1.647690 
# 
# From -- ./inp_files/17101.got.cif
#   From: 2010.05.17/outbox.cif.g08.bks.cpg/sg53_9_cif.got.tgz:17101.got - 2010.06.03 12:45:16.
