data_PCOD9417388
_publ_section_title
;
Structure prediction by ZEFSAII (Michael W. Deem and Ramdas Pophale) SiO2 
 PCOD9417388
Probable space group: P M N A
;
_chemical_formula_sum "Si O2"
_cell_formula_units_Z 56
_cell_length_a 25.260861
_cell_length_b 5.489812
_cell_length_c 20.574718
_cell_angle_alpha 90.000000
_cell_angle_beta 90.000000
_cell_angle_gamma 90.000000
_cell_volume 2853.247942
_symmetry_space_group_name_H-M "P M N A"
_symmetry_group_IT_number 53
_symmetry_cell_setting 'orthorhombic'
loop_
_space_group_symop_operation_xyz
x,y,z
1/2-x,-y,1/2+z
x,-y,-z
1/2-x,y,1/2-z
-x,-y,-z
1/2+x,y,1/2-z
-x,y,z
1/2+x,-y,1/2+z
loop_
_atom_site_type_symbol
_atom_site_label
_atom_site_fract_x
_atom_site_fract_y
_atom_site_fract_z
Si Si1 0.191298 0.187047 0.766837
Si Si2 0.559713 0.280492 0.245637
Si Si3 0.719479 0.244724 0.460718
Si Si4 0.440138 0.957595 0.898509
Si Si5 0.840503 0.700850 0.830071
Si Si6 0.615562 0.337487 0.835086
Si Si7 0.161528 0.327155 0.437084
O O1 0.250000 0.262169 0.750000
O O2 0.169694 0.422764 0.806492
O O3 0.154606 0.159368 0.703104
O O4 0.193424 0.922865 0.799646
O O5 0.500000 0.273401 0.269369
O O6 0.561575 0.126617 0.177912
O O7 0.601310 0.226986 0.302670
O O8 0.577305 0.541823 0.217551
O O9 0.720917 0.500000 0.500000
O O10 0.676269 0.284041 0.404634
O O11 0.780593 0.204279 0.436603
O O12 0.706025 0.000000 0.500000
O O13 0.500000 0.918792 0.921875
O O14 0.391931 0.833137 0.936346
O O15 0.422227 0.235745 0.891266
O O16 0.654829 0.524716 0.870127
O O17 0.160465 0.500000 0.500000
#
# Coordination Sequence:
#
# PCOD9417388 Si02
#       7
#     8   8   8   8   8   8   8
#     4  11  22  34  58  91 125 154 192 255 310 364
#     4   9  19  37  58  89 124 156 194 243 306 370
#     4  11  25  43  65  87 121 161 201 252 299 357
#     4  10  20  35  57  82 114 153 199 254 301 347
#     4  11  22  39  61  93 119 158 203 240 307 375
#     4  10  20  35  56  84 119 156 200 249 303 355
#     4  10  24  38  56  78 112 162 208 250 298 355
#
# _framework density 19.626757000000001
#
# number of rings (size 3 to 8) (size 9 to 14) (size 15 to 20)
#    0.000    1.714    1.429    2.571    6.000    0.857 
#    0.000    0.714    0.000    0.857    0.000    0.000 
#    0.000    0.000    0.000    0.000    0.000    0.000 
#
# Total GULP energy -311921.334749 kJ/mol
# GULP energy per Si atom -5570.023835 kJ/mol
# Density = 1.958209 g / cm^3
# Si number density = 19.626757 Si / 1000 Ang^3
#
#
#
# Elastic Constant Matrix: (Units=GPa)
#
#
# Indices 1 2 3 4 5 6 
#
# 1 112.4840 2.6429 53.1175 0.0000 0.0000 0.0000
# 2 2.6429 53.4533 17.2421 0.0000 0.0000 0.0000
# 3 53.1175 17.2421 67.8782 0.0000 0.0000 0.0000
# 4 0.0000 0.0000 0.0000 28.7777 0.0000 0.0000
# 5 0.0000 0.0000 0.0000 0.0000 15.2810 0.0000
# 6 0.0000 0.0000 0.0000 0.0000 0.0000 7.4514
#
#
#
# Elastic Compliance Matrix: (Units=1/GPa)
#
#
# Indices 1 2 3 4 5 6 
#
# 1 0.014595 0.003227 -0.012241 0.000000 0.000000 0.000000
# 2 0.003227 0.021091 -0.007882 0.000000 0.000000 0.000000
# 3 -0.012241 -0.007882 0.026313 0.000000 0.000000 0.000000
# 4 0.000000 0.000000 0.000000 0.034749 0.000000 0.000000
# 5 0.000000 0.000000 0.000000 0.000000 0.065441 0.000000
# 6 0.000000 0.000000 0.000000 0.000000 0.000000 0.134203
#
#
# Mechanical properties :
#
#
# Convention : Reuss Voigt Hill
#
# Bulk Modulus (GPa) = 35.45308 42.20228 38.82768
# Shear Modulus (GPa) = 14.72380 21.02289 17.87335
#
# Velocity S-wave (km/s) = 2.74193 3.27637 3.02099
# Velocity P-wave (km/s) = 5.30350 5.98848 5.65637
#
# Compressibility (1/GPa) = 0.02820630
#
# Stress axis : x y z
#
# Youngs Moduli (GPa) = 68.51854 47.41366 38.00369
#
# Poissons Ratio (x) = -0.15299 0.46518
# Poissons Ratio (y) = -0.22109 0.29956
# Poissons Ratio (z) = 0.83870 0.37374
#
# Static dielectric constant tensor:
#      x y z
#    x 1.697710 0.000000 0.000000 
#    y 0.000000 1.844730 0.000000 
#    z 0.000000 0.000000 1.707810 
# 
# From -- ./inp_files/33168.got.cif
#   From: 2010.05.17/outbox.cif.g08.bks.cpg/sg53_17_cif.got.tgz:33168.got - 2010.06.03 12:45:16.
