data_PCOD9417650
_publ_section_title
;
Structure prediction by ZEFSAII (Michael W. Deem and Ramdas Pophale) SiO2 
 PCOD9417650
Probable space group: P M N A
;
_chemical_formula_sum "Si O2"
_cell_formula_units_Z 32
_cell_length_a 10.227546
_cell_length_b 19.614889
_cell_length_c 8.690439
_cell_angle_alpha 90.000000
_cell_angle_beta 90.000000
_cell_angle_gamma 90.000000
_cell_volume 1743.407909
_symmetry_space_group_name_H-M "P M N A"
_symmetry_group_IT_number 53
_symmetry_cell_setting 'orthorhombic'
loop_
_space_group_symop_operation_xyz
x,y,z
1/2-x,-y,1/2+z
x,-y,-z
1/2-x,y,1/2-z
-x,-y,-z
1/2+x,y,1/2-z
-x,y,z
1/2+x,-y,1/2+z
loop_
_atom_site_type_symbol
_atom_site_label
_atom_site_fract_x
_atom_site_fract_y
_atom_site_fract_z
Si Si1 0.650904 0.935094 0.108873
Si Si2 0.500000 0.577901 0.441395
Si Si3 0.754163 0.335038 0.564215
Si Si4 0.655872 0.198232 0.104376
Si Si5 0.500000 0.426366 0.927595
O O1 0.750000 0.933938 0.250000
O O2 0.500000 0.940032 0.163027
O O3 0.662887 0.866761 0.007935
O O4 0.676402 0.000000 0.000000
O O5 0.500000 0.500000 0.500000
O O6 0.624829 0.623949 0.484414
O O7 0.500000 0.570426 0.256903
O O8 0.750000 0.324703 0.750000
O O9 0.784828 0.264034 0.482168
O O10 0.873174 0.384690 0.525550
O O11 0.750000 0.186000 0.250000
O O12 0.500000 0.208489 0.141435
O O13 0.500000 0.500000 0.000000
#
# Coordination Sequence:
#
# PCOD9417650 Si02
#       5
#     8   4   8   8   4
#     4  10  22  41  65  94 129 165 204 249 296 351
#     4  10  22  36  58  88 113 148 201 244 300 368
#     4  10  21  39  59  83 116 156 196 247 299 361
#     4  11  24  40  60  90 123 159 202 251 300 355
#     4  10  20  36  58  80 115 154 189 244 302 352
#
# _framework density 18.354855000000001
#
# number of rings (size 3 to 8) (size 9 to 14) (size 15 to 20)
#    0.000    1.750    1.250    2.250    1.750    3.500 
#    0.000    0.000    0.000    0.000    0.000    0.000 
#    0.000    0.000    0.000    0.000    0.000    0.000 
#
# Total GULP energy -178656.316524 kJ/mol
# GULP energy per Si atom -5583.009891 kJ/mol
# Density = 1.831308 g / cm^3
# Si number density = 18.354855 Si / 1000 Ang^3
#
#
#
# Elastic Constant Matrix: (Units=GPa)
#
#
# Indices 1 2 3 4 5 6 
#
# 1 196.0972 90.4532 82.5707 0.0000 0.0000 0.0000
# 2 90.4532 158.3790 54.7797 0.0000 0.0000 0.0000
# 3 82.5707 54.7797 71.3238 0.0000 0.0000 0.0000
# 4 0.0000 0.0000 0.0000 28.7946 0.0000 0.0000
# 5 0.0000 0.0000 0.0000 0.0000 -19.3337 0.0000
# 6 0.0000 0.0000 0.0000 0.0000 0.0000 28.9337
#
#
#
# Elastic Compliance Matrix: (Units=1/GPa)
#
#
# Indices 1 2 3 4 5 6 
#
# 1 0.010613 -0.002467 -0.010392 0.000000 0.000000 0.000000
# 2 -0.002467 0.009171 -0.004188 0.000000 0.000000 0.000000
# 3 -0.010392 -0.004188 0.029268 0.000000 0.000000 0.000000
# 4 0.000000 0.000000 0.000000 0.034729 0.000000 0.000000
# 5 0.000000 0.000000 0.000000 0.000000 -0.051723 0.000000
# 6 0.000000 0.000000 0.000000 0.000000 0.000000 0.034562
#
#
# Mechanical properties :
#
#
# Convention : Reuss Voigt Hill
#
# Bulk Modulus (GPa) = 66.85204 97.93415 82.39309
# Shear Modulus (GPa) = 47.30359 20.87869 34.09114
#
# Velocity S-wave (km/s) = 5.08209 3.37635 4.31436
# Velocity P-wave (km/s) = 8.42247 8.28682 8.35492
#
# Compressibility (1/GPa) = 0.01495841
#
# Stress axis : x y z
#
# Youngs Moduli (GPa) = 94.22167 109.03350 34.16714
#
# Poissons Ratio (x) = 0.26899 0.35507
# Poissons Ratio (y) = 0.23245 0.14309
# Poissons Ratio (z) = 0.97916 0.45663
#
# Static dielectric constant tensor:
#      x y z
#    x 1.628630 0.000000 0.000000 
#    y 0.000000 1.599840 0.000000 
#    z 0.000000 0.000000 1.613300 
# 
# From -- ./inp_files/6068.got.cif
#   From: 2010.05.17/outbox.cif.g08.bks.cpg/sg53_4_cif.got.tgz:6068.got - 2010.06.03 12:45:16.
