data_PCOD9417588
_publ_section_title
;
Structure prediction by ZEFSAII (Michael W. Deem and Ramdas Pophale) SiO2 
 PCOD9417588
Probable space group: P M N A
;
_chemical_formula_sum "Si O2"
_cell_formula_units_Z 64
_cell_length_a 7.807431
_cell_length_b 12.857142
_cell_length_c 25.309068
_cell_angle_alpha 90.000000
_cell_angle_beta 90.000000
_cell_angle_gamma 90.000000
_cell_volume 2540.555857
_symmetry_space_group_name_H-M "P M N A"
_symmetry_group_IT_number 53
_symmetry_cell_setting 'orthorhombic'
loop_
_space_group_symop_operation_xyz
x,y,z
1/2-x,-y,1/2+z
x,-y,-z
1/2-x,y,1/2-z
-x,-y,-z
1/2+x,y,1/2-z
-x,y,z
1/2+x,-y,1/2+z
loop_
_atom_site_type_symbol
_atom_site_label
_atom_site_fract_x
_atom_site_fract_y
_atom_site_fract_z
Si Si1 0.707453 0.580459 0.578092
Si Si2 0.304796 0.870322 0.054802
Si Si3 0.303693 0.355524 0.578472
Si Si4 0.806147 0.683730 0.308504
Si Si5 0.795921 0.810815 0.555488
Si Si6 0.299700 0.863893 0.672894
Si Si7 0.794166 0.639357 0.805627
Si Si8 0.301279 0.912922 0.330611
O O1 0.500000 0.577812 0.577166
O O2 0.762095 0.466722 0.558938
O O3 0.761005 0.687074 0.550141
O O4 0.766443 0.591645 0.639257
O O5 0.500000 0.909611 0.056753
O O6 0.304210 0.745440 0.064419
O O7 0.206836 0.913730 0.105261
O O8 0.235755 0.875794 0.995348
O O9 0.500000 0.339251 0.560434
O O10 0.304445 0.357896 0.642675
O O11 0.750000 0.653941 0.250000
O O12 0.793914 0.809725 0.312104
O O13 0.000000 0.650798 0.317853
O O14 0.712552 0.847004 0.609827
O O15 0.000000 0.824450 0.559344
O O16 0.500000 0.868054 0.687238
O O17 0.222286 0.757695 0.695112
O O18 0.226230 0.976387 0.687190
O O19 0.750000 0.588211 0.750000
O O20 0.000000 0.644335 0.809481
O O21 0.500000 0.902350 0.314957
#
# Coordination Sequence:
#
# PCOD9417588 Si02
#       8
#     8   8   8   8   8   8   8   8
#     4   9  20  37  55  76 106 138 173 218 265 310
#     4  10  21  36  52  77 110 140 171 217 268 313
#     4  10  20  36  57  80 104 137 179 220 264 317
#     4  11  22  37  56  79 109 143 177 219 264 312
#     4  10  21  35  54  78 106 140 178 215 259 315
#     4   9  20  37  55  76 106 138 173 218 265 310
#     4   9  18  34  52  74 103 133 165 207 254 304
#     4  10  20  36  57  80 104 137 179 220 264 317
#
# _framework density 25.191337999999998
#
# number of rings (size 3 to 8) (size 9 to 14) (size 15 to 20)
#    0.000    2.250    0.000    4.875    0.000    8.000 
#    0.000    7.500    0.000    0.000    0.000    0.000 
#    0.000    0.000    0.000    0.000    0.000    0.000 
#
# Total GULP energy -357939.576065 kJ/mol
# GULP energy per Si atom -5592.805876 kJ/mol
# Density = 2.513400 g / cm^3
# Si number density = 25.191338 Si / 1000 Ang^3
#
#
#
# Elastic Constant Matrix: (Units=GPa)
#
#
# Indices 1 2 3 4 5 6 
#
# 1 63.0310 -1.2442 -12.1100 0.0000 0.0000 0.0000
# 2 -1.2442 134.8120 -19.8557 0.0000 0.0000 0.0000
# 3 -12.1100 -19.8557 94.3868 0.0000 0.0000 0.0000
# 4 0.0000 0.0000 0.0000 -10.9255 0.0000 0.0000
# 5 0.0000 0.0000 0.0000 0.0000 28.0526 0.0000
# 6 0.0000 0.0000 0.0000 0.0000 0.0000 -5.6795
#
#
#
# Elastic Compliance Matrix: (Units=1/GPa)
#
#
# Indices 1 2 3 4 5 6 
#
# 1 0.016295 0.000473 0.002190 0.000000 0.000000 0.000000
# 2 0.000473 0.007669 0.001674 0.000000 0.000000 0.000000
# 3 0.002190 0.001674 0.011228 0.000000 0.000000 0.000000
# 4 0.000000 0.000000 0.000000 -0.091529 0.000000 0.000000
# 5 0.000000 0.000000 0.000000 0.000000 0.035647 0.000000
# 6 0.000000 0.000000 0.000000 0.000000 0.000000 -0.176072
#
#
# Mechanical properties :
#
#
# Convention : Reuss Voigt Hill
#
# Bulk Modulus (GPa) = 22.79666 25.08998 23.94332
# Shear Modulus (GPa) = -26.20356 23.98550 -1.10903
#
# Velocity S-wave (km/s) = -3.22868 3.08901 -0.66423
# Velocity P-wave (km/s) = 2.19776 4.76488 2.98947
#
# Compressibility (1/GPa) = 0.04386607
#
# Stress axis : x y z
#
# Youngs Moduli (GPa) = 61.36716 130.40116 89.06432
#
# Poissons Ratio (x) = -0.06168 -0.19507
# Poissons Ratio (y) = -0.02903 -0.14908
# Poissons Ratio (z) = -0.13441 -0.21828
#
# Static dielectric constant tensor:
#      x y z
#    x 1.875090 0.000000 0.000000 
#    y 0.000000 2.018190 0.000000 
#    z 0.000000 0.000000 1.980020 
# 
# From -- ./inp_files/38393.got.cif
#   From: 2010.05.17/outbox.cif.g08.bks.cpg/sg53_20_cif.got.tgz:38393.got - 2010.06.03 12:45:16.
