data_PCOD9417934
_publ_section_title
;
Structure prediction by ZEFSAII (Michael W. Deem and Ramdas Pophale) SiO2 
 PCOD9417934
Probable space group: P M N A
;
_chemical_formula_sum "Si O2"
_cell_formula_units_Z 48
_cell_length_a 9.711391
_cell_length_b 30.247491
_cell_length_c 8.806686
_cell_angle_alpha 90.000000
_cell_angle_beta 90.000000
_cell_angle_gamma 90.000000
_cell_volume 2586.921845
_symmetry_space_group_name_H-M "P M N A"
_symmetry_group_IT_number 53
_symmetry_cell_setting 'orthorhombic'
loop_
_space_group_symop_operation_xyz
x,y,z
1/2-x,-y,1/2+z
x,-y,-z
1/2-x,y,1/2-z
-x,-y,-z
1/2+x,y,1/2-z
-x,y,z
1/2+x,-y,1/2+z
loop_
_atom_site_type_symbol
_atom_site_label
_atom_site_fract_x
_atom_site_fract_y
_atom_site_fract_z
Si Si1 0.247450 0.604048 0.434579
Si Si2 0.500000 0.450147 0.433774
Si Si3 0.000000 0.548610 0.569259
Si Si4 0.840217 0.958266 0.100911
Si Si5 0.836311 0.869632 0.901490
Si Si6 0.334229 0.202156 0.909522
Si Si7 0.162813 0.301840 0.595398
O O1 0.250000 0.603452 0.250000
O O2 0.375551 0.578723 0.502824
O O3 0.225745 0.655056 0.484665
O O4 0.125712 0.575456 0.501612
O O5 0.500000 0.500000 0.500000
O O6 0.500000 0.452936 0.251463
O O7 0.000000 0.500000 0.500000
O O8 0.750000 0.954479 0.250000
O O9 0.000000 0.965842 0.142221
O O10 0.832377 0.913238 0.005579
O O11 0.794948 0.000000 0.000000
O O12 0.750000 0.879259 0.750000
O O13 0.000000 0.858965 0.876291
O O14 0.749958 0.830918 0.983612
O O15 0.250000 0.200609 0.750000
O O16 0.500000 0.191963 0.891380
O O17 0.327184 0.252616 0.972030
O O18 0.250000 0.298869 0.750000
O O19 0.000000 0.310508 0.624682
#
# Coordination Sequence:
#
# PCOD9417934 Si02
#       7
#     8   4   4   8   8   8   8
#     4  11  22  40  64  91 119 155 199 245 298 359
#     4  12  26  42  60  90 122 158 200 242 303 358
#     4  12  24  42  64  86 120 156 194 248 297 360
#     4  10  22  39  60  88 121 158 203 253 308 368
#     4  11  23  39  59  86 121 163 209 256 310 367
#     4  10  20  37  61  90 121 157 202 252 301 360
#     4   9  19  35  61  91 120 153 197 244 292 351
#
# _framework density 18.554870999999999
#
# number of rings (size 3 to 8) (size 9 to 14) (size 15 to 20)
#    0.000    1.500    0.833    4.500    3.500    3.667 
#    0.000    1.667    0.000    0.000    0.000    0.000 
#    0.000    0.000    0.000    0.000    0.000    0.000 
#
# Total GULP energy -267662.369988 kJ/mol
# GULP energy per Si atom -5576.299375 kJ/mol
# Density = 1.851264 g / cm^3
# Si number density = 18.554871 Si / 1000 Ang^3
#
#
#
# Elastic Constant Matrix: (Units=GPa)
#
#
# Indices 1 2 3 4 5 6 
#
# 1 167.4368 70.3727 56.0668 0.0000 0.0000 0.0000
# 2 70.3727 131.1912 41.4305 0.0000 0.0000 0.0000
# 3 56.0668 41.4305 109.4153 0.0000 0.0000 0.0000
# 4 0.0000 0.0000 0.0000 31.6282 0.0000 0.0000
# 5 0.0000 0.0000 0.0000 0.0000 30.6127 0.0000
# 6 0.0000 0.0000 0.0000 0.0000 0.0000 34.3681
#
#
#
# Elastic Compliance Matrix: (Units=1/GPa)
#
#
# Indices 1 2 3 4 5 6 
#
# 1 0.008489 -0.003612 -0.002982 0.000000 0.000000 0.000000
# 2 -0.003612 0.010194 -0.002009 0.000000 0.000000 0.000000
# 3 -0.002982 -0.002009 0.011429 0.000000 0.000000 0.000000
# 4 0.000000 0.000000 0.000000 0.031617 0.000000 0.000000
# 5 0.000000 0.000000 0.000000 0.000000 0.032666 0.000000
# 6 0.000000 0.000000 0.000000 0.000000 0.000000 0.029097
#
#
# Mechanical properties :
#
#
# Convention : Reuss Voigt Hill
#
# Bulk Modulus (GPa) = 77.48952 82.64259 80.06605
# Shear Modulus (GPa) = 34.48244 35.33333 34.90789
#
# Velocity S-wave (km/s) = 4.31560 4.36852 4.34214
# Velocity P-wave (km/s) = 8.16612 8.37147 8.26943
#
# Compressibility (1/GPa) = 0.01290497
#
# Stress axis : x y z
#
# Youngs Moduli (GPa) = 117.79837 98.09255 87.49985
#
# Poissons Ratio (x) = 0.35429 0.26096
# Poissons Ratio (y) = 0.42547 0.17582
# Poissons Ratio (z) = 0.35132 0.19711
#
# Static dielectric constant tensor:
#      x y z
#    x 1.582480 0.000000 0.000000 
#    y 0.000000 1.655770 0.000000 
#    z 0.000000 0.000000 1.619470 
# 
# From -- ./inp_files/6804.got.cif
#   From: 2010.05.17/outbox.cif.g08.bks.cpg/sg53_4_cif.got.tgz:6804.got - 2010.06.03 12:45:16.
