data_PCOD9417700
_publ_section_title
;
Structure prediction by ZEFSAII (Michael W. Deem and Ramdas Pophale) SiO2 
 PCOD9417700
Probable space group: P M N A
;
_chemical_formula_sum "Si O2"
_cell_formula_units_Z 64
_cell_length_a 15.331258
_cell_length_b 10.770008
_cell_length_c 17.314929
_cell_angle_alpha 90.000000
_cell_angle_beta 90.000000
_cell_angle_gamma 90.000000
_cell_volume 2859.002487
_symmetry_space_group_name_H-M "P M N A"
_symmetry_group_IT_number 53
_symmetry_cell_setting 'orthorhombic'
loop_
_space_group_symop_operation_xyz
x,y,z
1/2-x,-y,1/2+z
x,-y,-z
1/2-x,y,1/2-z
-x,-y,-z
1/2+x,y,1/2-z
-x,y,z
1/2+x,-y,1/2+z
loop_
_atom_site_type_symbol
_atom_site_label
_atom_site_fract_x
_atom_site_fract_y
_atom_site_fract_z
Si Si1 0.099463 0.159840 0.962549
Si Si2 0.404920 0.618824 0.340531
Si Si3 0.769234 0.803666 0.894650
Si Si4 0.600996 0.687255 0.074856
Si Si5 0.250940 0.516252 0.587182
Si Si6 0.650341 0.180721 0.777562
Si Si7 0.405127 0.883929 0.941714
Si Si8 0.598173 0.039155 0.324107
O O1 0.099198 0.283590 0.911119
O O2 0.000000 0.146736 0.994077
O O3 0.113291 0.049081 0.900459
O O4 0.174615 0.172931 0.026295
O O5 0.500000 0.556323 0.341751
O O6 0.320866 0.535270 0.352096
O O7 0.395833 0.703986 0.265309
O O8 0.742495 0.660435 0.893776
O O9 0.682169 0.885330 0.892610
O O10 0.833402 0.850489 0.828136
O O11 0.500000 0.657582 0.091811
O O12 0.663802 0.568393 0.084017
O O13 0.637962 0.790926 0.133346
O O14 0.601974 0.757304 0.992737
O O15 0.288074 0.500000 0.500000
O O16 0.750000 0.181232 0.750000
O O17 0.609518 0.054364 0.746771
O O18 0.500000 0.884431 0.902336
O O19 0.404129 0.000000 0.000000
O O20 0.500000 0.085407 0.326544
#
# Coordination Sequence:
#
# PCOD9417700 Si02
#       8
#     8   8   8   8   8   8   8   8
#     4   9  17  31  54  87 123 161 200 244 304 373
#     4  10  20  36  58  89 126 163 209 261 306 365
#     4  12  22  34  59  84 132 168 204 249 318 372
#     4  11  23  42  68  94 122 169 221 275 324 371
#     4  12  23  38  56  93 130 174 221 256 303 389
#     4  11  22  40  71  95 121 156 212 275 323 371
#     4  10  22  37  58  90 125 160 209 264 324 380
#     4  10  22  38  60  96 128 160 206 258 318 384
#
# _framework density 22.385431000000001
#
# number of rings (size 3 to 8) (size 9 to 14) (size 15 to 20)
#    0.000    1.375    3.750    3.375    3.500    3.000 
#    0.000    0.000    2.750    0.000    0.000    0.000 
#    0.000    0.000    0.000    0.000    0.000    0.000 
#
# Total GULP energy -357866.387800 kJ/mol
# GULP energy per Si atom -5591.662309 kJ/mol
# Density = 2.233448 g / cm^3
# Si number density = 22.385431 Si / 1000 Ang^3
#
#
#
# Elastic Constant Matrix: (Units=GPa)
#
#
# Indices 1 2 3 4 5 6 
#
# 1 158.8885 45.5800 3.8802 0.0000 0.0000 0.0000
# 2 45.5800 103.8872 0.5023 0.0000 0.0000 0.0000
# 3 3.8802 0.5023 33.4295 0.0000 0.0000 0.0000
# 4 0.0000 0.0000 0.0000 16.4523 0.0000 0.0000
# 5 0.0000 0.0000 0.0000 0.0000 12.4280 0.0000
# 6 0.0000 0.0000 0.0000 0.0000 0.0000 -13.8833
#
#
#
# Elastic Compliance Matrix: (Units=1/GPa)
#
#
# Indices 1 2 3 4 5 6 
#
# 1 0.007221 -0.003164 -0.000791 0.000000 0.000000 0.000000
# 2 -0.003164 0.011013 0.000202 0.000000 0.000000 0.000000
# 3 -0.000791 0.000202 0.030002 0.000000 0.000000 0.000000
# 4 0.000000 0.000000 0.000000 0.060782 0.000000 0.000000
# 5 0.000000 0.000000 0.000000 0.000000 0.080464 0.000000
# 6 0.000000 0.000000 0.000000 0.000000 0.000000 -0.072029
#
#
# Mechanical properties :
#
#
# Convention : Reuss Voigt Hill
#
# Bulk Modulus (GPa) = 24.55176 44.01447 34.28312
# Shear Modulus (GPa) = 36.09185 19.41558 27.75372
#
# Velocity S-wave (km/s) = 4.01969 2.94824 3.52492
# Velocity P-wave (km/s) = 5.70399 5.59413 5.64933
#
# Compressibility (1/GPa) = 0.04073028
#
# Stress axis : x y z
#
# Youngs Moduli (GPa) = 138.48979 90.80052 33.33064
#
# Poissons Ratio (x) = 0.28732 0.02635
# Poissons Ratio (y) = 0.43822 -0.00673
# Poissons Ratio (z) = 0.10949 -0.01832
#
# Static dielectric constant tensor:
#      x y z
#    x 1.839460 0.000000 0.000000 
#    y 0.000000 1.814860 0.000000 
#    z 0.000000 0.000000 1.845880 
# 
# From -- ./inp_files/28530.got.cif
#   From: 2010.05.17/outbox.cif.g08.bks.cpg/sg53_15_cif.got.tgz:28530.got - 2010.06.03 12:45:16.
