data_PCOD9417124
_publ_section_title
;
Structure prediction by ZEFSAII (Michael W. Deem and Ramdas Pophale) SiO2 
 PCOD9417124
Probable space group: P M N A
;
_chemical_formula_sum "Si O2"
_cell_formula_units_Z 56
_cell_length_a 8.838184
_cell_length_b 15.502887
_cell_length_c 20.213882
_cell_angle_alpha 90.000000
_cell_angle_beta 90.000000
_cell_angle_gamma 90.000000
_cell_volume 2769.652905
_symmetry_space_group_name_H-M "P M N A"
_symmetry_group_IT_number 53
_symmetry_cell_setting 'orthorhombic'
loop_
_space_group_symop_operation_xyz
x,y,z
1/2-x,-y,1/2+z
x,-y,-z
1/2-x,y,1/2-z
-x,-y,-z
1/2+x,y,1/2-z
-x,y,z
1/2+x,-y,1/2+z
loop_
_atom_site_type_symbol
_atom_site_label
_atom_site_fract_x
_atom_site_fract_y
_atom_site_fract_z
Si Si1 0.178180 0.081923 0.547323
Si Si2 0.320977 0.741354 0.455014
Si Si3 0.818897 0.317668 0.680306
Si Si4 0.681388 0.335273 0.079114
Si Si5 0.679549 0.992603 0.321406
Si Si6 0.818837 0.519988 0.680712
Si Si7 0.179624 0.801876 0.821713
O O1 0.270481 0.163794 0.521644
O O2 0.237820 0.057038 0.619808
O O3 0.000000 0.102922 0.549066
O O4 0.200091 0.000000 0.500000
O O5 0.500000 0.734249 0.452480
O O6 0.250144 0.729170 0.382723
O O7 0.252603 0.673695 0.506914
O O8 0.750000 0.287656 0.750000
O O9 0.778726 0.419451 0.672961
O O10 0.000000 0.309312 0.681336
O O11 0.500000 0.333228 0.073817
O O12 0.728064 0.420764 0.119447
O O13 0.738723 0.255362 0.123386
O O14 0.750000 0.971596 0.250000
O O15 0.500000 0.974966 0.321926
O O16 0.701267 0.095611 0.332385
O O17 0.750000 0.551407 0.750000
O O18 0.000000 0.525262 0.685847
O O19 0.250000 0.781395 0.750000
O O20 0.000000 0.784390 0.821911
#
# Coordination Sequence:
#
# PCOD9417124 Si02
#       7
#     8   8   8   8   8   8   8
#     4  11  24  42  64  88 116 152 194 241 295 354
#     4  12  26  42  61  88 119 155 197 241 294 351
#     4  10  21  42  67  91 120 154 196 245 296 349
#     4  11  22  37  57  85 121 159 199 243 292 347
#     4  10  21  37  58  84 115 150 192 242 293 347
#     4   9  20  37  61  90 121 158 197 240 290 344
#     4  10  20  34  54  83 119 159 199 242 293 348
#
# _framework density 20.219141
#
# number of rings (size 3 to 8) (size 9 to 14) (size 15 to 20)
#    0.000    1.571    0.000    4.714    0.000    9.143 
#    0.000    5.714    0.000    0.000    0.000    0.000 
#    0.000    0.000    0.000    0.000    0.000    0.000 
#
# Total GULP energy -313271.612345 kJ/mol
# GULP energy per Si atom -5594.135935 kJ/mol
# Density = 2.017312 g / cm^3
# Si number density = 20.219141 Si / 1000 Ang^3
#
#
#
# Elastic Constant Matrix: (Units=GPa)
#
#
# Indices 1 2 3 4 5 6 
#
# 1 80.8958 26.2017 33.4477 0.0000 0.0000 0.0000
# 2 26.2017 32.6122 16.3690 0.0000 0.0000 0.0000
# 3 33.4477 16.3690 93.6674 0.0000 0.0000 0.0000
# 4 0.0000 0.0000 0.0000 25.3159 0.0000 0.0000
# 5 0.0000 0.0000 0.0000 0.0000 35.0471 0.0000
# 6 0.0000 0.0000 0.0000 0.0000 0.0000 48.0224
#
#
#
# Elastic Compliance Matrix: (Units=1/GPa)
#
#
# Indices 1 2 3 4 5 6 
#
# 1 0.018174 -0.012435 -0.004317 0.000000 0.000000 0.000000
# 2 -0.012435 0.042120 -0.002920 0.000000 0.000000 0.000000
# 3 -0.004317 -0.002920 0.012728 0.000000 0.000000 0.000000
# 4 0.000000 0.000000 0.000000 0.039501 0.000000 0.000000
# 5 0.000000 0.000000 0.000000 0.000000 0.028533 0.000000
# 6 0.000000 0.000000 0.000000 0.000000 0.000000 0.020824
#
#
# Mechanical properties :
#
#
# Convention : Reuss Voigt Hill
#
# Bulk Modulus (GPa) = 29.69314 39.91247 34.80281
# Shear Modulus (GPa) = 23.53506 30.42087 26.97797
#
# Velocity S-wave (km/s) = 3.41544 3.88307 3.65674
# Velocity P-wave (km/s) = 5.50193 6.31563 5.92277
#
# Compressibility (1/GPa) = 0.03367781
#
# Stress axis : x y z
#
# Youngs Moduli (GPa) = 55.02369 23.74179 78.56780
#
# Poissons Ratio (x) = 0.29523 0.33915
# Poissons Ratio (y) = 0.68422 0.22945
# Poissons Ratio (z) = 0.23752 0.06933
#
# Static dielectric constant tensor:
#      x y z
#    x 1.670020 0.000000 0.000000 
#    y 0.000000 1.738100 0.000000 
#    z 0.000000 0.000000 1.695080 
# 
# From -- ./inp_files/30821.got.cif
#   From: 2010.05.17/outbox.cif.g08.bks.cpg/sg53_16_cif.got.tgz:30821.got - 2010.06.03 12:45:16.
