data_PCOD9417550
_publ_section_title
;
Structure prediction by ZEFSAII (Michael W. Deem and Ramdas Pophale) SiO2 
 PCOD9417550
Probable space group: P M N A
;
_chemical_formula_sum "Si O2"
_cell_formula_units_Z 64
_cell_length_a 17.254105
_cell_length_b 12.289292
_cell_length_c 16.558227
_cell_angle_alpha 90.000000
_cell_angle_beta 90.000000
_cell_angle_gamma 90.000000
_cell_volume 3511.018616
_symmetry_space_group_name_H-M "P M N A"
_symmetry_group_IT_number 53
_symmetry_cell_setting 'orthorhombic'
loop_
_space_group_symop_operation_xyz
x,y,z
1/2-x,-y,1/2+z
x,-y,-z
1/2-x,y,1/2-z
-x,-y,-z
1/2+x,y,1/2-z
-x,y,z
1/2+x,-y,1/2+z
loop_
_atom_site_type_symbol
_atom_site_label
_atom_site_fract_x
_atom_site_fract_y
_atom_site_fract_z
Si Si1 0.658072 0.868221 0.560730
Si Si2 0.089602 0.087844 0.896018
Si Si3 0.150023 0.558587 0.675427
Si Si4 0.092827 0.902864 0.289395
Si Si5 0.697771 0.683729 0.681886
Si Si6 0.411348 0.286379 0.048209
Si Si7 0.332844 0.939180 0.917964
Si Si8 0.407326 0.332404 0.867388
O O1 0.640331 0.854318 0.465659
O O2 0.661782 0.760138 0.614700
O O3 0.740665 0.926047 0.575645
O O4 0.596038 0.958062 0.588519
O O5 0.116058 0.103731 0.804224
O O6 0.000000 0.122396 0.903148
O O7 0.139017 0.615379 0.762582
O O8 0.095382 0.614675 0.609981
O O9 0.136838 0.430993 0.675104
O O10 0.000000 0.748200 0.537638
O O11 0.105700 0.785038 0.328582
O O12 0.000000 0.926738 0.292771
O O13 0.137939 0.992680 0.341536
O O14 0.750000 0.748883 0.750000
O O15 0.762677 0.597708 0.651549
O O16 0.365295 0.183131 0.081500
O O17 0.382414 0.323787 0.960772
O O18 0.360187 0.000000 0.000000
O O19 0.500000 0.354671 0.864505
#
# Coordination Sequence:
#
# PCOD9417550 Si02
#       8
#     8   8   8   8   8   8   8   8
#     4  11  20  39  60  83 116 152 185 242 298 346
#     4  10  23  40  60  87 114 153 203 240 289 357
#     4   9  19  36  54  79 110 147 195 236 281 340
#     4  10  23  38  57  85 122 161 193 241 292 348
#     4   8  20  36  57  80 111 144 187 246 300 336
#     4  11  21  33  55  84 116 155 192 234 280 344
#     4  12  21  36  56  90 123 155 190 230 300 362
#     4  10  20  36  56  78 114 155 192 235 283 338
#
# _framework density 18.228328000000001
#
# number of rings (size 3 to 8) (size 9 to 14) (size 15 to 20)
#    0.750    1.000    3.750    1.875    3.500    1.500 
#    0.000    6.875    0.000    0.000    0.000    2.625 
#    0.000    0.000    0.000    0.000    0.000    0.000 
#
# Total GULP energy -356621.056386 kJ/mol
# GULP energy per Si atom -5572.204006 kJ/mol
# Density = 1.818684 g / cm^3
# Si number density = 18.228328 Si / 1000 Ang^3
#
#
#
# Elastic Constant Matrix: (Units=GPa)
#
#
# Indices 1 2 3 4 5 6 
#
# 1 37.3599 13.7726 42.3727 0.0000 0.0000 0.0000
# 2 13.7726 63.3026 44.5142 0.0000 0.0000 0.0000
# 3 42.3727 44.5142 133.2909 0.0000 0.0000 0.0000
# 4 0.0000 0.0000 0.0000 19.4761 0.0000 0.0000
# 5 0.0000 0.0000 0.0000 0.0000 25.2233 0.0000
# 6 0.0000 0.0000 0.0000 0.0000 0.0000 14.2091
#
#
#
# Elastic Compliance Matrix: (Units=1/GPa)
#
#
# Indices 1 2 3 4 5 6 
#
# 1 0.041864 0.000327 -0.013418 0.000000 0.000000 0.000000
# 2 0.000327 0.020648 -0.007000 0.000000 0.000000 0.000000
# 3 -0.013418 -0.007000 0.014105 0.000000 0.000000 0.000000
# 4 0.000000 0.000000 0.000000 0.051345 0.000000 0.000000
# 5 0.000000 0.000000 0.000000 0.000000 0.039646 0.000000
# 6 0.000000 0.000000 0.000000 0.000000 0.000000 0.070378
#
#
# Mechanical properties :
#
#
# Convention : Reuss Voigt Hill
#
# Bulk Modulus (GPa) = 27.44462 48.36362 37.90412
# Shear Modulus (GPa) = 17.22283 20.66797 18.94540
#
# Velocity S-wave (km/s) = 3.07716 3.37090 3.22737
# Velocity P-wave (km/s) = 5.26440 6.46068 5.89297
#
# Compressibility (1/GPa) = 0.03643702
#
# Stress axis : x y z
#
# Youngs Moduli (GPa) = 23.88684 48.43054 70.89463
#
# Poissons Ratio (x) = -0.01584 0.95124
# Poissons Ratio (y) = -0.00781 0.49624
# Poissons Ratio (z) = 0.32051 0.33900
#
# Static dielectric constant tensor:
#      x y z
#    x 1.675990 0.000000 0.000000 
#    y 0.000000 1.612730 0.000000 
#    z 0.000000 0.000000 1.661580 
# 
# From -- ./inp_files/23889.got.cif
#   From: 2010.05.17/outbox.cif.g08.bks.cpg/sg53_12_cif.got.tgz:23889.got - 2010.06.03 12:45:16.
