data_PCOD9417767
_publ_section_title
;
Structure prediction by ZEFSAII (Michael W. Deem and Ramdas Pophale) SiO2 
 PCOD9417767
Probable space group: P M N A
;
_chemical_formula_sum "Si O2"
_cell_formula_units_Z 24
_cell_length_a 8.087484
_cell_length_b 8.946746
_cell_length_c 15.361343
_cell_angle_alpha 90.000000
_cell_angle_beta 90.000000
_cell_angle_gamma 90.000000
_cell_volume 1111.495551
_symmetry_space_group_name_H-M "P M N A"
_symmetry_group_IT_number 53
_symmetry_cell_setting 'orthorhombic'
loop_
_space_group_symop_operation_xyz
x,y,z
1/2-x,-y,1/2+z
x,-y,-z
1/2-x,y,1/2-z
-x,-y,-z
1/2+x,y,1/2-z
-x,y,z
1/2+x,-y,1/2+z
loop_
_atom_site_type_symbol
_atom_site_label
_atom_site_fract_x
_atom_site_fract_y
_atom_site_fract_z
Si Si1 0.193743 0.891791 0.844022
Si Si2 0.000000 0.431276 0.598594
Si Si3 0.000000 0.922971 0.406404
Si Si4 0.820239 0.573127 0.904209
O O1 0.250000 0.830868 0.750000
O O2 0.209977 0.751235 0.909224
O O3 0.000000 0.938433 0.843781
O O4 0.329610 0.017654 0.863404
O O5 0.000000 0.500000 0.500000
O O6 0.000000 0.254523 0.592375
O O7 0.166176 0.494547 0.640859
O O8 0.000000 0.000000 0.500000
O O9 0.000000 0.553995 0.861896
O O10 0.830810 0.500000 0.000000
#
# Coordination Sequence:
#
# PCOD9417767 Si02
#       4
#     8   4   4   8
#     4  11  23  42  70  96 136 182 225 280 345 399
#     4  10  20  36  60  90 128 161 208 268 320 386
#     4  12  24  40  68 100 132 173 225 276 333 406
#     4   9  18  35  61  93 126 166 217 266 318 390
#
# _framework density 21.592528999999999
#
# number of rings (size 3 to 8) (size 9 to 14) (size 15 to 20)
#    0.000    1.667    1.667    5.000    0.000    2.000 
#    0.000    1.667    0.000    0.000    0.000    0.000 
#    0.000    0.000    0.000    0.000    0.000    0.000 
#
# Total GULP energy -133881.744964 kJ/mol
# GULP energy per Si atom -5578.406040 kJ/mol
# Density = 2.154338 g / cm^3
# Si number density = 21.592529 Si / 1000 Ang^3
#
#
#
# Elastic Constant Matrix: (Units=GPa)
#
#
# Indices 1 2 3 4 5 6 
#
# 1 245.9151 103.8272 5.6867 0.0000 0.0000 0.0000
# 2 103.8272 160.2155 9.8900 0.0000 0.0000 0.0000
# 3 5.6867 9.8900 32.2854 0.0000 0.0000 0.0000
# 4 0.0000 0.0000 0.0000 15.7352 0.0000 0.0000
# 5 0.0000 0.0000 0.0000 0.0000 17.6904 0.0000
# 6 0.0000 0.0000 0.0000 0.0000 0.0000 -1.1611
#
#
#
# Elastic Compliance Matrix: (Units=1/GPa)
#
#
# Indices 1 2 3 4 5 6 
#
# 1 0.005599 -0.003636 0.000128 0.000000 0.000000 0.000000
# 2 -0.003636 0.008723 -0.002032 0.000000 0.000000 0.000000
# 3 0.000128 -0.002032 0.031574 0.000000 0.000000 0.000000
# 4 0.000000 0.000000 0.000000 0.063552 0.000000 0.000000
# 5 0.000000 0.000000 0.000000 0.000000 0.056528 0.000000
# 6 0.000000 0.000000 0.000000 0.000000 0.000000 -0.861235
#
#
# Mechanical properties :
#
#
# Convention : Reuss Voigt Hill
#
# Bulk Modulus (GPa) = 28.72292 75.24708 51.98500
# Shear Modulus (GPa) = -7.43413 27.72037 10.14312
#
# Velocity S-wave (km/s) = -1.85752 3.58690 2.16973
# Velocity P-wave (km/s) = 2.95476 7.21656 5.51404
#
# Compressibility (1/GPa) = 0.03481541
#
# Stress axis : x y z
#
# Youngs Moduli (GPa) = 178.61367 114.63460 31.67194
#
# Poissons Ratio (x) = 0.41682 -0.00404
# Poissons Ratio (y) = 0.64946 0.06435
# Poissons Ratio (z) = -0.02281 0.23291
#
# Static dielectric constant tensor:
#      x y z
#    x 1.957190 0.000000 0.000000 
#    y 0.000000 1.755330 0.000000 
#    z 0.000000 0.000000 1.856310 
# 
# From -- ./inp_files/19336.got.cif
#   From: 2010.05.17/outbox.cif.g08.bks.cpg/sg53_10_cif.got.tgz:19336.got - 2010.06.03 12:45:16.
