data_PCOD9417103
_publ_section_title
;
Structure prediction by ZEFSAII (Michael W. Deem and Ramdas Pophale) SiO2 
 PCOD9417103
Probable space group: P M N A
;
_chemical_formula_sum "Si O2"
_cell_formula_units_Z 56
_cell_length_a 8.576719
_cell_length_b 22.384504
_cell_length_c 15.046447
_cell_angle_alpha 90.000000
_cell_angle_beta 90.000000
_cell_angle_gamma 90.000000
_cell_volume 2888.701167
_symmetry_space_group_name_H-M "P M N A"
_symmetry_group_IT_number 53
_symmetry_cell_setting 'orthorhombic'
loop_
_space_group_symop_operation_xyz
x,y,z
1/2-x,-y,1/2+z
x,-y,-z
1/2-x,y,1/2-z
-x,-y,-z
1/2+x,y,1/2-z
-x,y,z
1/2+x,-y,1/2+z
loop_
_atom_site_type_symbol
_atom_site_label
_atom_site_fract_x
_atom_site_fract_y
_atom_site_fract_z
Si Si1 0.188488 0.753528 0.150131
Si Si2 0.186695 0.032088 0.654283
Si Si3 0.190291 0.640079 0.035129
Si Si4 0.313449 0.866318 0.468614
Si Si5 0.812047 0.607563 0.845149
Si Si6 0.188057 0.530765 0.154160
Si Si7 0.186398 0.107385 0.345160
O O1 0.250000 0.754435 0.250000
O O2 0.241262 0.694736 0.096553
O O3 0.236949 0.811875 0.094688
O O4 0.000000 0.752833 0.153101
O O5 0.250000 0.053489 0.750000
O O6 0.251062 0.073064 0.576031
O O7 0.000000 0.034916 0.654348
O O8 0.234114 0.962680 0.645237
O O9 0.238796 0.577264 0.079119
O O10 0.000000 0.640468 0.034814
O O11 0.240146 0.642962 0.932607
O O12 0.500000 0.867937 0.470657
O O13 0.251269 0.859816 0.568423
O O14 0.750000 0.628214 0.750000
O O15 0.762802 0.538038 0.858168
O O16 0.000000 0.608420 0.841966
O O17 0.250000 0.550968 0.250000
O O18 0.000000 0.531015 0.155408
O O19 0.250000 0.128511 0.250000
O O20 0.000000 0.109821 0.344478
#
# Coordination Sequence:
#
# PCOD9417103 Si02
#       7
#     8   8   8   8   8   8   8
#     4  10  22  38  55  76 102 134 171 211 253 299
#     4  10  20  34  54  81 110 139 172 212 261 313
#     4   9  17  32  52  71  97 134 171 206 248 300
#     4  11  22  35  53  77 106 141 178 214 256 306
#     4   9  17  30  49  73 100 129 164 206 251 301
#     4   9  16  27  47  74 100 129 164 203 251 303
#     4  10  21  37  57  81 108 137 171 213 260 310
#
# _framework density 19.385874000000001
#
# number of rings (size 3 to 8) (size 9 to 14) (size 15 to 20)
#    0.000    2.286    0.000    3.000    0.000    7.429 
#    0.000    2.143    0.000    5.143    0.000    0.000 
#    0.000    0.000    0.000    0.000    0.000    0.000 
#
# Total GULP energy -312642.224266 kJ/mol
# GULP energy per Si atom -5582.896862 kJ/mol
# Density = 1.934175 g / cm^3
# Si number density = 19.385874 Si / 1000 Ang^3
#
#
#
# Elastic Constant Matrix: (Units=GPa)
#
#
# Indices 1 2 3 4 5 6 
#
# 1 13.8447 13.5527 27.1113 0.0000 0.0000 0.0000
# 2 13.5527 43.2288 57.3037 0.0000 0.0000 0.0000
# 3 27.1113 57.3037 200.3204 0.0000 0.0000 0.0000
# 4 0.0000 0.0000 0.0000 32.4588 0.0000 0.0000
# 5 0.0000 0.0000 0.0000 0.0000 35.1285 0.0000
# 6 0.0000 0.0000 0.0000 0.0000 0.0000 11.3145
#
#
#
# Elastic Compliance Matrix: (Units=1/GPa)
#
#
# Indices 1 2 3 4 5 6 
#
# 1 0.112068 -0.024209 -0.008242 0.000000 0.000000 0.000000
# 2 -0.024209 0.042492 -0.008879 0.000000 0.000000 0.000000
# 3 -0.008242 -0.008879 0.008647 0.000000 0.000000 0.000000
# 4 0.000000 0.000000 0.000000 0.030808 0.000000 0.000000
# 5 0.000000 0.000000 0.000000 0.000000 0.028467 0.000000
# 6 0.000000 0.000000 0.000000 0.000000 0.000000 0.088382
#
#
# Mechanical properties :
#
#
# Convention : Reuss Voigt Hill
#
# Bulk Modulus (GPa) = 12.41499 50.36992 31.39246
# Shear Modulus (GPa) = 11.89416 26.40879 19.15148
#
# Velocity S-wave (km/s) = 2.47968 3.69490 3.14651
# Velocity P-wave (km/s) = 3.82315 6.65148 5.42488
#
# Compressibility (1/GPa) = 0.08054777
#
# Stress axis : x y z
#
# Youngs Moduli (GPa) = 8.92315 23.53362 115.64202
#
# Poissons Ratio (x) = 0.56973 0.95312
# Poissons Ratio (y) = 0.21602 1.02678
# Poissons Ratio (z) = 0.07354 0.20895
#
# Static dielectric constant tensor:
#      x y z
#    x 1.662150 0.000000 0.000000 
#    y 0.000000 1.679680 0.000000 
#    z 0.000000 0.000000 1.672330 
# 
# From -- ./inp_files/20620.got.cif
#   From: 2010.05.17/outbox.cif.g08.bks.cpg/sg53_11_cif.got.tgz:20620.got - 2010.06.03 12:45:16.
