data_PCOD9417245
_publ_section_title
;
Structure prediction by ZEFSAII (Michael W. Deem and Ramdas Pophale) SiO2 
 PCOD9417245
Probable space group: P M N A
;
_chemical_formula_sum "Si O2"
_cell_formula_units_Z 64
_cell_length_a 8.569773
_cell_length_b 18.817252
_cell_length_c 23.731360
_cell_angle_alpha 90.000000
_cell_angle_beta 90.000000
_cell_angle_gamma 90.000000
_cell_volume 3826.909102
_symmetry_space_group_name_H-M "P M N A"
_symmetry_group_IT_number 53
_symmetry_cell_setting 'orthorhombic'
loop_
_space_group_symop_operation_xyz
x,y,z
1/2-x,-y,1/2+z
x,-y,-z
1/2-x,y,1/2-z
-x,-y,-z
1/2+x,y,1/2-z
-x,y,z
1/2+x,-y,1/2+z
loop_
_atom_site_type_symbol
_atom_site_label
_atom_site_fract_x
_atom_site_fract_y
_atom_site_fract_z
Si Si1 0.813257 0.082567 0.008418
Si Si2 0.187550 0.425506 0.314279
Si Si3 0.188671 0.735276 0.313909
Si Si4 0.189097 0.133445 0.608116
Si Si5 0.812880 0.862053 0.626743
Si Si6 0.188084 0.421039 0.686083
Si Si7 0.814609 0.723251 0.813921
Si Si8 0.812326 0.995854 0.311623
O O1 0.760983 0.125964 0.953455
O O2 0.000000 0.083357 0.013874
O O3 0.738818 0.115502 0.064369
O O4 0.763131 0.000000 0.000000
O O5 0.250000 0.426813 0.250000
O O6 0.234990 0.502484 0.339662
O O7 0.254906 0.352333 0.338026
O O8 0.000000 0.420915 0.313667
O O9 0.250000 0.745202 0.250000
O O10 0.237936 0.797665 0.355966
O O11 0.236829 0.656586 0.335836
O O12 0.000000 0.737117 0.310852
O O13 0.236496 0.063877 0.643779
O O14 0.000000 0.133946 0.603506
O O15 0.741938 0.788772 0.648621
O O16 0.000000 0.857377 0.628992
O O17 0.760890 0.926595 0.667532
O O18 0.250000 0.421490 0.750000
O O19 0.000000 0.421444 0.687180
O O20 0.750000 0.731428 0.750000
O O21 0.000000 0.721806 0.810545
O O22 0.750000 0.979390 0.250000
O O23 0.000000 0.995359 0.310032
#
# Coordination Sequence:
#
# PCOD9417245 Si02
#       8
#     8   8   8   8   8   8   8   8
#     4  11  23  38  56  76  95 123 165 215 257 294
#     4   9  15  25  42  65  96 132 168 200 239 287
#     4   9  17  29  47  72 104 136 167 203 246 292
#     4  10  20  35  52  72  98 132 168 204 247 295
#     4  11  22  37  55  73  97 130 167 207 253 299
#     4   8  14  24  40  65  96 131 166 200 236 285
#     4  11  21  33  49  73 105 135 168 205 248 298
#     4  10  21  33  49  72  98 129 162 196 238 291
#
# _framework density 16.723678
#
# number of rings (size 3 to 8) (size 9 to 14) (size 15 to 20)
#    0.000    2.125    1.250    3.750    0.000    4.000 
#    0.000    0.000    0.000    0.000    0.000    0.875 
#    0.000    7.000    0.000    0.000    0.000    0.000 
#
# Total GULP energy -356777.393278 kJ/mol
# GULP energy per Si atom -5574.646770 kJ/mol
# Density = 1.668561 g / cm^3
# Si number density = 16.723678 Si / 1000 Ang^3
#
#
#
# Elastic Constant Matrix: (Units=GPa)
#
#
# Indices 1 2 3 4 5 6 
#
# 1 41.6285 27.5825 9.6947 0.0000 0.0000 0.0000
# 2 27.5825 131.4360 13.6250 0.0000 0.0000 0.0000
# 3 9.6947 13.6250 45.7791 0.0000 0.0000 0.0000
# 4 0.0000 0.0000 0.0000 4.4055 0.0000 0.0000
# 5 0.0000 0.0000 0.0000 0.0000 24.2537 0.0000
# 6 0.0000 0.0000 0.0000 0.0000 0.0000 -16.5392
#
#
#
# Elastic Compliance Matrix: (Units=1/GPa)
#
#
# Indices 1 2 3 4 5 6 
#
# 1 0.028746 -0.005573 -0.004429 0.000000 0.000000 0.000000
# 2 -0.005573 0.008931 -0.001478 0.000000 0.000000 0.000000
# 3 -0.004429 -0.001478 0.023222 0.000000 0.000000 0.000000
# 4 0.000000 0.000000 0.000000 0.226988 0.000000 0.000000
# 5 0.000000 0.000000 0.000000 0.000000 0.041231 0.000000
# 6 0.000000 0.000000 0.000000 0.000000 0.000000 -0.060463
#
#
# Mechanical properties :
#
#
# Convention : Reuss Voigt Hill
#
# Bulk Modulus (GPa) = 26.35814 35.62754 30.99284
# Shear Modulus (GPa) = 16.43322 13.62010 15.02666
#
# Velocity S-wave (km/s) = 3.13810 2.85690 3.00079
# Velocity P-wave (km/s) = 5.37823 5.67736 5.52982
#
# Compressibility (1/GPa) = 0.03793894
#
# Stress axis : x y z
#
# Youngs Moduli (GPa) = 34.78707 111.96856 43.06306
#
# Poissons Ratio (x) = 0.62405 0.19072
# Poissons Ratio (y) = 0.19388 0.06364
# Poissons Ratio (z) = 0.15407 0.16547
#
# Static dielectric constant tensor:
#      x y z
#    x 1.562590 0.000000 0.000000 
#    y 0.000000 1.619350 0.000000 
#    z 0.000000 0.000000 1.523190 
# 
# From -- ./inp_files/34490.got.cif
#   From: 2010.05.17/outbox.cif.g08.bks.cpg/sg53_18_cif.got.tgz:34490.got - 2010.06.03 12:45:16.
