data_PCOD9417663
_publ_section_title
;
Structure prediction by ZEFSAII (Michael W. Deem and Ramdas Pophale) SiO2 
 PCOD9417663
Probable space group: P M N A
;
_chemical_formula_sum "Si O2"
_cell_formula_units_Z 48
_cell_length_a 8.672634
_cell_length_b 31.621244
_cell_length_c 9.484564
_cell_angle_alpha 90.000000
_cell_angle_beta 90.000000
_cell_angle_gamma 90.000000
_cell_volume 2601.041860
_symmetry_space_group_name_H-M "P M N A"
_symmetry_group_IT_number 53
_symmetry_cell_setting 'orthorhombic'
loop_
_space_group_symop_operation_xyz
x,y,z
1/2-x,-y,1/2+z
x,-y,-z
1/2-x,y,1/2-z
-x,-y,-z
1/2+x,y,1/2-z
-x,y,z
1/2+x,-y,1/2+z
loop_
_atom_site_type_symbol
_atom_site_label
_atom_site_fract_x
_atom_site_fract_y
_atom_site_fract_z
Si Si1 0.684777 0.710327 0.407455
Si Si2 0.185259 0.365639 0.408364
Si Si3 0.184790 0.959367 0.093821
Si Si4 0.815664 0.869178 0.408629
Si Si5 0.814162 0.460977 0.406191
Si Si6 0.185276 0.207353 0.092103
O O1 0.750000 0.714027 0.250000
O O2 0.500000 0.708127 0.400859
O O3 0.748728 0.669057 0.486230
O O4 0.727522 0.751153 0.501314
O O5 0.250000 0.359137 0.250000
O O6 0.228640 0.413514 0.454247
O O7 0.000000 0.362598 0.403409
O O8 0.250000 0.966257 0.250000
O O9 0.258471 0.915421 0.042421
O O10 0.000000 0.954367 0.099233
O O11 0.222201 0.000000 0.000000
O O12 0.750000 0.862876 0.250000
O O13 0.752567 0.833162 0.511292
O O14 0.000000 0.868131 0.402749
O O15 0.758624 0.500000 0.500000
O O16 0.750000 0.465955 0.250000
O O17 0.000000 0.462354 0.402156
O O18 0.250000 0.210420 0.250000
O O19 0.000000 0.204428 0.097147
#
# Coordination Sequence:
#
# PCOD9417663 Si02
#       6
#     8   8   8   8   8   8
#     4  11  24  40  60  85 114 148 186 230 279 334
#     4  10  20  36  58  82 112 148 187 232 280 333
#     4  10  21  37  58  84 115 151 192 236 282 335
#     4  11  22  38  61  86 116 152 190 235 284 335
#     4   9  19  35  54  79 110 145 185 228 276 329
#     4  11  24  41  61  86 115 148 187 230 279 334
#
# _framework density 18.454143999999999
#
# number of rings (size 3 to 8) (size 9 to 14) (size 15 to 20)
#    0.000    1.667    0.000    5.500    0.000    9.000 
#    0.000    3.333    0.000    0.000    0.000    0.000 
#    0.000    0.000    0.000    0.000    0.000    0.000 
#
# Total GULP energy -268221.735716 kJ/mol
# GULP energy per Si atom -5587.952827 kJ/mol
# Density = 1.841214 g / cm^3
# Si number density = 18.454144 Si / 1000 Ang^3
#
#
#
# Elastic Constant Matrix: (Units=GPa)
#
#
# Indices 1 2 3 4 5 6 
#
# 1 75.1844 78.0675 56.9503 0.0000 0.0000 0.0000
# 2 78.0675 210.7608 127.8475 0.0000 0.0000 0.0000
# 3 56.9503 127.8475 130.7757 0.0000 0.0000 0.0000
# 4 0.0000 0.0000 0.0000 -3.6422 0.0000 0.0000
# 5 0.0000 0.0000 0.0000 0.0000 35.3983 0.0000
# 6 0.0000 0.0000 0.0000 0.0000 0.0000 32.1344
#
#
#
# Elastic Compliance Matrix: (Units=1/GPa)
#
#
# Indices 1 2 3 4 5 6 
#
# 1 0.022453 -0.005861 -0.004048 0.000000 0.000000 0.000000
# 2 -0.005861 0.013188 -0.010341 0.000000 0.000000 0.000000
# 3 -0.004048 -0.010341 0.019518 0.000000 0.000000 0.000000
# 4 0.000000 0.000000 0.000000 -0.274560 0.000000 0.000000
# 5 0.000000 0.000000 0.000000 0.000000 0.028250 0.000000
# 6 0.000000 0.000000 0.000000 0.000000 0.000000 0.031119
#
#
# Mechanical properties :
#
#
# Convention : Reuss Voigt Hill
#
# Bulk Modulus (GPa) = 68.21095 104.71683 86.46389
# Shear Modulus (GPa) = -43.61277 23.03514 -10.28881
#
# Velocity S-wave (km/s) = -4.86666 3.53687 -2.36378
# Velocity P-wave (km/s) = 2.33742 8.57594 6.28531
#
# Compressibility (1/GPa) = 0.01466040
#
# Stress axis : x y z
#
# Youngs Moduli (GPa) = 44.53792 75.82398 51.23377
#
# Poissons Ratio (x) = 0.44444 0.20737
# Poissons Ratio (y) = 0.26106 0.52979
# Poissons Ratio (z) = 0.18027 0.78406
#
# Static dielectric constant tensor:
#      x y z
#    x 1.621560 0.000000 0.000000 
#    y 0.000000 1.639820 0.000000 
#    z 0.000000 0.000000 1.592550 
# 
# From -- ./inp_files/6677.got.cif
#   From: 2010.05.17/outbox.cif.g08.bks.cpg/sg53_4_cif.got.tgz:6677.got - 2010.06.03 12:45:16.
