data_PCOD9417975
_publ_section_title
;
Structure prediction by ZEFSAII (Michael W. Deem and Ramdas Pophale) SiO2 
 PCOD9417975
Probable space group: P M N A
;
_chemical_formula_sum "Si O2"
_cell_formula_units_Z 64
_cell_length_a 29.912374
_cell_length_b 10.901556
_cell_length_c 9.918829
_cell_angle_alpha 90.000000
_cell_angle_beta 90.000000
_cell_angle_gamma 90.000000
_cell_volume 3234.445036
_symmetry_space_group_name_H-M "P M N A"
_symmetry_group_IT_number 53
_symmetry_cell_setting 'orthorhombic'
loop_
_space_group_symop_operation_xyz
x,y,z
1/2-x,-y,1/2+z
x,-y,-z
1/2-x,y,1/2-z
-x,-y,-z
1/2+x,y,1/2-z
-x,y,z
1/2+x,-y,1/2+z
loop_
_atom_site_type_symbol
_atom_site_label
_atom_site_fract_x
_atom_site_fract_y
_atom_site_fract_z
Si Si1 0.047063 0.353001 0.476133
Si Si2 0.176951 0.792100 0.740458
Si Si3 0.140215 0.946563 0.271082
Si Si4 0.780823 0.136663 0.531197
Si Si5 0.867902 0.562862 0.641263
Si Si6 0.551284 0.795409 0.255343
Si Si7 0.188567 0.207503 0.946172
Si Si8 0.389123 0.604133 0.388374
O O1 0.046030 0.500000 0.500000
O O2 0.092255 0.341914 0.394405
O O3 0.049292 0.281788 0.616234
O O4 0.000000 0.319157 0.408113
O O5 0.209663 0.808774 0.614854
O O6 0.164343 0.650075 0.724056
O O7 0.143111 0.907022 0.714931
O O8 0.190508 0.811059 0.894008
O O9 0.173258 0.882442 0.383191
O O10 0.089567 0.897328 0.270097
O O11 0.163359 0.900810 0.133259
O O12 0.740275 0.209651 0.599176
O O13 0.763687 0.000000 0.500000
O O14 0.852909 0.500000 0.500000
O O15 0.884441 0.459218 0.742722
O O16 0.500000 0.834634 0.284509
O O17 0.571751 0.705256 0.370100
O O18 0.157202 0.325097 0.918370
O O19 0.397936 0.500000 0.500000
#
# Coordination Sequence:
#
# PCOD9417975 Si02
#       8
#     8   8   8   8   8   8   8   8
#     4   9  16  30  56  85 110 146 199 251 298 347
#     4  11  22  38  63  89 123 164 206 251 307 368
#     4  10  22  39  63  94 124 161 203 258 314 370
#     4  10  21  38  64  94 118 156 216 259 297 370
#     4  11  21  38  63  86 119 160 207 254 304 364
#     4  10  20  37  64  93 125 162 202 256 316 371
#     4  11  22  38  63  89 126 164 205 254 314 363
#     4  11  22  39  60  90 128 163 210 258 308 370
#
# _framework density 19.787012000000001
#
# number of rings (size 3 to 8) (size 9 to 14) (size 15 to 20)
#    0.000    1.625    3.750    2.625    1.750    2.250 
#    0.000    1.250    2.750   10.875    0.000    0.000 
#    0.000    0.000    0.000    0.000    0.000    0.000 
#
# Total GULP energy -356342.984213 kJ/mol
# GULP energy per Si atom -5567.859128 kJ/mol
# Density = 1.974198 g / cm^3
# Si number density = 19.787012 Si / 1000 Ang^3
#
#
#
# Elastic Constant Matrix: (Units=GPa)
#
#
# Indices 1 2 3 4 5 6 
#
# 1 119.0332 42.6559 33.5683 0.0000 0.0000 0.0000
# 2 42.6559 58.1897 14.9554 0.0000 0.0000 0.0000
# 3 33.5683 14.9554 87.1722 0.0000 0.0000 0.0000
# 4 0.0000 0.0000 0.0000 16.7315 0.0000 0.0000
# 5 0.0000 0.0000 0.0000 0.0000 13.1296 0.0000
# 6 0.0000 0.0000 0.0000 0.0000 0.0000 10.3016
#
#
#
# Elastic Compliance Matrix: (Units=1/GPa)
#
#
# Indices 1 2 3 4 5 6 
#
# 1 0.012250 -0.008126 -0.003323 0.000000 0.000000 0.000000
# 2 -0.008126 0.023368 -0.000880 0.000000 0.000000 0.000000
# 3 -0.003323 -0.000880 0.012902 0.000000 0.000000 0.000000
# 4 0.000000 0.000000 0.000000 0.059768 0.000000 0.000000
# 5 0.000000 0.000000 0.000000 0.000000 0.076164 0.000000
# 6 0.000000 0.000000 0.000000 0.000000 0.000000 0.097072
#
#
# Mechanical properties :
#
#
# Convention : Reuss Voigt Hill
#
# Bulk Modulus (GPa) = 41.90707 49.63938 45.77323
# Shear Modulus (GPa) = 15.91667 19.58023 17.74845
#
# Velocity S-wave (km/s) = 2.83927 3.14912 2.99820
# Velocity P-wave (km/s) = 5.65453 6.19386 5.93033
#
# Compressibility (1/GPa) = 0.02386232
#
# Stress axis : x y z
#
# Youngs Moduli (GPa) = 81.63196 42.79364 77.50611
#
# Poissons Ratio (x) = 0.34773 0.25757
# Poissons Ratio (y) = 0.66333 0.06820
# Poissons Ratio (z) = 0.27128 0.03766
#
# Static dielectric constant tensor:
#      x y z
#    x 1.783800 0.000000 0.000000 
#    y 0.000000 1.805440 0.000000 
#    z 0.000000 0.000000 1.640720 
# 
# From -- ./inp_files/13230.got.cif
#   From: 2010.05.17/outbox.cif.g08.bks.cpg/sg53_7_cif.got.tgz:13230.got - 2010.06.03 12:45:16.
