data_PCOD9417405
_publ_section_title
;
Structure prediction by ZEFSAII (Michael W. Deem and Ramdas Pophale) SiO2 
 PCOD9417405
Probable space group: P M N A
;
_chemical_formula_sum "Si O2"
_cell_formula_units_Z 32
_cell_length_a 8.684375
_cell_length_b 12.780471
_cell_length_c 14.989082
_cell_angle_alpha 90.000000
_cell_angle_beta 90.000000
_cell_angle_gamma 90.000000
_cell_volume 1663.644249
_symmetry_space_group_name_H-M "P M N A"
_symmetry_group_IT_number 53
_symmetry_cell_setting 'orthorhombic'
loop_
_space_group_symop_operation_xyz
x,y,z
1/2-x,-y,1/2+z
x,-y,-z
1/2-x,y,1/2-z
-x,-y,-z
1/2+x,y,1/2-z
-x,y,z
1/2+x,-y,1/2+z
loop_
_atom_site_type_symbol
_atom_site_label
_atom_site_fract_x
_atom_site_fract_y
_atom_site_fract_z
Si Si1 0.685935 0.120277 0.002382
Si Si2 0.815548 0.272388 0.149960
Si Si3 0.815319 0.495994 0.850767
Si Si4 0.184270 0.720089 0.349862
O O1 0.500000 0.121317 0.007629
O O2 0.730220 0.184609 0.913724
O O3 0.751035 0.183335 0.086233
O O4 0.737300 0.000000 0.000000
O O5 0.750000 0.262774 0.250000
O O6 0.774188 0.388977 0.113475
O O7 0.000000 0.267203 0.154111
O O8 0.750000 0.497392 0.750000
O O9 0.745455 0.389902 0.889684
O O10 0.000000 0.486717 0.850184
O O11 0.250000 0.732437 0.250000
O O12 0.000000 0.714898 0.344353
#
# Coordination Sequence:
#
# PCOD9417405 Si02
#       4
#     8   8   8   8
#     4  10  23  41  57  78 110 147 190 234 273 321
#     4  10  21  37  59  85 113 146 181 224 276 328
#     4   9  17  31  53  82 113 141 175 219 270 330
#     4  10  20  35  57  82 110 144 180 224 276 328
#
# _framework density 19.234881000000001
#
# number of rings (size 3 to 8) (size 9 to 14) (size 15 to 20)
#    0.000    2.250    0.000    3.750    0.000    7.500 
#    0.000    7.500    0.000    0.000    0.000    0.000 
#    0.000    0.000    0.000    0.000    0.000    0.000 
#
# Total GULP energy -178592.630384 kJ/mol
# GULP energy per Si atom -5581.019699 kJ/mol
# Density = 1.919110 g / cm^3
# Si number density = 19.234881 Si / 1000 Ang^3
#
#
#
# Elastic Constant Matrix: (Units=GPa)
#
#
# Indices 1 2 3 4 5 6 
#
# 1 36.4742 53.0083 30.6480 0.0000 0.0000 0.0000
# 2 53.0083 228.9821 91.9138 0.0000 0.0000 0.0000
# 3 30.6480 91.9138 111.1417 0.0000 0.0000 0.0000
# 4 0.0000 0.0000 0.0000 35.1546 0.0000 0.0000
# 5 0.0000 0.0000 0.0000 0.0000 16.5250 0.0000
# 6 0.0000 0.0000 0.0000 0.0000 0.0000 30.9290
#
#
#
# Elastic Compliance Matrix: (Units=1/GPa)
#
#
# Indices 1 2 3 4 5 6 
#
# 1 0.043440 -0.007855 -0.005482 0.000000 0.000000 0.000000
# 2 -0.007855 0.007958 -0.004415 0.000000 0.000000 0.000000
# 3 -0.005482 -0.004415 0.014160 0.000000 0.000000 0.000000
# 4 0.000000 0.000000 0.000000 0.028446 0.000000 0.000000
# 5 0.000000 0.000000 0.000000 0.000000 0.060514 0.000000
# 6 0.000000 0.000000 0.000000 0.000000 0.000000 0.032332
#
#
# Mechanical properties :
#
#
# Convention : Reuss Voigt Hill
#
# Bulk Modulus (GPa) = 33.27510 80.85980 57.06745
# Shear Modulus (GPa) = 21.51715 29.92359 25.72037
#
# Velocity S-wave (km/s) = 3.34825 3.94851 3.66071
# Velocity P-wave (km/s) = 5.68196 7.93202 6.89933
#
# Compressibility (1/GPa) = 0.03005250
#
# Stress axis : x y z
#
# Youngs Moduli (GPa) = 23.02047 125.66295 70.61958
#
# Poissons Ratio (x) = 0.98714 0.38716
# Poissons Ratio (y) = 0.18084 0.31178
# Poissons Ratio (z) = 0.12621 0.55479
#
# Static dielectric constant tensor:
#      x y z
#    x 1.647140 0.000000 0.000000 
#    y 0.000000 1.692540 0.000000 
#    z 0.000000 0.000000 1.652850 
# 
# From -- ./inp_files/19500.got.cif
#   From: 2010.05.17/outbox.cif.g08.bks.cpg/sg53_10_cif.got.tgz:19500.got - 2010.06.03 12:45:16.
