data_PCOD9417001
_publ_section_title
;
Structure prediction by ZEFSAII (Michael W. Deem and Ramdas Pophale) SiO2 
 PCOD9417001
Probable space group: P M N A
;
_chemical_formula_sum "Si O2"
_cell_formula_units_Z 64
_cell_length_a 7.960821
_cell_length_b 18.437675
_cell_length_c 20.271027
_cell_angle_alpha 90.000000
_cell_angle_beta 90.000000
_cell_angle_gamma 90.000000
_cell_volume 2975.361687
_symmetry_space_group_name_H-M "P M N A"
_symmetry_group_IT_number 53
_symmetry_cell_setting 'orthorhombic'
loop_
_space_group_symop_operation_xyz
x,y,z
1/2-x,-y,1/2+z
x,-y,-z
1/2-x,y,1/2-z
-x,-y,-z
1/2+x,y,1/2-z
-x,y,z
1/2+x,-y,1/2+z
loop_
_atom_site_type_symbol
_atom_site_label
_atom_site_fract_x
_atom_site_fract_y
_atom_site_fract_z
Si Si1 0.697209 0.070149 0.462735
Si Si2 0.315494 0.667357 0.973040
Si Si3 0.302243 0.573071 0.414865
Si Si4 0.702384 0.709690 0.173694
Si Si5 0.808528 0.190294 0.563093
Si Si6 0.297177 0.545998 0.681354
Si Si7 0.310351 0.297690 0.339015
Si Si8 0.796436 0.135060 0.176880
O O1 0.500000 0.055164 0.451385
O O2 0.713814 0.134635 0.515983
O O3 0.764000 0.094115 0.390065
O O4 0.771866 0.000000 0.500000
O O5 0.500000 0.663332 0.942481
O O6 0.185190 0.687684 0.917072
O O7 0.278854 0.597564 0.016943
O O8 0.315150 0.734500 0.023094
O O9 0.500000 0.564711 0.426764
O O10 0.276222 0.638818 0.362627
O O11 0.235531 0.500910 0.379949
O O12 0.750000 0.711557 0.250000
O O13 0.500000 0.705919 0.166908
O O14 0.758715 0.782272 0.133773
O O15 0.000000 0.163117 0.570988
O O16 0.250000 0.508795 0.750000
O O17 0.500000 0.549872 0.676443
O O18 0.226497 0.627496 0.683522
O O19 0.500000 0.294700 0.312109
O O20 0.232999 0.218907 0.326641
O O21 0.750000 0.106320 0.250000
O O22 0.000000 0.137250 0.172691
#
# Coordination Sequence:
#
# PCOD9417001 Si02
#       8
#     8   8   8   8   8   8   8   8
#     4  10  21  38  61  89 117 148 187 226 274 338
#     4  10  20  34  54  81 108 140 184 233 280 337
#     4  10  20  34  52  74 105 147 188 236 293 341
#     4  10  20  34  53  81 111 145 193 242 287 340
#     4   9  19  35  55  81 112 143 184 230 275 330
#     4  10  22  36  51  73 103 141 187 237 288 346
#     4  10  20  36  56  79 108 144 188 232 283 341
#     4  10  21  37  60  88 116 151 189 231 279 334
#
# _framework density 21.509989999999998
#
# number of rings (size 3 to 8) (size 9 to 14) (size 15 to 20)
#    0.000    2.125    1.250    2.625    0.000    6.750 
#    0.000    3.125    0.000    3.000    0.000    0.000 
#    0.000    0.000    0.000    0.000    0.000    0.000 
#
# Total GULP energy -356921.244404 kJ/mol
# GULP energy per Si atom -5576.894444 kJ/mol
# Density = 2.146103 g / cm^3
# Si number density = 21.509990 Si / 1000 Ang^3
#
#
#
# Elastic Constant Matrix: (Units=GPa)
#
#
# Indices 1 2 3 4 5 6 
#
# 1 34.9349 6.8695 1.9258 0.0000 0.0000 0.0000
# 2 6.8695 94.1805 48.6059 0.0000 0.0000 0.0000
# 3 1.9258 48.6059 133.0646 0.0000 0.0000 0.0000
# 4 0.0000 0.0000 0.0000 -12.1743 0.0000 0.0000
# 5 0.0000 0.0000 0.0000 0.0000 24.7228 0.0000
# 6 0.0000 0.0000 0.0000 0.0000 0.0000 4.9696
#
#
#
# Elastic Compliance Matrix: (Units=1/GPa)
#
#
# Indices 1 2 3 4 5 6 
#
# 1 0.029062 -0.002345 0.000436 0.000000 0.000000 0.000000
# 2 -0.002345 0.013274 -0.004815 0.000000 0.000000 0.000000
# 3 0.000436 -0.004815 0.009268 0.000000 0.000000 0.000000
# 4 0.000000 0.000000 0.000000 -0.082140 0.000000 0.000000
# 5 0.000000 0.000000 0.000000 0.000000 0.040449 0.000000
# 6 0.000000 0.000000 0.000000 0.000000 0.000000 0.201223
#
#
# Mechanical properties :
#
#
# Convention : Reuss Voigt Hill
#
# Bulk Modulus (GPa) = 26.20823 41.88694 34.04759
# Shear Modulus (GPa) = 21.07036 17.15552 19.11294
#
# Velocity S-wave (km/s) = 3.13319 2.82718 2.98411
# Velocity P-wave (km/s) = 5.02989 5.49297 5.26653
#
# Compressibility (1/GPa) = 0.03815595
#
# Stress axis : x y z
#
# Youngs Moduli (GPa) = 34.40951 75.33652 107.90323
#
# Poissons Ratio (x) = 0.17664 -0.04703
# Poissons Ratio (y) = 0.08068 0.51952
# Poissons Ratio (z) = -0.01500 0.36272
#
# Static dielectric constant tensor:
#      x y z
#    x 1.765940 0.000000 0.000000 
#    y 0.000000 1.796940 0.000000 
#    z 0.000000 0.000000 1.843720 
# 
# From -- ./inp_files/31219.got.cif
#   From: 2010.05.17/outbox.cif.g08.bks.cpg/sg53_16_cif.got.tgz:31219.got - 2010.06.03 12:45:16.
