data_PCOD9417085
_publ_section_title
;
Structure prediction by ZEFSAII (Michael W. Deem and Ramdas Pophale) SiO2 
 PCOD9417085
Probable space group: P M N A
;
_chemical_formula_sum "Si O2"
_cell_formula_units_Z 32
_cell_length_a 14.208070
_cell_length_b 18.576420
_cell_length_c 5.070918
_cell_angle_alpha 90.000000
_cell_angle_beta 90.000000
_cell_angle_gamma 90.000000
_cell_volume 1338.393126
_symmetry_space_group_name_H-M "P M N A"
_symmetry_group_IT_number 53
_symmetry_cell_setting 'orthorhombic'
loop_
_space_group_symop_operation_xyz
x,y,z
1/2-x,-y,1/2+z
x,-y,-z
1/2-x,y,1/2-z
-x,-y,-z
1/2+x,y,1/2-z
-x,y,z
1/2+x,-y,1/2+z
loop_
_atom_site_type_symbol
_atom_site_label
_atom_site_fract_x
_atom_site_fract_y
_atom_site_fract_z
Si Si1 0.387451 0.657935 0.641920
Si Si2 0.186042 0.187312 0.996285
Si Si3 0.884919 0.426076 0.637604
Si Si4 0.635746 0.045864 0.742798
O O1 0.500000 0.652017 0.635525
O O2 0.362263 0.740035 0.589179
O O3 0.353077 0.599765 0.425175
O O4 0.357357 0.635986 0.933069
O O5 0.250000 0.208610 0.750000
O O6 0.118502 0.127679 0.857107
O O7 0.250000 0.159440 0.250000
O O8 0.853496 0.500000 0.500000
O O9 0.000000 0.431050 0.651217
O O10 0.750000 0.046285 0.750000
O O11 0.602957 0.000000 0.500000
O O12 0.606591 0.000000 0.000000
#
# Coordination Sequence:
#
# PCOD9417085 Si02
#       4
#     8   8   8   8
#     4  10  20  34  54  79 107 139 175 218 266 316
#     4  11  21  34  54  79 109 140 172 216 267 316
#     4   9  17  31  53  78 101 133 182 228 258 297
#     4   9  16  28  47  71  97 125 165 210 244 286
#
# _framework density 23.909267
#
# number of rings (size 3 to 8) (size 9 to 14) (size 15 to 20)
#    0.000    2.250    0.000    6.000    0.000    3.000 
#    0.000    0.000    0.000   16.500    0.000    0.000 
#    0.000   24.000    0.000    0.000    0.000    0.000 
#
# Total GULP energy -178506.066949 kJ/mol
# GULP energy per Si atom -5578.314592 kJ/mol
# Density = 2.385485 g / cm^3
# Si number density = 23.909267 Si / 1000 Ang^3
#
#
#
# Elastic Constant Matrix: (Units=GPa)
#
#
# Indices 1 2 3 4 5 6 
#
# 1 68.9906 15.6530 23.0388 0.0000 0.0000 0.0000
# 2 15.6530 106.3779 0.3275 0.0000 0.0000 0.0000
# 3 23.0388 0.3275 125.2510 0.0000 0.0000 0.0000
# 4 0.0000 0.0000 0.0000 46.8777 0.0000 0.0000
# 5 0.0000 0.0000 0.0000 0.0000 176.8308 0.0000
# 6 0.0000 0.0000 0.0000 0.0000 0.0000 43.5948
#
#
#
# Elastic Compliance Matrix: (Units=1/GPa)
#
#
# Indices 1 2 3 4 5 6 
#
# 1 0.016008 -0.002347 -0.002938 0.000000 0.000000 0.000000
# 2 -0.002347 0.009744 0.000406 0.000000 0.000000 0.000000
# 3 -0.002938 0.000406 0.008523 0.000000 0.000000 0.000000
# 4 0.000000 0.000000 0.000000 0.021332 0.000000 0.000000
# 5 0.000000 0.000000 0.000000 0.000000 0.005655 0.000000
# 6 0.000000 0.000000 0.000000 0.000000 0.000000 0.022939
#
#
# Mechanical properties :
#
#
# Convention : Reuss Voigt Hill
#
# Bulk Modulus (GPa) = 40.78537 42.07313 41.42925
# Shear Modulus (GPa) = 48.95599 70.90069 59.92834
#
# Velocity S-wave (km/s) = 4.52992 5.45146 5.01192
# Velocity P-wave (km/s) = 6.66751 7.56702 7.13146
#
# Compressibility (1/GPa) = 0.02451860
#
# Stress axis : x y z
#
# Youngs Moduli (GPa) = 62.46725 102.62222 117.32391
#
# Poissons Ratio (x) = 0.24080 0.34475
# Poissons Ratio (y) = 0.14658 -0.04765
# Poissons Ratio (z) = 0.18356 -0.04168
#
# Static dielectric constant tensor:
#      x y z
#    x 1.975740 0.000000 0.000000 
#    y 0.000000 1.993540 0.000000 
#    z 0.000000 0.000000 1.894360 
# 
# From -- ./inp_files/1261.got.cif
#   From: 2010.05.17/outbox.cif.g08.bks.cpg/sg53_1_cif.got.tgz:1261.got - 2010.06.03 12:45:16.
