data_PCOD9417524
_publ_section_title
;
Structure prediction by ZEFSAII (Michael W. Deem and Ramdas Pophale) SiO2 
 PCOD9417524
Probable space group: P M N A
;
_chemical_formula_sum "Si O2"
_cell_formula_units_Z 56
_cell_length_a 9.066394
_cell_length_b 18.602679
_cell_length_c 19.537586
_cell_angle_alpha 90.000000
_cell_angle_beta 90.000000
_cell_angle_gamma 90.000000
_cell_volume 3295.193962
_symmetry_space_group_name_H-M "P M N A"
_symmetry_group_IT_number 53
_symmetry_cell_setting 'orthorhombic'
loop_
_space_group_symop_operation_xyz
x,y,z
1/2-x,-y,1/2+z
x,-y,-z
1/2-x,y,1/2-z
-x,-y,-z
1/2+x,y,1/2-z
-x,y,z
1/2+x,-y,1/2+z
loop_
_atom_site_type_symbol
_atom_site_label
_atom_site_fract_x
_atom_site_fract_y
_atom_site_fract_z
Si Si1 0.323488 0.794071 0.923557
Si Si2 0.823959 0.924942 0.176810
Si Si3 0.169021 0.502134 0.583509
Si Si4 0.830639 0.646485 0.919062
Si Si5 0.821305 0.200297 0.927507
Si Si6 0.831204 0.358895 0.914308
Si Si7 0.822664 0.089998 0.175548
O O1 0.500000 0.797462 0.922421
O O2 0.267254 0.715209 0.900241
O O3 0.250453 0.854397 0.876221
O O4 0.261211 0.804566 0.000328
O O5 0.750000 0.912208 0.250000
O O6 0.780787 0.865522 0.121346
O O7 0.000000 0.919931 0.185384
O O8 0.791458 0.007023 0.154994
O O9 0.173387 0.500000 0.500000
O O10 0.265226 0.570652 0.605152
O O11 0.232132 0.425709 0.607598
O O12 0.000000 0.511786 0.603822
O O13 0.000000 0.656419 0.897745
O O14 0.829595 0.643037 0.002369
O O15 0.785663 0.278162 0.894448
O O16 0.000000 0.199954 0.939128
O O17 0.000000 0.371603 0.893123
O O18 0.750000 0.100123 0.250000
O O19 0.000000 0.099403 0.178475
#
# Coordination Sequence:
#
# PCOD9417524 Si02
#       7
#     8   8   8   8   8   8   8
#     4  11  21  32  48  73 102 130 162 203 248 291
#     4   9  19  35  55  75  97 127 164 204 245 291
#     4   9  15  22  35  58  89 122 156 194 237 282
#     4   9  16  27  42  61  89 125 161 196 238 287
#     4   9  18  33  50  71 100 133 165 200 245 294
#     4   8  14  24  39  59  87 123 160 194 233 283
#     4  10  20  36  55  74  97 127 163 202 244 292
#
# _framework density 16.994447000000001
#
# number of rings (size 3 to 8) (size 9 to 14) (size 15 to 20)
#    0.000    2.714    0.000    3.429    0.000    6.857 
#    0.000    2.857    0.000    0.000    0.000    1.000 
#    0.000    2.286    0.000    0.000    0.000    0.000 
#
# Total GULP energy -312075.376557 kJ/mol
# GULP energy per Si atom -5572.774581 kJ/mol
# Density = 1.695577 g / cm^3
# Si number density = 16.994447 Si / 1000 Ang^3
#
#
#
# Elastic Constant Matrix: (Units=GPa)
#
#
# Indices 1 2 3 4 5 6 
#
# 1 98.4382 79.4108 34.1392 0.0000 0.0000 0.0000
# 2 79.4108 162.0810 58.8189 0.0000 0.0000 0.0000
# 3 34.1392 58.8189 31.7647 0.0000 0.0000 0.0000
# 4 0.0000 0.0000 0.0000 -7.9992 0.0000 0.0000
# 5 0.0000 0.0000 0.0000 0.0000 17.5180 0.0000
# 6 0.0000 0.0000 0.0000 0.0000 0.0000 24.0680
#
#
#
# Elastic Compliance Matrix: (Units=1/GPa)
#
#
# Indices 1 2 3 4 5 6 
#
# 1 0.017601 -0.005362 -0.008989 0.000000 0.000000 0.000000
# 2 -0.005362 0.020442 -0.032091 0.000000 0.000000 0.000000
# 3 -0.008989 -0.032091 0.100565 0.000000 0.000000 0.000000
# 4 0.000000 0.000000 0.000000 -0.125012 0.000000 0.000000
# 5 0.000000 0.000000 0.000000 0.000000 0.057084 0.000000
# 6 0.000000 0.000000 0.000000 0.000000 0.000000 0.041549
#
#
# Mechanical properties :
#
#
# Convention : Reuss Voigt Hill
#
# Bulk Modulus (GPa) = 21.86945 70.78019 46.32482
# Shear Modulus (GPa) = 22.69078 14.71169 18.70124
#
# Velocity S-wave (km/s) = 3.65799 2.94543 3.32088
# Velocity P-wave (km/s) = 5.54416 7.30115 6.48246
#
# Compressibility (1/GPa) = 0.04572589
#
# Stress axis : x y z
#
# Youngs Moduli (GPa) = 56.81378 48.91820 9.94385
#
# Poissons Ratio (x) = 0.26228 0.08938
# Poissons Ratio (y) = 0.30461 0.31910
# Poissons Ratio (z) = 0.51070 1.56982
#
# Static dielectric constant tensor:
#      x y z
#    x 1.566830 0.000000 0.000000 
#    y 0.000000 1.592390 0.000000 
#    z 0.000000 0.000000 1.545610 
# 
# From -- ./inp_files/31052.got.cif
#   From: 2010.05.17/outbox.cif.g08.bks.cpg/sg53_16_cif.got.tgz:31052.got - 2010.06.03 12:45:16.
