data_PCOD9417851
_publ_section_title
;
Structure prediction by ZEFSAII (Michael W. Deem and Ramdas Pophale) SiO2 
 PCOD9417851
Probable space group: P M N A
;
_chemical_formula_sum "Si O2"
_cell_formula_units_Z 30
_cell_length_a 10.036175
_cell_length_b 10.150758
_cell_length_c 15.400097
_cell_angle_alpha 90.000000
_cell_angle_beta 90.000000
_cell_angle_gamma 90.000000
_cell_volume 1568.881550
_symmetry_space_group_name_H-M "P M N A"
_symmetry_group_IT_number 53
_symmetry_cell_setting 'orthorhombic'
loop_
_space_group_symop_operation_xyz
x,y,z
1/2-x,-y,1/2+z
x,-y,-z
1/2-x,y,1/2-z
-x,-y,-z
1/2+x,y,1/2-z
-x,y,z
1/2+x,-y,1/2+z
loop_
_atom_site_type_symbol
_atom_site_label
_atom_site_fract_x
_atom_site_fract_y
_atom_site_fract_z
Si Si1 0.500000 0.755721 0.152762
Si Si2 0.284077 0.108882 0.383393
Si Si3 0.000000 0.814936 0.544891
Si Si4 0.750000 0.333260 0.250000
Si Si5 0.750000 0.119799 0.750000
Si Si6 0.000000 0.000000 0.000000
Si Si7 0.000000 0.552536 0.653069
O O1 0.630426 0.797388 0.207671
O O2 0.500000 0.600747 0.132071
O O3 0.500000 0.824836 0.058659
O O4 0.131915 0.120801 0.414431
O O5 0.308933 0.234732 0.322621
O O6 0.383460 0.098617 0.462587
O O7 0.305117 0.978747 0.324523
O O8 0.000000 0.661419 0.576162
O O9 0.631972 0.416417 0.208557
#
# Coordination Sequence:
#
# PCOD9417851 Si02
#       7
#     4   8   4   4   4   2   4
#     4  12  23  37  56  86 117 148 181 233 286 333
#     4  10  21  37  57  82 110 148 186 229 279 332
#     4  10  22  40  61  79 109 152 198 230 268 333
#     4   9  19  38  60  80 109 151 196 232 270 331
#     4  11  23  36  54  80 115 145 178 222 284 341
#     4  12  20  30  52  84 112 130 172 230 282 324
#     4  10  20  37  59  83 111 149 193 234 275 327
#
# _framework density 19.121901000000001
#
# number of rings (size 3 to 8) (size 9 to 14) (size 15 to 20)
#    0.000    1.600    0.000    5.200    0.000    5.867 
#    0.000    0.000    0.000    0.000    0.000   20.533 
#    0.000    0.000    0.000    0.000    0.000    0.000 
#
# Total GULP energy -167091.827877 kJ/mol
# GULP energy per Si atom -5569.727596 kJ/mol
# Density = 1.907838 g / cm^3
# Si number density = 19.121901 Si / 1000 Ang^3
#
#
#
# Elastic Constant Matrix: (Units=GPa)
#
#
# Indices 1 2 3 4 5 6 
#
# 1 75.3259 4.9593 21.3600 0.0000 0.0000 0.0000
# 2 4.9593 74.8452 14.3985 0.0000 0.0000 0.0000
# 3 21.3600 14.3985 75.7206 0.0000 0.0000 0.0000
# 4 0.0000 0.0000 0.0000 17.4186 0.0000 0.0000
# 5 0.0000 0.0000 0.0000 0.0000 18.6939 0.0000
# 6 0.0000 0.0000 0.0000 0.0000 0.0000 23.4317
#
#
#
# Elastic Compliance Matrix: (Units=1/GPa)
#
#
# Indices 1 2 3 4 5 6 
#
# 1 0.014432 -0.000180 -0.004037 0.000000 0.000000 0.000000
# 2 -0.000180 0.013870 -0.002587 0.000000 0.000000 0.000000
# 3 -0.004037 -0.002587 0.014837 0.000000 0.000000 0.000000
# 4 0.000000 0.000000 0.000000 0.057410 0.000000 0.000000
# 5 0.000000 0.000000 0.000000 0.000000 0.053494 0.000000
# 6 0.000000 0.000000 0.000000 0.000000 0.000000 0.042677
#
#
# Mechanical properties :
#
#
# Convention : Reuss Voigt Hill
#
# Bulk Modulus (GPa) = 33.86067 34.14751 34.00409
# Shear Modulus (GPa) = 22.70953 24.25375 23.48164
#
# Velocity S-wave (km/s) = 3.44992 3.56529 3.50808
# Velocity P-wave (km/s) = 5.79789 5.90296 5.85066
#
# Compressibility (1/GPa) = 0.02953279
#
# Stress axis : x y z
#
# Youngs Moduli (GPa) = 69.28931 72.09567 67.39844
#
# Poissons Ratio (x) = 0.01295 0.27209
# Poissons Ratio (y) = 0.01245 0.17435
# Poissons Ratio (z) = 0.27972 0.18650
#
# Static dielectric constant tensor:
#      x y z
#    x 1.631880 0.000000 0.000000 
#    y 0.000000 1.653530 0.000000 
#    z 0.000000 0.000000 1.695030 
# 
# From -- ./inp_files/19597.got.cif
#   From: 2010.05.17/outbox.cif.g08.bks.cpg/sg53_10_cif.got.tgz:19597.got - 2010.06.03 12:45:16.
