data_PCOD9417910
_publ_section_title
;
Structure prediction by ZEFSAII (Michael W. Deem and Ramdas Pophale) SiO2 
 PCOD9417910
Probable space group: P M N A
;
_chemical_formula_sum "Si O2"
_cell_formula_units_Z 64
_cell_length_a 27.565426
_cell_length_b 11.580771
_cell_length_c 9.806806
_cell_angle_alpha 90.000000
_cell_angle_beta 90.000000
_cell_angle_gamma 90.000000
_cell_volume 3130.615755
_symmetry_space_group_name_H-M "P M N A"
_symmetry_group_IT_number 53
_symmetry_cell_setting 'orthorhombic'
loop_
_space_group_symop_operation_xyz
x,y,z
1/2-x,-y,1/2+z
x,-y,-z
1/2-x,y,1/2-z
-x,-y,-z
1/2+x,y,1/2-z
-x,y,z
1/2+x,-y,1/2+z
loop_
_atom_site_type_symbol
_atom_site_label
_atom_site_fract_x
_atom_site_fract_y
_atom_site_fract_z
Si Si1 0.942742 0.522952 0.647155
Si Si2 0.300974 0.502385 0.666676
Si Si3 0.214784 0.870882 0.034616
Si Si4 0.671586 0.866173 0.996624
Si Si5 0.849374 0.743557 0.241481
Si Si6 0.944644 0.669418 0.135188
Si Si7 0.659273 0.247012 0.296750
Si Si8 0.445602 0.270667 0.336375
O O1 0.919331 0.500000 0.500000
O O2 0.929793 0.437475 0.769760
O O3 0.939487 0.652308 0.701451
O O4 0.000000 0.499880 0.633104
O O5 0.294618 0.500000 0.500000
O O6 0.250000 0.512311 0.750000
O O7 0.326575 0.383272 0.713985
O O8 0.333973 0.613783 0.705108
O O9 0.272412 0.866616 0.042870
O O10 0.188374 0.828677 0.169266
O O11 0.197313 0.791789 0.910436
O O12 0.199871 0.000000 0.000000
O O13 0.644996 0.781679 0.102601
O O14 0.669649 0.812184 0.846803
O O15 0.654516 0.000000 0.000000
O O16 0.901404 0.756472 0.168500
O O17 0.000000 0.704878 0.169267
O O18 0.944894 0.650164 0.972906
O O19 0.605381 0.205689 0.341531
O O20 0.500000 0.217227 0.334764
#
# Coordination Sequence:
#
# PCOD9417910 Si02
#       8
#     8   8   8   8   8   8   8   8
#     4   9  18  31  53  85 120 162 209 254 304 360
#     4  12  25  40  63  97 140 175 206 254 326 400
#     4  11  22  43  70  92 121 167 219 273 314 363
#     4  11  26  45  68  96 123 165 221 271 320 373
#     4  12  24  41  66  97 133 168 212 262 319 386
#     4  10  20  37  60  87 123 166 211 259 308 371
#     4  12  24  41  66  97 133 168 212 262 319 386
#     4  10  20  37  60  87 123 166 211 259 308 371
#
# _framework density 20.443263999999999
#
# number of rings (size 3 to 8) (size 9 to 14) (size 15 to 20)
#    0.000    1.125    2.500    4.125    3.500    3.500 
#    0.000    0.000    0.000    4.500    0.000    0.000 
#    0.000    0.000    0.000    0.000    0.000    0.000 
#
# Total GULP energy -356973.742221 kJ/mol
# GULP energy per Si atom -5577.714722 kJ/mol
# Density = 2.039673 g / cm^3
# Si number density = 20.443264 Si / 1000 Ang^3
#
#
#
# Elastic Constant Matrix: (Units=GPa)
#
#
# Indices 1 2 3 4 5 6 
#
# 1 97.9182 17.9956 5.1159 0.0000 0.0000 0.0000
# 2 17.9956 65.2668 12.7412 0.0000 0.0000 0.0000
# 3 5.1159 12.7412 104.1239 0.0000 0.0000 0.0000
# 4 0.0000 0.0000 0.0000 21.6968 0.0000 0.0000
# 5 0.0000 0.0000 0.0000 0.0000 22.7277 0.0000
# 6 0.0000 0.0000 0.0000 0.0000 0.0000 1.5580
#
#
#
# Elastic Compliance Matrix: (Units=1/GPa)
#
#
# Indices 1 2 3 4 5 6 
#
# 1 0.010761 -0.002934 -0.000170 0.000000 0.000000 0.000000
# 2 -0.002934 0.016497 -0.001874 0.000000 0.000000 0.000000
# 3 -0.000170 -0.001874 0.009842 0.000000 0.000000 0.000000
# 4 0.000000 0.000000 0.000000 0.046090 0.000000 0.000000
# 5 0.000000 0.000000 0.000000 0.000000 0.043999 0.000000
# 6 0.000000 0.000000 0.000000 0.000000 0.000000 0.641836
#
#
# Mechanical properties :
#
#
# Convention : Reuss Voigt Hill
#
# Bulk Modulus (GPa) = 36.84209 37.66826 37.25518
# Shear Modulus (GPa) = 6.34496 24.62692 15.48594
#
# Velocity S-wave (km/s) = 1.76364 3.47457 2.75527
# Velocity P-wave (km/s) = 4.71254 5.87900 5.32778
#
# Compressibility (1/GPa) = 0.02714287
#
# Stress axis : x y z
#
# Youngs Moduli (GPa) = 92.93107 60.61861 101.60895
#
# Poissons Ratio (x) = 0.17785 0.01724
# Poissons Ratio (y) = 0.27265 0.19046
# Poissons Ratio (z) = 0.01577 0.11363
#
# Static dielectric constant tensor:
#      x y z
#    x 1.772050 0.000000 0.000000 
#    y 0.000000 1.754410 0.000000 
#    z 0.000000 0.000000 1.756170 
# 
# From -- ./inp_files/13226.got.cif
#   From: 2010.05.17/outbox.cif.g08.bks.cpg/sg53_7_cif.got.tgz:13226.got - 2010.06.03 12:45:16.
