data_PCOD9417608
_publ_section_title
;
Structure prediction by ZEFSAII (Michael W. Deem and Ramdas Pophale) SiO2 
 PCOD9417608
Probable space group: P M N A
;
_chemical_formula_sum "Si O2"
_cell_formula_units_Z 48
_cell_length_a 8.526598
_cell_length_b 31.656866
_cell_length_c 9.371847
_cell_angle_alpha 90.000000
_cell_angle_beta 90.000000
_cell_angle_gamma 90.000000
_cell_volume 2529.699272
_symmetry_space_group_name_H-M "P M N A"
_symmetry_group_IT_number 53
_symmetry_cell_setting 'orthorhombic'
loop_
_space_group_symop_operation_xyz
x,y,z
1/2-x,-y,1/2+z
x,-y,-z
1/2-x,y,1/2-z
-x,-y,-z
1/2+x,y,1/2-z
-x,y,z
1/2+x,-y,1/2+z
loop_
_atom_site_type_symbol
_atom_site_label
_atom_site_fract_x
_atom_site_fract_y
_atom_site_fract_z
Si Si1 0.811704 0.783388 0.590141
Si Si2 0.188020 0.705881 0.089877
Si Si3 0.189575 0.458659 0.911556
Si Si4 0.689534 0.959231 0.090366
Si Si5 0.689510 0.376123 0.411228
Si Si6 0.689211 0.879345 0.908858
O O1 0.750000 0.774583 0.750000
O O2 0.746810 0.749011 0.481523
O O3 0.762496 0.831478 0.552800
O O4 0.000000 0.781523 0.591509
O O5 0.250000 0.701207 0.250000
O O6 0.000000 0.705913 0.092867
O O7 0.240684 0.666518 0.991777
O O8 0.250000 0.459166 0.750000
O O9 0.000000 0.458685 0.907036
O O10 0.240336 0.500000 0.000000
O O11 0.240509 0.416764 0.996834
O O12 0.750000 0.962085 0.250000
O O13 0.500000 0.959063 0.091689
O O14 0.743272 0.915911 0.015143
O O15 0.740937 0.000000 0.000000
O O16 0.750000 0.377878 0.250000
O O17 0.500000 0.376289 0.407072
O O18 0.750000 0.888203 0.750000
O O19 0.500000 0.879971 0.905711
#
# Coordination Sequence:
#
# PCOD9417608 Si02
#       6
#     8   8   8   8   8   8
#     4  10  20  36  57  81 110 143 181 223 268 320
#     4  11  23  38  56  80 110 144 183 226 274 324
#     4  10  21  37  57  83 113 144 181 222 266 318
#     4  10  21  36  54  78 107 138 175 217 262 314
#     4  10  22  38  57  82 110 142 181 224 270 322
#     4   9  19  35  55  80 108 139 176 218 263 314
#
# _framework density 18.974587
#
# number of rings (size 3 to 8) (size 9 to 14) (size 15 to 20)
#    0.000    2.000    0.000    3.000    0.000    6.000 
#    0.000    1.667    0.000    0.000    0.000    0.000 
#    0.000    0.000    0.000    0.000    0.000    0.000 
#
# Total GULP energy -268163.918068 kJ/mol
# GULP energy per Si atom -5586.748293 kJ/mol
# Density = 1.893140 g / cm^3
# Si number density = 18.974587 Si / 1000 Ang^3
#
#
#
# Elastic Constant Matrix: (Units=GPa)
#
#
# Indices 1 2 3 4 5 6 
#
# 1 17.7321 30.2820 27.6764 0.0000 0.0000 0.0000
# 2 30.2820 166.7401 131.1312 0.0000 0.0000 0.0000
# 3 27.6764 131.1312 195.7241 0.0000 0.0000 0.0000
# 4 0.0000 0.0000 0.0000 42.8394 0.0000 0.0000
# 5 0.0000 0.0000 0.0000 0.0000 39.9373 0.0000
# 6 0.0000 0.0000 0.0000 0.0000 0.0000 21.3673
#
#
#
# Elastic Compliance Matrix: (Units=1/GPa)
#
#
# Indices 1 2 3 4 5 6 
#
# 1 0.082839 -0.012328 -0.003455 0.000000 0.000000 0.000000
# 2 -0.012328 0.014511 -0.007979 0.000000 0.000000 0.000000
# 3 -0.003455 -0.007979 0.010944 0.000000 0.000000 0.000000
# 4 0.000000 0.000000 0.000000 0.023343 0.000000 0.000000
# 5 0.000000 0.000000 0.000000 0.000000 0.025039 0.000000
# 6 0.000000 0.000000 0.000000 0.000000 0.000000 0.046800
#
#
# Mechanical properties :
#
#
# Convention : Reuss Voigt Hill
#
# Bulk Modulus (GPa) = 16.45511 84.26397 50.35954
# Shear Modulus (GPa) = 18.43271 33.56925 26.00098
#
# Velocity S-wave (km/s) = 3.12018 4.21071 3.70578
# Velocity P-wave (km/s) = 4.65529 8.25502 6.70138
#
# Compressibility (1/GPa) = 0.06077140
#
# Stress axis : x y z
#
# Youngs Moduli (GPa) = 12.07154 68.91178 91.37819
#
# Poissons Ratio (x) = 0.84954 0.31567
# Poissons Ratio (y) = 0.14882 0.72911
# Poissons Ratio (z) = 0.04170 0.54985
#
# Static dielectric constant tensor:
#      x y z
#    x 1.654250 0.000000 0.000000 
#    y 0.000000 1.667320 0.000000 
#    z 0.000000 0.000000 1.599340 
# 
# From -- ./inp_files/6589.got.cif
#   From: 2010.05.17/outbox.cif.g08.bks.cpg/sg53_4_cif.got.tgz:6589.got - 2010.06.03 12:45:16.
