data_PCOD9417310
_publ_section_title
;
Structure prediction by ZEFSAII (Michael W. Deem and Ramdas Pophale) SiO2 
 PCOD9417310
Probable space group: P M N A
;
_chemical_formula_sum "Si O2"
_cell_formula_units_Z 48
_cell_length_a 8.382231
_cell_length_b 32.014530
_cell_length_c 9.545698
_cell_angle_alpha 90.000000
_cell_angle_beta 90.000000
_cell_angle_gamma 90.000000
_cell_volume 2561.618469
_symmetry_space_group_name_H-M "P M N A"
_symmetry_group_IT_number 53
_symmetry_cell_setting 'orthorhombic'
loop_
_space_group_symop_operation_xyz
x,y,z
1/2-x,-y,1/2+z
x,-y,-z
1/2-x,y,1/2-z
-x,-y,-z
1/2+x,y,1/2-z
-x,y,z
1/2+x,-y,1/2+z
loop_
_atom_site_type_symbol
_atom_site_label
_atom_site_fract_x
_atom_site_fract_y
_atom_site_fract_z
Si Si1 0.808879 0.370007 0.409547
Si Si2 0.192810 0.132148 0.590772
Si Si3 0.807241 0.961265 0.408234
Si Si4 0.191237 0.539207 0.908668
Si Si5 0.192862 0.709146 0.409423
Si Si6 0.192945 0.210810 0.409267
O O1 0.750000 0.363637 0.250000
O O2 0.751506 0.415585 0.458452
O O3 0.753297 0.332795 0.510427
O O4 0.000000 0.369952 0.406362
O O5 0.250000 0.139377 0.750000
O O6 0.244417 0.085385 0.546477
O O7 0.247942 0.168537 0.487000
O O8 0.000000 0.132811 0.592594
O O9 0.750000 0.966616 0.250000
O O10 0.000000 0.961693 0.411104
O O11 0.748455 0.000000 0.500000
O O12 0.250000 0.534260 0.750000
O O13 0.000000 0.539911 0.909657
O O14 0.247419 0.500000 0.000000
O O15 0.250000 0.710953 0.250000
O O16 0.245796 0.749368 0.499068
O O17 0.000000 0.709127 0.408656
O O18 0.250000 0.213356 0.250000
O O19 0.000000 0.210750 0.408525
#
# Coordination Sequence:
#
# PCOD9417310 Si02
#       6
#     8   8   8   8   8   8
#     4  10  20  35  55  78 104 135 171 210 253 300
#     4   9  18  33  52  73  99 132 169 209 253 301
#     4   9  18  32  49  71 100 132 167 209 254 300
#     4  10  21  36  55  79 106 138 174 211 254 301
#     4  10  22  37  54  78 105 134 169 209 252 300
#     4  10  21  36  53  76 104 133 168 208 252 302
#
# _framework density 18.738154000000002
#
# number of rings (size 3 to 8) (size 9 to 14) (size 15 to 20)
#    0.000    2.333    0.000    3.000    0.000    5.667 
#    0.000    3.333    0.000    0.000    0.000    0.000 
#    0.000    0.000    0.000    0.000    0.000    0.000 
#
# Total GULP energy -267895.685396 kJ/mol
# GULP energy per Si atom -5581.160112 kJ/mol
# Density = 1.869551 g / cm^3
# Si number density = 18.738154 Si / 1000 Ang^3
#
#
#
# Elastic Constant Matrix: (Units=GPa)
#
#
# Indices 1 2 3 4 5 6 
#
# 1 15.1354 27.9804 14.3622 0.0000 0.0000 0.0000
# 2 27.9804 226.4924 131.3558 0.0000 0.0000 0.0000
# 3 14.3622 131.3558 127.6767 0.0000 0.0000 0.0000
# 4 0.0000 0.0000 0.0000 43.7487 0.0000 0.0000
# 5 0.0000 0.0000 0.0000 0.0000 30.0642 0.0000
# 6 0.0000 0.0000 0.0000 0.0000 0.0000 -8.4451
#
#
#
# Elastic Compliance Matrix: (Units=1/GPa)
#
#
# Indices 1 2 3 4 5 6 
#
# 1 0.086124 -0.012449 0.003120 0.000000 0.000000 0.000000
# 2 -0.012449 0.012746 -0.011713 0.000000 0.000000 0.000000
# 3 0.003120 -0.011713 0.019532 0.000000 0.000000 0.000000
# 4 0.000000 0.000000 0.000000 0.022858 0.000000 0.000000
# 5 0.000000 0.000000 0.000000 0.000000 0.033262 0.000000
# 6 0.000000 0.000000 0.000000 0.000000 0.000000 -0.118411
#
#
# Mechanical properties :
#
#
# Convention : Reuss Voigt Hill
#
# Bulk Modulus (GPa) = 13.10320 79.63348 46.36834
# Shear Modulus (GPa) = 40.44189 26.11396 33.27792
#
# Velocity S-wave (km/s) = 4.65075 3.73718 4.21877
# Velocity P-wave (km/s) = 5.98726 7.82383 6.96633
#
# Compressibility (1/GPa) = 0.07631723
#
# Stress axis : x y z
#
# Youngs Moduli (GPa) = 11.61121 78.45514 51.19807
#
# Poissons Ratio (x) = 0.97667 -0.15971
# Poissons Ratio (y) = 0.14455 0.59969
# Poissons Ratio (z) = -0.03622 0.91895
#
# Static dielectric constant tensor:
#      x y z
#    x 1.645770 0.000000 0.000000 
#    y 0.000000 1.673540 0.000000 
#    z 0.000000 0.000000 1.598430 
# 
# From -- ./inp_files/6757.got.cif
#   From: 2010.05.17/outbox.cif.g08.bks.cpg/sg53_4_cif.got.tgz:6757.got - 2010.06.03 12:45:16.
