data_PCOD9417481
_publ_section_title
;
Structure prediction by ZEFSAII (Michael W. Deem and Ramdas Pophale) SiO2 
 PCOD9417481
Probable space group: P M N A
;
_chemical_formula_sum "Si O2"
_cell_formula_units_Z 40
_cell_length_a 7.838156
_cell_length_b 13.215470
_cell_length_c 17.880985
_cell_angle_alpha 90.000000
_cell_angle_beta 90.000000
_cell_angle_gamma 90.000000
_cell_volume 1852.200320
_symmetry_space_group_name_H-M "P M N A"
_symmetry_group_IT_number 53
_symmetry_cell_setting 'orthorhombic'
loop_
_space_group_symop_operation_xyz
x,y,z
1/2-x,-y,1/2+z
x,-y,-z
1/2-x,y,1/2-z
-x,-y,-z
1/2+x,y,1/2-z
-x,y,z
1/2+x,-y,1/2+z
loop_
_atom_site_type_symbol
_atom_site_label
_atom_site_fract_x
_atom_site_fract_y
_atom_site_fract_z
Si Si1 0.701617 0.237282 0.161684
Si Si2 0.704547 0.828849 0.163447
Si Si3 0.795472 0.387349 0.663366
Si Si4 0.807675 0.433698 0.067425
Si Si5 0.709271 0.970405 0.915626
O O1 0.750000 0.250299 0.250000
O O2 0.500000 0.226583 0.163667
O O3 0.739042 0.332223 0.106699
O O4 0.770366 0.134223 0.122282
O O5 0.750000 0.827462 0.250000
O O6 0.500000 0.829612 0.155782
O O7 0.758880 0.721082 0.128681
O O8 0.770454 0.932703 0.130645
O O9 0.750000 0.381193 0.750000
O O10 0.698213 0.482376 0.631549
O O11 0.000000 0.400132 0.654093
O O12 0.000000 0.409826 0.042598
O O13 0.722331 0.500000 0.000000
O O14 0.500000 0.966541 0.914707
O O15 0.757828 0.000000 0.000000
#
# Coordination Sequence:
#
# PCOD9417481 Si02
#       5
#     8   8   8   8   8
#     4  11  23  40  66  92 123 164 207 253 300 366
#     4   9  18  33  56  84 114 149 187 234 284 343
#     4  10  20  35  59  87 116 151 194 239 289 353
#     4  11  25  42  60  84 120 157 197 252 307 357
#     4   9  19  35  58  88 120 154 196 245 294 346
#
# _framework density 21.595935999999998
#
# number of rings (size 3 to 8) (size 9 to 14) (size 15 to 20)
#    0.000    2.000    0.000    3.000    2.800    2.400 
#    0.000    1.000    0.000    3.000    0.000    0.000 
#    0.000    0.000    0.000    0.000    0.000    0.000 
#
# Total GULP energy -222864.295388 kJ/mol
# GULP energy per Si atom -5571.607385 kJ/mol
# Density = 2.154678 g / cm^3
# Si number density = 21.595936 Si / 1000 Ang^3
#
#
#
# Elastic Constant Matrix: (Units=GPa)
#
#
# Indices 1 2 3 4 5 6 
#
# 1 40.8037 8.6198 -1.1774 0.0000 0.0000 0.0000
# 2 8.6198 159.4615 30.9603 0.0000 0.0000 0.0000
# 3 -1.1774 30.9603 66.9202 0.0000 0.0000 0.0000
# 4 0.0000 0.0000 0.0000 29.2589 0.0000 0.0000
# 5 0.0000 0.0000 0.0000 0.0000 9.3263 0.0000
# 6 0.0000 0.0000 0.0000 0.0000 0.0000 -9.2944
#
#
#
# Elastic Compliance Matrix: (Units=1/GPa)
#
#
# Indices 1 2 3 4 5 6 
#
# 1 0.024873 -0.001571 0.001164 0.000000 0.000000 0.000000
# 2 -0.001571 0.006989 -0.003261 0.000000 0.000000 0.000000
# 3 0.001164 -0.003261 0.016472 0.000000 0.000000 0.000000
# 4 0.000000 0.000000 0.000000 0.034178 0.000000 0.000000
# 5 0.000000 0.000000 0.000000 0.000000 0.107223 0.000000
# 6 0.000000 0.000000 0.000000 0.000000 0.000000 -0.107592
#
#
# Mechanical properties :
#
#
# Convention : Reuss Voigt Hill
#
# Bulk Modulus (GPa) = 24.39046 38.22120 31.30583
# Shear Modulus (GPa) = 48.47568 21.11037 34.79303
#
# Velocity S-wave (km/s) = 4.74293 3.12992 4.01819
# Velocity P-wave (km/s) = 6.42747 5.54965 6.00462
#
# Compressibility (1/GPa) = 0.04099963
#
# Stress axis : x y z
#
# Youngs Moduli (GPa) = 40.20427 143.07848 60.70762
#
# Poissons Ratio (x) = 0.22471 -0.07068
# Poissons Ratio (y) = 0.06314 0.19798
# Poissons Ratio (z) = -0.04681 0.46660
#
# Static dielectric constant tensor:
#      x y z
#    x 1.806400 0.000000 0.000000 
#    y 0.000000 1.837690 0.000000 
#    z 0.000000 0.000000 1.839720 
# 
# From -- ./inp_files/25825.got.cif
#   From: 2010.05.17/outbox.cif.g08.bks.cpg/sg53_13_cif.got.tgz:25825.got - 2010.06.03 12:45:16.
