data_PCOD9417004
_publ_section_title
;
Structure prediction by ZEFSAII (Michael W. Deem and Ramdas Pophale) SiO2 
 PCOD9417004
Probable space group: P M N A
;
_chemical_formula_sum "Si O2"
_cell_formula_units_Z 40
_cell_length_a 8.411099
_cell_length_b 26.660199
_cell_length_c 9.680588
_cell_angle_alpha 90.000000
_cell_angle_beta 90.000000
_cell_angle_gamma 90.000000
_cell_volume 2170.790282
_symmetry_space_group_name_H-M "P M N A"
_symmetry_group_IT_number 53
_symmetry_cell_setting 'orthorhombic'
loop_
_space_group_symop_operation_xyz
x,y,z
1/2-x,-y,1/2+z
x,-y,-z
1/2-x,y,1/2-z
-x,-y,-z
1/2+x,y,1/2-z
-x,y,z
1/2+x,-y,1/2+z
loop_
_atom_site_type_symbol
_atom_site_label
_atom_site_fract_x
_atom_site_fract_y
_atom_site_fract_z
Si Si1 0.192193 0.045842 0.093544
Si Si2 0.809151 0.750694 0.094278
Si Si3 0.807990 0.157467 0.093630
Si Si4 0.690626 0.640859 0.093290
Si Si5 0.307791 0.547445 0.907472
O O1 0.250000 0.039741 0.250000
O O2 0.242665 0.101670 0.045616
O O3 0.000000 0.044989 0.092968
O O4 0.250075 0.000000 0.000000
O O5 0.750000 0.758208 0.250000
O O6 0.748915 0.695944 0.049423
O O7 0.000000 0.749864 0.093715
O O8 0.751859 0.796531 0.999830
O O9 0.750000 0.163582 0.250000
O O10 0.000000 0.158204 0.093031
O O11 0.750000 0.631452 0.250000
O O12 0.500000 0.640935 0.097446
O O13 0.744384 0.597770 0.987760
O O14 0.250000 0.544859 0.750000
O O15 0.500000 0.547197 0.904901
O O16 0.255620 0.500000 0.000000
#
# Coordination Sequence:
#
# PCOD9417004 Si02
#       5
#     8   8   8   8   8
#     4   9  18  33  51  72  99 129 164 206 250 298
#     4  10  20  34  52  75 103 134 169 207 250 298
#     4   9  19  34  51  72  99 132 167 205 250 298
#     4  10  20  35  55  78 104 134 170 209 250 297
#     4  10  22  38  56  80 107 136 171 209 251 300
#
# _framework density 18.426469999999998
#
# number of rings (size 3 to 8) (size 9 to 14) (size 15 to 20)
#    0.000    2.400    0.000    3.000    0.000    5.600 
#    0.000    4.000    0.000    0.000    0.000    0.000 
#    0.000    0.000    0.000    0.000    0.000    0.000 
#
# Total GULP energy -223172.625817 kJ/mol
# GULP energy per Si atom -5579.315645 kJ/mol
# Density = 1.838453 g / cm^3
# Si number density = 18.426470 Si / 1000 Ang^3
#
#
#
# Elastic Constant Matrix: (Units=GPa)
#
#
# Indices 1 2 3 4 5 6 
#
# 1 21.1940 29.1948 15.7813 0.0000 0.0000 0.0000
# 2 29.1948 222.3542 128.1077 0.0000 0.0000 0.0000
# 3 15.7813 128.1077 109.5372 0.0000 0.0000 0.0000
# 4 0.0000 0.0000 0.0000 44.3150 0.0000 0.0000
# 5 0.0000 0.0000 0.0000 0.0000 29.3063 0.0000
# 6 0.0000 0.0000 0.0000 0.0000 0.0000 44.1215
#
#
#
# Elastic Compliance Matrix: (Units=1/GPa)
#
#
# Indices 1 2 3 4 5 6 
#
# 1 0.057701 -0.008543 0.001678 0.000000 0.000000 0.000000
# 2 -0.008543 0.015053 -0.016374 0.000000 0.000000 0.000000
# 3 0.001678 -0.016374 0.028037 0.000000 0.000000 0.000000
# 4 0.000000 0.000000 0.000000 0.022566 0.000000 0.000000
# 5 0.000000 0.000000 0.000000 0.000000 0.034122 0.000000
# 6 0.000000 0.000000 0.000000 0.000000 0.000000 0.022665
#
#
# Mechanical properties :
#
#
# Convention : Reuss Voigt Hill
#
# Bulk Modulus (GPa) = 18.41144 77.69478 48.05311
# Shear Modulus (GPa) = 20.43099 35.54867 27.98983
#
# Velocity S-wave (km/s) = 3.33345 4.39705 3.90166
# Velocity P-wave (km/s) = 4.98291 8.24834 6.81412
#
# Compressibility (1/GPa) = 0.05431404
#
# Stress axis : x y z
#
# Youngs Moduli (GPa) = 17.33058 66.43347 35.66670
#
# Poissons Ratio (x) = 0.56753 -0.05985
# Poissons Ratio (y) = 0.14805 0.58400
# Poissons Ratio (z) = -0.02908 1.08777
#
# Static dielectric constant tensor:
#      x y z
#    x 1.637310 0.000000 0.000000 
#    y 0.000000 1.659890 0.000000 
#    z 0.000000 0.000000 1.589090 
# 
# From -- ./inp_files/6304.got.cif
#   From: 2010.05.17/outbox.cif.g08.bks.cpg/sg53_4_cif.got.tgz:6304.got - 2010.06.03 12:45:16.
