data_PCOD9417896
_publ_section_title
;
Structure prediction by ZEFSAII (Michael W. Deem and Ramdas Pophale) SiO2 
 PCOD9417896
Probable space group: P M N A
;
_chemical_formula_sum "Si O2"
_cell_formula_units_Z 48
_cell_length_a 8.776403
_cell_length_b 10.152019
_cell_length_c 28.487591
_cell_angle_alpha 90.000000
_cell_angle_beta 90.000000
_cell_angle_gamma 90.000000
_cell_volume 2538.193366
_symmetry_space_group_name_H-M "P M N A"
_symmetry_group_IT_number 53
_symmetry_cell_setting 'orthorhombic'
loop_
_space_group_symop_operation_xyz
x,y,z
1/2-x,-y,1/2+z
x,-y,-z
1/2-x,y,1/2-z
-x,-y,-z
1/2+x,y,1/2-z
-x,y,z
1/2+x,-y,1/2+z
loop_
_atom_site_type_symbol
_atom_site_label
_atom_site_fract_x
_atom_site_fract_y
_atom_site_fract_z
Si Si1 0.817746 0.802590 0.870583
Si Si2 0.816056 0.317784 0.458622
Si Si3 0.682144 0.409331 0.199799
Si Si4 0.815009 0.620301 0.438464
Si Si5 0.318027 0.970112 0.299713
Si Si6 0.183443 0.299212 0.664341
O O1 0.753667 0.786306 0.922880
O O2 0.752637 0.681426 0.840350
O O3 0.771251 0.933330 0.842133
O O4 0.000000 0.796595 0.871608
O O5 0.771306 0.466134 0.442163
O O6 0.768722 0.309284 0.513150
O O7 0.000000 0.310607 0.456368
O O8 0.750000 0.371753 0.250000
O O9 0.500000 0.394272 0.199495
O O10 0.717961 0.561985 0.189139
O O11 0.765307 0.685220 0.389912
O O12 0.000000 0.619809 0.437880
O O13 0.250000 0.015098 0.250000
O O14 0.500000 0.971807 0.296234
O O15 0.260440 0.823835 0.310882
O O16 0.000000 0.281877 0.665263
#
# Coordination Sequence:
#
# PCOD9417896 Si02
#       6
#     8   8   8   8   8   8
#     4  11  23  38  56  82 115 149 191 234 280 336
#     4   9  16  32  59  86 115 148 185 231 280 328
#     4  11  22  36  57  84 112 142 183 235 287 336
#     4   8  15  31  57  88 116 145 183 229 278 332
#     4  11  25  42  58  79 110 152 193 234 282 336
#     4  10  20  37  60  86 113 145 186 231 280 336
#
# _framework density 18.911089
#
# number of rings (size 3 to 8) (size 9 to 14) (size 15 to 20)
#    0.000    2.000    1.667    3.500    0.000    6.667 
#    0.000    3.333    0.000    5.000    0.000    0.000 
#    0.000    0.000    0.000    0.000    0.000    0.000 
#
# Total GULP energy -268035.124332 kJ/mol
# GULP energy per Si atom -5584.065090 kJ/mol
# Density = 1.886805 g / cm^3
# Si number density = 18.911089 Si / 1000 Ang^3
#
#
#
# Elastic Constant Matrix: (Units=GPa)
#
#
# Indices 1 2 3 4 5 6 
#
# 1 17.7312 12.1028 5.3859 0.0000 0.0000 0.0000
# 2 12.1028 39.5242 -11.0945 0.0000 0.0000 0.0000
# 3 5.3859 -11.0945 82.5050 0.0000 0.0000 0.0000
# 4 0.0000 0.0000 0.0000 26.5006 0.0000 0.0000
# 5 0.0000 0.0000 0.0000 0.0000 -1.9606 0.0000
# 6 0.0000 0.0000 0.0000 0.0000 0.0000 -86.8200
#
#
#
# Elastic Compliance Matrix: (Units=1/GPa)
#
#
# Indices 1 2 3 4 5 6 
#
# 1 0.076608 -0.025838 -0.008475 0.000000 0.000000 0.000000
# 2 -0.025838 0.035008 0.006394 0.000000 0.000000 0.000000
# 3 -0.008475 0.006394 0.013534 0.000000 0.000000 0.000000
# 4 0.000000 0.000000 0.000000 0.037735 0.000000 0.000000
# 5 0.000000 0.000000 0.000000 0.000000 -0.510058 0.000000
# 6 0.000000 0.000000 0.000000 0.000000 0.000000 -0.011518
#
#
# Mechanical properties :
#
#
# Convention : Reuss Voigt Hill
#
# Bulk Modulus (GPa) = 14.42751 16.94986 15.68868
# Shear Modulus (GPa) = -17.87304 -3.56490 -10.71897
#
# Velocity S-wave (km/s) = -3.07760 -1.37447 -2.38336
# Velocity P-wave (km/s) = 2.23229 2.54234 0.86033
#
# Compressibility (1/GPa) = 0.06931204
#
# Stress axis : x y z
#
# Youngs Moduli (GPa) = 13.05344 28.56520 73.89032
#
# Poissons Ratio (x) = 0.73805 0.62625
# Poissons Ratio (y) = 0.33727 -0.47247
# Poissons Ratio (z) = 0.11063 -0.18265
#
# Static dielectric constant tensor:
#      x y z
#    x 1.636060 0.000000 0.000000 
#    y 0.000000 1.638840 0.000000 
#    z 0.000000 0.000000 1.778210 
# 
# From -- ./inp_files/37693.got.cif
#   From: 2010.05.17/outbox.cif.g08.bks.cpg/sg53_19_cif.got.tgz:37693.got - 2010.06.03 12:45:16.
