data_PCOD9417348
_publ_section_title
;
Structure prediction by ZEFSAII (Michael W. Deem and Ramdas Pophale) SiO2 
 PCOD9417348
Probable space group: P M N A
;
_chemical_formula_sum "Si O2"
_cell_formula_units_Z 48
_cell_length_a 7.732359
_cell_length_b 16.380094
_cell_length_c 21.208617
_cell_angle_alpha 90.000000
_cell_angle_beta 90.000000
_cell_angle_gamma 90.000000
_cell_volume 2686.214867
_symmetry_space_group_name_H-M "P M N A"
_symmetry_group_IT_number 53
_symmetry_cell_setting 'orthorhombic'
loop_
_space_group_symop_operation_xyz
x,y,z
1/2-x,-y,1/2+z
x,-y,-z
1/2-x,y,1/2-z
-x,-y,-z
1/2+x,y,1/2-z
-x,y,z
1/2+x,-y,1/2+z
loop_
_atom_site_type_symbol
_atom_site_label
_atom_site_fract_x
_atom_site_fract_y
_atom_site_fract_z
Si Si1 0.304637 0.030776 0.678011
Si Si2 0.299755 0.941456 0.945766
Si Si3 0.000000 0.635175 0.969170
Si Si4 0.295079 0.205842 0.867065
Si Si5 0.294155 0.613541 0.177703
Si Si6 0.293061 0.232810 0.016200
Si Si7 0.000000 0.468258 0.901742
O O1 0.250000 0.016302 0.750000
O O2 0.500000 0.002933 0.671067
O O3 0.292329 0.127221 0.663259
O O4 0.206246 0.984579 0.621848
O O5 0.500000 0.930307 0.964719
O O6 0.233897 0.848949 0.947154
O O7 0.220808 0.000000 0.000000
O O8 0.830020 0.692024 0.966694
O O9 0.000000 0.563599 0.917902
O O10 0.000000 0.586650 0.035287
O O11 0.500000 0.194505 0.856937
O O12 0.245059 0.292302 0.837246
O O13 0.266387 0.212158 0.942025
O O14 0.250000 0.597206 0.250000
O O15 0.500000 0.604620 0.165522
O O16 0.172195 0.557001 0.135763
O O17 0.500000 0.249389 0.025141
#
# Coordination Sequence:
#
# PCOD9417348 Si02
#       7
#     8   8   4   8   8   8   4
#     4  12  25  36  54  83 121 165 204 248 294 355
#     4  10  20  37  60  85 119 157 201 250 296 347
#     4  11  24  40  63  86 128 154 201 249 296 375
#     4  10  20  35  55  85 125 159 191 234 296 358
#     4  11  22  37  61  90 123 159 196 240 297 369
#     4  10  21  37  61  89 121 159 201 253 297 349
#     4  11  24  40  60  94 122 161 190 248 310 353
#
# _framework density 17.869008999999998
#
# number of rings (size 3 to 8) (size 9 to 14) (size 15 to 20)
#    0.000    1.333    4.167    2.000    3.500    2.333 
#    0.000    1.667    0.000    1.000    0.000    0.000 
#    0.000    0.000    0.000    0.000    0.000    0.000 
#
# Total GULP energy -267964.149536 kJ/mol
# GULP energy per Si atom -5582.586449 kJ/mol
# Density = 1.782834 g / cm^3
# Si number density = 17.869009 Si / 1000 Ang^3
#
#
#
# Elastic Constant Matrix: (Units=GPa)
#
#
# Indices 1 2 3 4 5 6 
#
# 1 73.2496 45.4941 20.2091 0.0000 0.0000 0.0000
# 2 45.4941 124.0855 55.6456 0.0000 0.0000 0.0000
# 3 20.2091 55.6456 86.6036 0.0000 0.0000 0.0000
# 4 0.0000 0.0000 0.0000 13.1238 0.0000 0.0000
# 5 0.0000 0.0000 0.0000 0.0000 0.7547 0.0000
# 6 0.0000 0.0000 0.0000 0.0000 0.0000 35.9902
#
#
#
# Elastic Compliance Matrix: (Units=1/GPa)
#
#
# Indices 1 2 3 4 5 6 
#
# 1 0.017677 -0.006506 0.000055 0.000000 0.000000 0.000000
# 2 -0.006506 0.013715 -0.007294 0.000000 0.000000 0.000000
# 3 0.000055 -0.007294 0.016221 0.000000 0.000000 0.000000
# 4 0.000000 0.000000 0.000000 0.076197 0.000000 0.000000
# 5 0.000000 0.000000 0.000000 0.000000 1.325029 0.000000
# 6 0.000000 0.000000 0.000000 0.000000 0.000000 0.027785
#
#
# Mechanical properties :
#
#
# Convention : Reuss Voigt Hill
#
# Bulk Modulus (GPa) = 49.69326 58.51514 54.10420
# Shear Modulus (GPa) = 3.30945 20.81307 12.06126
#
# Velocity S-wave (km/s) = 1.36238 3.41656 2.60086
# Velocity P-wave (km/s) = 5.50862 6.95569 6.27401
#
# Compressibility (1/GPa) = 0.02012345
#
# Stress axis : x y z
#
# Youngs Moduli (GPa) = 56.56923 72.91064 61.64895
#
# Poissons Ratio (x) = 0.47435 -0.00340
# Poissons Ratio (y) = 0.36804 0.44969
# Poissons Ratio (z) = -0.00312 0.53184
#
# Static dielectric constant tensor:
#      x y z
#    x 1.629450 0.000000 0.000000 
#    y 0.000000 1.601500 0.000000 
#    z 0.000000 0.000000 1.643390 
# 
# From -- ./inp_files/26339.got.cif
#   From: 2010.05.17/outbox.cif.g08.bks.cpg/sg53_14_cif.got.tgz:26339.got - 2010.06.03 12:45:16.
