data_PCOD9417277
_publ_section_title
;
Structure prediction by ZEFSAII (Michael W. Deem and Ramdas Pophale) SiO2 
 PCOD9417277
Probable space group: P M N A
;
_chemical_formula_sum "Si O2"
_cell_formula_units_Z 40
_cell_length_a 8.667110
_cell_length_b 26.285282
_cell_length_c 9.671091
_cell_angle_alpha 90.000000
_cell_angle_beta 90.000000
_cell_angle_gamma 90.000000
_cell_volume 2203.243102
_symmetry_space_group_name_H-M "P M N A"
_symmetry_group_IT_number 53
_symmetry_cell_setting 'orthorhombic'
loop_
_space_group_symop_operation_xyz
x,y,z
1/2-x,-y,1/2+z
x,-y,-z
1/2-x,y,1/2-z
-x,-y,-z
1/2+x,y,1/2-z
-x,y,z
1/2+x,-y,1/2+z
loop_
_atom_site_type_symbol
_atom_site_label
_atom_site_fract_x
_atom_site_fract_y
_atom_site_fract_z
Si Si1 0.185567 0.136436 0.596171
Si Si2 0.685120 0.547684 0.595300
Si Si3 0.685681 0.747181 0.098448
Si Si4 0.814499 0.655025 0.595565
Si Si5 0.814849 0.951678 0.904979
O O1 0.250000 0.124867 0.750000
O O2 0.230780 0.194853 0.562232
O O3 0.251530 0.097832 0.483777
O O4 0.000000 0.132928 0.599811
O O5 0.727823 0.500000 0.500000
O O6 0.750000 0.540776 0.750000
O O7 0.500000 0.551259 0.601880
O O8 0.751863 0.601128 0.540545
O O9 0.750000 0.736344 0.250000
O O10 0.500000 0.746274 0.103263
O O11 0.736383 0.703484 0.993577
O O12 0.750000 0.660086 0.750000
O O13 0.000000 0.653245 0.599215
O O14 0.750000 0.956148 0.750000
O O15 0.000000 0.949507 0.898228
O O16 0.770704 0.000000 0.000000
#
# Coordination Sequence:
#
# PCOD9417277 Si02
#       5
#     8   8   8   8   8
#     4  10  20  37  59  83 113 146 183 225 271 322
#     4  10  21  36  54  77 104 136 175 217 264 316
#     4   9  20  36  55  81 110 142 179 220 265 315
#     4  10  20  35  54  77 106 139 176 217 264 315
#     4  11  24  40  59  84 113 146 184 226 273 323
#
# _framework density 18.155055999999998
#
# number of rings (size 3 to 8) (size 9 to 14) (size 15 to 20)
#    0.000    2.000    0.000    4.200    0.000    8.800 
#    0.000    6.000    0.000    0.000    0.000    0.000 
#    0.000    0.000    0.000    0.000    0.000    0.000 
#
# Total GULP energy -223358.838153 kJ/mol
# GULP energy per Si atom -5583.970954 kJ/mol
# Density = 1.811373 g / cm^3
# Si number density = 18.155056 Si / 1000 Ang^3
#
#
#
# Elastic Constant Matrix: (Units=GPa)
#
#
# Indices 1 2 3 4 5 6 
#
# 1 48.0213 50.4319 41.8929 0.0000 0.0000 0.0000
# 2 50.4319 167.3717 115.7139 0.0000 0.0000 0.0000
# 3 41.8929 115.7139 122.4825 0.0000 0.0000 0.0000
# 4 0.0000 0.0000 0.0000 42.6739 0.0000 0.0000
# 5 0.0000 0.0000 0.0000 0.0000 28.1534 0.0000
# 6 0.0000 0.0000 0.0000 0.0000 0.0000 30.3767
#
#
#
# Elastic Compliance Matrix: (Units=1/GPa)
#
#
# Indices 1 2 3 4 5 6 
#
# 1 0.031582 -0.005905 -0.005224 0.000000 0.000000 0.000000
# 2 -0.005905 0.018330 -0.015297 0.000000 0.000000 0.000000
# 3 -0.005224 -0.015297 0.024403 0.000000 0.000000 0.000000
# 4 0.000000 0.000000 0.000000 0.023434 0.000000 0.000000
# 5 0.000000 0.000000 0.000000 0.000000 0.035520 0.000000
# 6 0.000000 0.000000 0.000000 0.000000 0.000000 0.032920
#
#
# Mechanical properties :
#
#
# Convention : Reuss Voigt Hill
#
# Bulk Modulus (GPa) = 46.59023 83.77254 65.18139
# Shear Modulus (GPa) = 22.10486 28.89658 25.50072
#
# Velocity S-wave (km/s) = 3.49314 3.99388 3.75187
# Velocity P-wave (km/s) = 6.47977 8.21652 7.39928
#
# Compressibility (1/GPa) = 0.02146373
#
# Stress axis : x y z
#
# Youngs Moduli (GPa) = 31.66320 54.55564 40.97860
#
# Poissons Ratio (x) = 0.32215 0.21405
# Poissons Ratio (y) = 0.18697 0.62686
# Poissons Ratio (z) = 0.16539 0.83455
#
# Static dielectric constant tensor:
#      x y z
#    x 1.611790 0.000000 0.000000 
#    y 0.000000 1.635010 0.000000 
#    z 0.000000 0.000000 1.581760 
# 
# From -- ./inp_files/6259.got.cif
#   From: 2010.05.17/outbox.cif.g08.bks.cpg/sg53_4_cif.got.tgz:6259.got - 2010.06.03 12:45:16.
