data_PCOD9417389
_publ_section_title
;
Structure prediction by ZEFSAII (Michael W. Deem and Ramdas Pophale) SiO2 
 PCOD9417389
Probable space group: P M N A
;
_chemical_formula_sum "Si O2"
_cell_formula_units_Z 60
_cell_length_a 15.221259
_cell_length_b 20.901648
_cell_length_c 9.403365
_cell_angle_alpha 90.000000
_cell_angle_beta 90.000000
_cell_angle_gamma 90.000000
_cell_volume 2991.674911
_symmetry_space_group_name_H-M "P M N A"
_symmetry_group_IT_number 53
_symmetry_cell_setting 'orthorhombic'
loop_
_space_group_symop_operation_xyz
x,y,z
1/2-x,-y,1/2+z
x,-y,-z
1/2-x,y,1/2-z
-x,-y,-z
1/2+x,y,1/2-z
-x,y,z
1/2+x,-y,1/2+z
loop_
_atom_site_type_symbol
_atom_site_label
_atom_site_fract_x
_atom_site_fract_y
_atom_site_fract_z
Si Si1 0.904148 0.619051 0.524405
Si Si2 0.400651 0.759112 0.073683
Si Si3 0.099722 0.933065 0.816502
Si Si4 0.850454 0.207393 0.256008
Si Si5 0.903957 0.665862 0.854892
Si Si6 0.229809 0.440860 0.082918
Si Si7 0.250000 0.172290 0.750000
Si Si8 0.101794 0.926428 0.156831
O O1 0.896912 0.682355 0.429304
O O2 0.900592 0.645094 0.687952
O O3 0.822122 0.573575 0.506996
O O4 0.000000 0.589477 0.502791
O O5 0.500000 0.777134 0.125396
O O6 0.313508 0.785849 0.149510
O O7 0.392628 0.782024 0.910149
O O8 0.146699 0.867903 0.774248
O O9 0.000000 0.913373 0.203565
O O10 0.130087 0.004676 0.777109
O O11 0.097099 0.932936 0.987097
O O12 0.750000 0.229140 0.250000
O O13 0.894719 0.257130 0.146235
O O14 0.827952 0.623826 0.924434
O O15 0.000000 0.648714 0.911375
O O16 0.250000 0.454202 0.250000
O O17 0.187001 0.500000 0.000000
O O18 0.324121 0.126090 0.682877
O O19 0.000000 0.927148 0.762387
#
# Coordination Sequence:
#
# PCOD9417389 Si02
#       8
#     8   8   8   8   8   8   4   8
#     4   8  16  34  57  79 109 145 183 229 280 338
#     4  10  21  37  57  85 116 149 192 243 294 342
#     4   9  18  35  55  74 103 141 184 235 285 336
#     4  11  19  31  59  91 112 138 189 244 291 340
#     4   9  17  31  53  81 115 148 182 226 282 337
#     4  10  20  35  56  85 115 151 192 233 283 341
#     4  12  22  36  54  78 112 156 192 230 292 354
#     4   9  20  36  52  73 107 150 188 228 284 349
#
# _framework density 20.055655000000002
#
# number of rings (size 3 to 8) (size 9 to 14) (size 15 to 20)
#    0.000    2.400    0.000    6.000    0.933    0.533 
#    1.200    0.000    0.000    3.200    0.000    0.000 
#    0.000    0.000    0.000    0.000    0.000    0.000 
#
# Total GULP energy -334090.440756 kJ/mol
# GULP energy per Si atom -5568.174013 kJ/mol
# Density = 2.001001 g / cm^3
# Si number density = 20.055655 Si / 1000 Ang^3
#
#
#
# Elastic Constant Matrix: (Units=GPa)
#
#
# Indices 1 2 3 4 5 6 
#
# 1 141.4893 50.6870 19.5800 0.0000 0.0000 0.0000
# 2 50.6870 88.6393 23.0890 0.0000 0.0000 0.0000
# 3 19.5800 23.0890 17.8661 0.0000 0.0000 0.0000
# 4 0.0000 0.0000 0.0000 23.4765 0.0000 0.0000
# 5 0.0000 0.0000 0.0000 0.0000 12.1065 0.0000
# 6 0.0000 0.0000 0.0000 0.0000 0.0000 2974.0577
#
#
#
# Elastic Compliance Matrix: (Units=1/GPa)
#
#
# Indices 1 2 3 4 5 6 
#
# 1 0.009168 -0.003958 -0.004933 0.000000 0.000000 0.000000
# 2 -0.003958 0.018715 -0.019849 0.000000 0.000000 0.000000
# 3 -0.004933 -0.019849 0.087029 0.000000 0.000000 0.000000
# 4 0.000000 0.000000 0.000000 0.042596 0.000000 0.000000
# 5 0.000000 0.000000 0.000000 0.000000 0.082600 0.000000
# 6 0.000000 0.000000 0.000000 0.000000 0.000000 0.000336
#
#
# Mechanical properties :
#
#
# Convention : Reuss Voigt Hill
#
# Bulk Modulus (GPa) = 17.41139 48.30076 32.85608
# Shear Modulus (GPa) = 15.76948 612.23739 314.00343
#
# Velocity S-wave (km/s) = 2.80712 17.49091 12.52621
# Velocity P-wave (km/s) = 4.38257 20.78569 15.02085
#
# Compressibility (1/GPa) = 0.05743365
#
# Stress axis : x y z
#
# Youngs Moduli (GPa) = 109.07366 53.43278 11.49037
#
# Poissons Ratio (x) = 0.21147 0.05668
# Poissons Ratio (y) = 0.43168 0.22807
# Poissons Ratio (z) = 0.53806 1.06058
#
# Static dielectric constant tensor:
#      x y z
#    x 1.716830 0.000000 0.000000 
#    y 0.000000 1.743290 0.000000 
#    z 0.000000 0.000000 1.700990 
# 
# From -- ./inp_files/16276.got.cif
#   From: 2010.05.17/outbox.cif.g08.bks.cpg/sg53_9_cif.got.tgz:16276.got - 2010.06.03 12:45:16.
