data_PCOD9417061
_publ_section_title
;
Structure prediction by ZEFSAII (Michael W. Deem and Ramdas Pophale) SiO2 
 PCOD9417061
Probable space group: P M N A
;
_chemical_formula_sum "Si O2"
_cell_formula_units_Z 32
_cell_length_a 29.952056
_cell_length_b 12.288720
_cell_length_c 5.056350
_cell_angle_alpha 90.000000
_cell_angle_beta 90.000000
_cell_angle_gamma 90.000000
_cell_volume 1861.103029
_symmetry_space_group_name_H-M "P M N A"
_symmetry_group_IT_number 53
_symmetry_cell_setting 'orthorhombic'
loop_
_space_group_symop_operation_xyz
x,y,z
1/2-x,-y,1/2+z
x,-y,-z
1/2-x,y,1/2-z
-x,-y,-z
1/2+x,y,1/2-z
-x,y,z
1/2+x,-y,1/2+z
loop_
_atom_site_type_symbol
_atom_site_label
_atom_site_fract_x
_atom_site_fract_y
_atom_site_fract_z
Si Si1 0.596192 0.375472 0.398299
Si Si2 0.152775 0.682489 0.390845
Si Si3 0.222089 0.500000 0.500000
Si Si4 0.000000 0.581253 0.756019
Si Si5 0.718474 0.127576 0.999298
O O1 0.596724 0.500000 0.500000
O O2 0.620377 0.311159 0.636607
O O3 0.545593 0.351750 0.300614
O O4 0.625220 0.362076 0.138095
O O5 0.192238 0.593700 0.362954
O O6 0.176046 0.795119 0.470380
O O7 0.250000 0.546189 0.750000
O O8 0.000000 0.500000 0.500000
O O9 0.000000 0.500000 0.000000
O O10 0.750000 0.147611 0.750000
O O11 0.750000 0.150369 0.250000
O O12 0.705958 0.000000 0.000000
#
# Coordination Sequence:
#
# PCOD9417061 Si02
#       5
#     8   8   4   4   8
#     4  11  20  35  51  79 109 139 171 218 258 327
#     4  12  21  34  53  77 107 139 178 217 264 310
#     4  12  22  32  46  69 108 141 168 202 258 320
#     4  10  20  34  54  76 107 146 177 208 268 317
#     4  10  21  38  56  75 102 140 187 230 261 299
#
# _framework density 17.194105
#
# number of rings (size 3 to 8) (size 9 to 14) (size 15 to 20)
#    0.000    1.000    2.500    7.500    0.000    0.000 
#    0.000    0.000    0.000    0.000    0.000    5.250 
#    0.000    0.000    0.000    0.000    0.000    0.000 
#
# Total GULP energy -178490.242245 kJ/mol
# GULP energy per Si atom -5577.820070 kJ/mol
# Density = 1.715497 g / cm^3
# Si number density = 17.194105 Si / 1000 Ang^3
#
#
#
# Elastic Constant Matrix: (Units=GPa)
#
#
# Indices 1 2 3 4 5 6 
#
# 1 115.8843 40.7008 40.9061 0.0000 0.0000 0.0000
# 2 40.7008 45.5043 4.9678 0.0000 0.0000 0.0000
# 3 40.9061 4.9678 122.9507 0.0000 0.0000 0.0000
# 4 0.0000 0.0000 0.0000 23.5676 0.0000 0.0000
# 5 0.0000 0.0000 0.0000 0.0000 30.8554 0.0000
# 6 0.0000 0.0000 0.0000 0.0000 0.0000 6.7671
#
#
#
# Elastic Compliance Matrix: (Units=1/GPa)
#
#
# Indices 1 2 3 4 5 6 
#
# 1 0.014573 -0.012561 -0.004341 0.000000 0.000000 0.000000
# 2 -0.012561 0.032900 0.002850 0.000000 0.000000 0.000000
# 3 -0.004341 0.002850 0.009462 0.000000 0.000000 0.000000
# 4 0.000000 0.000000 0.000000 0.042431 0.000000 0.000000
# 5 0.000000 0.000000 0.000000 0.000000 0.032409 0.000000
# 6 0.000000 0.000000 0.000000 0.000000 0.000000 0.147774
#
#
# Mechanical properties :
#
#
# Convention : Reuss Voigt Hill
#
# Bulk Modulus (GPa) = 34.68480 50.83207 42.75843
# Shear Modulus (GPa) = 15.75969 25.42234 20.59102
#
# Velocity S-wave (km/s) = 3.03078 3.84936 3.46434
# Velocity P-wave (km/s) = 5.69770 7.02742 6.39721
#
# Compressibility (1/GPa) = 0.02883108
#
# Stress axis : x y z
#
# Youngs Moduli (GPa) = 68.61856 30.39525 105.68054
#
# Poissons Ratio (x) = 0.38180 0.45877
# Poissons Ratio (y) = 0.86192 -0.30117
# Poissons Ratio (z) = 0.29788 -0.08662
#
# Static dielectric constant tensor:
#      x y z
#    x 1.669540 0.000000 0.000000 
#    y 0.000000 1.616030 0.000000 
#    z 0.000000 0.000000 1.591690 
# 
# From -- ./inp_files/4257.got.cif
#   From: 2010.05.17/outbox.cif.g08.bks.cpg/sg53_3_cif.got.tgz:4257.got - 2010.06.03 12:45:16.
