data_PCOD9417298
_publ_section_title
;
Structure prediction by ZEFSAII (Michael W. Deem and Ramdas Pophale) SiO2 
 PCOD9417298
Probable space group: P M N A
;
_chemical_formula_sum "Si O2"
_cell_formula_units_Z 28
_cell_length_a 32.610978
_cell_length_b 6.862585
_cell_length_c 5.176995
_cell_angle_alpha 90.000000
_cell_angle_beta 90.000000
_cell_angle_gamma 90.000000
_cell_volume 1158.588746
_symmetry_space_group_name_H-M "P M N A"
_symmetry_group_IT_number 53
_symmetry_cell_setting 'orthorhombic'
loop_
_space_group_symop_operation_xyz
x,y,z
1/2-x,-y,1/2+z
x,-y,-z
1/2-x,y,1/2-z
-x,-y,-z
1/2+x,y,1/2-z
-x,y,z
1/2+x,-y,1/2+z
loop_
_atom_site_type_symbol
_atom_site_label
_atom_site_fract_x
_atom_site_fract_y
_atom_site_fract_z
Si Si1 0.084530 0.777333 0.570145
Si Si2 0.379449 0.767341 0.430680
Si Si3 0.000000 0.363260 0.250632
Si Si4 0.205621 0.860837 0.249516
O O1 0.087013 0.696080 0.278660
O O2 0.040897 0.764337 0.711535
O O3 0.094948 0.000000 0.500000
O O4 0.115668 0.688598 0.779897
O O5 0.335401 0.739022 0.298345
O O6 0.383908 0.000000 0.500000
O O7 0.000000 0.500000 0.500000
O O8 0.000000 0.500000 0.000000
O O9 0.250000 0.757177 0.250000
O O10 0.200773 0.000000 0.500000
O O11 0.207890 0.000000 0.000000
#
# Coordination Sequence:
#
# PCOD9417298 Si02
#       4
#     8   8   4   8
#     4  10  20  35  55  75 100 134 172 210 252 305
#     4   9  16  28  47  72 100 133 170 205 243 297
#     4  12  25  40  55  76 104 130 166 216 269 316
#     4   9  15  23  38  65 103 139 164 195 246 298
#
# _framework density 24.167334
#
# number of rings (size 3 to 8) (size 9 to 14) (size 15 to 20)
#    0.000    2.286    0.000    6.429    0.000    0.000 
#    0.000    5.714    0.000    0.000    0.000    0.000 
#    0.000   22.857    0.000    0.000    0.000    0.000 
#
# Total GULP energy -156095.960159 kJ/mol
# GULP energy per Si atom -5574.855720 kJ/mol
# Density = 2.411233 g / cm^3
# Si number density = 24.167334 Si / 1000 Ang^3
#
#
#
# Elastic Constant Matrix: (Units=GPa)
#
#
# Indices 1 2 3 4 5 6 
#
# 1 161.0063 -10.6467 66.6319 0.0000 0.0000 0.0000
# 2 -10.6467 48.9207 24.6060 0.0000 0.0000 0.0000
# 3 66.6319 24.6060 224.9507 0.0000 0.0000 0.0000
# 4 0.0000 0.0000 0.0000 6.6250 0.0000 0.0000
# 5 0.0000 0.0000 0.0000 0.0000 40.4357 0.0000
# 6 0.0000 0.0000 0.0000 0.0000 0.0000 -3.8456
#
#
#
# Elastic Compliance Matrix: (Units=1/GPa)
#
#
# Indices 1 2 3 4 5 6 
#
# 1 0.007445 0.002889 -0.002521 0.000000 0.000000 0.000000
# 2 0.002889 0.022752 -0.003344 0.000000 0.000000 0.000000
# 3 -0.002521 -0.003344 0.005558 0.000000 0.000000 0.000000
# 4 0.000000 0.000000 0.000000 0.150943 0.000000 0.000000
# 5 0.000000 0.000000 0.000000 0.000000 0.024731 0.000000
# 6 0.000000 0.000000 0.000000 0.000000 0.000000 -0.260039
#
#
# Mechanical properties :
#
#
# Convention : Reuss Voigt Hill
#
# Bulk Modulus (GPa) = 33.55566 66.22887 49.89226
# Shear Modulus (GPa) = -152.80100 32.26214 -60.26943
#
# Velocity S-wave (km/s) = -7.96012 3.65766 -4.99925
# Velocity P-wave (km/s) = 8.40058 6.73066 3.55444
#
# Compressibility (1/GPa) = 0.02980123
#
# Stress axis : x y z
#
# Youngs Moduli (GPa) = 134.31130 43.95222 179.91874
#
# Poissons Ratio (x) = -0.12696 0.45363
# Poissons Ratio (y) = -0.38796 0.60170
# Poissons Ratio (z) = 0.33864 0.14699
#
# Static dielectric constant tensor:
#      x y z
#    x 2.066710 0.000000 0.000000 
#    y 0.000000 2.016170 0.000000 
#    z 0.000000 0.000000 1.844370 
# 
# From -- ./inp_files/4859.got.cif
#   From: 2010.05.17/outbox.cif.g08.bks.cpg/sg53_3_cif.got.tgz:4859.got - 2010.06.03 12:45:16.
