data_PCOD9417335
_publ_section_title
;
Structure prediction by ZEFSAII (Michael W. Deem and Ramdas Pophale) SiO2 
 PCOD9417335
Probable space group: P M N A
;
_chemical_formula_sum "Si O2"
_cell_formula_units_Z 64
_cell_length_a 8.717870
_cell_length_b 22.175575
_cell_length_c 18.342187
_cell_angle_alpha 90.000000
_cell_angle_beta 90.000000
_cell_angle_gamma 90.000000
_cell_volume 3545.980925
_symmetry_space_group_name_H-M "P M N A"
_symmetry_group_IT_number 53
_symmetry_cell_setting 'orthorhombic'
loop_
_space_group_symop_operation_xyz
x,y,z
1/2-x,-y,1/2+z
x,-y,-z
1/2-x,y,1/2-z
-x,-y,-z
1/2+x,y,1/2-z
-x,y,z
1/2+x,-y,1/2+z
loop_
_atom_site_type_symbol
_atom_site_label
_atom_site_fract_x
_atom_site_fract_y
_atom_site_fract_z
Si Si1 0.185017 0.125465 0.088408
Si Si2 0.182975 0.314120 0.950851
Si Si3 0.316438 0.374912 0.172672
Si Si4 0.814787 0.116679 0.917706
Si Si5 0.185399 0.568031 0.520438
Si Si6 0.314968 0.996431 0.669258
Si Si7 0.682965 0.769198 0.168843
Si Si8 0.683908 0.253384 0.095240
O O1 0.234516 0.066629 0.133116
O O2 0.257714 0.187545 0.115981
O O3 0.000000 0.129854 0.092570
O O4 0.225893 0.118129 0.003048
O O5 0.253630 0.287101 0.877448
O O6 0.000000 0.311095 0.948330
O O7 0.239472 0.381399 0.969331
O O8 0.243214 0.272893 0.017932
O O9 0.250000 0.393132 0.250000
O O10 0.500000 0.376918 0.176895
O O11 0.269695 0.415389 0.103440
O O12 0.271851 0.306288 0.151501
O O13 0.738381 0.171226 0.874128
O O14 0.000000 0.123278 0.912704
O O15 0.771479 0.053207 0.881013
O O16 0.226611 0.500000 0.500000
O O17 0.000000 0.574352 0.515302
O O18 0.250000 0.003442 0.750000
O O19 0.500000 0.995789 0.672609
O O20 0.750000 0.770003 0.250000
O O21 0.500000 0.767667 0.171251
O O22 0.500000 0.253847 0.087638
#
# Coordination Sequence:
#
# PCOD9417335 Si02
#       8
#     8   8   8   8   8   8   8   8
#     4  10  20  35  57  81 107 143 187 233 285 342
#     4  11  21  36  58  85 116 148 186 231 279 335
#     4   9  19  34  54  82 114 149 188 230 278 330
#     4  10  20  37  59  81 107 142 189 237 287 344
#     4   9  19  38  62  86 116 157 198 236 282 333
#     4  10  22  38  54  76 108 147 187 234 288 345
#     4  12  24  38  58  85 116 148 187 235 289 342
#     4  10  20  35  55  81 111 145 185 230 281 338
#
# _framework density 18.048604000000001
#
# number of rings (size 3 to 8) (size 9 to 14) (size 15 to 20)
#    0.000    1.875    1.250    4.125    0.000    6.750 
#    0.000    3.125    0.000    3.750    0.000    0.000 
#    0.000    0.000    0.000    0.000    0.000    0.000 
#
# Total GULP energy -357474.021919 kJ/mol
# GULP energy per Si atom -5585.531592 kJ/mol
# Density = 1.800752 g / cm^3
# Si number density = 18.048604 Si / 1000 Ang^3
#
#
#
# Elastic Constant Matrix: (Units=GPa)
#
#
# Indices 1 2 3 4 5 6 
#
# 1 41.5765 32.3867 16.2149 0.0000 0.0000 0.0000
# 2 32.3867 135.8003 37.9912 0.0000 0.0000 0.0000
# 3 16.2149 37.9912 63.6120 0.0000 0.0000 0.0000
# 4 0.0000 0.0000 0.0000 17.2911 0.0000 0.0000
# 5 0.0000 0.0000 0.0000 0.0000 22.3949 0.0000
# 6 0.0000 0.0000 0.0000 0.0000 0.0000 51.1165
#
#
#
# Elastic Compliance Matrix: (Units=1/GPa)
#
#
# Indices 1 2 3 4 5 6 
#
# 1 0.030408 -0.006103 -0.004106 0.000000 0.000000 0.000000
# 2 -0.006103 0.010066 -0.004456 0.000000 0.000000 0.000000
# 3 -0.004106 -0.004456 0.019428 0.000000 0.000000 0.000000
# 4 0.000000 0.000000 0.000000 0.057833 0.000000 0.000000
# 5 0.000000 0.000000 0.000000 0.000000 0.044653 0.000000
# 6 0.000000 0.000000 0.000000 0.000000 0.000000 0.019563
#
#
# Mechanical properties :
#
#
# Convention : Reuss Voigt Hill
#
# Bulk Modulus (GPa) = 32.71029 46.01938 39.36484
# Shear Modulus (GPa) = 22.57624 28.45356 25.51490
#
# Velocity S-wave (km/s) = 3.54058 3.97482 3.76397
# Velocity P-wave (km/s) = 5.90568 6.82777 6.38340
#
# Compressibility (1/GPa) = 0.03057142
#
# Stress axis : x y z
#
# Youngs Moduli (GPa) = 32.88655 99.34568 51.47163
#
# Poissons Ratio (x) = 0.60632 0.21134
# Poissons Ratio (y) = 0.20071 0.22935
# Poissons Ratio (z) = 0.13503 0.44268
#
# Static dielectric constant tensor:
#      x y z
#    x 1.610230 0.000000 0.000000 
#    y 0.000000 1.610310 0.000000 
#    z 0.000000 0.000000 1.594620 
# 
# From -- ./inp_files/26979.got.cif
#   From: 2010.05.17/outbox.cif.g08.bks.cpg/sg53_14_cif.got.tgz:26979.got - 2010.06.03 12:45:16.
