data_PCOD9417518
_publ_section_title
;
Structure prediction by ZEFSAII (Michael W. Deem and Ramdas Pophale) SiO2 
 PCOD9417518
Probable space group: P M N A
;
_chemical_formula_sum "Si O2"
_cell_formula_units_Z 48
_cell_length_a 8.646846
_cell_length_b 16.221229
_cell_length_c 19.874820
_cell_angle_alpha 90.000000
_cell_angle_beta 90.000000
_cell_angle_gamma 90.000000
_cell_volume 2787.691326
_symmetry_space_group_name_H-M "P M N A"
_symmetry_group_IT_number 53
_symmetry_cell_setting 'orthorhombic'
loop_
_space_group_symop_operation_xyz
x,y,z
1/2-x,-y,1/2+z
x,-y,-z
1/2-x,y,1/2-z
-x,-y,-z
1/2+x,y,1/2-z
-x,y,z
1/2+x,-y,1/2+z
loop_
_atom_site_type_symbol
_atom_site_label
_atom_site_fract_x
_atom_site_fract_y
_atom_site_fract_z
Si Si1 0.314330 0.597481 0.675307
Si Si2 0.182744 0.913637 0.081823
Si Si3 0.316482 0.265761 0.075629
Si Si4 0.317025 0.908088 0.581131
Si Si5 0.186398 0.590661 0.175713
Si Si6 0.688188 0.734452 0.424594
O O1 0.250000 0.613440 0.750000
O O2 0.500000 0.602118 0.676260
O O3 0.248940 0.663257 0.623292
O O4 0.268918 0.503162 0.657265
O O5 0.242565 0.823982 0.103440
O O6 0.000000 0.916286 0.097593
O O7 0.245248 0.002582 0.105132
O O8 0.194960 0.911051 0.000434
O O9 0.500000 0.270348 0.072118
O O10 0.266977 0.175194 0.102378
O O11 0.247303 0.275059 0.000603
O O12 0.500000 0.901381 0.596648
O O13 0.250000 0.607926 0.250000
O O14 0.237695 0.659102 0.122349
O O15 0.000000 0.593104 0.178306
O O16 0.500000 0.736482 0.426988
#
# Coordination Sequence:
#
# PCOD9417518 Si02
#       6
#     8   8   8   8   8   8
#     4  10  20  36  54  72  94 125 161 198 239 290
#     4   7  11  22  44  68  91 122 161 194 229 278
#     4  11  21  31  46  73 102 129 160 201 245 282
#     4   8  13  25  44  66  92 126 161 195 234 281
#     4   9  19  34  54  74  95 125 161 197 239 288
#     4   9  17  32  51  73  99 129 162 197 237 287
#
# _framework density 17.218547999999998
#
# number of rings (size 3 to 8) (size 9 to 14) (size 15 to 20)
#    0.000    3.000    0.000    4.000    0.000    2.000 
#    0.000   10.000    0.000    1.000    0.000    2.333 
#    0.000    0.000    0.000    0.000    0.000    0.000 
#
# Total GULP energy -267210.756398 kJ/mol
# GULP energy per Si atom -5566.890758 kJ/mol
# Density = 1.717936 g / cm^3
# Si number density = 17.218548 Si / 1000 Ang^3
#
#
#
# Elastic Constant Matrix: (Units=GPa)
#
#
# Indices 1 2 3 4 5 6 
#
# 1 35.1178 42.8689 19.7883 0.0000 0.0000 0.0000
# 2 42.8689 200.6761 88.9338 0.0000 0.0000 0.0000
# 3 19.7883 88.9338 55.0655 0.0000 0.0000 0.0000
# 4 0.0000 0.0000 0.0000 -9.4288 0.0000 0.0000
# 5 0.0000 0.0000 0.0000 0.0000 20.5661 0.0000
# 6 0.0000 0.0000 0.0000 0.0000 0.0000 14.1800
#
#
#
# Elastic Compliance Matrix: (Units=1/GPa)
#
#
# Indices 1 2 3 4 5 6 
#
# 1 0.038580 -0.007379 -0.001947 0.000000 0.000000 0.000000
# 2 -0.007379 0.018942 -0.027940 0.000000 0.000000 0.000000
# 3 -0.001947 -0.027940 0.063985 0.000000 0.000000 0.000000
# 4 0.000000 0.000000 0.000000 -0.106058 0.000000 0.000000
# 5 0.000000 0.000000 0.000000 0.000000 0.048624 0.000000
# 6 0.000000 0.000000 0.000000 0.000000 0.000000 0.070522
#
#
# Mechanical properties :
#
#
# Convention : Reuss Voigt Hill
#
# Bulk Modulus (GPa) = 21.28813 66.00459 43.64636
# Shear Modulus (GPa) = 22.24339 14.34801 18.29570
#
# Velocity S-wave (km/s) = 3.59810 2.88980 3.26323
# Velocity P-wave (km/s) = 5.44537 7.03927 6.29299
#
# Compressibility (1/GPa) = 0.04697453
#
# Stress axis : x y z
#
# Youngs Moduli (GPa) = 25.92015 52.79336 15.62856
#
# Poissons Ratio (x) = 0.38954 0.03043
# Poissons Ratio (y) = 0.19125 0.43667
# Poissons Ratio (z) = 0.05047 1.47507
#
# Static dielectric constant tensor:
#      x y z
#    x 1.573180 0.000000 0.000000 
#    y 0.000000 1.643600 0.000000 
#    z 0.000000 0.000000 1.541320 
# 
# From -- ./inp_files/30495.got.cif
#   From: 2010.05.17/outbox.cif.g08.bks.cpg/sg53_16_cif.got.tgz:30495.got - 2010.06.03 12:45:16.
