data_PCOD9417443
_publ_section_title
;
Structure prediction by ZEFSAII (Michael W. Deem and Ramdas Pophale) SiO2 
 PCOD9417443
Probable space group: P M N A
;
_chemical_formula_sum "Si O2"
_cell_formula_units_Z 64
_cell_length_a 8.818730
_cell_length_b 15.467976
_cell_length_c 25.186229
_cell_angle_alpha 90.000000
_cell_angle_beta 90.000000
_cell_angle_gamma 90.000000
_cell_volume 3435.600707
_symmetry_space_group_name_H-M "P M N A"
_symmetry_group_IT_number 53
_symmetry_cell_setting 'orthorhombic'
loop_
_space_group_symop_operation_xyz
x,y,z
1/2-x,-y,1/2+z
x,-y,-z
1/2-x,y,1/2-z
-x,-y,-z
1/2+x,y,1/2-z
-x,y,z
1/2+x,-y,1/2+z
loop_
_atom_site_type_symbol
_atom_site_label
_atom_site_fract_x
_atom_site_fract_y
_atom_site_fract_z
Si Si1 0.684592 0.719158 0.612403
Si Si2 0.680811 0.427986 0.305415
Si Si3 0.168271 0.442945 0.949375
Si Si4 0.317960 0.869889 0.692535
Si Si5 0.818030 0.068437 0.808145
Si Si6 0.324480 0.595301 0.152394
Si Si7 0.181647 0.212834 0.616321
Si Si8 0.171363 0.750376 0.007241
O O1 0.500000 0.714762 0.608624
O O2 0.730181 0.632115 0.644403
O O3 0.728940 0.799707 0.649305
O O4 0.736475 0.738670 0.552180
O O5 0.750000 0.394682 0.250000
O O6 0.500000 0.423209 0.302216
O O7 0.732214 0.527661 0.312238
O O8 0.297532 0.444846 0.905930
O O9 0.157409 0.346622 0.971002
O O10 0.000000 0.467527 0.927187
O O11 0.199288 0.500000 0.000000
O O12 0.250000 0.850030 0.750000
O O13 0.500000 0.866003 0.696441
O O14 0.277023 0.968843 0.678604
O O15 0.750000 0.086782 0.750000
O O16 0.751567 0.135559 0.849932
O O17 0.000000 0.075269 0.806329
O O18 0.500000 0.595523 0.168044
O O19 0.271542 0.694800 0.143825
O O20 0.235530 0.206209 0.555034
O O21 0.000000 0.211636 0.617773
O O22 0.000000 0.787853 0.003905
#
# Coordination Sequence:
#
# PCOD9417443 Si02
#       8
#     8   8   8   8   8   8   8   8
#     4   9  18  34  56  80 107 141 179 217 259 312
#     4  11  22  36  54  77 107 142 179 220 266 317
#     4   9  16  28  48  72  97 129 170 213 256 301
#     4   9  18  34  56  82 109 136 172 217 264 315
#     4  10  20  35  58  84 107 135 171 214 264 317
#     4  10  21  35  50  71 100 135 173 213 258 305
#     4  10  21  37  55  77 108 142 177 221 268 314
#     4   9  17  31  52  76 103 138 179 218 258 310
#
# _framework density 18.628473
#
# number of rings (size 3 to 8) (size 9 to 14) (size 15 to 20)
#    0.000    2.375    0.000    2.625    0.000    4.750 
#    0.000    5.625    0.000    3.750    0.000    0.000 
#    0.000    0.000    0.000    0.000    0.000    0.000 
#
# Total GULP energy -356641.473871 kJ/mol
# GULP energy per Si atom -5572.523029 kJ/mol
# Density = 1.858607 g / cm^3
# Si number density = 18.628473 Si / 1000 Ang^3
#
#
#
# Elastic Constant Matrix: (Units=GPa)
#
#
# Indices 1 2 3 4 5 6 
#
# 1 31.5649 29.5712 32.8839 0.0000 0.0000 0.0000
# 2 29.5712 80.6436 64.3900 0.0000 0.0000 0.0000
# 3 32.8839 64.3900 116.7569 0.0000 0.0000 0.0000
# 4 0.0000 0.0000 0.0000 31.6412 0.0000 0.0000
# 5 0.0000 0.0000 0.0000 0.0000 27.5648 0.0000
# 6 0.0000 0.0000 0.0000 0.0000 0.0000 15.6035
#
#
#
# Elastic Compliance Matrix: (Units=1/GPa)
#
#
# Indices 1 2 3 4 5 6 
#
# 1 0.051531 -0.013057 -0.007313 0.000000 0.000000 0.000000
# 2 -0.013057 0.025465 -0.010366 0.000000 0.000000 0.000000
# 3 -0.007313 -0.010366 0.016341 0.000000 0.000000 0.000000
# 4 0.000000 0.000000 0.000000 0.031604 0.000000 0.000000
# 5 0.000000 0.000000 0.000000 0.000000 0.036278 0.000000
# 6 0.000000 0.000000 0.000000 0.000000 0.000000 0.064088
#
#
# Mechanical properties :
#
#
# Convention : Reuss Voigt Hill
#
# Bulk Modulus (GPa) = 31.38184 53.62841 42.50512
# Shear Modulus (GPa) = 16.81223 21.76992 19.29108
#
# Velocity S-wave (km/s) = 3.00743 3.42224 3.22152
# Velocity P-wave (km/s) = 5.37980 6.66832 6.05841
#
# Compressibility (1/GPa) = 0.03186557
#
# Stress axis : x y z
#
# Youngs Moduli (GPa) = 19.40563 39.26930 61.19511
#
# Poissons Ratio (x) = 0.51275 0.44749
# Poissons Ratio (y) = 0.25339 0.63436
# Poissons Ratio (z) = 0.14190 0.40707
#
# Static dielectric constant tensor:
#      x y z
#    x 1.654870 0.000000 0.000000 
#    y 0.000000 1.712850 0.000000 
#    z 0.000000 0.000000 1.232120 
# 
# From -- ./inp_files/34308.got.cif
#   From: 2010.05.17/outbox.cif.g08.bks.cpg/sg53_18_cif.got.tgz:34308.got - 2010.06.03 12:45:16.
