data_PCOD9417818
_publ_section_title
;
Structure prediction by ZEFSAII (Michael W. Deem and Ramdas Pophale) SiO2 
 PCOD9417818
Probable space group: P M N A
;
_chemical_formula_sum "Si O2"
_cell_formula_units_Z 48
_cell_length_a 16.897621
_cell_length_b 11.778074
_cell_length_c 12.804112
_cell_angle_alpha 90.000000
_cell_angle_beta 90.000000
_cell_angle_gamma 90.000000
_cell_volume 2548.292687
_symmetry_space_group_name_H-M "P M N A"
_symmetry_group_IT_number 53
_symmetry_cell_setting 'orthorhombic'
loop_
_space_group_symop_operation_xyz
x,y,z
1/2-x,-y,1/2+z
x,-y,-z
1/2-x,y,1/2-z
-x,-y,-z
1/2+x,y,1/2-z
-x,y,z
1/2+x,-y,1/2+z
loop_
_atom_site_type_symbol
_atom_site_label
_atom_site_fract_x
_atom_site_fract_y
_atom_site_fract_z
Si Si1 0.645925 0.149437 0.426948
Si Si2 0.091063 0.911268 0.145429
Si Si3 0.329715 0.867981 0.971537
Si Si4 0.595340 0.494852 0.122811
Si Si5 0.595618 0.253628 0.830647
Si Si6 0.656147 0.733103 0.772682
O O1 0.594967 0.146555 0.531613
O O2 0.736531 0.161213 0.464110
O O3 0.619884 0.239142 0.340085
O O4 0.639781 0.026802 0.369886
O O5 0.120933 0.826177 0.234431
O O6 0.000000 0.941659 0.168665
O O7 0.363528 0.829076 0.859279
O O8 0.370262 0.796264 0.062546
O O9 0.339256 0.000000 0.000000
O O10 0.500000 0.483690 0.127054
O O11 0.618299 0.614201 0.175920
O O12 0.632619 0.386684 0.178793
O O13 0.617297 0.500000 0.000000
O O14 0.500000 0.250086 0.834803
O O15 0.750000 0.737481 0.750000
#
# Coordination Sequence:
#
# PCOD9417818 Si02
#       6
#     8   8   8   8   8   8
#     4  10  20  37  56  84 119 158 191 227 292 351
#     4  10  20  38  59  85 119 152 195 235 283 350
#     4  11  20  35  58  84 118 151 187 242 290 351
#     4  10  20  40  63  82 112 154 196 241 295 340
#     4  10  22  38  59  87 115 150 198 247 290 339
#     4  10  22  37  55  87 120 149 196 243 284 348
#
# _framework density 18.83614
#
# number of rings (size 3 to 8) (size 9 to 14) (size 15 to 20)
#    0.000    1.833    3.333    2.000    0.000    2.333 
#    3.000    0.833    0.000    3.000    0.000    0.000 
#    0.000    0.000    0.000    0.000    0.000    0.000 
#
# Total GULP energy -267827.680312 kJ/mol
# GULP energy per Si atom -5579.743340 kJ/mol
# Density = 1.879327 g / cm^3
# Si number density = 18.836140 Si / 1000 Ang^3
#
#
#
# Elastic Constant Matrix: (Units=GPa)
#
#
# Indices 1 2 3 4 5 6 
#
# 1 1.1097 4.7032 6.0983 0.0000 0.0000 0.0000
# 2 4.7032 83.6417 56.3201 0.0000 0.0000 0.0000
# 3 6.0983 56.3201 117.5559 0.0000 0.0000 0.0000
# 4 0.0000 0.0000 0.0000 36.3289 0.0000 0.0000
# 5 0.0000 0.0000 0.0000 0.0000 29.4806 0.0000
# 6 0.0000 0.0000 0.0000 0.0000 0.0000 20.3658
#
#
#
# Elastic Compliance Matrix: (Units=1/GPa)
#
#
# Indices 1 2 3 4 5 6 
#
# 1 1.356236 -0.042645 -0.049925 0.000000 0.000000 0.000000
# 2 -0.042645 0.018990 -0.006886 0.000000 0.000000 0.000000
# 3 -0.049925 -0.006886 0.014395 0.000000 0.000000 0.000000
# 4 0.000000 0.000000 0.000000 0.027526 0.000000 0.000000
# 5 0.000000 0.000000 0.000000 0.000000 0.033921 0.000000
# 6 0.000000 0.000000 0.000000 0.000000 0.000000 0.049102
#
#
# Mechanical properties :
#
#
# Convention : Reuss Voigt Hill
#
# Bulk Modulus (GPa) = 0.83983 37.39449 19.11716
# Shear Modulus (GPa) = 2.38551 26.24746 14.31649
#
# Velocity S-wave (km/s) = 1.12659 3.73696 2.75990
# Velocity P-wave (km/s) = 1.46257 6.20608 4.50858
#
# Compressibility (1/GPa) = 1.19071148
#
# Stress axis : x y z
#
# Youngs Moduli (GPa) = 0.73733 52.65852 69.46648
#
# Poissons Ratio (x) = 2.24561 3.46809
# Poissons Ratio (y) = 0.03144 0.47834
# Poissons Ratio (z) = 0.03681 0.36260
#
# Static dielectric constant tensor:
#      x y z
#    x 1.650620 0.000000 0.000000 
#    y 0.000000 1.648560 0.000000 
#    z 0.000000 0.000000 1.659050 
# 
# From -- ./inp_files/16949.got.cif
#   From: 2010.05.17/outbox.cif.g08.bks.cpg/sg53_9_cif.got.tgz:16949.got - 2010.06.03 12:45:16.
