data_PCOD9417828
_publ_section_title
;
Structure prediction by ZEFSAII (Michael W. Deem and Ramdas Pophale) SiO2 
 PCOD9417828
Probable space group: P M N A
;
_chemical_formula_sum "Si O2"
_cell_formula_units_Z 64
_cell_length_a 8.324038
_cell_length_b 12.357543
_cell_length_c 32.217142
_cell_angle_alpha 90.000000
_cell_angle_beta 90.000000
_cell_angle_gamma 90.000000
_cell_volume 3314.005278
_symmetry_space_group_name_H-M "P M N A"
_symmetry_group_IT_number 53
_symmetry_cell_setting 'orthorhombic'
loop_
_space_group_symop_operation_xyz
x,y,z
1/2-x,-y,1/2+z
x,-y,-z
1/2-x,y,1/2-z
-x,-y,-z
1/2+x,y,1/2-z
-x,y,z
1/2+x,-y,1/2+z
loop_
_atom_site_type_symbol
_atom_site_label
_atom_site_fract_x
_atom_site_fract_y
_atom_site_fract_z
Si Si1 0.310644 0.501439 0.547858
Si Si2 0.804408 0.882942 0.483811
Si Si3 0.306166 0.367275 0.874072
Si Si4 0.310067 0.734917 0.942825
Si Si5 0.306314 0.492162 0.204133
Si Si6 0.192944 0.240943 0.295676
Si Si7 0.194294 0.128283 0.611749
Si Si8 0.312829 0.107649 0.372732
O O1 0.246547 0.500000 0.500000
O O2 0.500000 0.481356 0.545613
O O3 0.240065 0.417581 0.581293
O O4 0.276575 0.621924 0.565139
O O5 0.751127 0.787438 0.514085
O O6 0.757385 0.868070 0.436578
O O7 0.000000 0.883246 0.485648
O O8 0.749781 0.000000 0.500000
O O9 0.500000 0.367985 0.872982
O O10 0.247647 0.438344 0.835075
O O11 0.253384 0.242759 0.869485
O O12 0.500000 0.712396 0.945251
O O13 0.281831 0.826581 0.908307
O O14 0.250000 0.527479 0.250000
O O15 0.500000 0.495564 0.204155
O O16 0.258657 0.366655 0.198393
O O17 0.250000 0.208893 0.250000
O O18 0.273274 0.167268 0.330095
O O19 0.000000 0.234111 0.299027
O O20 0.000000 0.122171 0.613702
O O21 0.262144 0.017271 0.629585
O O22 0.500000 0.115205 0.382782
#
# Coordination Sequence:
#
# PCOD9417828 Si02
#       8
#     8   8   8   8   8   8   8   8
#     4  11  24  39  55  82 122 158 191 237 296 357
#     4   9  16  30  53  79 105 140 192 242 285 330
#     4  10  21  38  61  86 113 153 204 245 288 348
#     4  11  21  36  60  84 110 147 195 244 287 338
#     4   9  19  36  60  90 116 142 182 233 288 348
#     4  10  20  37  61  87 116 147 182 231 288 346
#     4  10  20  37  58  80 111 153 199 246 286 334
#     4  12  24  37  55  84 118 150 188 232 288 350
#
# _framework density 19.311978
#
# number of rings (size 3 to 8) (size 9 to 14) (size 15 to 20)
#    0.000    1.750    1.250    3.750    0.000    4.500 
#    0.000    2.500    0.000    1.500    0.000    0.000 
#    0.000    0.000    0.000    0.000    0.000    0.000 
#
# Total GULP energy -357475.704457 kJ/mol
# GULP energy per Si atom -5585.557882 kJ/mol
# Density = 1.926802 g / cm^3
# Si number density = 19.311978 Si / 1000 Ang^3
#
#
#
# Elastic Constant Matrix: (Units=GPa)
#
#
# Indices 1 2 3 4 5 6 
#
# 1 14.1510 4.1804 5.6237 0.0000 0.0000 0.0000
# 2 4.1804 99.4225 47.9212 0.0000 0.0000 0.0000
# 3 5.6237 47.9212 108.9527 0.0000 0.0000 0.0000
# 4 0.0000 0.0000 0.0000 13.4357 0.0000 0.0000
# 5 0.0000 0.0000 0.0000 0.0000 24.1341 0.0000
# 6 0.0000 0.0000 0.0000 0.0000 0.0000 -26.2097
#
#
#
# Elastic Compliance Matrix: (Units=1/GPa)
#
#
# Indices 1 2 3 4 5 6 
#
# 1 0.072340 -0.001576 -0.003041 0.000000 0.000000 0.000000
# 2 -0.001576 0.012798 -0.005548 0.000000 0.000000 0.000000
# 3 -0.003041 -0.005548 0.011775 0.000000 0.000000 0.000000
# 4 0.000000 0.000000 0.000000 0.074429 0.000000 0.000000
# 5 0.000000 0.000000 0.000000 0.000000 0.041435 0.000000
# 6 0.000000 0.000000 0.000000 0.000000 0.000000 -0.038154
#
#
# Mechanical properties :
#
#
# Convention : Reuss Voigt Hill
#
# Bulk Modulus (GPa) = 13.05739 37.55299 25.30519
# Shear Modulus (GPa) = 22.67761 13.25873 17.96817
#
# Velocity S-wave (km/s) = 3.43049 2.62306 3.05358
# Velocity P-wave (km/s) = 4.73993 5.35365 5.05611
#
# Compressibility (1/GPa) = 0.07658499
#
# Stress axis : x y z
#
# Youngs Moduli (GPa) = 13.82352 78.13483 84.92302
#
# Poissons Ratio (x) = 0.12315 0.25822
# Poissons Ratio (y) = 0.02179 0.47114
# Poissons Ratio (z) = 0.04203 0.43348
#
# Static dielectric constant tensor:
#      x y z
#    x 1.669110 0.000000 0.000000 
#    y 0.000000 1.675980 0.000000 
#    z 0.000000 0.000000 1.661950 
# 
# From -- ./inp_files/38227.got.cif
#   From: 2010.05.17/outbox.cif.g08.bks.cpg/sg53_20_cif.got.tgz:38227.got - 2010.06.03 12:45:16.
