data_PCOD9417050
_publ_section_title
;
Structure prediction by ZEFSAII (Michael W. Deem and Ramdas Pophale) SiO2 
 PCOD9417050
Probable space group: P M N A
;
_chemical_formula_sum "Si O2"
_cell_formula_units_Z 40
_cell_length_a 8.619265
_cell_length_b 13.085397
_cell_length_c 18.706209
_cell_angle_alpha 90.000000
_cell_angle_beta 90.000000
_cell_angle_gamma 90.000000
_cell_volume 2109.807923
_symmetry_space_group_name_H-M "P M N A"
_symmetry_group_IT_number 53
_symmetry_cell_setting 'orthorhombic'
loop_
_space_group_symop_operation_xyz
x,y,z
1/2-x,-y,1/2+z
x,-y,-z
1/2-x,y,1/2-z
-x,-y,-z
1/2+x,y,1/2-z
-x,y,z
1/2+x,-y,1/2+z
loop_
_atom_site_type_symbol
_atom_site_label
_atom_site_fract_x
_atom_site_fract_y
_atom_site_fract_z
Si Si1 0.311460 0.124839 0.574563
Si Si2 0.815981 0.703627 0.671585
Si Si3 0.187656 0.106569 0.090107
Si Si4 0.812290 0.684661 0.169907
Si Si5 0.812481 0.483057 0.082052
O O1 0.500000 0.125855 0.574760
O O2 0.266675 0.135847 0.491366
O O3 0.258177 0.217198 0.624241
O O4 0.265242 0.011665 0.600408
O O5 0.750000 0.680978 0.750000
O O6 0.759197 0.814173 0.644982
O O7 0.754591 0.619203 0.616241
O O8 0.000000 0.700663 0.674195
O O9 0.000000 0.112094 0.094399
O O10 0.750000 0.686974 0.250000
O O11 0.766107 0.580840 0.129389
O O12 0.000000 0.686875 0.171649
O O13 0.000000 0.475689 0.083216
O O14 0.765058 0.500000 0.000000
#
# Coordination Sequence:
#
# PCOD9417050 Si02
#       5
#     8   8   8   8   8
#     4   8  16  33  59  85 109 143 184 225 271 329
#     4  12  25  39  56  81 115 151 189 234 282 331
#     4   9  17  35  61  84 108 142 187 232 275 326
#     4  10  20  34  53  80 111 141 175 216 268 327
#     4  10  21  39  63  85 107 140 183 230 280 337
#
# _framework density 18.959071999999999
#
# number of rings (size 3 to 8) (size 9 to 14) (size 15 to 20)
#    0.000    2.200    0.000    4.800    0.000    6.800 
#    0.000    8.000    0.000    0.000    0.000    0.000 
#    0.000    0.000    0.000    0.000    0.000    0.000 
#
# Total GULP energy -223402.045241 kJ/mol
# GULP energy per Si atom -5585.051131 kJ/mol
# Density = 1.891592 g / cm^3
# Si number density = 18.959072 Si / 1000 Ang^3
#
#
#
# Elastic Constant Matrix: (Units=GPa)
#
#
# Indices 1 2 3 4 5 6 
#
# 1 23.7268 18.8255 17.7737 0.0000 0.0000 0.0000
# 2 18.8255 64.6231 14.4396 0.0000 0.0000 0.0000
# 3 17.7737 14.4396 60.1718 0.0000 0.0000 0.0000
# 4 0.0000 0.0000 0.0000 9.7192 0.0000 0.0000
# 5 0.0000 0.0000 0.0000 0.0000 29.6406 0.0000
# 6 0.0000 0.0000 0.0000 0.0000 0.0000 5.6395
#
#
#
# Elastic Compliance Matrix: (Units=1/GPa)
#
#
# Indices 1 2 3 4 5 6 
#
# 1 0.066621 -0.015861 -0.015873 0.000000 0.000000 0.000000
# 2 -0.015861 0.020127 -0.000145 0.000000 0.000000 0.000000
# 3 -0.015873 -0.000145 0.021342 0.000000 0.000000 0.000000
# 4 0.000000 0.000000 0.000000 0.102889 0.000000 0.000000
# 5 0.000000 0.000000 0.000000 0.000000 0.033738 0.000000
# 6 0.000000 0.000000 0.000000 0.000000 0.000000 0.177319
#
#
# Mechanical properties :
#
#
# Convention : Reuss Voigt Hill
#
# Bulk Modulus (GPa) = 22.55616 27.84437 25.20026
# Shear Modulus (GPa) = 9.98859 15.49873 12.74366
#
# Velocity S-wave (km/s) = 2.29781 2.86227 2.59543
# Velocity P-wave (km/s) = 4.35466 5.06378 4.72255
#
# Compressibility (1/GPa) = 0.04433379
#
# Stress axis : x y z
#
# Youngs Moduli (GPa) = 15.01028 49.68395 46.85524
#
# Poissons Ratio (x) = 0.78803 0.74371
# Poissons Ratio (y) = 0.23808 0.00679
# Poissons Ratio (z) = 0.23825 0.00720
#
# Static dielectric constant tensor:
#      x y z
#    x 1.645160 0.000000 0.000000 
#    y 0.000000 1.645420 0.000000 
#    z 0.000000 0.000000 1.631690 
# 
# From -- ./inp_files/19856.got.cif
#   From: 2010.05.17/outbox.cif.g08.bks.cpg/sg53_10_cif.got.tgz:19856.got - 2010.06.03 12:45:16.
