data_PCOD9417368
_publ_section_title
;
Structure prediction by ZEFSAII (Michael W. Deem and Ramdas Pophale) SiO2 
 PCOD9417368
Probable space group: P M N A
;
_chemical_formula_sum "Si O2"
_cell_formula_units_Z 48
_cell_length_a 7.582683
_cell_length_b 15.370195
_cell_length_c 17.660779
_cell_angle_alpha 90.000000
_cell_angle_beta 90.000000
_cell_angle_gamma 90.000000
_cell_volume 2058.316397
_symmetry_space_group_name_H-M "P M N A"
_symmetry_group_IT_number 53
_symmetry_cell_setting 'orthorhombic'
loop_
_space_group_symop_operation_xyz
x,y,z
1/2-x,-y,1/2+z
x,-y,-z
1/2-x,y,1/2-z
-x,-y,-z
1/2+x,y,1/2-z
-x,y,z
1/2+x,-y,1/2+z
loop_
_atom_site_type_symbol
_atom_site_label
_atom_site_fract_x
_atom_site_fract_y
_atom_site_fract_z
Si Si1 0.795785 0.872738 0.074411
Si Si2 0.784205 0.207369 0.082015
Si Si3 0.710119 0.379854 0.336915
Si Si4 0.289333 0.708611 0.163466
Si Si5 0.788610 0.035785 0.163299
Si Si6 0.703967 0.544965 0.074160
O O1 0.787091 0.801716 0.140770
O O2 0.000000 0.891175 0.055386
O O3 0.718012 0.962591 0.105633
O O4 0.721454 0.826079 0.999809
O O5 0.724470 0.302101 0.108862
O O6 0.729363 0.132329 0.140844
O O7 0.000000 0.211679 0.081075
O O8 0.750000 0.358447 0.250000
O O9 0.500000 0.387508 0.345540
O O10 0.789945 0.471783 0.361159
O O11 0.250000 0.685643 0.250000
O O12 0.500000 0.713795 0.155457
O O13 0.218985 0.634083 0.106814
O O14 0.750000 0.014364 0.250000
O O15 0.000000 0.035323 0.155386
O O16 0.500000 0.564430 0.055344
O O17 0.785907 0.500000 0.000000
#
# Coordination Sequence:
#
# PCOD9417368 Si02
#       6
#     8   8   8   8   8   8
#     4  10  20  36  59  83 109 143 184 229 273 321
#     4   9  19  36  57  82 110 144 185 225 271 327
#     4  11  22  36  57  83 112 146 185 229 275 327
#     4  11  23  38  57  81 111 146 182 223 272 325
#     4  10  20  35  56  81 111 146 183 224 271 324
#     4  10  22  40  60  83 112 145 182 227 279 331
#
# _framework density 23.320029000000002
#
# number of rings (size 3 to 8) (size 9 to 14) (size 15 to 20)
#    0.000    1.833    0.000    4.000    0.000    7.000 
#    0.000    2.500    0.000    2.000    0.000    0.000 
#    0.000    0.000    0.000    0.000    0.000    0.000 
#
# Total GULP energy -268396.782057 kJ/mol
# GULP energy per Si atom -5591.599626 kJ/mol
# Density = 2.326695 g / cm^3
# Si number density = 23.320029 Si / 1000 Ang^3
#
#
#
# Elastic Constant Matrix: (Units=GPa)
#
#
# Indices 1 2 3 4 5 6 
#
# 1 60.3992 -8.4612 -10.7963 0.0000 0.0000 0.0000
# 2 -8.4612 76.3224 -26.6435 0.0000 0.0000 0.0000
# 3 -10.7963 -26.6435 59.4608 0.0000 0.0000 0.0000
# 4 0.0000 0.0000 0.0000 43.3297 0.0000 0.0000
# 5 0.0000 0.0000 0.0000 0.0000 54.5152 0.0000
# 6 0.0000 0.0000 0.0000 0.0000 0.0000 0.1309
#
#
#
# Elastic Compliance Matrix: (Units=1/GPa)
#
#
# Indices 1 2 3 4 5 6 
#
# 1 0.017956 0.003709 0.004922 0.000000 0.000000 0.000000
# 2 0.003709 0.016298 0.007976 0.000000 0.000000 0.000000
# 3 0.004922 0.007976 0.021286 0.000000 0.000000 0.000000
# 4 0.000000 0.000000 0.000000 0.023079 0.000000 0.000000
# 5 0.000000 0.000000 0.000000 0.000000 0.018343 0.000000
# 6 0.000000 0.000000 0.000000 0.000000 0.000000 7.642239
#
#
# Mechanical properties :
#
#
# Convention : Reuss Voigt Hill
#
# Bulk Modulus (GPa) = 11.26708 11.59781 11.43245
# Shear Modulus (GPa) = 0.64636 35.73406 18.19021
#
# Velocity S-wave (km/s) = 0.52704 3.91875 2.79592
# Velocity P-wave (km/s) = 2.28306 5.04575 3.91612
#
# Compressibility (1/GPa) = 0.08875417
#
# Stress axis : x y z
#
# Youngs Moduli (GPa) = 55.69191 61.35745 46.98020
#
# Poissons Ratio (x) = -0.22757 -0.23124
# Poissons Ratio (y) = -0.20656 -0.37473
# Poissons Ratio (z) = -0.27412 -0.48940
#
# Static dielectric constant tensor:
#      x y z
#    x 1.917960 0.000000 0.000000 
#    y 0.000000 1.846370 0.000000 
#    z 0.000000 0.000000 1.869740 
# 
# From -- ./inp_files/26173.got.cif
#   From: 2010.05.17/outbox.cif.g08.bks.cpg/sg53_14_cif.got.tgz:26173.got - 2010.06.03 12:45:16.
