data_PCOD9417695
_publ_section_title
;
Structure prediction by ZEFSAII (Michael W. Deem and Ramdas Pophale) SiO2 
 PCOD9417695
Probable space group: P M N A
;
_chemical_formula_sum "Si O2"
_cell_formula_units_Z 48
_cell_length_a 9.675923
_cell_length_b 30.281545
_cell_length_c 8.945629
_cell_angle_alpha 90.000000
_cell_angle_beta 90.000000
_cell_angle_gamma 90.000000
_cell_volume 2621.086273
_symmetry_space_group_name_H-M "P M N A"
_symmetry_group_IT_number 53
_symmetry_cell_setting 'orthorhombic'
loop_
_space_group_symop_operation_xyz
x,y,z
1/2-x,-y,1/2+z
x,-y,-z
1/2-x,y,1/2-z
-x,-y,-z
1/2+x,y,1/2-z
-x,y,z
1/2+x,-y,1/2+z
loop_
_atom_site_type_symbol
_atom_site_label
_atom_site_fract_x
_atom_site_fract_y
_atom_site_fract_z
Si Si1 0.500000 0.450552 0.431922
Si Si2 0.337048 0.300999 0.898685
Si Si3 0.834838 0.786440 0.596088
Si Si4 0.752834 0.602147 0.431053
Si Si5 0.500000 0.451880 0.072530
Si Si6 0.666952 0.130521 0.406417
Si Si7 0.837040 0.042208 0.900205
O O1 0.500000 0.500000 0.500000
O O2 0.624563 0.421768 0.495267
O O3 0.500000 0.453942 0.252175
O O4 0.250000 0.291961 0.750000
O O5 0.500000 0.309257 0.865956
O O6 0.273474 0.346052 0.965152
O O7 0.326886 0.258503 0.003359
O O8 0.750000 0.779708 0.750000
O O9 0.749345 0.827438 0.524970
O O10 0.000000 0.796294 0.616139
O O11 0.750000 0.598346 0.250000
O O12 0.874229 0.575141 0.505916
O O13 0.500000 0.500000 0.000000
O O14 0.750000 0.123484 0.250000
O O15 0.500000 0.138226 0.387140
O O16 0.681935 0.087038 0.506052
O O17 0.750000 0.043418 0.750000
O O18 0.000000 0.037832 0.865377
O O19 0.796963 0.000000 0.000000
#
# Coordination Sequence:
#
# PCOD9417695 Si02
#       7
#     4   8   8   8   4   8   8
#     4  12  26  42  64  96 122 162 202 242 305 352
#     4  10  23  41  63  89 119 156 197 241 295 351
#     4  10  21  38  59  88 121 157 198 245 297 352
#     4  11  23  43  64  90 123 160 202 246 300 358
#     4  12  24  42  66  90 126 158 198 252 291 360
#     4  10  20  36  58  85 117 156 201 247 299 355
#     4  10  22  38  57  84 117 154 199 248 301 360
#
# _framework density 18.313018
#
# number of rings (size 3 to 8) (size 9 to 14) (size 15 to 20)
#    0.000    1.500    0.833    5.000    3.500    5.000 
#    0.000    3.333    0.000    0.000    0.000    0.000 
#    0.000    0.000    0.000    0.000    0.000    0.000 
#
# Total GULP energy -267729.098141 kJ/mol
# GULP energy per Si atom -5577.689545 kJ/mol
# Density = 1.827134 g / cm^3
# Si number density = 18.313018 Si / 1000 Ang^3
#
#
#
# Elastic Constant Matrix: (Units=GPa)
#
#
# Indices 1 2 3 4 5 6 
#
# 1 169.7026 88.3654 60.9096 0.0000 0.0000 0.0000
# 2 88.3654 181.6166 82.9734 0.0000 0.0000 0.0000
# 3 60.9096 82.9734 101.9043 0.0000 0.0000 0.0000
# 4 0.0000 0.0000 0.0000 36.7070 0.0000 0.0000
# 5 0.0000 0.0000 0.0000 0.0000 35.5095 0.0000
# 6 0.0000 0.0000 0.0000 0.0000 0.0000 34.8652
#
#
#
# Elastic Compliance Matrix: (Units=1/GPa)
#
#
# Indices 1 2 3 4 5 6 
#
# 1 0.008325 -0.002830 -0.002672 0.000000 0.000000 0.000000
# 2 -0.002830 0.009729 -0.006231 0.000000 0.000000 0.000000
# 3 -0.002672 -0.006231 0.016483 0.000000 0.000000 0.000000
# 4 0.000000 0.000000 0.000000 0.027243 0.000000 0.000000
# 5 0.000000 0.000000 0.000000 0.000000 0.028162 0.000000
# 6 0.000000 0.000000 0.000000 0.000000 0.000000 0.028682
#
#
# Mechanical properties :
#
#
# Convention : Reuss Voigt Hill
#
# Bulk Modulus (GPa) = 90.30796 101.96893 96.13844
# Shear Modulus (GPa) = 34.29829 36.14802 35.22315
#
# Velocity S-wave (km/s) = 4.33239 4.44768 4.39041
# Velocity P-wave (km/s) = 8.62825 9.06520 8.84942
#
# Compressibility (1/GPa) = 0.01107322
#
# Stress axis : x y z
#
# Youngs Moduli (GPa) = 120.11683 102.78022 60.66780
#
# Poissons Ratio (x) = 0.29086 0.16210
# Poissons Ratio (y) = 0.33993 0.37799
# Poissons Ratio (z) = 0.32094 0.64037
#
# Static dielectric constant tensor:
#      x y z
#    x 1.592940 0.000000 0.000000 
#    y 0.000000 1.642380 0.000000 
#    z 0.000000 0.000000 1.595600 
# 
# From -- ./inp_files/6859.got.cif
#   From: 2010.05.17/outbox.cif.g08.bks.cpg/sg53_4_cif.got.tgz:6859.got - 2010.06.03 12:45:16.
