data_PCOD9417468
_publ_section_title
;
Structure prediction by ZEFSAII (Michael W. Deem and Ramdas Pophale) SiO2 
 PCOD9417468
Probable space group: P M N A
;
_chemical_formula_sum "Si O2"
_cell_formula_units_Z 56
_cell_length_a 11.060491
_cell_length_b 11.076962
_cell_length_c 23.142969
_cell_angle_alpha 90.000000
_cell_angle_beta 90.000000
_cell_angle_gamma 90.000000
_cell_volume 2835.398767
_symmetry_space_group_name_H-M "P M N A"
_symmetry_group_IT_number 53
_symmetry_cell_setting 'orthorhombic'
loop_
_space_group_symop_operation_xyz
x,y,z
1/2-x,-y,1/2+z
x,-y,-z
1/2-x,y,1/2-z
-x,-y,-z
1/2+x,y,1/2-z
-x,y,z
1/2+x,-y,1/2+z
loop_
_atom_site_type_symbol
_atom_site_label
_atom_site_fract_x
_atom_site_fract_y
_atom_site_fract_z
Si Si1 0.200344 0.370638 0.514696
Si Si2 0.126330 0.887895 0.455870
Si Si3 0.143292 0.383657 0.202848
Si Si4 0.135378 0.986092 0.094852
Si Si5 0.364920 0.134684 0.708801
Si Si6 0.640602 0.263864 0.415910
Si Si7 0.362846 0.627267 0.371126
O O1 0.141770 0.500000 0.500000
O O2 0.127077 0.245672 0.517415
O O3 0.290711 0.344612 0.461779
O O4 0.269652 0.378817 0.576105
O O5 0.254406 0.904430 0.425231
O O6 0.000000 0.898132 0.420844
O O7 0.123617 0.000000 0.500000
O O8 0.250000 0.374172 0.250000
O O9 0.171506 0.292254 0.150365
O O10 0.150848 0.514571 0.172102
O O11 0.000000 0.367853 0.221207
O O12 0.135251 0.977122 0.164176
O O13 0.000000 0.947006 0.075730
O O14 0.157109 0.121529 0.073203
O O15 0.250000 0.129359 0.750000
O O16 0.500000 0.140378 0.736074
O O17 0.352893 0.252801 0.667948
O O18 0.500000 0.291587 0.421661
O O19 0.500000 0.624484 0.394933
#
# Coordination Sequence:
#
# PCOD9417468 Si02
#       7
#     8   8   8   8   8   8   8
#     4  12  22  37  64  96 129 164 206 259 323 378
#     4  11  24  42  62  89 128 169 204 248 310 383
#     4  10  21  39  59  85 121 163 208 256 309 373
#     4  10  21  39  63  91 120 159 212 264 310 373
#     4  10  21  37  58  86 119 155 207 265 313 367
#     4  10  21  36  61  95 128 159 204 263 319 374
#     4  10  20  35  58  89 123 156 203 258 312 373
#
# _framework density 19.750306999999999
#
# number of rings (size 3 to 8) (size 9 to 14) (size 15 to 20)
#    0.000    1.571    4.286    0.857    0.000    2.857 
#    0.000    2.143    0.000    0.000    0.000    0.000 
#    0.000    0.000    0.000    0.000    0.000    0.000 
#
# Total GULP energy -312103.582012 kJ/mol
# GULP energy per Si atom -5573.278250 kJ/mol
# Density = 1.970535 g / cm^3
# Si number density = 19.750307 Si / 1000 Ang^3
#
#
#
# Elastic Constant Matrix: (Units=GPa)
#
#
# Indices 1 2 3 4 5 6 
#
# 1 135.8825 33.3479 63.7009 0.0000 0.0000 0.0000
# 2 33.3479 69.2668 11.2254 0.0000 0.0000 0.0000
# 3 63.7009 11.2254 62.5615 0.0000 0.0000 0.0000
# 4 0.0000 0.0000 0.0000 19.9991 0.0000 0.0000
# 5 0.0000 0.0000 0.0000 0.0000 85.7909 0.0000
# 6 0.0000 0.0000 0.0000 0.0000 0.0000 -448.7660
#
#
#
# Elastic Compliance Matrix: (Units=1/GPa)
#
#
# Indices 1 2 3 4 5 6 
#
# 1 0.015655 -0.005102 -0.015024 0.000000 0.000000 0.000000
# 2 -0.005102 0.016532 0.002229 0.000000 0.000000 0.000000
# 3 -0.015024 0.002229 0.030883 0.000000 0.000000 0.000000
# 4 0.000000 0.000000 0.000000 0.050002 0.000000 0.000000
# 5 0.000000 0.000000 0.000000 0.000000 0.011656 0.000000
# 6 0.000000 0.000000 0.000000 0.000000 0.000000 -0.002228
#
#
# Mechanical properties :
#
#
# Convention : Reuss Voigt Hill
#
# Bulk Modulus (GPa) = 36.66547 53.80657 45.23602
# Shear Modulus (GPa) = 29.87098 -57.96610 -14.04756
#
# Velocity S-wave (km/s) = 3.89322 -5.42339 -2.66983
# Velocity P-wave (km/s) = 6.23012 3.45181 3.66738
#
# Compressibility (1/GPa) = 0.02727362
#
# Stress axis : x y z
#
# Youngs Moduli (GPa) = 63.87815 60.48843 32.38077
#
# Poissons Ratio (x) = 0.30861 0.48650
# Poissons Ratio (y) = 0.32591 -0.07216
# Poissons Ratio (z) = 0.95974 -0.13480
#
# Static dielectric constant tensor:
#      x y z
#    x 1.737820 0.000000 0.000000 
#    y 0.000000 1.740870 0.000000 
#    z 0.000000 0.000000 1.693380 
# 
# From -- ./inp_files/31967.got.cif
#   From: 2010.05.17/outbox.cif.g08.bks.cpg/sg53_16_cif.got.tgz:31967.got - 2010.06.03 12:45:16.
