data_PCOD9417122
_publ_section_title
;
Structure prediction by ZEFSAII (Michael W. Deem and Ramdas Pophale) SiO2 
 PCOD9417122
Probable space group: P M N A
;
_chemical_formula_sum "Si O2"
_cell_formula_units_Z 64
_cell_length_a 9.553862
_cell_length_b 23.008559
_cell_length_c 14.844469
_cell_angle_alpha 90.000000
_cell_angle_beta 90.000000
_cell_angle_gamma 90.000000
_cell_volume 3263.120045
_symmetry_space_group_name_H-M "P M N A"
_symmetry_group_IT_number 53
_symmetry_cell_setting 'orthorhombic'
loop_
_space_group_symop_operation_xyz
x,y,z
1/2-x,-y,1/2+z
x,-y,-z
1/2-x,y,1/2-z
-x,-y,-z
1/2+x,y,1/2-z
-x,y,z
1/2+x,-y,1/2+z
loop_
_atom_site_type_symbol
_atom_site_label
_atom_site_fract_x
_atom_site_fract_y
_atom_site_fract_z
Si Si1 0.148310 0.933460 0.527655
Si Si2 0.336024 0.534905 0.340152
Si Si3 0.337403 0.284616 0.839736
Si Si4 0.341188 0.211199 0.332632
Si Si5 0.165537 0.391310 0.520684
Si Si6 0.335511 0.394361 0.340061
Si Si7 0.647032 0.926283 0.679455
Si Si8 0.162883 0.193870 0.514969
O O1 0.287869 0.932119 0.583340
O O2 0.161251 0.875726 0.467236
O O3 0.000000 0.921297 0.579693
O O4 0.137341 0.000000 0.500000
O O5 0.250000 0.552669 0.250000
O O6 0.500000 0.554238 0.338179
O O7 0.251952 0.558873 0.426349
O O8 0.336692 0.464958 0.342214
O O9 0.250000 0.294486 0.750000
O O10 0.500000 0.276839 0.814987
O O11 0.329138 0.337696 0.909940
O O12 0.289321 0.228965 0.897735
O O13 0.250000 0.236893 0.250000
O O14 0.500000 0.234808 0.341450
O O15 0.360246 0.143025 0.306693
O O16 0.254981 0.209664 0.426613
O O17 0.247293 0.376306 0.428486
O O18 0.000000 0.405546 0.504719
O O19 0.250000 0.377420 0.250000
O O20 0.500000 0.376351 0.340274
O O21 0.750000 0.953464 0.750000
O O22 0.500000 0.954781 0.687889
O O23 0.000000 0.210776 0.496718
#
# Coordination Sequence:
#
# PCOD9417122 Si02
#       8
#     8   8   8   8   8   8   8   8
#     4   9  17  30  50  74 100 131 166 206 257 316
#     4  10  20  34  54  83 117 152 191 235 286 341
#     4  10  23  41  60  81 106 141 185 234 282 327
#     4   9  16  27  47  76 104 130 162 199 243 299
#     4  11  22  36  56  82 111 146 192 241 287 336
#     4  10  21  37  57  83 117 154 189 229 282 343
#     4   9  16  26  42  65  94 125 156 191 234 287
#     4   9  18  35  55  75 104 139 175 218 268 320
#
# _framework density 19.613130000000002
#
# number of rings (size 3 to 8) (size 9 to 14) (size 15 to 20)
#    0.000    2.375    0.000    2.625    0.000    8.750 
#    0.000    1.250    0.000    1.500    0.000    0.000 
#    0.000    0.000    0.000    0.000    0.000    0.000 
#
# Total GULP energy -356317.488843 kJ/mol
# GULP energy per Si atom -5567.460763 kJ/mol
# Density = 1.956849 g / cm^3
# Si number density = 19.613130 Si / 1000 Ang^3
#
#
#
# Elastic Constant Matrix: (Units=GPa)
#
#
# Indices 1 2 3 4 5 6 
#
# 1 163.2595 22.6971 71.9554 0.0000 0.0000 0.0000
# 2 22.6971 63.2709 18.1033 0.0000 0.0000 0.0000
# 3 71.9554 18.1033 116.2791 0.0000 0.0000 0.0000
# 4 0.0000 0.0000 0.0000 105.5429 0.0000 0.0000
# 5 0.0000 0.0000 0.0000 0.0000 50.4729 0.0000
# 6 0.0000 0.0000 0.0000 0.0000 0.0000 9.4625
#
#
#
# Elastic Compliance Matrix: (Units=1/GPa)
#
#
# Indices 1 2 3 4 5 6 
#
# 1 0.008580 -0.001631 -0.005056 0.000000 0.000000 0.000000
# 2 -0.001631 0.016852 -0.001614 0.000000 0.000000 0.000000
# 3 -0.005056 -0.001614 0.011980 0.000000 0.000000 0.000000
# 4 0.000000 0.000000 0.000000 0.009475 0.000000 0.000000
# 5 0.000000 0.000000 0.000000 0.000000 0.019813 0.000000
# 6 0.000000 0.000000 0.000000 0.000000 0.000000 0.105681
#
#
# Mechanical properties :
#
#
# Convention : Reuss Voigt Hill
#
# Bulk Modulus (GPa) = 48.05418 63.14677 55.60048
# Shear Modulus (GPa) = 25.52071 48.43258 36.97664
#
# Velocity S-wave (km/s) = 3.61114 4.97469 4.34672
# Velocity P-wave (km/s) = 6.47621 8.07854 7.32134
#
# Compressibility (1/GPa) = 0.02080984
#
# Stress axis : x y z
#
# Youngs Moduli (GPa) = 116.54685 59.33967 83.47404
#
# Poissons Ratio (x) = 0.09681 0.42201
# Poissons Ratio (y) = 0.19014 0.13474
# Poissons Ratio (z) = 0.58921 0.09578
#
# Static dielectric constant tensor:
#      x y z
#    x 1.731620 0.000000 0.000000 
#    y 0.000000 1.750310 0.000000 
#    z 0.000000 0.000000 1.479240 
# 
# From -- ./inp_files/20949.got.cif
#   From: 2010.05.17/outbox.cif.g08.bks.cpg/sg53_11_cif.got.tgz:20949.got - 2010.06.03 12:45:16.
