data_PCOD9417357
_publ_section_title
;
Structure prediction by ZEFSAII (Michael W. Deem and Ramdas Pophale) SiO2 
 PCOD9417357
Probable space group: P M N A
;
_chemical_formula_sum "Si O2"
_cell_formula_units_Z 64
_cell_length_a 7.804839
_cell_length_b 15.922026
_cell_length_c 24.081652
_cell_angle_alpha 90.000000
_cell_angle_beta 90.000000
_cell_angle_gamma 90.000000
_cell_volume 2992.599188
_symmetry_space_group_name_H-M "P M N A"
_symmetry_group_IT_number 53
_symmetry_cell_setting 'orthorhombic'
loop_
_space_group_symop_operation_xyz
x,y,z
1/2-x,-y,1/2+z
x,-y,-z
1/2-x,y,1/2-z
-x,-y,-z
1/2+x,y,1/2-z
-x,y,z
1/2+x,-y,1/2+z
loop_
_atom_site_type_symbol
_atom_site_label
_atom_site_fract_x
_atom_site_fract_y
_atom_site_fract_z
Si Si1 0.696740 0.874210 0.620918
Si Si2 0.204090 0.035093 0.685540
Si Si3 0.300868 0.373939 0.611078
Si Si4 0.792735 0.472579 0.185130
Si Si5 0.205324 0.219300 0.684766
Si Si6 0.190606 0.907264 0.502102
Si Si7 0.707274 0.307720 0.378007
Si Si8 0.205203 0.719909 0.005042
O O1 0.500000 0.865450 0.600568
O O2 0.709931 0.954792 0.658862
O O3 0.811794 0.890111 0.567670
O O4 0.744775 0.784532 0.646891
O O5 0.250000 0.035841 0.750000
O O6 0.000000 0.028032 0.678531
O O7 0.258716 0.126675 0.663711
O O8 0.500000 0.394986 0.600222
O O9 0.227227 0.451860 0.645806
O O10 0.290648 0.293428 0.650970
O O11 0.225125 0.342360 0.552482
O O12 0.750000 0.482469 0.250000
O O13 0.729262 0.385014 0.158562
O O14 0.000000 0.473781 0.182678
O O15 0.250000 0.225494 0.750000
O O16 0.000000 0.225727 0.679206
O O17 0.260489 0.818082 0.480260
O O18 0.000000 0.917407 0.477802
O O19 0.276885 0.000000 0.500000
O O20 0.500000 0.316398 0.379614
O O21 0.765908 0.302810 0.442581
O O22 0.000000 0.711420 0.004129
#
# Coordination Sequence:
#
# PCOD9417357 Si02
#       8
#     8   8   8   8   8   8   8   8
#     4  10  20  35  56  80 108 143 183 231 281 329
#     4  10  21  36  53  77 108 145 188 229 279 336
#     4  10  21  35  56  85 113 143 183 230 281 339
#     4  10  21  38  59  84 113 145 184 231 283 340
#     4  10  21  36  54  75 107 147 185 229 280 334
#     4  10  21  35  52  77 111 148 188 229 272 326
#     4   8  17  36  58  80 110 144 184 232 281 333
#     4   9  19  36  56  82 111 145 190 232 281 338
#
# _framework density 21.386092000000001
#
# number of rings (size 3 to 8) (size 9 to 14) (size 15 to 20)
#    0.000    2.375    0.000    2.625    1.750    5.500 
#    0.000    6.875    0.000    0.000    0.000    5.250 
#    0.000    0.000    0.000    0.000    0.000    0.000 
#
# Total GULP energy -356891.972416 kJ/mol
# GULP energy per Si atom -5576.437069 kJ/mol
# Density = 2.133742 g / cm^3
# Si number density = 21.386092 Si / 1000 Ang^3
#
#
#
# Elastic Constant Matrix: (Units=GPa)
#
#
# Indices 1 2 3 4 5 6 
#
# 1 38.4166 4.3557 -6.3063 0.0000 0.0000 0.0000
# 2 4.3557 132.6846 24.0404 0.0000 0.0000 0.0000
# 3 -6.3063 24.0404 34.2817 0.0000 0.0000 0.0000
# 4 0.0000 0.0000 0.0000 38.6033 0.0000 0.0000
# 5 0.0000 0.0000 0.0000 0.0000 14.0304 0.0000
# 6 0.0000 0.0000 0.0000 0.0000 0.0000 27.8123
#
#
#
# Elastic Compliance Matrix: (Units=1/GPa)
#
#
# Indices 1 2 3 4 5 6 
#
# 1 0.027329 -0.002071 0.006480 0.000000 0.000000 0.000000
# 2 -0.002071 0.008791 -0.006545 0.000000 0.000000 0.000000
# 3 0.006480 -0.006545 0.034952 0.000000 0.000000 0.000000
# 4 0.000000 0.000000 0.000000 0.025905 0.000000 0.000000
# 5 0.000000 0.000000 0.000000 0.000000 0.071274 0.000000
# 6 0.000000 0.000000 0.000000 0.000000 0.000000 0.035955
#
#
# Mechanical properties :
#
#
# Convention : Reuss Voigt Hill
#
# Bulk Modulus (GPa) = 14.97058 27.72919 21.34988
# Shear Modulus (GPa) = 21.66893 28.30873 24.98883
#
# Velocity S-wave (km/s) = 3.18657 3.64221 3.42199
# Velocity P-wave (km/s) = 4.53369 5.53911 5.06143
#
# Compressibility (1/GPa) = 0.06679769
#
# Stress axis : x y z
#
# Youngs Moduli (GPa) = 36.59132 113.75784 28.61055
#
# Poissons Ratio (x) = 0.23561 -0.18539
# Poissons Ratio (y) = 0.07579 0.18727
# Poissons Ratio (z) = -0.23710 0.74460
#
# Static dielectric constant tensor:
#      x y z
#    x 1.821560 0.000000 0.000000 
#    y 0.000000 1.806880 0.000000 
#    z 0.000000 0.000000 1.749020 
# 
# From -- ./inp_files/34163.got.cif
#   From: 2010.05.17/outbox.cif.g08.bks.cpg/sg53_18_cif.got.tgz:34163.got - 2010.06.03 12:45:16.
