data_PCOD9417005
_publ_section_title
;
Structure prediction by ZEFSAII (Michael W. Deem and Ramdas Pophale) SiO2 
 PCOD9417005
Probable space group: P M N A
;
_chemical_formula_sum "Si O2"
_cell_formula_units_Z 56
_cell_length_a 26.878185
_cell_length_b 5.245168
_cell_length_c 23.376850
_cell_angle_alpha 90.000000
_cell_angle_beta 90.000000
_cell_angle_gamma 90.000000
_cell_volume 3295.682242
_symmetry_space_group_name_H-M "P M N A"
_symmetry_group_IT_number 53
_symmetry_cell_setting 'orthorhombic'
loop_
_space_group_symop_operation_xyz
x,y,z
1/2-x,-y,1/2+z
x,-y,-z
1/2-x,y,1/2-z
-x,-y,-z
1/2+x,y,1/2-z
-x,y,z
1/2+x,-y,1/2+z
loop_
_atom_site_type_symbol
_atom_site_label
_atom_site_fract_x
_atom_site_fract_y
_atom_site_fract_z
Si Si1 0.618632 0.319801 0.782190
Si Si2 0.134184 0.811219 0.158671
Si Si3 0.769762 0.327822 0.685135
Si Si4 0.056486 0.172047 0.132959
Si Si5 0.852627 0.421744 0.065098
Si Si6 0.718025 0.158278 0.360470
Si Si7 0.557523 0.797234 0.768526
O O1 0.634240 0.350889 0.715564
O O2 0.670550 0.332935 0.815133
O O3 0.582063 0.550264 0.797021
O O4 0.589987 0.048870 0.782203
O O5 0.157147 0.664134 0.105603
O O6 0.078739 0.887452 0.140043
O O7 0.167258 0.062579 0.171616
O O8 0.750000 0.278328 0.750000
O O9 0.745612 0.596307 0.665607
O O10 0.752273 0.088904 0.646760
O O11 0.096080 0.305887 0.091060
O O12 0.057394 0.255342 0.199631
O O13 0.000000 0.184310 0.112453
O O14 0.806246 0.235412 0.078688
O O15 0.857421 0.500000 0.000000
O O16 0.500000 0.836762 0.784558
#
# Coordination Sequence:
#
# PCOD9417005 Si02
#       7
#     8   8   8   8   8   8   8
#     4  11  20  33  54  78 103 133 177 210 266 314
#     4  10  20  36  50  71 101 129 174 224 271 329
#     4  12  22  32  55  78 105 133 164 219 275 314
#     4   9  20  33  50  71  96 130 176 235 286 315
#     4  11  22  38  56  70  97 139 185 232 280 329
#     4  11  22  36  50  76 104 130 167 218 273 329
#     4  10  20  34  52  75 106 141 173 215 261 317
#
# _framework density 16.991927
#
# number of rings (size 3 to 8) (size 9 to 14) (size 15 to 20)
#    0.000    1.429    4.286    1.714    4.000    3.714 
#    0.000    0.714    0.000    0.000    0.000    0.000 
#    0.000    0.000    0.000    0.000    0.000   50.000 
#
# Total GULP energy -311953.697741 kJ/mol
# GULP energy per Si atom -5570.601745 kJ/mol
# Density = 1.695325 g / cm^3
# Si number density = 16.991927 Si / 1000 Ang^3
#
#
#
# Elastic Constant Matrix: (Units=GPa)
#
#
# Indices 1 2 3 4 5 6 
#
# 1 136.0450 51.5532 32.4039 0.0000 0.0000 0.0000
# 2 51.5532 99.6786 21.5627 0.0000 0.0000 0.0000
# 3 32.4039 21.5627 23.4557 0.0000 0.0000 0.0000
# 4 0.0000 0.0000 0.0000 9.7384 0.0000 0.0000
# 5 0.0000 0.0000 0.0000 0.0000 16.1313 0.0000
# 6 0.0000 0.0000 0.0000 0.0000 0.0000 26.1880
#
#
#
# Elastic Compliance Matrix: (Units=1/GPa)
#
#
# Indices 1 2 3 4 5 6 
#
# 1 0.011717 -0.003193 -0.013251 0.000000 0.000000 0.000000
# 2 -0.003193 0.013393 -0.007900 0.000000 0.000000 0.000000
# 3 -0.013251 -0.007900 0.068202 0.000000 0.000000 0.000000
# 4 0.000000 0.000000 0.000000 0.102686 0.000000 0.000000
# 5 0.000000 0.000000 0.000000 0.000000 0.061991 0.000000
# 6 0.000000 0.000000 0.000000 0.000000 0.000000 0.038185
#
#
# Mechanical properties :
#
#
# Convention : Reuss Voigt Hill
#
# Bulk Modulus (GPa) = 22.41013 52.24654 37.32834
# Shear Modulus (GPa) = 13.89897 20.65552 17.27724
#
# Velocity S-wave (km/s) = 2.86313 3.49034 3.19218
# Velocity P-wave (km/s) = 4.91399 6.85988 5.96679
#
# Compressibility (1/GPa) = 0.04462267
#
# Stress axis : x y z
#
# Youngs Moduli (GPa) = 85.34746 74.66669 14.66222
#
# Poissons Ratio (x) = 0.23844 0.19429
# Poissons Ratio (y) = 0.27255 0.11584
# Poissons Ratio (z) = 1.13094 0.58989
#
# Static dielectric constant tensor:
#      x y z
#    x 1.627620 0.000000 0.000000 
#    y 0.000000 1.668560 0.000000 
#    z 0.000000 0.000000 1.543750 
# 
# From -- ./inp_files/35704.got.cif
#   From: 2010.05.17/outbox.cif.g08.bks.cpg/sg53_18_cif.got.tgz:35704.got - 2010.06.03 12:45:16.
