data_PCOD9417920
_publ_section_title
;
Structure prediction by ZEFSAII (Michael W. Deem and Ramdas Pophale) SiO2 
 PCOD9417920
Probable space group: P M N A
;
_chemical_formula_sum "Si O2"
_cell_formula_units_Z 48
_cell_length_a 8.589453
_cell_length_b 19.348448
_cell_length_c 15.184674
_cell_angle_alpha 90.000000
_cell_angle_beta 90.000000
_cell_angle_gamma 90.000000
_cell_volume 2523.580220
_symmetry_space_group_name_H-M "P M N A"
_symmetry_group_IT_number 53
_symmetry_cell_setting 'orthorhombic'
loop_
_space_group_symop_operation_xyz
x,y,z
1/2-x,-y,1/2+z
x,-y,-z
1/2-x,y,1/2-z
-x,-y,-z
1/2+x,y,1/2-z
-x,y,z
1/2+x,-y,1/2+z
loop_
_atom_site_type_symbol
_atom_site_label
_atom_site_fract_x
_atom_site_fract_y
_atom_site_fract_z
Si Si1 0.187304 0.507642 0.351289
Si Si2 0.313745 0.399236 0.492162
Si Si3 0.815588 0.857649 0.657819
Si Si4 0.812764 0.754579 0.504691
Si Si5 0.181726 0.003365 0.894574
Si Si6 0.812388 0.842258 0.154947
O O1 0.250000 0.509632 0.250000
O O2 0.245056 0.441346 0.408396
O O3 0.247301 0.569212 0.415908
O O4 0.000000 0.508547 0.348440
O O5 0.500000 0.407346 0.492485
O O6 0.264394 0.319862 0.485210
O O7 0.750000 0.832851 0.750000
O O8 0.759231 0.808127 0.580023
O O9 0.767051 0.936913 0.643173
O O10 0.000000 0.854567 0.658994
O O11 0.760618 0.790680 0.415020
O O12 0.000000 0.747641 0.507998
O O13 0.000000 0.997569 0.869920
O O14 0.238562 0.078442 0.864266
O O15 0.193555 0.000000 0.000000
O O16 0.750000 0.823079 0.250000
O O17 0.000000 0.840248 0.149745
#
# Coordination Sequence:
#
# PCOD9417920 Si02
#       6
#     8   8   8   8   8   8
#     4  11  22  41  68  98 130 164 203 247 293 351
#     4  11  23  41  65  95 128 164 203 248 300 357
#     4  11  24  39  60  86 117 156 202 252 305 363
#     4  11  24  42  61  87 122 161 203 250 302 360
#     4  10  20  37  61  86 115 152 198 252 308 364
#     4  11  23  39  60  86 117 156 201 252 308 366
#
# _framework density 19.020596000000001
#
# number of rings (size 3 to 8) (size 9 to 14) (size 15 to 20)
#    0.000    1.167    1.667    6.000    0.000    6.333 
#    0.000    5.000    0.000    0.000    0.000    0.000 
#    0.000    0.000    0.000    0.000    0.000    0.000 
#
# Total GULP energy -268270.728672 kJ/mol
# GULP energy per Si atom -5588.973514 kJ/mol
# Density = 1.897730 g / cm^3
# Si number density = 19.020596 Si / 1000 Ang^3
#
#
#
# Elastic Constant Matrix: (Units=GPa)
#
#
# Indices 1 2 3 4 5 6 
#
# 1 99.7492 19.9826 32.9684 0.0000 0.0000 0.0000
# 2 19.9826 66.8083 6.0679 0.0000 0.0000 0.0000
# 3 32.9684 6.0679 82.7560 0.0000 0.0000 0.0000
# 4 0.0000 0.0000 0.0000 400.7790 0.0000 0.0000
# 5 0.0000 0.0000 0.0000 0.0000 33.8836 0.0000
# 6 0.0000 0.0000 0.0000 0.0000 0.0000 30.0803
#
#
#
# Elastic Compliance Matrix: (Units=1/GPa)
#
#
# Indices 1 2 3 4 5 6 
#
# 1 0.012200 -0.003229 -0.004624 0.000000 0.000000 0.000000
# 2 -0.003229 0.015923 0.000119 0.000000 0.000000 0.000000
# 3 -0.004624 0.000119 0.013917 0.000000 0.000000 0.000000
# 4 0.000000 0.000000 0.000000 0.002495 0.000000 0.000000
# 5 0.000000 0.000000 0.000000 0.000000 0.029513 0.000000
# 6 0.000000 0.000000 0.000000 0.000000 0.000000 0.033244
#
#
# Mechanical properties :
#
#
# Convention : Reuss Voigt Hill
#
# Bulk Modulus (GPa) = 37.63257 40.81683 39.22470
# Shear Modulus (GPa) = 37.98875 105.63488 71.81181
#
# Velocity S-wave (km/s) = 4.47390 7.46041 6.15116
# Velocity P-wave (km/s) = 6.82025 9.78346 8.43303
#
# Compressibility (1/GPa) = 0.02657272
#
# Stress axis : x y z
#
# Youngs Moduli (GPa) = 81.96601 62.80115 71.85497
#
# Poissons Ratio (x) = 0.20280 0.33222
# Poissons Ratio (y) = 0.26468 -0.00854
# Poissons Ratio (z) = 0.37897 -0.00747
#
# Static dielectric constant tensor:
#      x y z
#    x 1.646770 0.000000 0.000000 
#    y 0.000000 1.647380 0.000000 
#    z 0.000000 0.000000 1.603980 
# 
# From -- ./inp_files/20229.got.cif
#   From: 2010.05.17/outbox.cif.g08.bks.cpg/sg53_11_cif.got.tgz:20229.got - 2010.06.03 12:45:16.
