data_PCOD9417505
_publ_section_title
;
Structure prediction by ZEFSAII (Michael W. Deem and Ramdas Pophale) SiO2 
 PCOD9417505
Probable space group: P M N A
;
_chemical_formula_sum "Si O2"
_cell_formula_units_Z 32
_cell_length_a 9.620852
_cell_length_b 20.050479
_cell_length_c 8.701980
_cell_angle_alpha 90.000000
_cell_angle_beta 90.000000
_cell_angle_gamma 90.000000
_cell_volume 1678.635359
_symmetry_space_group_name_H-M "P M N A"
_symmetry_group_IT_number 53
_symmetry_cell_setting 'orthorhombic'
loop_
_space_group_symop_operation_xyz
x,y,z
1/2-x,-y,1/2+z
x,-y,-z
1/2-x,y,1/2-z
-x,-y,-z
1/2+x,y,1/2-z
-x,y,z
1/2+x,-y,1/2+z
loop_
_atom_site_type_symbol
_atom_site_label
_atom_site_fract_x
_atom_site_fract_y
_atom_site_fract_z
Si Si1 0.170534 0.693361 0.083768
Si Si2 0.255062 0.840756 0.435629
Si Si3 0.000000 0.927041 0.930466
Si Si4 0.500000 0.923902 0.936308
Si Si5 0.665370 0.568993 0.091280
O O1 0.250000 0.694407 0.250000
O O2 0.214790 0.764519 0.014314
O O3 0.246229 0.628736 0.010802
O O4 0.000000 0.689049 0.093058
O O5 0.250000 0.841480 0.250000
O O6 0.374025 0.886439 0.501346
O O7 0.124347 0.878550 0.503003
O O8 0.000000 0.929122 0.747188
O O9 0.000000 0.000000 0.000000
O O10 0.500000 0.000000 0.000000
O O11 0.750000 0.557920 0.250000
O O12 0.500000 0.586390 0.114127
O O13 0.669036 0.500000 0.000000
#
# Coordination Sequence:
#
# PCOD9417505 Si02
#       5
#     8   8   4   4   8
#     4  10  20  35  62  92 121 160 207 256 306 367
#     4  11  23  40  65  94 121 161 210 258 311 376
#     4  12  24  44  64  88 129 158 207 258 311 380
#     4  12  26  42  64  92 123 168 203 258 321 368
#     4  10  21  37  61  92 126 165 210 255 304 363
#
# _framework density 19.063103000000002
#
# number of rings (size 3 to 8) (size 9 to 14) (size 15 to 20)
#    0.000    1.250    1.250    6.750    7.000    2.000 
#    0.000    2.500    0.000    0.000    0.000    0.000 
#    0.000    0.000    0.000    0.000    0.000    0.000 
#
# Total GULP energy -178232.732084 kJ/mol
# GULP energy per Si atom -5569.772878 kJ/mol
# Density = 1.901971 g / cm^3
# Si number density = 19.063103 Si / 1000 Ang^3
#
#
#
# Elastic Constant Matrix: (Units=GPa)
#
#
# Indices 1 2 3 4 5 6 
#
# 1 225.8507 102.3317 39.3572 0.0000 0.0000 0.0000
# 2 102.3317 216.0720 53.5363 0.0000 0.0000 0.0000
# 3 39.3572 53.5363 86.3577 0.0000 0.0000 0.0000
# 4 0.0000 0.0000 0.0000 33.2166 0.0000 0.0000
# 5 0.0000 0.0000 0.0000 0.0000 29.4762 0.0000
# 6 0.0000 0.0000 0.0000 0.0000 0.0000 39.4440
#
#
#
# Elastic Compliance Matrix: (Units=1/GPa)
#
#
# Indices 1 2 3 4 5 6 
#
# 1 0.005724 -0.002439 -0.001097 0.000000 0.000000 0.000000
# 2 -0.002439 0.006507 -0.002923 0.000000 0.000000 0.000000
# 3 -0.001097 -0.002923 0.013891 0.000000 0.000000 0.000000
# 4 0.000000 0.000000 0.000000 0.030105 0.000000 0.000000
# 5 0.000000 0.000000 0.000000 0.000000 0.033926 0.000000
# 6 0.000000 0.000000 0.000000 0.000000 0.000000 0.025352
#
#
# Mechanical properties :
#
#
# Convention : Reuss Voigt Hill
#
# Bulk Modulus (GPa) = 75.72237 102.08120 88.90179
# Shear Modulus (GPa) = 37.64361 42.63105 40.13733
#
# Velocity S-wave (km/s) = 4.44856 4.73410 4.59355
# Velocity P-wave (km/s) = 8.13600 9.14044 8.65280
#
# Compressibility (1/GPa) = 0.01320614
#
# Stress axis : x y z
#
# Youngs Moduli (GPa) = 174.70399 153.67126 71.98767
#
# Poissons Ratio (x) = 0.37483 0.07894
# Poissons Ratio (y) = 0.42613 0.21039
# Poissons Ratio (z) = 0.19157 0.44911
#
# Static dielectric constant tensor:
#      x y z
#    x 1.592400 0.000000 0.000000 
#    y 0.000000 1.831210 0.000000 
#    z 0.000000 0.000000 1.651980 
# 
# From -- ./inp_files/6069.got.cif
#   From: 2010.05.17/outbox.cif.g08.bks.cpg/sg53_4_cif.got.tgz:6069.got - 2010.06.03 12:45:16.
