data_PCOD9417433
_publ_section_title
;
Structure prediction by ZEFSAII (Michael W. Deem and Ramdas Pophale) SiO2 
 PCOD9417433
Probable space group: P M N A
;
_chemical_formula_sum "Si O2"
_cell_formula_units_Z 64
_cell_length_a 14.000746
_cell_length_b 7.869414
_cell_length_c 28.676949
_cell_angle_alpha 90.000000
_cell_angle_beta 90.000000
_cell_angle_gamma 90.000000
_cell_volume 3159.559326
_symmetry_space_group_name_H-M "P M N A"
_symmetry_group_IT_number 53
_symmetry_cell_setting 'orthorhombic'
loop_
_space_group_symop_operation_xyz
x,y,z
1/2-x,-y,1/2+z
x,-y,-z
1/2-x,y,1/2-z
-x,-y,-z
1/2+x,y,1/2-z
-x,y,z
1/2+x,-y,1/2+z
loop_
_atom_site_type_symbol
_atom_site_label
_atom_site_fract_x
_atom_site_fract_y
_atom_site_fract_z
Si Si1 0.607157 0.843122 0.139668
Si Si2 0.237549 0.615396 0.538371
Si Si3 0.700344 0.333107 0.607552
Si Si4 0.388355 0.955793 0.244511
Si Si5 0.389589 0.756164 0.882171
Si Si6 0.384225 0.368681 0.707182
Si Si7 0.107396 0.185807 0.977533
Si Si8 0.616480 0.334371 0.220105
O O1 0.500000 0.779295 0.127953
O O2 0.693762 0.738019 0.118335
O O3 0.614674 0.855796 0.195534
O O4 0.613232 0.041371 0.125818
O O5 0.183978 0.500000 0.500000
O O6 0.292390 0.492351 0.573544
O O7 0.168092 0.718587 0.571438
O O8 0.314623 0.719000 0.508956
O O9 0.651456 0.393743 0.654998
O O10 0.642314 0.195518 0.576373
O O11 0.500000 0.976698 0.256605
O O12 0.346174 0.820689 0.280252
O O13 0.353271 0.148406 0.239293
O O14 0.500000 0.705916 0.887650
O O15 0.352822 0.664059 0.834449
O O16 0.500000 0.366014 0.708095
O O17 0.356342 0.512634 0.745192
O O18 0.000000 0.259056 0.979957
O O19 0.103770 0.000000 0.000000
O O20 0.500000 0.333756 0.218167
#
# Coordination Sequence:
#
# PCOD9417433 Si02
#       8
#     8   8   8   8   8   8   8   8
#     4   9  19  37  60  84 117 163 203 243 299 360
#     4  10  23  39  58  89 121 151 194 255 307 368
#     4  11  23  37  59  91 122 153 202 252 309 375
#     4   8  16  33  55  80 117 163 202 239 295 358
#     4   9  18  37  63  86 117 161 204 247 304 371
#     4  10  20  35  57  87 125 160 199 253 304 363
#     4  10  22  44  69  87 114 160 204 251 314 372
#     4   8  16  33  56  84 119 162 202 241 302 369
#
# _framework density 20.255989
#
# number of rings (size 3 to 8) (size 9 to 14) (size 15 to 20)
#    0.000    2.625    0.000    2.625    1.750    4.000 
#    4.500    1.875    0.000    6.750    0.000    0.000 
#    0.000    0.000    0.000    0.000    0.000    0.000 
#
# Total GULP energy -356939.527193 kJ/mol
# GULP energy per Si atom -5577.180112 kJ/mol
# Density = 2.020989 g / cm^3
# Si number density = 20.255989 Si / 1000 Ang^3
#
#
#
# Elastic Constant Matrix: (Units=GPa)
#
#
# Indices 1 2 3 4 5 6 
#
# 1 92.8394 25.4517 40.8328 0.0000 0.0000 0.0000
# 2 25.4517 56.3612 38.9759 0.0000 0.0000 0.0000
# 3 40.8328 38.9759 86.0454 0.0000 0.0000 0.0000
# 4 0.0000 0.0000 0.0000 38.1756 0.0000 0.0000
# 5 0.0000 0.0000 0.0000 0.0000 20.1650 0.0000
# 6 0.0000 0.0000 0.0000 0.0000 0.0000 -11.0792
#
#
#
# Elastic Compliance Matrix: (Units=1/GPa)
#
#
# Indices 1 2 3 4 5 6 
#
# 1 0.013848 -0.002489 -0.005444 0.000000 0.000000 0.000000
# 2 -0.002489 0.026283 -0.010724 0.000000 0.000000 0.000000
# 3 -0.005444 -0.010724 0.019063 0.000000 0.000000 0.000000
# 4 0.000000 0.000000 0.000000 0.026195 0.000000 0.000000
# 5 0.000000 0.000000 0.000000 0.000000 0.049591 0.000000
# 6 0.000000 0.000000 0.000000 0.000000 0.000000 -0.090259
#
#
# Mechanical properties :
#
#
# Convention : Reuss Voigt Hill
#
# Bulk Modulus (GPa) = 45.70485 49.52966 47.61726
# Shear Modulus (GPa) = 55.97324 18.11798 37.04561
#
# Velocity S-wave (km/s) = 5.26241 2.99398 4.28117
# Velocity P-wave (km/s) = 7.71599 6.03795 6.92796
#
# Compressibility (1/GPa) = 0.02187951
#
# Stress axis : x y z
#
# Youngs Moduli (GPa) = 72.21222 38.04777 52.45715
#
# Poissons Ratio (x) = 0.09468 0.28560
# Poissons Ratio (y) = 0.17970 0.56257
# Poissons Ratio (z) = 0.39315 0.40804
#
# Static dielectric constant tensor:
#      x y z
#    x 1.752210 0.000000 0.000000 
#    y 0.000000 1.753790 0.000000 
#    z 0.000000 0.000000 1.718070 
# 
# From -- ./inp_files/35327.got.cif
#   From: 2010.05.17/outbox.cif.g08.bks.cpg/sg53_18_cif.got.tgz:35327.got - 2010.06.03 12:45:16.
