data_PCOD9417363
_publ_section_title
;
Structure prediction by ZEFSAII (Michael W. Deem and Ramdas Pophale) SiO2 
 PCOD9417363
Probable space group: P M N A
;
_chemical_formula_sum "Si O2"
_cell_formula_units_Z 48
_cell_length_a 8.782207
_cell_length_b 18.249489
_cell_length_c 15.087523
_cell_angle_alpha 90.000000
_cell_angle_beta 90.000000
_cell_angle_gamma 90.000000
_cell_volume 2418.089231
_symmetry_space_group_name_H-M "P M N A"
_symmetry_group_IT_number 53
_symmetry_cell_setting 'orthorhombic'
loop_
_space_group_symop_operation_xyz
x,y,z
1/2-x,-y,1/2+z
x,-y,-z
1/2-x,y,1/2-z
-x,-y,-z
1/2+x,y,1/2-z
-x,y,z
1/2+x,-y,1/2+z
loop_
_atom_site_type_symbol
_atom_site_label
_atom_site_fract_x
_atom_site_fract_y
_atom_site_fract_z
Si Si1 0.682239 0.548762 0.654407
Si Si2 0.683605 0.876288 0.158598
Si Si3 0.681387 0.387524 0.842889
Si Si4 0.680492 0.173601 0.470926
Si Si5 0.818662 0.326655 0.468005
Si Si6 0.827217 0.033064 0.400469
O O1 0.750000 0.570567 0.750000
O O2 0.500000 0.547406 0.656982
O O3 0.745065 0.466934 0.637737
O O4 0.742194 0.605710 0.582336
O O5 0.750000 0.845158 0.250000
O O6 0.500000 0.871192 0.156757
O O7 0.748975 0.841575 0.068634
O O8 0.727321 0.962785 0.153975
O O9 0.750000 0.360874 0.750000
O O10 0.500000 0.396864 0.833061
O O11 0.710591 0.336392 0.926920
O O12 0.500000 0.178162 0.478068
O O13 0.750029 0.249716 0.437678
O O14 0.727404 0.105524 0.408433
O O15 0.000000 0.328707 0.454328
O O16 0.000000 0.052272 0.374045
O O17 0.834233 0.000000 0.500000
#
# Coordination Sequence:
#
# PCOD9417363 Si02
#       6
#     8   8   8   8   8   8
#     4  11  22  38  61  86 113 146 188 238 288 341
#     4  10  20  35  56  81 109 142 180 224 273 326
#     4  10  21  37  59  85 114 150 190 235 284 336
#     4  11  22  35  54  80 110 144 183 225 275 334
#     4  11  23  39  58  82 116 155 194 236 286 341
#     4   8  16  33  54  74 100 135 173 213 260 312
#
# _framework density 19.850383000000001
#
# number of rings (size 3 to 8) (size 9 to 14) (size 15 to 20)
#    0.000    1.833    0.000    7.000    0.000    9.000 
#    0.000    2.500    0.000    2.000    0.000    0.000 
#    0.000    0.000    0.000    0.000    0.000    0.000 
#
# Total GULP energy -268136.843151 kJ/mol
# GULP energy per Si atom -5586.184232 kJ/mol
# Density = 1.980520 g / cm^3
# Si number density = 19.850383 Si / 1000 Ang^3
#
#
#
# Elastic Constant Matrix: (Units=GPa)
#
#
# Indices 1 2 3 4 5 6 
#
# 1 92.5408 36.7261 14.1355 0.0000 0.0000 0.0000
# 2 36.7261 53.7467 7.8858 0.0000 0.0000 0.0000
# 3 14.1355 7.8858 26.7431 0.0000 0.0000 0.0000
# 4 0.0000 0.0000 0.0000 6.0575 0.0000 0.0000
# 5 0.0000 0.0000 0.0000 0.0000 735.7552 0.0000
# 6 0.0000 0.0000 0.0000 0.0000 0.0000 114.6875
#
#
#
# Elastic Compliance Matrix: (Units=1/GPa)
#
#
# Indices 1 2 3 4 5 6 
#
# 1 0.015515 -0.009823 -0.005304 0.000000 0.000000 0.000000
# 2 -0.009823 0.025667 -0.002376 0.000000 0.000000 0.000000
# 3 -0.005304 -0.002376 0.040897 0.000000 0.000000 0.000000
# 4 0.000000 0.000000 0.000000 0.165084 0.000000 0.000000
# 5 0.000000 0.000000 0.000000 0.000000 0.001359 0.000000
# 6 0.000000 0.000000 0.000000 0.000000 0.000000 0.008719
#
#
# Mechanical properties :
#
#
# Convention : Reuss Voigt Hill
#
# Bulk Modulus (GPa) = 21.24418 32.28058 26.76238
# Shear Modulus (GPa) = 16.23703 178.91893 97.57798
#
# Velocity S-wave (km/s) = 2.86312 9.50418 7.01879
# Velocity P-wave (km/s) = 4.65353 11.69344 8.89921
#
# Compressibility (1/GPa) = 0.04707173
#
# Stress axis : x y z
#
# Youngs Moduli (GPa) = 64.45499 38.96075 24.45170
#
# Poissons Ratio (x) = 0.38272 0.12969
# Poissons Ratio (y) = 0.63316 0.05810
# Poissons Ratio (z) = 0.34186 0.09258
#
# Static dielectric constant tensor:
#      x y z
#    x 1.660110 0.000000 0.000000 
#    y 0.000000 1.697110 0.000000 
#    z 0.000000 0.000000 1.716590 
# 
# From -- ./inp_files/26296.got.cif
#   From: 2010.05.17/outbox.cif.g08.bks.cpg/sg53_14_cif.got.tgz:26296.got - 2010.06.03 12:45:16.
