data_PCOD9417542
_publ_section_title
;
Structure prediction by ZEFSAII (Michael W. Deem and Ramdas Pophale) SiO2 
 PCOD9417542
Probable space group: P M N A
;
_chemical_formula_sum "Si O2"
_cell_formula_units_Z 64
_cell_length_a 8.768631
_cell_length_b 24.012202
_cell_length_c 17.378257
_cell_angle_alpha 90.000000
_cell_angle_beta 90.000000
_cell_angle_gamma 90.000000
_cell_volume 3659.063937
_symmetry_space_group_name_H-M "P M N A"
_symmetry_group_IT_number 53
_symmetry_cell_setting 'orthorhombic'
loop_
_space_group_symop_operation_xyz
x,y,z
1/2-x,-y,1/2+z
x,-y,-z
1/2-x,y,1/2-z
-x,-y,-z
1/2+x,y,1/2-z
-x,y,z
1/2+x,-y,1/2+z
loop_
_atom_site_type_symbol
_atom_site_label
_atom_site_fract_x
_atom_site_fract_y
_atom_site_fract_z
Si Si1 0.315489 0.262539 0.018070
Si Si2 0.675533 0.034225 0.919413
Si Si3 0.181271 0.318664 0.169091
Si Si4 0.820832 0.628307 0.432996
Si Si5 0.319879 0.536597 0.334356
Si Si6 0.679219 0.572549 0.899727
Si Si7 0.686250 0.135610 0.011596
Si Si8 0.685226 0.071738 0.167006
O O1 0.500000 0.264993 0.025520
O O2 0.245123 0.282428 0.098573
O O3 0.273982 0.308785 0.954357
O O4 0.269617 0.199463 0.000564
O O5 0.500000 0.044304 0.895860
O O6 0.743998 0.093191 0.945576
O O7 0.740423 0.990484 0.858038
O O8 0.670937 0.000000 0.000000
O O9 0.250000 0.299759 0.250000
O O10 0.236793 0.381728 0.152552
O O11 0.000000 0.316639 0.170962
O O12 0.725367 0.596051 0.369707
O O13 0.805142 0.594175 0.513015
O O14 0.000000 0.627633 0.411933
O O15 0.250000 0.530418 0.250000
O O16 0.500000 0.529858 0.331707
O O17 0.247837 0.487992 0.386592
O O18 0.500000 0.572282 0.880702
O O19 0.500000 0.132806 0.009507
O O20 0.729435 0.112405 0.096261
O O21 0.750000 0.087317 0.250000
O O22 0.500000 0.071176 0.169563
#
# Coordination Sequence:
#
# PCOD9417542 Si02
#       8
#     8   8   8   8   8   8   8   8
#     4   9  18  33  52  72  94 124 163 204 245 288
#     4   7  11  22  42  66  89 118 157 194 223 261
#     4  11  21  33  48  68  98 132 165 199 238 286
#     4   9  19  35  53  73  99 129 160 198 243 291
#     4  12  24  36  53  76 101 127 159 200 247 297
#     4  10  20  36  56  77 102 129 159 196 241 294
#     4   8  14  27  48  70  90 120 164 202 230 273
#     4   9  16  26  43  69 100 128 156 192 235 281
#
# _framework density 17.490812999999999
#
# number of rings (size 3 to 8) (size 9 to 14) (size 15 to 20)
#    0.000    2.625    0.000    5.625    0.000    4.500 
#    0.000    1.875    0.000    4.875    0.000    1.750 
#    0.000    0.000    0.000    0.000    0.000    0.000 
#
# Total GULP energy -356748.176924 kJ/mol
# GULP energy per Si atom -5574.190264 kJ/mol
# Density = 1.745100 g / cm^3
# Si number density = 17.490813 Si / 1000 Ang^3
#
#
#
# Elastic Constant Matrix: (Units=GPa)
#
#
# Indices 1 2 3 4 5 6 
#
# 1 40.6708 22.6598 8.6627 0.0000 0.0000 0.0000
# 2 22.6598 130.2634 17.5449 0.0000 0.0000 0.0000
# 3 8.6627 17.5449 11.8342 0.0000 0.0000 0.0000
# 4 0.0000 0.0000 0.0000 11.4329 0.0000 0.0000
# 5 0.0000 0.0000 0.0000 0.0000 19.6785 0.0000
# 6 0.0000 0.0000 0.0000 0.0000 0.0000 13.5610
#
#
#
# Elastic Compliance Matrix: (Units=1/GPa)
#
#
# Indices 1 2 3 4 5 6 
#
# 1 0.029935 -0.002819 -0.017734 0.000000 0.000000 0.000000
# 2 -0.002819 0.009858 -0.012551 0.000000 0.000000 0.000000
# 3 -0.017734 -0.012551 0.116090 0.000000 0.000000 0.000000
# 4 0.000000 0.000000 0.000000 0.087467 0.000000 0.000000
# 5 0.000000 0.000000 0.000000 0.000000 0.050817 0.000000
# 6 0.000000 0.000000 0.000000 0.000000 0.000000 0.073741
#
#
# Mechanical properties :
#
#
# Convention : Reuss Voigt Hill
#
# Bulk Modulus (GPa) = 11.15133 31.16701 21.15917
# Shear Modulus (GPa) = 10.77573 17.86123 14.31848
#
# Velocity S-wave (km/s) = 2.48479 3.19905 2.86427
# Velocity P-wave (km/s) = 3.82382 5.61276 4.80232
#
# Compressibility (1/GPa) = 0.08967538
#
# Stress axis : x y z
#
# Youngs Moduli (GPa) = 33.40530 101.44492 8.61404
#
# Poissons Ratio (x) = 0.28596 0.15276
# Poissons Ratio (y) = 0.09416 0.10811
# Poissons Ratio (z) = 0.59240 1.27323
#
# Static dielectric constant tensor:
#      x y z
#    x 1.586010 0.000000 0.000000 
#    y 0.000000 1.628750 0.000000 
#    z 0.000000 0.000000 1.579200 
# 
# From -- ./inp_files/27047.got.cif
#   From: 2010.05.17/outbox.cif.g08.bks.cpg/sg53_14_cif.got.tgz:27047.got - 2010.06.03 12:45:16.
