data_PCOD9417911
_publ_section_title
;
Structure prediction by ZEFSAII (Michael W. Deem and Ramdas Pophale) SiO2 
 PCOD9417911
Probable space group: P M N A
;
_chemical_formula_sum "Si O2"
_cell_formula_units_Z 64
_cell_length_a 8.952029
_cell_length_b 12.137408
_cell_length_c 31.500805
_cell_angle_alpha 90.000000
_cell_angle_beta 90.000000
_cell_angle_gamma 90.000000
_cell_volume 3422.701961
_symmetry_space_group_name_H-M "P M N A"
_symmetry_group_IT_number 53
_symmetry_cell_setting 'orthorhombic'
loop_
_space_group_symop_operation_xyz
x,y,z
1/2-x,-y,1/2+z
x,-y,-z
1/2-x,y,1/2-z
-x,-y,-z
1/2+x,y,1/2-z
-x,y,z
1/2+x,-y,1/2+z
loop_
_atom_site_type_symbol
_atom_site_label
_atom_site_fract_x
_atom_site_fract_y
_atom_site_fract_z
Si Si1 0.820742 0.882115 0.876778
Si Si2 0.178878 0.280380 0.546448
Si Si3 0.323445 0.506433 0.575183
Si Si4 0.320104 0.739792 0.705548
Si Si5 0.677991 0.263857 0.049874
Si Si6 0.678191 0.729989 0.206044
Si Si7 0.320165 0.122611 0.875374
Si Si8 0.822779 0.495417 0.823177
O O1 0.775966 0.815973 0.834103
O O2 0.756537 0.817159 0.917132
O O3 0.000000 0.882081 0.878787
O O4 0.758240 0.005136 0.875570
O O5 0.262027 0.395238 0.554377
O O6 0.210511 0.236899 0.499275
O O7 0.220014 0.194422 0.583220
O O8 0.000000 0.300166 0.549501
O O9 0.500000 0.519182 0.567137
O O10 0.236930 0.613013 0.558523
O O11 0.301561 0.498320 0.626023
O O12 0.250000 0.775154 0.750000
O O13 0.500000 0.742184 0.708438
O O14 0.275744 0.613475 0.695447
O O15 0.500000 0.259725 0.056112
O O16 0.750000 0.768427 0.250000
O O17 0.500000 0.729256 0.209642
O O18 0.720224 0.807349 0.166434
O O19 0.735357 0.606938 0.196226
O O20 0.500000 0.107914 0.875608
O O21 0.000000 0.481004 0.815028
#
# Coordination Sequence:
#
# PCOD9417911 Si02
#       8
#     8   8   8   8   8   8   8   8
#     4  11  24  43  63  86 120 156 200 254 303 354
#     4  10  22  41  62  89 123 158 202 247 292 357
#     4  11  21  36  61  92 127 159 193 244 301 356
#     4  10  22  40  60  87 120 154 192 241 294 352
#     4  11  23  39  63  90 121 161 200 244 297 356
#     4  11  23  39  62  90 122 158 199 246 296 356
#     4  10  23  43  63  85 116 157 205 249 297 355
#     4  10  20  37  60  88 123 157 193 239 297 356
#
# _framework density 18.698675999999999
#
# number of rings (size 3 to 8) (size 9 to 14) (size 15 to 20)
#    0.000    1.500    2.500    2.250    0.000    8.000 
#    0.000    5.000    0.000    0.000    0.000    0.000 
#    0.000    0.000    0.000    0.000    0.000    0.000 
#
# Total GULP energy -357802.205002 kJ/mol
# GULP energy per Si atom -5590.659453 kJ/mol
# Density = 1.865612 g / cm^3
# Si number density = 18.698676 Si / 1000 Ang^3
#
#
#
# Elastic Constant Matrix: (Units=GPa)
#
#
# Indices 1 2 3 4 5 6 
#
# 1 42.9594 51.9479 64.1739 0.0000 0.0000 0.0000
# 2 51.9479 146.2688 88.4250 0.0000 0.0000 0.0000
# 3 64.1739 88.4250 171.4995 0.0000 0.0000 0.0000
# 4 0.0000 0.0000 0.0000 -0.8251 0.0000 0.0000
# 5 0.0000 0.0000 0.0000 0.0000 32.6352 0.0000
# 6 0.0000 0.0000 0.0000 0.0000 0.0000 33.2747
#
#
#
# Elastic Compliance Matrix: (Units=1/GPa)
#
#
# Indices 1 2 3 4 5 6 
#
# 1 0.064881 -0.012154 -0.018011 0.000000 0.000000 0.000000
# 2 -0.012154 0.012210 -0.001747 0.000000 0.000000 0.000000
# 3 -0.018011 -0.001747 0.013471 0.000000 0.000000 0.000000
# 4 0.000000 0.000000 0.000000 -1.211928 0.000000 0.000000
# 5 0.000000 0.000000 0.000000 0.000000 0.030642 0.000000
# 6 0.000000 0.000000 0.000000 0.000000 0.000000 0.030053
#
#
# Mechanical properties :
#
#
# Convention : Reuss Voigt Hill
#
# Bulk Modulus (GPa) = 37.40210 85.53572 61.46891
# Shear Modulus (GPa) = -5.06107 23.42901 9.18397
#
# Velocity S-wave (km/s) = -1.64697 3.54358 2.21861
# Velocity P-wave (km/s) = 4.05330 7.91114 6.28552
#
# Compressibility (1/GPa) = 0.02673647
#
# Stress axis : x y z
#
# Youngs Moduli (GPa) = 15.41292 81.90271 74.23091
#
# Poissons Ratio (x) = 0.99546 1.33699
# Poissons Ratio (y) = 0.18733 0.12970
# Poissons Ratio (z) = 0.27761 0.14311
#
# Static dielectric constant tensor:
#      x y z
#    x 1.623510 0.000000 0.000000 
#    y 0.000000 1.604000 0.000000 
#    z 0.000000 0.000000 1.647900 
# 
# From -- ./inp_files/38157.got.cif
#   From: 2010.05.17/outbox.cif.g08.bks.cpg/sg53_20_cif.got.tgz:38157.got - 2010.06.03 12:45:16.
