data_PCOD9417904
_publ_section_title
;
Structure prediction by ZEFSAII (Michael W. Deem and Ramdas Pophale) SiO2 
 PCOD9417904
Probable space group: P M N A
;
_chemical_formula_sum "Si O2"
_cell_formula_units_Z 48
_cell_length_a 9.728708
_cell_length_b 29.565774
_cell_length_c 9.112162
_cell_angle_alpha 90.000000
_cell_angle_beta 90.000000
_cell_angle_gamma 90.000000
_cell_volume 2620.992955
_symmetry_space_group_name_H-M "P M N A"
_symmetry_group_IT_number 53
_symmetry_cell_setting 'orthorhombic'
loop_
_space_group_symop_operation_xyz
x,y,z
1/2-x,-y,1/2+z
x,-y,-z
1/2-x,y,1/2-z
-x,-y,-z
1/2+x,y,1/2-z
-x,y,z
1/2+x,-y,1/2+z
loop_
_atom_site_type_symbol
_atom_site_label
_atom_site_fract_x
_atom_site_fract_y
_atom_site_fract_z
Si Si1 0.837104 0.213174 0.602658
Si Si2 0.839364 0.040875 0.105061
Si Si3 0.160434 0.702007 0.611468
Si Si4 0.000000 0.449755 0.929977
Si Si5 0.753172 0.399476 0.425323
Si Si6 0.834440 0.856053 0.903409
Si Si7 0.000000 0.451258 0.576230
O O1 0.750000 0.219414 0.750000
O O2 0.836062 0.259832 0.511648
O O3 0.750227 0.176373 0.510798
O O4 0.000000 0.201019 0.624435
O O5 0.750000 0.038868 0.250000
O O6 0.825721 0.091770 0.043117
O O7 0.000000 0.034832 0.141460
O O8 0.798288 0.000000 0.000000
O O9 0.250000 0.718055 0.750000
O O10 0.226354 0.654407 0.562986
O O11 0.000000 0.693919 0.652413
O O12 0.000000 0.453698 0.753043
O O13 0.000000 0.500000 0.000000
O O14 0.875336 0.420806 0.993609
O O15 0.750000 0.409568 0.250000
O O16 0.874151 0.423821 0.510574
O O17 0.750000 0.853625 0.750000
O O18 0.000000 0.845343 0.888037
O O19 0.000000 0.500000 0.500000
#
# Coordination Sequence:
#
# PCOD9417904 Si02
#       7
#     8   8   8   4   8   8   4
#     4  11  24  41  60  89 124 160 200 251 307 362
#     4   9  19  35  55  82 116 154 199 249 303 362
#     4  10  23  42  66  92 120 157 199 242 296 358
#     4  12  26  42  64  96 124 166 206 246 309 358
#     4  11  23  43  65  93 124 159 204 251 301 362
#     4  10  20  37  60  86 117 158 206 254 304 366
#     4  12  24  42  66  90 128 162 200 254 299 364
#
# _framework density 18.313670999999999
#
# number of rings (size 3 to 8) (size 9 to 14) (size 15 to 20)
#    0.000    1.500    0.833    4.000    3.500    5.667 
#    0.000    1.667    0.000    0.000    0.000    0.000 
#    0.000    0.000    0.000    0.000    0.000    0.000 
#
# Total GULP energy -267769.263936 kJ/mol
# GULP energy per Si atom -5578.526332 kJ/mol
# Density = 1.827199 g / cm^3
# Si number density = 18.313671 Si / 1000 Ang^3
#
#
#
# Elastic Constant Matrix: (Units=GPa)
#
#
# Indices 1 2 3 4 5 6 
#
# 1 166.9060 69.9468 71.2157 0.0000 0.0000 0.0000
# 2 69.9468 98.1232 78.3110 0.0000 0.0000 0.0000
# 3 71.2157 78.3110 132.0826 0.0000 0.0000 0.0000
# 4 0.0000 0.0000 0.0000 34.1805 0.0000 0.0000
# 5 0.0000 0.0000 0.0000 0.0000 34.4126 0.0000
# 6 0.0000 0.0000 0.0000 0.0000 0.0000 33.9246
#
#
#
# Elastic Compliance Matrix: (Units=1/GPa)
#
#
# Indices 1 2 3 4 5 6 
#
# 1 0.008800 -0.004719 -0.001947 0.000000 0.000000 0.000000
# 2 -0.004719 0.021876 -0.010426 0.000000 0.000000 0.000000
# 3 -0.001947 -0.010426 0.014802 0.000000 0.000000 0.000000
# 4 0.000000 0.000000 0.000000 0.029256 0.000000 0.000000
# 5 0.000000 0.000000 0.000000 0.000000 0.029059 0.000000
# 6 0.000000 0.000000 0.000000 0.000000 0.000000 0.029477
#
#
# Mechanical properties :
#
#
# Convention : Reuss Voigt Hill
#
# Bulk Modulus (GPa) = 88.53791 92.89541 90.71666
# Shear Modulus (GPa) = 29.20254 32.34608 30.77431
#
# Velocity S-wave (km/s) = 3.99755 4.20721 4.10372
# Velocity P-wave (km/s) = 8.35209 8.62760 8.49096
#
# Compressibility (1/GPa) = 0.01129460
#
# Stress axis : x y z
#
# Youngs Moduli (GPa) = 113.63992 45.71226 67.55937
#
# Poissons Ratio (x) = 0.21573 0.13151
# Poissons Ratio (y) = 0.53631 0.70434
# Poissons Ratio (z) = 0.22120 0.47658
#
# Static dielectric constant tensor:
#      x y z
#    x 1.585510 0.000000 0.000000 
#    y 0.000000 1.643690 0.000000 
#    z 0.000000 0.000000 1.597740 
# 
# From -- ./inp_files/6837.got.cif
#   From: 2010.05.17/outbox.cif.g08.bks.cpg/sg53_4_cif.got.tgz:6837.got - 2010.06.03 12:45:16.
