data_PCOD9417203
_publ_section_title
;
Structure prediction by ZEFSAII (Michael W. Deem and Ramdas Pophale) SiO2 
 PCOD9417203
Probable space group: P M N A
;
_chemical_formula_sum "Si O2"
_cell_formula_units_Z 48
_cell_length_a 15.064372
_cell_length_b 11.541823
_cell_length_c 11.560685
_cell_angle_alpha 90.000000
_cell_angle_beta 90.000000
_cell_angle_gamma 90.000000
_cell_volume 2010.059945
_symmetry_space_group_name_H-M "P M N A"
_symmetry_group_IT_number 53
_symmetry_cell_setting 'orthorhombic'
loop_
_space_group_symop_operation_xyz
x,y,z
1/2-x,-y,1/2+z
x,-y,-z
1/2-x,y,1/2-z
-x,-y,-z
1/2+x,y,1/2-z
-x,y,z
1/2+x,-y,1/2+z
loop_
_atom_site_type_symbol
_atom_site_label
_atom_site_fract_x
_atom_site_fract_y
_atom_site_fract_z
Si Si1 0.894151 0.204451 0.980732
Si Si2 0.099716 0.224960 0.640379
Si Si3 0.899023 0.618923 0.545143
Si Si4 0.650325 0.333528 0.297674
Si Si5 0.753368 0.957483 0.372602
Si Si6 0.656727 0.406104 0.682575
O O1 0.838484 0.101887 0.919438
O O2 0.853069 0.319737 0.923250
O O3 0.000000 0.193795 0.959396
O O4 0.878415 0.231005 0.116860
O O5 0.138875 0.271304 0.519458
O O6 0.173794 0.134267 0.674382
O O7 0.097566 0.338275 0.722329
O O8 0.000000 0.176247 0.633960
O O9 0.855227 0.500000 0.500000
O O10 0.901233 0.644502 0.678736
O O11 0.000000 0.615298 0.501244
O O12 0.750000 0.318966 0.250000
O O13 0.638672 0.462149 0.352570
O O14 0.750000 0.031307 0.250000
O O15 0.789186 0.000000 0.500000
O O16 0.750000 0.408273 0.750000
#
# Coordination Sequence:
#
# PCOD9417203 Si02
#       6
#     8   8   8   8   8   8
#     4  12  25  44  70 101 143 188 237 294 361 432
#     4  11  21  40  72  99 130 177 229 284 349 427
#     4  10  20  34  56  89 134 180 222 267 324 400
#     4  11  24  35  61  99 148 193 233 276 334 412
#     4  12  28  51  75 101 134 178 243 313 384 441
#     4  11  21  38  65  99 141 188 230 269 334 420
#
# _framework density 23.879885000000002
#
# number of rings (size 3 to 8) (size 9 to 14) (size 15 to 20)
#    0.000    0.833    5.000    2.500    0.000    5.333 
#    0.000    0.000    0.000    0.000    0.000    0.000 
#    0.000    0.000    0.000    0.000    0.000    0.000 
#
# Total GULP energy -267406.827900 kJ/mol
# GULP energy per Si atom -5570.975581 kJ/mol
# Density = 2.382553 g / cm^3
# Si number density = 23.879885 Si / 1000 Ang^3
#
#
#
# Elastic Constant Matrix: (Units=GPa)
#
#
# Indices 1 2 3 4 5 6 
#
# 1 120.6600 22.2048 11.1930 0.0000 0.0000 0.0000
# 2 22.2048 45.3256 30.7587 0.0000 0.0000 0.0000
# 3 11.1930 30.7587 159.9101 0.0000 0.0000 0.0000
# 4 0.0000 0.0000 0.0000 37.1626 0.0000 0.0000
# 5 0.0000 0.0000 0.0000 0.0000 24.8219 0.0000
# 6 0.0000 0.0000 0.0000 0.0000 0.0000 -10.0724
#
#
#
# Elastic Compliance Matrix: (Units=1/GPa)
#
#
# Indices 1 2 3 4 5 6 
#
# 1 0.009118 -0.004639 0.000254 0.000000 0.000000 0.000000
# 2 -0.004639 0.027735 -0.005010 0.000000 0.000000 0.000000
# 3 0.000254 -0.005010 0.007199 0.000000 0.000000 0.000000
# 4 0.000000 0.000000 0.000000 0.026909 0.000000 0.000000
# 5 0.000000 0.000000 0.000000 0.000000 0.040287 0.000000
# 6 0.000000 0.000000 0.000000 0.000000 0.000000 -0.099281
#
#
# Mechanical properties :
#
#
# Convention : Reuss Voigt Hill
#
# Bulk Modulus (GPa) = 39.58503 50.46764 45.02633
# Shear Modulus (GPa) = 127.62068 27.83171 77.72619
#
# Velocity S-wave (km/s) = 7.31839 3.41763 5.71135
# Velocity P-wave (km/s) = 9.38213 6.06246 7.89866
#
# Compressibility (1/GPa) = 0.02526207
#
# Stress axis : x y z
#
# Youngs Moduli (GPa) = 109.67392 36.05509 138.89991
#
# Poissons Ratio (x) = 0.16727 -0.03530
# Poissons Ratio (y) = 0.50881 0.69591
# Poissons Ratio (z) = -0.02787 0.18064
#
# Static dielectric constant tensor:
#      x y z
#    x 1.711110 0.000000 0.000000 
#    y 0.000000 2.018550 0.000000 
#    z 0.000000 0.000000 2.122640 
# 
# From -- ./inp_files/15943.got.cif
#   From: 2010.05.17/outbox.cif.g08.bks.cpg/sg53_8_cif.got.tgz:15943.got - 2010.06.03 12:45:16.
