data_PCOD9417750
_publ_section_title
;
Structure prediction by ZEFSAII (Michael W. Deem and Ramdas Pophale) SiO2 
 PCOD9417750
Probable space group: P M N A
;
_chemical_formula_sum "Si O2"
_cell_formula_units_Z 48
_cell_length_a 8.517784
_cell_length_b 9.325958
_cell_length_c 31.781065
_cell_angle_alpha 90.000000
_cell_angle_beta 90.000000
_cell_angle_gamma 90.000000
_cell_volume 2524.576438
_symmetry_space_group_name_H-M "P M N A"
_symmetry_group_IT_number 53
_symmetry_cell_setting 'orthorhombic'
loop_
_space_group_symop_operation_xyz
x,y,z
1/2-x,-y,1/2+z
x,-y,-z
1/2-x,y,1/2-z
-x,-y,-z
1/2+x,y,1/2-z
-x,y,z
1/2+x,-y,1/2+z
loop_
_atom_site_type_symbol
_atom_site_label
_atom_site_fract_x
_atom_site_fract_y
_atom_site_fract_z
Si Si1 0.689171 0.412917 0.704355
Si Si2 0.811609 0.588902 0.877193
Si Si3 0.190089 0.583117 0.457605
Si Si4 0.308476 0.914423 0.041521
Si Si5 0.188159 0.919118 0.204171
Si Si6 0.688245 0.088644 0.124063
O O1 0.750000 0.459677 0.750000
O O2 0.500000 0.414622 0.705256
O O3 0.742519 0.511621 0.665885
O O4 0.738872 0.247095 0.697700
O O5 0.755197 0.496806 0.916869
O O6 0.747306 0.749396 0.879817
O O7 0.000000 0.593006 0.876770
O O8 0.237374 0.500000 0.500000
O O9 0.241272 0.748861 0.459008
O O10 0.000000 0.580438 0.455616
O O11 0.500000 0.914711 0.041152
O O12 0.257878 0.995465 0.083830
O O13 0.256788 0.000000 0.000000
O O14 0.250000 0.964195 0.250000
O O15 0.251653 0.016215 0.166739
O O16 0.000000 0.923572 0.204252
O O17 0.500000 0.088670 0.124151
#
# Coordination Sequence:
#
# PCOD9417750 Si02
#       6
#     8   8   8   8   8   8
#     4   9  20  37  58  82 109 143 183 228 276 329
#     4  11  23  38  55  80 115 150 186 231 281 332
#     4  10  20  36  60  86 111 143 185 231 279 334
#     4   9  18  34  57  84 112 142 181 229 277 330
#     4  10  20  37  59  83 111 143 182 227 277 331
#     4  11  22  36  56  82 112 148 188 229 276 328
#
# _framework density 19.013089999999998
#
# number of rings (size 3 to 8) (size 9 to 14) (size 15 to 20)
#    0.000    2.000    0.000    3.500    0.000    5.667 
#    0.000    2.500    0.000    3.500    0.000    0.000 
#    0.000    0.000    0.000    0.000    0.000    0.000 
#
# Total GULP energy -268195.774661 kJ/mol
# GULP energy per Si atom -5587.411972 kJ/mol
# Density = 1.896982 g / cm^3
# Si number density = 19.013090 Si / 1000 Ang^3
#
#
#
# Elastic Constant Matrix: (Units=GPa)
#
#
# Indices 1 2 3 4 5 6 
#
# 1 28.2808 34.6954 38.3887 0.0000 0.0000 0.0000
# 2 34.6954 182.1935 136.6600 0.0000 0.0000 0.0000
# 3 38.3887 136.6600 208.8696 0.0000 0.0000 0.0000
# 4 0.0000 0.0000 0.0000 43.2774 0.0000 0.0000
# 5 0.0000 0.0000 0.0000 0.0000 30.4118 0.0000
# 6 0.0000 0.0000 0.0000 0.0000 0.0000 30.3316
#
#
#
# Elastic Compliance Matrix: (Units=1/GPa)
#
#
# Indices 1 2 3 4 5 6 
#
# 1 0.049416 -0.005102 -0.005744 0.000000 0.000000 0.000000
# 2 -0.005102 0.011305 -0.006459 0.000000 0.000000 0.000000
# 3 -0.005744 -0.006459 0.010069 0.000000 0.000000 0.000000
# 4 0.000000 0.000000 0.000000 0.023107 0.000000 0.000000
# 5 0.000000 0.000000 0.000000 0.000000 0.032882 0.000000
# 6 0.000000 0.000000 0.000000 0.000000 0.000000 0.032969
#
#
# Mechanical properties :
#
#
# Convention : Reuss Voigt Hill
#
# Bulk Modulus (GPa) = 27.63926 93.20358 60.42142
# Shear Modulus (GPa) = 24.22265 34.77748 29.50007
#
# Velocity S-wave (km/s) = 3.57318 4.28148 3.94327
# Velocity P-wave (km/s) = 5.62068 8.57721 7.25123
#
# Compressibility (1/GPa) = 0.03618042
#
# Stress axis : x y z
#
# Youngs Moduli (GPa) = 20.23635 88.45667 99.30989
#
# Poissons Ratio (x) = 0.45127 0.57048
# Poissons Ratio (y) = 0.10324 0.64144
# Poissons Ratio (z) = 0.11625 0.57134
#
# Static dielectric constant tensor:
#      x y z
#    x 1.653480 0.000000 0.000000 
#    y 0.000000 1.637450 0.000000 
#    z 0.000000 0.000000 1.628990 
# 
# From -- ./inp_files/37748.got.cif
#   From: 2010.05.17/outbox.cif.g08.bks.cpg/sg53_19_cif.got.tgz:37748.got - 2010.06.03 12:45:16.
