data_PCOD9417237
_publ_section_title
;
Structure prediction by ZEFSAII (Michael W. Deem and Ramdas Pophale) SiO2 
 PCOD9417237
Probable space group: P M N A
;
_chemical_formula_sum "Si O2"
_cell_formula_units_Z 28
_cell_length_a 28.724641
_cell_length_b 9.892504
_cell_length_c 4.989404
_cell_angle_alpha 90.000000
_cell_angle_beta 90.000000
_cell_angle_gamma 90.000000
_cell_volume 1417.782185
_symmetry_space_group_name_H-M "P M N A"
_symmetry_group_IT_number 53
_symmetry_cell_setting 'orthorhombic'
loop_
_space_group_symop_operation_xyz
x,y,z
1/2-x,-y,1/2+z
x,-y,-z
1/2-x,y,1/2-z
-x,-y,-z
1/2+x,y,1/2-z
-x,y,z
1/2+x,-y,1/2+z
loop_
_atom_site_type_symbol
_atom_site_label
_atom_site_fract_x
_atom_site_fract_y
_atom_site_fract_z
Si Si1 0.155048 0.760283 0.416542
Si Si2 0.098618 0.160313 0.068973
Si Si3 0.279016 0.000000 0.000000
Si Si4 0.217192 0.500000 0.500000
Si Si5 0.000000 0.898399 0.753919
O O1 0.135079 0.793755 0.708668
O O2 0.189888 0.884508 0.362468
O O3 0.184321 0.623866 0.414960
O O4 0.112973 0.764639 0.203439
O O5 0.047788 0.182620 0.201633
O O6 0.101842 0.000000 0.000000
O O7 0.250000 0.059295 0.250000
O O8 0.250000 0.461765 0.250000
O O9 0.000000 0.000000 0.500000
O O10 0.000000 0.000000 0.000000
#
# Coordination Sequence:
#
# PCOD9417237 Si02
#       5
#     8   8   4   4   4
#     4  12  23  39  63  87 123 160 207 255 304 369
#     4  11  20  38  61  95 125 156 201 251 311 367
#     4  12  22  36  56  85 114 149 198 258 312 344
#     4  12  26  46  62  85 122 169 218 250 306 376
#     4  10  20  34  60  95 132 161 192 249 312 377
#
# _framework density 19.749154999999998
#
# number of rings (size 3 to 8) (size 9 to 14) (size 15 to 20)
#    0.000    0.571    2.857    8.571    0.000    0.000 
#    0.000    0.000    0.000    5.143    0.000    0.000 
#    0.000    0.000    0.000    0.000    0.000    0.000 
#
# Total GULP energy -156368.233323 kJ/mol
# GULP energy per Si atom -5584.579762 kJ/mol
# Density = 1.970421 g / cm^3
# Si number density = 19.749155 Si / 1000 Ang^3
#
#
#
# Elastic Constant Matrix: (Units=GPa)
#
#
# Indices 1 2 3 4 5 6 
#
# 1 90.3957 42.6359 15.4950 0.0000 0.0000 0.0000
# 2 42.6359 83.8878 3.3071 0.0000 0.0000 0.0000
# 3 15.4950 3.3071 113.8595 0.0000 0.0000 0.0000
# 4 0.0000 0.0000 0.0000 19.9574 0.0000 0.0000
# 5 0.0000 0.0000 0.0000 0.0000 -76.2715 0.0000
# 6 0.0000 0.0000 0.0000 0.0000 0.0000 21.1984
#
#
#
# Elastic Compliance Matrix: (Units=1/GPa)
#
#
# Indices 1 2 3 4 5 6 
#
# 1 0.014915 -0.007509 -0.001812 0.000000 0.000000 0.000000
# 2 -0.007509 0.015715 0.000565 0.000000 0.000000 0.000000
# 3 -0.001812 0.000565 0.009013 0.000000 0.000000 0.000000
# 4 0.000000 0.000000 0.000000 0.050107 0.000000 0.000000
# 5 0.000000 0.000000 0.000000 0.000000 -0.013111 0.000000
# 6 0.000000 0.000000 0.000000 0.000000 0.000000 0.047173
#
#
# Mechanical properties :
#
#
# Convention : Reuss Voigt Hill
#
# Bulk Modulus (GPa) = 45.18324 45.66877 45.42601
# Shear Modulus (GPa) = 33.62495 8.09051 20.85773
#
# Velocity S-wave (km/s) = 4.13074 2.02621 3.25335
# Velocity P-wave (km/s) = 6.75862 5.35244 6.09621
#
# Compressibility (1/GPa) = 0.02213210
#
# Stress axis : x y z
#
# Youngs Moduli (GPa) = 67.04806 63.63423 110.95237
#
# Poissons Ratio (x) = 0.47783 0.20100
# Poissons Ratio (y) = 0.50346 -0.06274
# Poissons Ratio (z) = 0.12147 -0.03598
#
# Static dielectric constant tensor:
#      x y z
#    x 1.819900 0.000000 0.000000 
#    y 0.000000 1.673680 0.000000 
#    z 0.000000 0.000000 1.693670 
# 
# From -- ./inp_files/4155.got.cif
#   From: 2010.05.17/outbox.cif.g08.bks.cpg/sg53_3_cif.got.tgz:4155.got - 2010.06.03 12:45:16.
