data_PCOD9417571
_publ_section_title
;
Structure prediction by ZEFSAII (Michael W. Deem and Ramdas Pophale) SiO2 
 PCOD9417571
Probable space group: P M N A
;
_chemical_formula_sum "Si O2"
_cell_formula_units_Z 56
_cell_length_a 9.488980
_cell_length_b 22.241498
_cell_length_c 14.301447
_cell_angle_alpha 90.000000
_cell_angle_beta 90.000000
_cell_angle_gamma 90.000000
_cell_volume 3018.307943
_symmetry_space_group_name_H-M "P M N A"
_symmetry_group_IT_number 53
_symmetry_cell_setting 'orthorhombic'
loop_
_space_group_symop_operation_xyz
x,y,z
1/2-x,-y,1/2+z
x,-y,-z
1/2-x,y,1/2-z
-x,-y,-z
1/2+x,y,1/2-z
-x,y,z
1/2+x,-y,1/2+z
loop_
_atom_site_type_symbol
_atom_site_label
_atom_site_fract_x
_atom_site_fract_y
_atom_site_fract_z
Si Si1 0.668105 0.592742 0.043673
Si Si2 0.167433 0.533148 0.652358
Si Si3 0.160020 0.180412 0.960997
Si Si4 0.662668 0.027634 0.100234
Si Si5 0.664046 0.856604 0.662645
Si Si6 0.667331 0.696037 0.348241
Si Si7 0.840762 0.104212 0.664481
O O1 0.500000 0.606601 0.047301
O O2 0.689704 0.533219 0.107603
O O3 0.761818 0.644903 0.087855
O O4 0.703600 0.576900 0.935412
O O5 0.250000 0.540943 0.750000
O O6 0.000000 0.539453 0.669999
O O7 0.181618 0.241179 0.903824
O O8 0.270176 0.130931 0.927327
O O9 0.000000 0.158617 0.942466
O O10 0.173556 0.185785 0.072151
O O11 0.500000 0.049648 0.092847
O O12 0.764375 0.079622 0.135570
O O13 0.661421 0.967948 0.163530
O O14 0.704040 0.000000 0.000000
O O15 0.750000 0.832184 0.750000
O O16 0.500000 0.866049 0.685429
O O17 0.750000 0.698389 0.250000
O O18 0.500000 0.685033 0.333279
O O19 0.750000 0.127627 0.750000
O O20 0.000000 0.124845 0.672082
#
# Coordination Sequence:
#
# PCOD9417571 Si02
#       7
#     8   8   8   8   8   8   8
#     4   9  19  36  56  83 118 155 193 233 278 330
#     4   9  18  33  55  84 120 156 192 234 279 328
#     4  10  23  41  58  79 108 141 183 229 273 323
#     4  10  20  36  56  82 111 139 174 219 272 332
#     4  11  23  39  60  82 107 142 183 227 277 334
#     4  11  23  39  59  84 113 146 186 231 278 330
#     4  11  22  35  55  80 109 140 174 217 269 328
#
# _framework density 18.553440999999999
#
# number of rings (size 3 to 8) (size 9 to 14) (size 15 to 20)
#    0.000    1.857    1.429    3.429    0.000    7.714 
#    0.000    2.143    0.000    3.429    0.000    0.000 
#    0.000    0.000    0.000    0.000    0.000    0.000 
#
# Total GULP energy -312531.372560 kJ/mol
# GULP energy per Si atom -5580.917367 kJ/mol
# Density = 1.851121 g / cm^3
# Si number density = 18.553441 Si / 1000 Ang^3
#
#
#
# Elastic Constant Matrix: (Units=GPa)
#
#
# Indices 1 2 3 4 5 6 
#
# 1 117.3803 50.3332 80.7043 0.0000 0.0000 0.0000
# 2 50.3332 58.6315 32.9484 0.0000 0.0000 0.0000
# 3 80.7043 32.9484 140.3315 0.0000 0.0000 0.0000
# 4 0.0000 0.0000 0.0000 20.2689 0.0000 0.0000
# 5 0.0000 0.0000 0.0000 0.0000 37.8559 0.0000
# 6 0.0000 0.0000 0.0000 0.0000 0.0000 -1.1425
#
#
#
# Elastic Compliance Matrix: (Units=1/GPa)
#
#
# Indices 1 2 3 4 5 6 
#
# 1 0.019375 -0.011947 -0.008337 0.000000 0.000000 0.000000
# 2 -0.011947 0.027015 0.000528 0.000000 0.000000 0.000000
# 3 -0.008337 0.000528 0.011797 0.000000 0.000000 0.000000
# 4 0.000000 0.000000 0.000000 0.049337 0.000000 0.000000
# 5 0.000000 0.000000 0.000000 0.000000 0.026416 0.000000
# 6 0.000000 0.000000 0.000000 0.000000 0.000000 -0.875292
#
#
# Mechanical properties :
#
#
# Convention : Reuss Voigt Hill
#
# Bulk Modulus (GPa) = 53.55157 71.59057 62.57107
# Shear Modulus (GPa) = -7.18788 21.55362 7.18287
#
# Velocity S-wave (km/s) = -1.97042 3.41208 1.96973
# Velocity P-wave (km/s) = 4.87333 7.36158 6.24269
#
# Compressibility (1/GPa) = 0.01867359
#
# Stress axis : x y z
#
# Youngs Moduli (GPa) = 51.61421 37.01599 84.76942
#
# Poissons Ratio (x) = 0.44224 0.70673
# Poissons Ratio (y) = 0.61665 -0.04475
# Poissons Ratio (z) = 0.43031 -0.01954
#
# Static dielectric constant tensor:
#      x y z
#    x 1.629820 0.000000 0.000000 
#    y 0.000000 1.625940 0.000000 
#    z 0.000000 0.000000 1.683610 
# 
# From -- ./inp_files/20627.got.cif
#   From: 2010.05.17/outbox.cif.g08.bks.cpg/sg53_11_cif.got.tgz:20627.got - 2010.06.03 12:45:16.
