data_PCOD9417370
_publ_section_title
;
Structure prediction by ZEFSAII (Michael W. Deem and Ramdas Pophale) SiO2 
 PCOD9417370
Probable space group: P M N A
;
_chemical_formula_sum "Si O2"
_cell_formula_units_Z 64
_cell_length_a 8.886424
_cell_length_b 23.634647
_cell_length_c 16.121146
_cell_angle_alpha 90.000000
_cell_angle_beta 90.000000
_cell_angle_gamma 90.000000
_cell_volume 3385.883900
_symmetry_space_group_name_H-M "P M N A"
_symmetry_group_IT_number 53
_symmetry_cell_setting 'orthorhombic'
loop_
_space_group_symop_operation_xyz
x,y,z
1/2-x,-y,1/2+z
x,-y,-z
1/2-x,y,1/2-z
-x,-y,-z
1/2+x,y,1/2-z
-x,y,z
1/2+x,-y,1/2+z
loop_
_atom_site_type_symbol
_atom_site_label
_atom_site_fract_x
_atom_site_fract_y
_atom_site_fract_z
Si Si1 0.328435 0.130876 0.588402
Si Si2 0.327394 0.078126 0.404371
Si Si3 0.177238 0.972723 0.337534
Si Si4 0.679540 0.811627 0.836711
Si Si5 0.818916 0.422269 0.337417
Si Si6 0.319166 0.242920 0.501024
Si Si7 0.318960 0.554255 0.162488
Si Si8 0.817740 0.364502 0.510403
O O1 0.500000 0.128991 0.620921
O O2 0.329828 0.102175 0.497371
O O3 0.221647 0.091589 0.642105
O O4 0.282058 0.195204 0.569956
O O5 0.233243 0.123756 0.352018
O O6 0.000000 0.075893 0.125524
O O7 0.253402 0.016848 0.400241
O O8 0.250000 0.988047 0.250000
O O9 0.000000 0.979942 0.337254
O O10 0.750000 0.791881 0.750000
O O11 0.500000 0.808227 0.834867
O O12 0.744540 0.776534 0.914394
O O13 0.750000 0.402506 0.250000
O O14 0.775655 0.488335 0.349124
O O15 0.773977 0.388012 0.419475
O O16 0.000000 0.419718 0.331290
O O17 0.500000 0.242063 0.491440
O O18 0.258271 0.304148 0.524039
O O19 0.250000 0.573686 0.250000
O O20 0.500000 0.556085 0.168542
O O21 0.275249 0.591840 0.083395
O O22 0.000000 0.359136 0.511171
#
# Coordination Sequence:
#
# PCOD9417370 Si02
#       8
#     8   8   8   8   8   8   8   8
#     4   9  20  39  58  75 101 137 173 215 267 318
#     4  10  20  36  57  81 110 140 171 211 263 322
#     4  12  24  36  54  80 108 136 171 216 265 319
#     4  11  21  35  55  79 109 143 181 223 269 322
#     4   9  18  33  54  82 116 151 185 224 272 328
#     4  10  22  39  57  78 106 141 182 226 271 321
#     4   9  18  34  56  82 112 146 186 231 280 331
#     4  10  20  35  56  81 111 149 189 229 275 329
#
# _framework density 18.902006
#
# number of rings (size 3 to 8) (size 9 to 14) (size 15 to 20)
#    0.000    2.000    0.000    4.875    0.000    7.500 
#    0.000    1.875    0.000    5.250    0.000    0.000 
#    0.000    0.000    0.000    0.000    0.000    0.000 
#
# Total GULP energy -357380.226107 kJ/mol
# GULP energy per Si atom -5584.066033 kJ/mol
# Density = 1.885898 g / cm^3
# Si number density = 18.902006 Si / 1000 Ang^3
#
#
#
# Elastic Constant Matrix: (Units=GPa)
#
#
# Indices 1 2 3 4 5 6 
#
# 1 68.2692 25.0440 14.7231 0.0000 0.0000 0.0000
# 2 25.0440 92.0461 27.0100 0.0000 0.0000 0.0000
# 3 14.7231 27.0100 51.0936 0.0000 0.0000 0.0000
# 4 0.0000 0.0000 0.0000 12.4047 0.0000 0.0000
# 5 0.0000 0.0000 0.0000 0.0000 28.4152 0.0000
# 6 0.0000 0.0000 0.0000 0.0000 0.0000 32.0011
#
#
#
# Elastic Compliance Matrix: (Units=1/GPa)
#
#
# Indices 1 2 3 4 5 6 
#
# 1 0.016613 -0.003687 -0.002838 0.000000 0.000000 0.000000
# 2 -0.003687 0.013677 -0.006168 0.000000 0.000000 0.000000
# 3 -0.002838 -0.006168 0.023650 0.000000 0.000000 0.000000
# 4 0.000000 0.000000 0.000000 0.080615 0.000000 0.000000
# 5 0.000000 0.000000 0.000000 0.000000 0.035192 0.000000
# 6 0.000000 0.000000 0.000000 0.000000 0.000000 0.031249
#
#
# Mechanical properties :
#
#
# Convention : Reuss Voigt Hill
#
# Bulk Modulus (GPa) = 35.02106 38.32923 36.67514
# Shear Modulus (GPa) = 21.19543 24.20631 22.70087
#
# Velocity S-wave (km/s) = 3.35226 3.58246 3.46927
# Velocity P-wave (km/s) = 5.79236 6.11832 5.95757
#
# Compressibility (1/GPa) = 0.02855425
#
# Stress axis : x y z
#
# Youngs Moduli (GPa) = 60.19553 73.11432 42.28287
#
# Poissons Ratio (x) = 0.26959 0.11999
# Poissons Ratio (y) = 0.22195 0.26079
# Poissons Ratio (z) = 0.17083 0.45095
#
# Static dielectric constant tensor:
#      x y z
#    x 1.632490 0.000000 0.000000 
#    y 0.000000 1.665890 0.000000 
#    z 0.000000 0.000000 1.644250 
# 
# From -- ./inp_files/20824.got.cif
#   From: 2010.05.17/outbox.cif.g08.bks.cpg/sg53_11_cif.got.tgz:20824.got - 2010.06.03 12:45:16.
