data_PCOD9417871
_publ_section_title
;
Structure prediction by ZEFSAII (Michael W. Deem and Ramdas Pophale) SiO2 
 PCOD9417871
Probable space group: P M N A
;
_chemical_formula_sum "Si O2"
_cell_formula_units_Z 64
_cell_length_a 9.584165
_cell_length_b 12.424329
_cell_length_c 29.080201
_cell_angle_alpha 90.000000
_cell_angle_beta 90.000000
_cell_angle_gamma 90.000000
_cell_volume 3462.777835
_symmetry_space_group_name_H-M "P M N A"
_symmetry_group_IT_number 53
_symmetry_cell_setting 'orthorhombic'
loop_
_space_group_symop_operation_xyz
x,y,z
1/2-x,-y,1/2+z
x,-y,-z
1/2-x,y,1/2-z
-x,-y,-z
1/2+x,y,1/2-z
-x,y,z
1/2+x,-y,1/2+z
loop_
_atom_site_type_symbol
_atom_site_label
_atom_site_fract_x
_atom_site_fract_y
_atom_site_fract_z
Si Si1 0.830160 0.762962 0.298685
Si Si2 0.667616 0.601182 0.365864
Si Si3 0.162500 0.881288 0.514959
Si Si4 0.845833 0.912982 0.141686
Si Si5 0.158434 0.358035 0.158726
Si Si6 0.339911 0.754211 0.445244
Si Si7 0.248943 0.144142 0.118629
Si Si8 0.654127 0.211334 0.212023
O O1 0.750000 0.757401 0.250000
O O2 0.763791 0.667460 0.330305
O O3 0.774875 0.870845 0.324575
O O4 0.000000 0.758295 0.295550
O O5 0.500000 0.621300 0.357441
O O6 0.692428 0.474411 0.361255
O O7 0.696978 0.646886 0.416836
O O8 0.244036 0.790902 0.486735
O O9 0.181439 0.867450 0.569342
O O10 0.000000 0.876034 0.502719
O O11 0.215011 0.000000 0.500000
O O12 0.831417 0.845592 0.094517
O O13 0.000000 0.888168 0.161396
O O14 0.838920 0.037651 0.128723
O O15 0.170219 0.258720 0.122787
O O16 0.265840 0.321120 0.198073
O O17 0.000000 0.361826 0.175862
O O18 0.500000 0.747183 0.460700
O O19 0.347645 0.150531 0.163418
O O20 0.750000 0.155163 0.250000
O O21 0.500000 0.226919 0.229722
#
# Coordination Sequence:
#
# PCOD9417871 Si02
#       8
#     8   8   8   8   8   8   8   8
#     4  11  23  38  59  87 117 154 199 248 303 361
#     4   9  19  40  63  87 120 157 199 250 298 354
#     4  11  22  37  58  87 121 157 199 246 298 357
#     4  10  20  37  59  84 118 154 193 244 298 356
#     4   9  20  38  63  88 117 156 199 242 294 352
#     4   9  19  35  57  86 117 152 192 240 295 348
#     4  10  22  38  62  87 122 156 200 244 301 353
#     4  10  22  38  58  82 116 154 197 241 293 349
#
# _framework density 18.482271000000001
#
# number of rings (size 3 to 8) (size 9 to 14) (size 15 to 20)
#    0.750    1.375    1.250    3.000    0.000    5.750 
#    0.000    0.625    0.000    3.000    0.000    0.000 
#    0.000    0.000    0.000    0.000    0.000    0.000 
#
# Total GULP energy -356297.799085 kJ/mol
# GULP energy per Si atom -5567.153111 kJ/mol
# Density = 1.844020 g / cm^3
# Si number density = 18.482271 Si / 1000 Ang^3
#
#
#
# Elastic Constant Matrix: (Units=GPa)
#
#
# Indices 1 2 3 4 5 6 
#
# 1 96.4868 16.7933 30.1632 0.0000 0.0000 0.0000
# 2 16.7933 92.2098 21.1368 0.0000 0.0000 0.0000
# 3 30.1632 21.1368 86.9342 0.0000 0.0000 0.0000
# 4 0.0000 0.0000 0.0000 16.4919 0.0000 0.0000
# 5 0.0000 0.0000 0.0000 0.0000 24.6562 0.0000
# 6 0.0000 0.0000 0.0000 0.0000 0.0000 17.5511
#
#
#
# Elastic Compliance Matrix: (Units=1/GPa)
#
#
# Indices 1 2 3 4 5 6 
#
# 1 0.011766 -0.001278 -0.003771 0.000000 0.000000 0.000000
# 2 -0.001278 0.011624 -0.002383 0.000000 0.000000 0.000000
# 3 -0.003771 -0.002383 0.013391 0.000000 0.000000 0.000000
# 4 0.000000 0.000000 0.000000 0.060636 0.000000 0.000000
# 5 0.000000 0.000000 0.000000 0.000000 0.040558 0.000000
# 6 0.000000 0.000000 0.000000 0.000000 0.000000 0.056976
#
#
# Mechanical properties :
#
#
# Convention : Reuss Voigt Hill
#
# Bulk Modulus (GPa) = 45.62983 45.75749 45.69366
# Shear Modulus (GPa) = 23.02874 25.57568 24.30221
#
# Velocity S-wave (km/s) = 3.53369 3.72398 3.63008
# Velocity P-wave (km/s) = 6.43361 6.58042 6.50743
#
# Compressibility (1/GPa) = 0.02191549
#
# Stress axis : x y z
#
# Youngs Moduli (GPa) = 84.99348 86.03037 74.67795
#
# Poissons Ratio (x) = 0.10997 0.28165
# Poissons Ratio (y) = 0.10864 0.17793
# Poissons Ratio (z) = 0.32055 0.20498
#
# Static dielectric constant tensor:
#      x y z
#    x 1.662150 0.000000 0.000000 
#    y 0.000000 1.655510 0.000000 
#    z 0.000000 0.000000 1.639240 
# 
# From -- ./inp_files/38422.got.cif
#   From: 2010.05.17/outbox.cif.g08.bks.cpg/sg53_20_cif.got.tgz:38422.got - 2010.06.03 12:45:16.
