data_PCOD9417479
_publ_section_title
;
Structure prediction by ZEFSAII (Michael W. Deem and Ramdas Pophale) SiO2 
 PCOD9417479
Probable space group: P M N A
;
_chemical_formula_sum "Si O2"
_cell_formula_units_Z 52
_cell_length_a 25.106934
_cell_length_b 9.628898
_cell_length_c 9.425123
_cell_angle_alpha 90.000000
_cell_angle_beta 90.000000
_cell_angle_gamma 90.000000
_cell_volume 2278.543340
_symmetry_space_group_name_H-M "P M N A"
_symmetry_group_IT_number 53
_symmetry_cell_setting 'orthorhombic'
loop_
_space_group_symop_operation_xyz
x,y,z
1/2-x,-y,1/2+z
x,-y,-z
1/2-x,y,1/2-z
-x,-y,-z
1/2+x,y,1/2-z
-x,y,z
1/2+x,-y,1/2+z
loop_
_atom_site_type_symbol
_atom_site_label
_atom_site_fract_x
_atom_site_fract_y
_atom_site_fract_z
Si Si1 0.888808 0.702270 0.208560
Si Si2 0.191545 0.987421 0.720875
Si Si3 0.382751 0.593032 0.819340
Si Si4 0.500000 0.248817 0.754202
Si Si5 0.341615 0.202249 0.966504
Si Si6 0.884007 0.831505 0.915405
Si Si7 0.000000 0.078995 0.183501
Si Si8 0.000000 0.321791 0.413031
O O1 0.865807 0.556419 0.259942
O O2 0.950120 0.682022 0.177642
O O3 0.889215 0.797747 0.351220
O O4 0.867002 0.774104 0.068987
O O5 0.250000 0.929112 0.750000
O O6 0.161627 0.902365 0.596991
O O7 0.154532 0.950971 0.853675
O O8 0.200503 0.139845 0.648031
O O9 0.379067 0.701168 0.690650
O O10 0.444733 0.600110 0.871759
O O11 0.347229 0.653455 0.949005
O O12 0.500000 0.082802 0.727206
O O13 0.500000 0.287951 0.920406
O O14 0.945308 0.883655 0.900077
O O15 0.000000 0.179117 0.321743
#
# Coordination Sequence:
#
# PCOD9417479 Si02
#       8
#     8   8   8   4   8   8   4   4
#     4  12  23  36  60  94 133 174 222 269 325 399
#     4  10  23  45  68  94 126 162 217 274 341 420
#     4  10  21  40  60  89 129 175 225 263 316 399
#     4  12  23  32  55  94 131 180 223 277 330 391
#     4  10  22  38  65  93 117 157 204 270 326 381
#     4  10  23  40  64  92 132 179 213 274 344 398
#     4  10  22  39  57  91 138 175 227 273 341 416
#     4  10  20  35  59  85 126 184 222 266 323 383
#
# _framework density 22.8216
#
# number of rings (size 3 to 8) (size 9 to 14) (size 15 to 20)
#    0.000    1.538    1.538    3.000    0.000    7.385 
#    0.000    3.077    0.000   23.077    0.000    0.000 
#    0.000    0.000    0.000    0.000    0.000    0.000 
#
# Total GULP energy -289609.818991 kJ/mol
# GULP energy per Si atom -5569.419596 kJ/mol
# Density = 2.276966 g / cm^3
# Si number density = 22.821600 Si / 1000 Ang^3
#
#
#
# Elastic Constant Matrix: (Units=GPa)
#
#
# Indices 1 2 3 4 5 6 
#
# 1 43.4729 32.2789 35.8543 0.0000 0.0000 0.0000
# 2 32.2789 139.5126 90.5181 0.0000 0.0000 0.0000
# 3 35.8543 90.5181 189.9097 0.0000 0.0000 0.0000
# 4 0.0000 0.0000 0.0000 50.7320 0.0000 0.0000
# 5 0.0000 0.0000 0.0000 0.0000 40.7005 0.0000
# 6 0.0000 0.0000 0.0000 0.0000 0.0000 23.5971
#
#
#
# Elastic Compliance Matrix: (Units=1/GPa)
#
#
# Indices 1 2 3 4 5 6 
#
# 1 0.029146 -0.004594 -0.003313 0.000000 0.000000 0.000000
# 2 -0.004594 0.011101 -0.004424 0.000000 0.000000 0.000000
# 3 -0.003313 -0.004424 0.008000 0.000000 0.000000 0.000000
# 4 0.000000 0.000000 0.000000 0.019711 0.000000 0.000000
# 5 0.000000 0.000000 0.000000 0.000000 0.024570 0.000000
# 6 0.000000 0.000000 0.000000 0.000000 0.000000 0.042378
#
#
# Mechanical properties :
#
#
# Convention : Reuss Voigt Hill
#
# Bulk Modulus (GPa) = 42.39928 76.68864 59.54396
# Shear Modulus (GPa) = 29.86327 37.28885 33.57606
#
# Velocity S-wave (km/s) = 3.62132 4.04657 3.83984
# Velocity P-wave (km/s) = 6.00867 7.45047 6.76807
#
# Compressibility (1/GPa) = 0.02358530
#
# Stress axis : x y z
#
# Youngs Moduli (GPa) = 34.30959 90.08229 125.00464
#
# Poissons Ratio (x) = 0.41384 0.41415
# Poissons Ratio (y) = 0.15762 0.55300
# Poissons Ratio (z) = 0.11367 0.39851
#
# Static dielectric constant tensor:
#      x y z
#    x 1.866740 0.000000 0.000000 
#    y 0.000000 1.965810 0.000000 
#    z 0.000000 0.000000 1.874660 
# 
# From -- ./inp_files/24677.got.cif
#   From: 2010.05.17/outbox.cif.g08.bks.cpg/sg53_13_cif.got.tgz:24677.got - 2010.06.03 12:45:16.
