data_PCOD9417867
_publ_section_title
;
Structure prediction by ZEFSAII (Michael W. Deem and Ramdas Pophale) SiO2 
 PCOD9417867
Probable space group: P M N A
;
_chemical_formula_sum "Si O2"
_cell_formula_units_Z 48
_cell_length_a 8.584278
_cell_length_b 31.752327
_cell_length_c 9.232345
_cell_angle_alpha 90.000000
_cell_angle_beta 90.000000
_cell_angle_gamma 90.000000
_cell_volume 2516.467682
_symmetry_space_group_name_H-M "P M N A"
_symmetry_group_IT_number 53
_symmetry_cell_setting 'orthorhombic'
loop_
_space_group_symop_operation_xyz
x,y,z
1/2-x,-y,1/2+z
x,-y,-z
1/2-x,y,1/2-z
-x,-y,-z
1/2+x,y,1/2-z
-x,y,z
1/2+x,-y,1/2+z
loop_
_atom_site_type_symbol
_atom_site_label
_atom_site_fract_x
_atom_site_fract_y
_atom_site_fract_z
Si Si1 0.312442 0.125669 0.086638
Si Si2 0.813916 0.713824 0.587283
Si Si3 0.812264 0.459639 0.911848
Si Si4 0.188013 0.041525 0.586898
Si Si5 0.312376 0.365503 0.585572
Si Si6 0.313714 0.793903 0.413159
O O1 0.250000 0.124384 0.250000
O O2 0.500000 0.128000 0.089094
O O3 0.265538 0.083450 0.000233
O O4 0.246245 0.166028 0.003179
O O5 0.750000 0.717218 0.750000
O O6 0.758865 0.670296 0.514970
O O7 0.747418 0.751942 0.491410
O O8 0.000000 0.716028 0.588934
O O9 0.750000 0.462780 0.750000
O O10 0.769046 0.412828 0.966040
O O11 0.000000 0.460970 0.909644
O O12 0.754719 0.500000 0.000000
O O13 0.250000 0.041909 0.750000
O O14 0.000000 0.040760 0.592500
O O15 0.240600 0.000000 0.500000
O O16 0.250000 0.360702 0.750000
O O17 0.500000 0.361877 0.587264
O O18 0.250000 0.795912 0.250000
O O19 0.500000 0.793622 0.410507
#
# Coordination Sequence:
#
# PCOD9417867 Si02
#       6
#     8   8   8   8   8   8
#     4  11  23  40  62  90 123 159 200 245 296 350
#     4  12  25  42  62  87 118 152 192 238 291 346
#     4   9  19  35  55  81 113 149 190 235 283 338
#     4  10  22  39  60  88 121 158 201 247 296 351
#     4  10  20  37  59  84 115 152 194 238 287 343
#     4  12  25  43  65  90 120 155 196 240 290 347
#
# _framework density 19.074356000000002
#
# number of rings (size 3 to 8) (size 9 to 14) (size 15 to 20)
#    0.000    1.333    0.000    6.000    0.000    4.667 
#    0.000    1.667    0.000    0.000    0.000    0.000 
#    0.000    0.000    0.000    0.000    0.000    0.000 
#
# Total GULP energy -268419.245469 kJ/mol
# GULP energy per Si atom -5592.067614 kJ/mol
# Density = 1.903094 g / cm^3
# Si number density = 19.074356 Si / 1000 Ang^3
#
#
#
# Elastic Constant Matrix: (Units=GPa)
#
#
# Indices 1 2 3 4 5 6 
#
# 1 101.8767 66.7609 56.3021 0.0000 0.0000 0.0000
# 2 66.7609 212.8103 120.9209 0.0000 0.0000 0.0000
# 3 56.3021 120.9209 176.3681 0.0000 0.0000 0.0000
# 4 0.0000 0.0000 0.0000 29.2450 0.0000 0.0000
# 5 0.0000 0.0000 0.0000 0.0000 38.9695 0.0000
# 6 0.0000 0.0000 0.0000 0.0000 0.0000 27.6134
#
#
#
# Elastic Compliance Matrix: (Units=1/GPa)
#
#
# Indices 1 2 3 4 5 6 
#
# 1 0.012854 -0.002786 -0.002193 0.000000 0.000000 0.000000
# 2 -0.002786 0.008302 -0.004802 0.000000 0.000000 0.000000
# 3 -0.002193 -0.004802 0.009663 0.000000 0.000000 0.000000
# 4 0.000000 0.000000 0.000000 0.034194 0.000000 0.000000
# 5 0.000000 0.000000 0.000000 0.000000 0.025661 0.000000
# 6 0.000000 0.000000 0.000000 0.000000 0.000000 0.036214
#
#
# Mechanical properties :
#
#
# Convention : Reuss Voigt Hill
#
# Bulk Modulus (GPa) = 88.85093 108.78032 98.81563
# Shear Modulus (GPa) = 33.28845 35.63702 34.46273
#
# Velocity S-wave (km/s) = 4.18208 4.32710 4.25521
# Velocity P-wave (km/s) = 8.36673 9.06192 8.72126
#
# Compressibility (1/GPa) = 0.01125481
#
# Stress axis : x y z
#
# Youngs Moduli (GPa) = 77.79936 120.45436 103.49111
#
# Poissons Ratio (x) = 0.33562 0.22695
# Poissons Ratio (y) = 0.21677 0.49701
# Poissons Ratio (z) = 0.17061 0.57848
#
# Static dielectric constant tensor:
#      x y z
#    x 1.645320 0.000000 0.000000 
#    y 0.000000 1.663010 0.000000 
#    z 0.000000 0.000000 1.586420 
# 
# From -- ./inp_files/6568.got.cif
#   From: 2010.05.17/outbox.cif.g08.bks.cpg/sg53_4_cif.got.tgz:6568.got - 2010.06.03 12:45:16.
