data_PCOD9417864
_publ_section_title
;
Structure prediction by ZEFSAII (Michael W. Deem and Ramdas Pophale) SiO2 
 PCOD9417864
Probable space group: P M N A
;
_chemical_formula_sum "Si O2"
_cell_formula_units_Z 48
_cell_length_a 8.650705
_cell_length_b 31.370753
_cell_length_c 9.348603
_cell_angle_alpha 90.000000
_cell_angle_beta 90.000000
_cell_angle_gamma 90.000000
_cell_volume 2537.015747
_symmetry_space_group_name_H-M "P M N A"
_symmetry_group_IT_number 53
_symmetry_cell_setting 'orthorhombic'
loop_
_space_group_symop_operation_xyz
x,y,z
1/2-x,-y,1/2+z
x,-y,-z
1/2-x,y,1/2-z
-x,-y,-z
1/2+x,y,1/2-z
-x,y,z
1/2+x,-y,1/2+z
loop_
_atom_site_type_symbol
_atom_site_label
_atom_site_fract_x
_atom_site_fract_y
_atom_site_fract_z
Si Si1 0.686790 0.376024 0.408859
Si Si2 0.185980 0.198235 0.909017
Si Si3 0.686663 0.458563 0.590097
Si Si4 0.185247 0.957479 0.089914
Si Si5 0.684509 0.878663 0.909413
Si Si6 0.686174 0.295925 0.592558
O O1 0.750000 0.380763 0.250000
O O2 0.500000 0.376070 0.403626
O O3 0.735507 0.415668 0.507824
O O4 0.738191 0.331620 0.480798
O O5 0.250000 0.188814 0.750000
O O6 0.230299 0.247240 0.943348
O O7 0.000000 0.194960 0.907415
O O8 0.254984 0.165040 0.020597
O O9 0.736123 0.500000 0.500000
O O10 0.750000 0.459812 0.750000
O O11 0.500000 0.458741 0.596230
O O12 0.250000 0.960644 0.250000
O O13 0.000000 0.952937 0.095356
O O14 0.256109 0.917082 0.008668
O O15 0.222472 0.000000 0.000000
O O16 0.750000 0.883828 0.750000
O O17 0.500000 0.878770 0.905239
O O18 0.750000 0.305777 0.750000
O O19 0.500000 0.297197 0.599121
#
# Coordination Sequence:
#
# PCOD9417864 Si02
#       6
#     8   8   8   8   8   8
#     4  10  21  36  53  78 110 143 183 227 274 329
#     4  10  20  37  59  84 114 148 189 234 283 337
#     4  10  21  36  55  80 109 141 180 225 272 327
#     4  11  24  42  65  92 122 156 194 236 283 335
#     4  12  25  41  61  86 118 154 193 237 286 338
#     4   9  19  35  56  81 109 143 184 230 277 331
#
# _framework density 18.919867
#
# number of rings (size 3 to 8) (size 9 to 14) (size 15 to 20)
#    0.000    1.667    0.000    4.500    0.000    5.667 
#    0.000    1.667    0.000    0.000    0.000    0.000 
#    0.000    0.000    0.000    0.000    0.000    0.000 
#
# Total GULP energy -268330.589521 kJ/mol
# GULP energy per Si atom -5590.220615 kJ/mol
# Density = 1.887680 g / cm^3
# Si number density = 18.919867 Si / 1000 Ang^3
#
#
#
# Elastic Constant Matrix: (Units=GPa)
#
#
# Indices 1 2 3 4 5 6 
#
# 1 52.1880 50.8460 52.9756 0.0000 0.0000 0.0000
# 2 50.8460 134.0621 113.3829 0.0000 0.0000 0.0000
# 3 52.9756 113.3829 194.4852 0.0000 0.0000 0.0000
# 4 0.0000 0.0000 0.0000 40.3980 0.0000 0.0000
# 5 0.0000 0.0000 0.0000 0.0000 39.9226 0.0000
# 6 0.0000 0.0000 0.0000 0.0000 0.0000 -52.5150
#
#
#
# Elastic Compliance Matrix: (Units=1/GPa)
#
#
# Indices 1 2 3 4 5 6 
#
# 1 0.031353 -0.009209 -0.003171 0.000000 0.000000 0.000000
# 2 -0.009209 0.017419 -0.007647 0.000000 0.000000 0.000000
# 3 -0.003171 -0.007647 0.010464 0.000000 0.000000 0.000000
# 4 0.000000 0.000000 0.000000 0.024754 0.000000 0.000000
# 5 0.000000 0.000000 0.000000 0.000000 0.025048 0.000000
# 6 0.000000 0.000000 0.000000 0.000000 0.000000 -0.019042
#
#
# Mechanical properties :
#
#
# Convention : Reuss Voigt Hill
#
# Bulk Modulus (GPa) = 52.13401 90.57159 71.35280
# Shear Modulus (GPa) = 36.64493 16.46316 26.55404
#
# Velocity S-wave (km/s) = 4.40574 2.95303 3.75040
# Velocity P-wave (km/s) = 7.31408 7.72025 7.51991
#
# Compressibility (1/GPa) = 0.01918134
#
# Stress axis : x y z
#
# Youngs Moduli (GPa) = 31.89474 57.40763 95.56911
#
# Poissons Ratio (x) = 0.52868 0.30309
# Poissons Ratio (y) = 0.29372 0.73080
# Poissons Ratio (z) = 0.10115 0.43898
#
# Static dielectric constant tensor:
#      x y z
#    x 1.635860 0.000000 0.000000 
#    y 0.000000 1.657340 0.000000 
#    z 0.000000 0.000000 1.602410 
# 
# From -- ./inp_files/6661.got.cif
#   From: 2010.05.17/outbox.cif.g08.bks.cpg/sg53_4_cif.got.tgz:6661.got - 2010.06.03 12:45:16.
