data_PCOD9417451
_publ_section_title
;
Structure prediction by ZEFSAII (Michael W. Deem and Ramdas Pophale) SiO2 
 PCOD9417451
Probable space group: P M N A
;
_chemical_formula_sum "Si O2"
_cell_formula_units_Z 64
_cell_length_a 8.508293
_cell_length_b 24.428822
_cell_length_c 15.922146
_cell_angle_alpha 90.000000
_cell_angle_beta 90.000000
_cell_angle_gamma 90.000000
_cell_volume 3309.379438
_symmetry_space_group_name_H-M "P M N A"
_symmetry_group_IT_number 53
_symmetry_cell_setting 'orthorhombic'
loop_
_space_group_symop_operation_xyz
x,y,z
1/2-x,-y,1/2+z
x,-y,-z
1/2-x,y,1/2-z
-x,-y,-z
1/2+x,y,1/2-z
-x,y,z
1/2+x,-y,1/2+z
loop_
_atom_site_type_symbol
_atom_site_label
_atom_site_fract_x
_atom_site_fract_y
_atom_site_fract_z
Si Si1 0.810320 0.617211 0.159871
Si Si2 0.689577 0.999560 0.401524
Si Si3 0.809656 0.309651 0.998793
Si Si4 0.687596 0.115867 0.840310
Si Si5 0.310262 0.380667 0.340445
Si Si6 0.811691 0.880871 0.840962
Si Si7 0.188437 0.813575 0.500528
Si Si8 0.308463 0.500880 0.597912
O O1 0.750000 0.635930 0.250000
O O2 0.760248 0.655694 0.082927
O O3 0.755518 0.554948 0.141979
O O4 0.000000 0.616682 0.160453
O O5 0.500000 0.996387 0.397106
O O6 0.758778 0.946228 0.357692
O O7 0.734140 0.000000 0.500000
O O8 0.740639 0.056639 0.360084
O O9 0.000000 0.307805 0.998907
O O10 0.760236 0.341894 0.082899
O O11 0.744950 0.248652 0.996849
O O12 0.750000 0.134302 0.750000
O O13 0.500000 0.117562 0.838781
O O14 0.744018 0.153003 0.918144
O O15 0.250000 0.362511 0.250000
O O16 0.500000 0.381158 0.339741
O O17 0.255558 0.442852 0.359327
O O18 0.750000 0.863693 0.750000
O O19 0.751652 0.843052 0.916185
O O20 0.000000 0.880051 0.841042
O O21 0.000000 0.815383 0.501957
O O22 0.262540 0.500000 0.500000
O O23 0.500000 0.500990 0.599270
#
# Coordination Sequence:
#
# PCOD9417451 Si02
#       8
#     8   8   8   8   8   8   8   8
#     4  10  20  35  58  86 115 150 190 235 288 347
#     4  10  20  37  63  94 125 158 192 233 292 353
#     4  10  22  40  60  81 110 154 199 237 287 349
#     4  11  24  40  62  90 121 157 197 243 295 351
#     4  10  20  35  58  86 114 148 189 232 284 343
#     4  11  23  40  64  92 124 158 195 239 290 350
#     4  11  25  43  62  86 116 154 201 251 298 343
#     4   9  15  30  57  84 113 149 188 228 277 347
#
# _framework density 19.338972999999999
#
# number of rings (size 3 to 8) (size 9 to 14) (size 15 to 20)
#    0.000    1.750    2.500    1.875    0.000    5.750 
#    0.000    3.750    0.000    0.750    0.000    0.000 
#    0.000    0.000    0.000    0.000    0.000    0.000 
#
# Total GULP energy -357641.610861 kJ/mol
# GULP energy per Si atom -5588.150170 kJ/mol
# Density = 1.929496 g / cm^3
# Si number density = 19.338973 Si / 1000 Ang^3
#
#
#
# Elastic Constant Matrix: (Units=GPa)
#
#
# Indices 1 2 3 4 5 6 
#
# 1 17.6037 27.5759 30.6628 0.0000 0.0000 0.0000
# 2 27.5759 150.0698 86.2439 0.0000 0.0000 0.0000
# 3 30.6628 86.2439 197.8095 0.0000 0.0000 0.0000
# 4 0.0000 0.0000 0.0000 -0.6065 0.0000 0.0000
# 5 0.0000 0.0000 0.0000 0.0000 27.0143 0.0000
# 6 0.0000 0.0000 0.0000 0.0000 0.0000 5.6775
#
#
#
# Elastic Compliance Matrix: (Units=1/GPa)
#
#
# Indices 1 2 3 4 5 6 
#
# 1 0.090449 -0.011426 -0.009039 0.000000 0.000000 0.000000
# 2 -0.011426 0.010335 -0.002735 0.000000 0.000000 0.000000
# 3 -0.009039 -0.002735 0.007649 0.000000 0.000000 0.000000
# 4 0.000000 0.000000 0.000000 -1.648861 0.000000 0.000000
# 5 0.000000 0.000000 0.000000 0.000000 0.037017 0.000000
# 6 0.000000 0.000000 0.000000 0.000000 0.000000 0.176135
#
#
# Mechanical properties :
#
#
# Convention : Reuss Voigt Hill
#
# Bulk Modulus (GPa) = 16.12033 72.71647 44.41840
# Shear Modulus (GPa) = -3.96763 21.15043 8.59140
#
# Velocity S-wave (km/s) = -1.43390 3.31065 2.11002
# Velocity P-wave (km/s) = 2.36904 7.23163 5.38093
#
# Compressibility (1/GPa) = 0.06203348
#
# Stress axis : x y z
#
# Youngs Moduli (GPa) = 11.05596 96.76122 130.73779
#
# Poissons Ratio (x) = 1.10555 1.18176
# Poissons Ratio (y) = 0.12632 0.35754
# Poissons Ratio (z) = 0.09994 0.26462
#
# Static dielectric constant tensor:
#      x y z
#    x 1.659780 0.000000 0.000000 
#    y 0.000000 1.652370 0.000000 
#    z 0.000000 0.000000 1.663990 
# 
# From -- ./inp_files/20994.got.cif
#   From: 2010.05.17/outbox.cif.g08.bks.cpg/sg53_11_cif.got.tgz:20994.got - 2010.06.03 12:45:16.
