data_PCOD9417747
_publ_section_title
;
Structure prediction by ZEFSAII (Michael W. Deem and Ramdas Pophale) SiO2 
 PCOD9417747
Probable space group: P M N A
;
_chemical_formula_sum "Si O2"
_cell_formula_units_Z 40
_cell_length_a 9.725976
_cell_length_b 24.423347
_cell_length_c 8.865715
_cell_angle_alpha 90.000000
_cell_angle_beta 90.000000
_cell_angle_gamma 90.000000
_cell_volume 2105.969803
_symmetry_space_group_name_H-M "P M N A"
_symmetry_group_IT_number 53
_symmetry_cell_setting 'orthorhombic'
loop_
_space_group_symop_operation_xyz
x,y,z
1/2-x,-y,1/2+z
x,-y,-z
1/2-x,y,1/2-z
-x,-y,-z
1/2+x,y,1/2-z
-x,y,z
1/2+x,-y,1/2+z
loop_
_atom_site_type_symbol
_atom_site_label
_atom_site_fract_x
_atom_site_fract_y
_atom_site_fract_z
Si Si1 0.500000 0.558576 0.575422
Si Si2 0.252673 0.362360 0.431284
Si Si3 0.662552 0.944650 0.097897
Si Si4 0.338564 0.253235 0.600866
Si Si5 0.836089 0.856889 0.904778
Si Si6 0.000000 0.561087 0.564622
O O1 0.500000 0.500000 0.500000
O O2 0.373778 0.596137 0.533009
O O3 0.500000 0.552505 0.755471
O O4 0.250000 0.351809 0.250000
O O5 0.274821 0.305984 0.517811
O O6 0.124693 0.399367 0.475837
O O7 0.750000 0.954036 0.250000
O O8 0.500000 0.929357 0.124649
O O9 0.750507 0.899672 0.006461
O O10 0.660805 0.000000 0.000000
O O11 0.250000 0.241891 0.750000
O O12 0.500000 0.263304 0.636205
O O13 0.333101 0.201207 0.490205
O O14 0.750000 0.853268 0.750000
O O15 0.000000 0.871452 0.883715
O O16 0.000000 0.500000 0.500000
#
# Coordination Sequence:
#
# PCOD9417747 Si02
#       6
#     4   8   8   8   8   4
#     4  10  20  36  60  82 118 158 191 246 301 360
#     4  10  21  40  60  85 118 157 200 246 304 367
#     4  11  24  42  66  98 136 177 222 271 322 377
#     4  11  25  42  62  91 124 160 204 257 311 369
#     4  11  24  43  67  96 130 170 215 264 320 381
#     4  10  22  36  58  90 116 150 201 246 301 368
#
# _framework density 18.993625999999999
#
# number of rings (size 3 to 8) (size 9 to 14) (size 15 to 20)
#    0.000    1.400    1.000    3.600    1.400    8.000 
#    0.000    0.000    0.000    0.000    0.000    0.000 
#    0.000    0.000    0.000    0.000    0.000    0.000 
#
# Total GULP energy -223240.949944 kJ/mol
# GULP energy per Si atom -5581.023749 kJ/mol
# Density = 1.895040 g / cm^3
# Si number density = 18.993626 Si / 1000 Ang^3
#
#
#
# Elastic Constant Matrix: (Units=GPa)
#
#
# Indices 1 2 3 4 5 6 
#
# 1 211.7966 70.6988 70.7492 0.0000 0.0000 0.0000
# 2 70.6988 115.1986 43.8854 0.0000 0.0000 0.0000
# 3 70.7492 43.8854 96.9752 0.0000 0.0000 0.0000
# 4 0.0000 0.0000 0.0000 43.3926 0.0000 0.0000
# 5 0.0000 0.0000 0.0000 0.0000 31.5096 0.0000
# 6 0.0000 0.0000 0.0000 0.0000 0.0000 36.8540
#
#
#
# Elastic Compliance Matrix: (Units=1/GPa)
#
#
# Indices 1 2 3 4 5 6 
#
# 1 0.006921 -0.002808 -0.003779 0.000000 0.000000 0.000000
# 2 -0.002808 0.011628 -0.003214 0.000000 0.000000 0.000000
# 3 -0.003779 -0.003214 0.014523 0.000000 0.000000 0.000000
# 4 0.000000 0.000000 0.000000 0.023045 0.000000 0.000000
# 5 0.000000 0.000000 0.000000 0.000000 0.031736 0.000000
# 6 0.000000 0.000000 0.000000 0.000000 0.000000 0.027134
#
#
# Mechanical properties :
#
#
# Convention : Reuss Voigt Hill
#
# Bulk Modulus (GPa) = 74.22962 88.29302 81.26132
# Shear Modulus (GPa) = 35.95075 38.26038 37.10557
#
# Velocity S-wave (km/s) = 4.35533 4.49305 4.42473
# Velocity P-wave (km/s) = 8.02858 8.57340 8.30546
#
# Compressibility (1/GPa) = 0.01347171
#
# Stress axis : x y z
#
# Youngs Moduli (GPa) = 144.48638 85.99740 68.85682
#
# Poissons Ratio (x) = 0.24149 0.26018
# Poissons Ratio (y) = 0.40573 0.22128
# Poissons Ratio (z) = 0.54595 0.27636
#
# Static dielectric constant tensor:
#      x y z
#    x 1.629400 0.000000 0.000000 
#    y 0.000000 1.545050 0.000000 
#    z 0.000000 0.000000 1.662060 
# 
# From -- ./inp_files/6353.got.cif
#   From: 2010.05.17/outbox.cif.g08.bks.cpg/sg53_4_cif.got.tgz:6353.got - 2010.06.03 12:45:16.
