data_PCOD9417716
_publ_section_title
;
Structure prediction by ZEFSAII (Michael W. Deem and Ramdas Pophale) SiO2 
 PCOD9417716
Probable space group: P M N A
;
_chemical_formula_sum "Si O2"
_cell_formula_units_Z 36
_cell_length_a 26.760964
_cell_length_b 13.611157
_cell_length_c 5.125463
_cell_angle_alpha 90.000000
_cell_angle_beta 90.000000
_cell_angle_gamma 90.000000
_cell_volume 1866.938019
_symmetry_space_group_name_H-M "P M N A"
_symmetry_group_IT_number 53
_symmetry_cell_setting 'orthorhombic'
loop_
_space_group_symop_operation_xyz
x,y,z
1/2-x,-y,1/2+z
x,-y,-z
1/2-x,y,1/2-z
-x,-y,-z
1/2+x,y,1/2-z
-x,y,z
1/2+x,-y,1/2+z
loop_
_atom_site_type_symbol
_atom_site_label
_atom_site_fract_x
_atom_site_fract_y
_atom_site_fract_z
Si Si1 0.556855 0.568739 0.247923
Si Si2 0.625362 0.000000 0.000000
Si Si3 0.441673 0.153447 0.106478
Si Si4 0.104733 0.760856 0.086778
Si Si5 0.695412 0.106954 0.650484
O O1 0.555614 0.500000 0.500000
O O2 0.500000 0.612265 0.215778
O O3 0.598138 0.652205 0.296821
O O4 0.566457 0.500000 0.000000
O O5 0.588354 0.944308 0.805441
O O6 0.663279 0.081114 0.903003
O O7 0.500000 0.138395 0.114671
O O8 0.424834 0.234850 0.313615
O O9 0.424204 0.176116 0.810836
O O10 0.159896 0.807520 0.033109
O O11 0.750000 0.136206 0.750000
O O12 0.698324 0.000000 0.500000
#
# Coordination Sequence:
#
# PCOD9417716 Si02
#       5
#     8   4   8   8   8
#     4  10  20  36  59  84 113 150 189 234 291 354
#     4  10  21  34  50  80 114 154 197 234 278 342
#     4  11  21  34  53  80 120 156 188 231 284 348
#     4  11  23  37  58  87 116 152 199 241 291 347
#     4  11  21  38  59  81 114 153 202 247 289 336
#
# _framework density 19.282912
#
# number of rings (size 3 to 8) (size 9 to 14) (size 15 to 20)
#    0.000    1.333    3.333    3.667    0.000    1.778 
#    0.000    3.333    0.000    1.333    0.000    0.000 
#    0.000    0.000    0.000    0.000    0.000    0.000 
#
# Total GULP energy -200418.694873 kJ/mol
# GULP energy per Si atom -5567.185969 kJ/mol
# Density = 1.923902 g / cm^3
# Si number density = 19.282912 Si / 1000 Ang^3
#
#
#
# Elastic Constant Matrix: (Units=GPa)
#
#
# Indices 1 2 3 4 5 6 
#
# 1 154.2359 37.8876 20.1139 0.0000 0.0000 0.0000
# 2 37.8876 72.9127 5.6327 0.0000 0.0000 0.0000
# 3 20.1139 5.6327 75.5998 0.0000 0.0000 0.0000
# 4 0.0000 0.0000 0.0000 26.8088 0.0000 0.0000
# 5 0.0000 0.0000 0.0000 0.0000 12.6442 0.0000
# 6 0.0000 0.0000 0.0000 0.0000 0.0000 21.1404
#
#
#
# Elastic Compliance Matrix: (Units=1/GPa)
#
#
# Indices 1 2 3 4 5 6 
#
# 1 0.007656 -0.003843 -0.001751 0.000000 0.000000 0.000000
# 2 -0.003843 0.015723 -0.000149 0.000000 0.000000 0.000000
# 3 -0.001751 -0.000149 0.013704 0.000000 0.000000 0.000000
# 4 0.000000 0.000000 0.000000 0.037301 0.000000 0.000000
# 5 0.000000 0.000000 0.000000 0.000000 0.079088 0.000000
# 6 0.000000 0.000000 0.000000 0.000000 0.000000 0.047303
#
#
# Mechanical properties :
#
#
# Convention : Reuss Voigt Hill
#
# Bulk Modulus (GPa) = 39.06472 47.77963 43.42218
# Shear Modulus (GPa) = 22.64559 28.05963 25.35261
#
# Velocity S-wave (km/s) = 3.43065 3.81879 3.62991
# Velocity P-wave (km/s) = 5.99960 6.65404 6.33527
#
# Compressibility (1/GPa) = 0.02559854
#
# Stress axis : x y z
#
# Youngs Moduli (GPa) = 130.61853 63.59917 72.96923
#
# Poissons Ratio (x) = 0.24441 0.12774
# Poissons Ratio (y) = 0.50196 0.01088
# Poissons Ratio (z) = 0.22866 0.00948
#
# Static dielectric constant tensor:
#      x y z
#    x 1.660950 0.000000 0.000000 
#    y 0.000000 1.797650 0.000000 
#    z 0.000000 0.000000 1.764820 
# 
# From -- ./inp_files/3496.got.cif
#   From: 2010.05.17/outbox.cif.g08.bks.cpg/sg53_2_cif.got.tgz:3496.got - 2010.06.03 12:45:16.
