data_PCOD9417500
_publ_section_title
;
Structure prediction by ZEFSAII (Michael W. Deem and Ramdas Pophale) SiO2 
 PCOD9417500
Probable space group: P M N A
;
_chemical_formula_sum "Si O2"
_cell_formula_units_Z 64
_cell_length_a 32.503151
_cell_length_b 12.361534
_cell_length_c 8.367006
_cell_angle_alpha 90.000000
_cell_angle_beta 90.000000
_cell_angle_gamma 90.000000
_cell_volume 3361.769352
_symmetry_space_group_name_H-M "P M N A"
_symmetry_group_IT_number 53
_symmetry_cell_setting 'orthorhombic'
loop_
_space_group_symop_operation_xyz
x,y,z
1/2-x,-y,1/2+z
x,-y,-z
1/2-x,y,1/2-z
-x,-y,-z
1/2+x,y,1/2-z
-x,y,z
1/2+x,-y,1/2+z
loop_
_atom_site_type_symbol
_atom_site_label
_atom_site_fract_x
_atom_site_fract_y
_atom_site_fract_z
Si Si1 0.573742 0.195986 0.198707
Si Si2 0.568338 0.872212 0.476036
Si Si3 0.545859 0.754624 0.151838
Si Si4 0.138141 0.614161 0.699260
Si Si5 0.652251 0.042963 0.177102
Si Si6 0.840081 0.827001 0.117506
Si Si7 0.369294 0.368508 0.827544
Si Si8 0.794979 0.769024 0.816698
O O1 0.549294 0.179262 0.363479
O O2 0.598217 0.309475 0.217940
O O3 0.607669 0.099467 0.193370
O O4 0.551910 0.195220 0.025896
O O5 0.551495 0.835590 0.303041
O O6 0.616314 0.833915 0.476455
O O7 0.565695 0.000000 0.500000
O O8 0.500000 0.708255 0.160693
O O9 0.583269 0.670437 0.168271
O O10 0.146676 0.624315 0.509246
O O11 0.132453 0.489045 0.741754
O O12 0.175535 0.666039 0.795498
O O13 0.660033 0.941241 0.291869
O O14 0.684979 0.135919 0.211362
O O15 0.655795 0.000000 0.000000
O O16 0.844851 0.724798 0.234501
O O17 0.802252 0.809797 0.997703
O O18 0.750000 0.747744 0.750000
#
# Coordination Sequence:
#
# PCOD9417500 Si02
#       8
#     8   8   8   8   8   8   8   8
#     4  10  20  35  61  85 116 163 206 250 295 361
#     4  11  19  35  60  84 118 165 209 245 288 367
#     4  10  23  39  56  90 127 155 201 261 316 360
#     4   9  18  40  59  86 110 151 208 248 292 364
#     4  11  20  35  61  86 117 160 211 247 286 356
#     4  11  19  36  60  89 115 159 209 245 294 357
#     4   9  20  38  65  80 110 157 206 250 292 362
#     4  11  23  37  56  89 126 151 187 251 310 360
#
# _framework density 19.037593000000001
#
# number of rings (size 3 to 8) (size 9 to 14) (size 15 to 20)
#    0.000    1.750    3.750    3.375    0.000    2.250 
#    0.000   10.000    0.000    0.750    0.000    0.000 
#    0.000    0.000    0.000    0.000    0.000    0.000 
#
# Total GULP energy -356935.623341 kJ/mol
# GULP energy per Si atom -5577.119115 kJ/mol
# Density = 1.899426 g / cm^3
# Si number density = 19.037593 Si / 1000 Ang^3
#
#
#
# Elastic Constant Matrix: (Units=GPa)
#
#
# Indices 1 2 3 4 5 6 
#
# 1 52.9283 -1.0007 3.3884 0.0000 0.0000 0.0000
# 2 -1.0007 90.9111 -3.6895 0.0000 0.0000 0.0000
# 3 3.3884 -3.6895 47.3236 0.0000 0.0000 0.0000
# 4 0.0000 0.0000 0.0000 19.5735 0.0000 0.0000
# 5 0.0000 0.0000 0.0000 0.0000 246.0608 0.0000
# 6 0.0000 0.0000 0.0000 0.0000 0.0000 4.7869
#
#
#
# Elastic Compliance Matrix: (Units=1/GPa)
#
#
# Indices 1 2 3 4 5 6 
#
# 1 0.018983 0.000154 -0.001347 0.000000 0.000000 0.000000
# 2 0.000154 0.011036 0.000849 0.000000 0.000000 0.000000
# 3 -0.001347 0.000849 0.021294 0.000000 0.000000 0.000000
# 4 0.000000 0.000000 0.000000 0.051090 0.000000 0.000000
# 5 0.000000 0.000000 0.000000 0.000000 0.004064 0.000000
# 6 0.000000 0.000000 0.000000 0.000000 0.000000 0.208904
#
#
# Mechanical properties :
#
#
# Convention : Reuss Voigt Hill
#
# Bulk Modulus (GPa) = 19.75296 20.95104 20.35200
# Shear Modulus (GPa) = 15.01807 66.91522 40.96664
#
# Velocity S-wave (km/s) = 2.81172 5.93509 4.64387
# Velocity P-wave (km/s) = 4.57595 7.61551 6.28233
#
# Compressibility (1/GPa) = 0.05062532
#
# Stress axis : x y z
#
# Youngs Moduli (GPa) = 52.67965 90.61314 46.96204
#
# Poissons Ratio (x) = -0.01398 0.06327
# Poissons Ratio (y) = -0.00813 -0.03989
# Poissons Ratio (z) = 0.07097 -0.07696
#
# Static dielectric constant tensor:
#      x y z
#    x 1.661600 0.000000 0.000000 
#    y 0.000000 1.651640 0.000000 
#    z 0.000000 0.000000 1.735500 
# 
# From -- ./inp_files/13265.got.cif
#   From: 2010.05.17/outbox.cif.g08.bks.cpg/sg53_7_cif.got.tgz:13265.got - 2010.06.03 12:45:16.
