data_PCOD9417214
_publ_section_title
;
Structure prediction by ZEFSAII (Michael W. Deem and Ramdas Pophale) SiO2 
 PCOD9417214
Probable space group: P M N A
;
_chemical_formula_sum "Si O2"
_cell_formula_units_Z 36
_cell_length_a 20.221300
_cell_length_b 17.329927
_cell_length_c 5.262097
_cell_angle_alpha 90.000000
_cell_angle_beta 90.000000
_cell_angle_gamma 90.000000
_cell_volume 1844.015873
_symmetry_space_group_name_H-M "P M N A"
_symmetry_group_IT_number 53
_symmetry_cell_setting 'orthorhombic'
loop_
_space_group_symop_operation_xyz
x,y,z
1/2-x,-y,1/2+z
x,-y,-z
1/2-x,y,1/2-z
-x,-y,-z
1/2+x,y,1/2-z
-x,y,z
1/2+x,-y,1/2+z
loop_
_atom_site_type_symbol
_atom_site_label
_atom_site_fract_x
_atom_site_fract_y
_atom_site_fract_z
Si Si1 0.750000 0.804120 0.250000
Si Si2 0.181466 0.076074 0.375467
Si Si3 0.171202 0.449303 0.750090
Si Si4 0.120552 0.719369 0.199891
Si Si5 0.074900 0.195606 0.280076
O O1 0.789291 0.860309 0.434785
O O2 0.694271 0.750380 0.369769
O O3 0.250000 0.047622 0.250000
O O4 0.125819 0.124633 0.227323
O O5 0.150784 0.000000 0.500000
O O6 0.158233 0.500000 0.500000
O O7 0.250000 0.429860 0.750000
O O8 0.128742 0.371379 0.756916
O O9 0.158590 0.500000 0.000000
O O10 0.095707 0.760336 0.459399
O O11 0.078802 0.746260 0.957792
O O12 0.000000 0.167257 0.309273
#
# Coordination Sequence:
#
# PCOD9417214 Si02
#       5
#     4   8   8   8   8
#     4  10  20  34  58  92 116 160 200 256 304 356
#     4  11  21  37  62  90 126 158 207 261 317 371
#     4  10  20  34  57  94 130 156 194 255 321 370
#     4  11  21  39  64  87 127 160 209 253 308 367
#     4  11  25  41  62  90 124 169 212 254 307 372
#
# _framework density 19.522608999999999
#
# number of rings (size 3 to 8) (size 9 to 14) (size 15 to 20)
#    0.000    1.333    4.444    2.000    0.000    0.444 
#    0.000    0.000    0.000   18.000    0.000    0.000 
#    0.000    0.000    0.000    0.000    0.000    0.000 
#
# Total GULP energy -200734.545107 kJ/mol
# GULP energy per Si atom -5575.959586 kJ/mol
# Density = 1.947817 g / cm^3
# Si number density = 19.522609 Si / 1000 Ang^3
#
#
#
# Elastic Constant Matrix: (Units=GPa)
#
#
# Indices 1 2 3 4 5 6 
#
# 1 89.1509 31.2241 16.5212 0.0000 0.0000 0.0000
# 2 31.2241 100.2588 34.0431 0.0000 0.0000 0.0000
# 3 16.5212 34.0431 106.5354 0.0000 0.0000 0.0000
# 4 0.0000 0.0000 0.0000 19.0439 0.0000 0.0000
# 5 0.0000 0.0000 0.0000 0.0000 6.4993 0.0000
# 6 0.0000 0.0000 0.0000 0.0000 0.0000 14.5398
#
#
#
# Elastic Compliance Matrix: (Units=1/GPa)
#
#
# Indices 1 2 3 4 5 6 
#
# 1 0.012649 -0.003672 -0.000788 0.000000 0.000000 0.000000
# 2 -0.003672 0.012254 -0.003346 0.000000 0.000000 0.000000
# 3 -0.000788 -0.003346 0.010578 0.000000 0.000000 0.000000
# 4 0.000000 0.000000 0.000000 0.052510 0.000000 0.000000
# 5 0.000000 0.000000 0.000000 0.000000 0.153862 0.000000
# 6 0.000000 0.000000 0.000000 0.000000 0.000000 0.068777
#
#
# Mechanical properties :
#
#
# Convention : Reuss Voigt Hill
#
# Bulk Modulus (GPa) = 50.33108 51.05802 50.69455
# Shear Modulus (GPa) = 15.02109 22.29373 18.65741
#
# Velocity S-wave (km/s) = 2.77685 3.38293 3.09476
# Velocity P-wave (km/s) = 6.00983 6.43964 6.22845
#
# Compressibility (1/GPa) = 0.01986844
#
# Stress axis : x y z
#
# Youngs Moduli (GPa) = 79.05777 81.60653 94.53491
#
# Poissons Ratio (x) = 0.29963 0.07452
# Poissons Ratio (y) = 0.29027 0.31634
# Poissons Ratio (z) = 0.06232 0.27308
#
# Static dielectric constant tensor:
#      x y z
#    x 1.726880 0.000000 0.000000 
#    y 0.000000 1.689290 0.000000 
#    z 0.000000 0.000000 2.571540 
# 
# From -- ./inp_files/2756.got.cif
#   From: 2010.05.17/outbox.cif.g08.bks.cpg/sg53_2_cif.got.tgz:2756.got - 2010.06.03 12:45:16.
