data_PCOD9417404
_publ_section_title
;
Structure prediction by ZEFSAII (Michael W. Deem and Ramdas Pophale) SiO2 
 PCOD9417404
Probable space group: P M N A
;
_chemical_formula_sum "Si O2"
_cell_formula_units_Z 64
_cell_length_a 18.266305
_cell_length_b 7.501847
_cell_length_c 20.584492
_cell_angle_alpha 90.000000
_cell_angle_beta 90.000000
_cell_angle_gamma 90.000000
_cell_volume 2820.714045
_symmetry_space_group_name_H-M "P M N A"
_symmetry_group_IT_number 53
_symmetry_cell_setting 'orthorhombic'
loop_
_space_group_symop_operation_xyz
x,y,z
1/2-x,-y,1/2+z
x,-y,-z
1/2-x,y,1/2-z
-x,-y,-z
1/2+x,y,1/2-z
-x,y,z
1/2+x,-y,1/2+z
loop_
_atom_site_type_symbol
_atom_site_label
_atom_site_fract_x
_atom_site_fract_y
_atom_site_fract_z
Si Si1 0.666448 0.284834 0.986350
Si Si2 0.917868 0.206448 0.140583
Si Si3 0.582167 0.787053 0.388210
Si Si4 0.168503 0.855194 0.738851
Si Si5 0.917196 0.644686 0.361206
Si Si6 0.417156 0.221905 0.111382
Si Si7 0.331273 0.276629 0.733469
Si Si8 0.830938 0.290648 0.013358
O O1 0.636225 0.262639 0.913592
O O2 0.665688 0.500000 0.000000
O O3 0.613721 0.195774 0.039297
O O4 0.749168 0.222520 0.999132
O O5 0.887079 0.242744 0.212281
O O6 0.860851 0.263189 0.085472
O O7 0.000000 0.277361 0.130580
O O8 0.922337 0.992221 0.133631
O O9 0.500000 0.712192 0.385818
O O10 0.637077 0.688446 0.338368
O O11 0.613438 0.787800 0.460637
O O12 0.250000 0.782172 0.750000
O O13 0.138097 0.846893 0.666208
O O14 0.171907 0.062166 0.759081
O O15 0.919132 0.435769 0.378515
O O16 0.886662 0.661927 0.289004
O O17 0.000000 0.713967 0.366408
O O18 0.500000 0.154502 0.119840
O O19 0.250000 0.345189 0.750000
O O20 0.829445 0.500000 0.000000
#
# Coordination Sequence:
#
# PCOD9417404 Si02
#       8
#     8   8   8   8   8   8   8   8
#     4   9  19  36  55  78 110 143 174 214 268 323
#     4  10  21  37  55  75 105 144 177 210 263 325
#     4  10  21  37  55  75 105 144 177 210 263 325
#     4  10  21  37  57  81 109 142 180 222 268 318
#     4  10  20  35  57  82 108 142 181 219 263 318
#     4  10  20  35  57  82 108 142 181 219 263 318
#     4  10  21  37  57  81 109 142 180 222 268 318
#     4  11  22  35  55  81 106 135 176 226 268 305
#
# _framework density 22.689291000000001
#
# number of rings (size 3 to 8) (size 9 to 14) (size 15 to 20)
#    0.000    2.000    0.000    3.375    0.000    6.500 
#    0.000    1.875    0.000    1.500    0.000    0.000 
#    0.000    0.000    0.000    0.000    0.000    0.000 
#
# Total GULP energy -357913.429031 kJ/mol
# GULP energy per Si atom -5592.397329 kJ/mol
# Density = 2.263765 g / cm^3
# Si number density = 22.689291 Si / 1000 Ang^3
#
#
#
# Elastic Constant Matrix: (Units=GPa)
#
#
# Indices 1 2 3 4 5 6 
#
# 1 119.3915 12.6796 3.5989 0.0000 0.0000 0.0000
# 2 12.6796 38.6492 2.9731 0.0000 0.0000 0.0000
# 3 3.5989 2.9731 81.3551 0.0000 0.0000 0.0000
# 4 0.0000 0.0000 0.0000 14.4669 0.0000 0.0000
# 5 0.0000 0.0000 0.0000 0.0000 40.2825 0.0000
# 6 0.0000 0.0000 0.0000 0.0000 0.0000 -202.8859
#
#
#
# Elastic Compliance Matrix: (Units=1/GPa)
#
#
# Indices 1 2 3 4 5 6 
#
# 1 0.008685 -0.002828 -0.000281 0.000000 0.000000 0.000000
# 2 -0.002828 0.026867 -0.000857 0.000000 0.000000 0.000000
# 3 -0.000281 -0.000857 0.012336 0.000000 0.000000 0.000000
# 4 0.000000 0.000000 0.000000 0.069124 0.000000 0.000000
# 5 0.000000 0.000000 0.000000 0.000000 0.024825 0.000000
# 6 0.000000 0.000000 0.000000 0.000000 0.000000 -0.004929
#
#
# Mechanical properties :
#
#
# Convention : Reuss Voigt Hill
#
# Bulk Modulus (GPa) = 25.02684 30.87767 27.95226
# Shear Modulus (GPa) = 31.61435 -14.95102 8.33167
#
# Velocity S-wave (km/s) = 3.73682 -2.56978 1.91834
# Velocity P-wave (km/s) = 5.44726 2.19851 4.15368
#
# Compressibility (1/GPa) = 0.03995709
#
# Stress axis : x y z
#
# Youngs Moduli (GPa) = 115.14688 37.21995 81.06670
#
# Poissons Ratio (x) = 0.10524 0.02277
# Poissons Ratio (y) = 0.32558 0.06945
# Poissons Ratio (z) = 0.03234 0.03189
#
# Static dielectric constant tensor:
#      x y z
#    x 1.838200 0.000000 0.000000 
#    y 0.000000 1.913000 0.000000 
#    z 0.000000 0.000000 1.795160 
# 
# From -- ./inp_files/32824.got.cif
#   From: 2010.05.17/outbox.cif.g08.bks.cpg/sg53_17_cif.got.tgz:32824.got - 2010.06.03 12:45:16.
