data_PCOD9417293
_publ_section_title
;
Structure prediction by ZEFSAII (Michael W. Deem and Ramdas Pophale) SiO2 
 PCOD9417293
Probable space group: P M N A
;
_chemical_formula_sum "Si O2"
_cell_formula_units_Z 64
_cell_length_a 8.680153
_cell_length_b 20.011054
_cell_length_c 21.117500
_cell_angle_alpha 90.000000
_cell_angle_beta 90.000000
_cell_angle_gamma 90.000000
_cell_volume 3668.088852
_symmetry_space_group_name_H-M "P M N A"
_symmetry_group_IT_number 53
_symmetry_cell_setting 'orthorhombic'
loop_
_space_group_symop_operation_xyz
x,y,z
1/2-x,-y,1/2+z
x,-y,-z
1/2-x,y,1/2-z
-x,-y,-z
1/2+x,y,1/2-z
-x,y,z
1/2+x,-y,1/2+z
loop_
_atom_site_type_symbol
_atom_site_label
_atom_site_fract_x
_atom_site_fract_y
_atom_site_fract_z
Si Si1 0.815260 0.540903 0.564209
Si Si2 0.184165 0.324034 0.632047
Si Si3 0.814997 0.043121 0.683485
Si Si4 0.183967 0.824007 0.984768
Si Si5 0.685353 0.673463 0.510352
Si Si6 0.684815 0.819791 0.366141
Si Si7 0.683832 0.540175 0.316974
Si Si8 0.314623 0.958858 0.938451
O O1 0.776697 0.500000 0.500000
O O2 0.748407 0.614774 0.554063
O O3 0.744722 0.503907 0.624595
O O4 0.000000 0.542569 0.569774
O O5 0.241149 0.333602 0.559502
O O6 0.244260 0.251361 0.653120
O O7 0.255151 0.384678 0.671394
O O8 0.000000 0.326716 0.634312
O O9 0.750000 0.018309 0.750000
O O10 0.751223 0.117476 0.671170
O O11 0.000000 0.045262 0.684838
O O12 0.764184 0.996415 0.625100
O O13 0.224724 0.748162 0.966199
O O14 0.224934 0.830420 0.059379
O O15 0.000000 0.830878 0.980246
O O16 0.260754 0.883000 0.945743
O O17 0.500000 0.669242 0.503970
O O18 0.500000 0.816793 0.360829
O O19 0.750000 0.515918 0.250000
O O20 0.500000 0.539984 0.316109
O O21 0.500000 0.960180 0.939453
O O22 0.258487 0.000000 0.000000
#
# Coordination Sequence:
#
# PCOD9417293 Si02
#       8
#     8   8   8   8   8   8   8   8
#     4  11  22  37  60  89 117 150 194 237 284 338
#     4  11  21  35  55  82 115 152 192 233 277 333
#     4  11  23  38  55  79 111 148 187 229 278 332
#     4   9  19  33  54  84 114 143 182 230 278 331
#     4  10  20  35  56  86 117 149 188 233 287 336
#     4  10  20  35  54  80 112 149 189 228 275 332
#     4  12  25  41  60  83 116 154 193 238 287 340
#     4  10  20  35  56  82 110 143 184 231 280 330
#
# _framework density 17.447779000000001
#
# number of rings (size 3 to 8) (size 9 to 14) (size 15 to 20)
#    0.000    1.500    2.500    4.500    0.000    4.750 
#    0.000    2.500    0.000    0.750    0.000    1.750 
#    0.000    0.000    0.000    0.000    0.000    0.000 
#
# Total GULP energy -357616.661251 kJ/mol
# GULP energy per Si atom -5587.760332 kJ/mol
# Density = 1.740807 g / cm^3
# Si number density = 17.447779 Si / 1000 Ang^3
#
#
#
# Elastic Constant Matrix: (Units=GPa)
#
#
# Indices 1 2 3 4 5 6 
#
# 1 85.0463 41.6143 49.6417 0.0000 0.0000 0.0000
# 2 41.6143 115.6050 67.9144 0.0000 0.0000 0.0000
# 3 49.6417 67.9144 119.0493 0.0000 0.0000 0.0000
# 4 0.0000 0.0000 0.0000 22.1893 0.0000 0.0000
# 5 0.0000 0.0000 0.0000 0.0000 30.3739 0.0000
# 6 0.0000 0.0000 0.0000 0.0000 0.0000 31.5258
#
#
#
# Elastic Compliance Matrix: (Units=1/GPa)
#
#
# Indices 1 2 3 4 5 6 
#
# 1 0.016117 -0.002788 -0.005130 0.000000 0.000000 0.000000
# 2 -0.002788 0.013493 -0.006535 0.000000 0.000000 0.000000
# 3 -0.005130 -0.006535 0.014267 0.000000 0.000000 0.000000
# 4 0.000000 0.000000 0.000000 0.045067 0.000000 0.000000
# 5 0.000000 0.000000 0.000000 0.000000 0.032923 0.000000
# 6 0.000000 0.000000 0.000000 0.000000 0.000000 0.031720
#
#
# Mechanical properties :
#
#
# Convention : Reuss Voigt Hill
#
# Bulk Modulus (GPa) = 66.79504 70.89349 68.84427
# Shear Modulus (GPa) = 26.66925 27.51981 27.09453
#
# Velocity S-wave (km/s) = 3.91387 3.97579 3.94495
# Velocity P-wave (km/s) = 7.66749 7.86104 7.76487
#
# Compressibility (1/GPa) = 0.01497117
#
# Stress axis : x y z
#
# Youngs Moduli (GPa) = 62.04681 74.11475 70.09210
#
# Poissons Ratio (x) = 0.20662 0.35958
# Poissons Ratio (y) = 0.17297 0.45803
# Poissons Ratio (z) = 0.31831 0.48432
#
# Static dielectric constant tensor:
#      x y z
#    x 1.582250 0.000000 0.000000 
#    y 0.000000 1.587250 0.000000 
#    z 0.000000 0.000000 1.592630 
# 
# From -- ./inp_files/31292.got.cif
#   From: 2010.05.17/outbox.cif.g08.bks.cpg/sg53_16_cif.got.tgz:31292.got - 2010.06.03 12:45:16.
