data_PCOD9417547
_publ_section_title
;
Structure prediction by ZEFSAII (Michael W. Deem and Ramdas Pophale) SiO2 
 PCOD9417547
Probable space group: P M N A
;
_chemical_formula_sum "Si O2"
_cell_formula_units_Z 48
_cell_length_a 8.299586
_cell_length_b 32.100120
_cell_length_c 9.524864
_cell_angle_alpha 90.000000
_cell_angle_beta 90.000000
_cell_angle_gamma 90.000000
_cell_volume 2537.592422
_symmetry_space_group_name_H-M "P M N A"
_symmetry_group_IT_number 53
_symmetry_cell_setting 'orthorhombic'
loop_
_space_group_symop_operation_xyz
x,y,z
1/2-x,-y,1/2+z
x,-y,-z
1/2-x,y,1/2-z
-x,-y,-z
1/2+x,y,1/2-z
-x,y,z
1/2+x,-y,1/2+z
loop_
_atom_site_type_symbol
_atom_site_label
_atom_site_fract_x
_atom_site_fract_y
_atom_site_fract_z
Si Si1 0.193123 0.802398 0.590108
Si Si2 0.805355 0.708753 0.591204
Si Si3 0.692453 0.120120 0.589824
Si Si4 0.194875 0.040404 0.088746
Si Si5 0.805318 0.631062 0.410083
Si Si6 0.194770 0.539099 0.410350
O O1 0.250000 0.810557 0.750000
O O2 0.247853 0.755495 0.550017
O O3 0.255079 0.837157 0.484102
O O4 0.000000 0.803191 0.589837
O O5 0.750000 0.702221 0.750000
O O6 0.745279 0.670660 0.496980
O O7 0.000000 0.708632 0.586714
O O8 0.750000 0.116938 0.750000
O O9 0.500000 0.118368 0.591003
O O10 0.751785 0.081652 0.493663
O O11 0.250000 0.039353 0.250000
O O12 0.000000 0.040635 0.089448
O O13 0.247900 0.000000 0.000000
O O14 0.750000 0.634626 0.250000
O O15 0.752941 0.585106 0.462190
O O16 0.000000 0.631642 0.413853
O O17 0.254646 0.500000 0.500000
O O18 0.250000 0.535105 0.250000
O O19 0.000000 0.538510 0.413261
#
# Coordination Sequence:
#
# PCOD9417547 Si02
#       6
#     8   8   8   8   8   8
#     4  10  20  36  56  78 106 139 176 217 262 311
#     4   9  19  34  52  75 102 133 169 210 254 302
#     4  11  23  38  57  82 111 143 180 220 264 313
#     4  10  22  39  59  84 112 143 179 218 262 311
#     4   9  18  33  50  70  98 130 165 204 249 300
#     4   9  18  32  49  70  97 128 162 203 249 298
#
# _framework density 18.915568
#
# number of rings (size 3 to 8) (size 9 to 14) (size 15 to 20)
#    0.000    2.333    0.000    2.000    0.000    6.000 
#    0.000    1.667    0.000    0.000    0.000    0.000 
#    0.000    0.000    0.000    0.000    0.000    0.000 
#
# Total GULP energy -267841.148253 kJ/mol
# GULP energy per Si atom -5580.023922 kJ/mol
# Density = 1.887252 g / cm^3
# Si number density = 18.915568 Si / 1000 Ang^3
#
#
#
# Elastic Constant Matrix: (Units=GPa)
#
#
# Indices 1 2 3 4 5 6 
#
# 1 14.7787 24.5764 15.4497 0.0000 0.0000 0.0000
# 2 24.5764 210.7342 124.9888 0.0000 0.0000 0.0000
# 3 15.4497 124.9888 131.7900 0.0000 0.0000 0.0000
# 4 0.0000 0.0000 0.0000 43.1525 0.0000 0.0000
# 5 0.0000 0.0000 0.0000 0.0000 34.3719 0.0000
# 6 0.0000 0.0000 0.0000 0.0000 0.0000 20.1051
#
#
#
# Elastic Compliance Matrix: (Units=1/GPa)
#
#
# Indices 1 2 3 4 5 6 
#
# 1 0.084038 -0.009046 -0.001273 0.000000 0.000000 0.000000
# 2 -0.009046 0.011820 -0.010150 0.000000 0.000000 0.000000
# 3 -0.001273 -0.010150 0.017363 0.000000 0.000000 0.000000
# 4 0.000000 0.000000 0.000000 0.023174 0.000000 0.000000
# 5 0.000000 0.000000 0.000000 0.000000 0.029094 0.000000
# 6 0.000000 0.000000 0.000000 0.000000 0.000000 0.049739
#
#
# Mechanical properties :
#
#
# Convention : Reuss Voigt Hill
#
# Bulk Modulus (GPa) = 13.83420 76.37031 45.10225
# Shear Modulus (GPa) = 17.84064 32.34509 25.09287
#
# Velocity S-wave (km/s) = 3.07444 4.13967 3.64617
# Velocity P-wave (km/s) = 4.46458 7.95683 6.45149
#
# Compressibility (1/GPa) = 0.07228465
#
# Stress axis : x y z
#
# Youngs Moduli (GPa) = 11.89935 84.60080 57.59371
#
# Poissons Ratio (x) = 0.76529 0.07330
# Poissons Ratio (y) = 0.10764 0.58456
# Poissons Ratio (z) = 0.01514 0.85868
#
# Static dielectric constant tensor:
#      x y z
#    x 1.658070 0.000000 0.000000 
#    y 0.000000 1.692870 0.000000 
#    z 0.000000 0.000000 1.590430 
# 
# From -- ./inp_files/6613.got.cif
#   From: 2010.05.17/outbox.cif.g08.bks.cpg/sg53_4_cif.got.tgz:6613.got - 2010.06.03 12:45:16.
