data_PCOD9417265
_publ_section_title
;
Structure prediction by ZEFSAII (Michael W. Deem and Ramdas Pophale) SiO2 
 PCOD9417265
Probable space group: P M N A
;
_chemical_formula_sum "Si O2"
_cell_formula_units_Z 40
_cell_length_a 15.474531
_cell_length_b 15.397333
_cell_length_c 7.342870
_cell_angle_alpha 90.000000
_cell_angle_beta 90.000000
_cell_angle_gamma 90.000000
_cell_volume 1749.559985
_symmetry_space_group_name_H-M "P M N A"
_symmetry_group_IT_number 53
_symmetry_cell_setting 'orthorhombic'
loop_
_space_group_symop_operation_xyz
x,y,z
1/2-x,-y,1/2+z
x,-y,-z
1/2-x,y,1/2-z
-x,-y,-z
1/2+x,y,1/2-z
-x,y,z
1/2+x,-y,1/2+z
loop_
_atom_site_type_symbol
_atom_site_label
_atom_site_fract_x
_atom_site_fract_y
_atom_site_fract_z
Si Si1 0.599863 0.266269 0.464327
Si Si2 0.599879 0.281947 0.021202
Si Si3 0.331083 0.089674 0.390520
Si Si4 0.404320 0.091555 0.029034
Si Si5 0.743462 0.602012 0.532788
O O1 0.500000 0.264960 0.525629
O O2 0.598289 0.277580 0.242970
O O3 0.650813 0.176476 0.505043
O O4 0.658914 0.345688 0.531769
O O5 0.500000 0.295935 0.965130
O O6 0.629957 0.184463 0.966088
O O7 0.668857 0.353040 0.960903
O O8 0.250000 0.100694 0.250000
O O9 0.409133 0.091547 0.246886
O O10 0.329516 0.000000 0.500000
O O11 0.500000 0.085595 0.946836
O O12 0.357348 0.000000 0.000000
O O13 0.738825 0.500000 0.500000
O O14 0.750000 0.614080 0.750000
#
# Coordination Sequence:
#
# PCOD9417265 Si02
#       5
#     8   8   8   8   8
#     4   9  18  34  55  75 100 139 181 216 257 319
#     4   8  15  30  53  77 103 139 177 208 249 318
#     4  11  21  33  52  78 107 140 179 219 262 316
#     4   9  17  31  52  77 106 140 176 213 254 307
#     4  10  20  35  54  75 100 131 172 221 270 318
#
# _framework density 22.862891999999999
#
# number of rings (size 3 to 8) (size 9 to 14) (size 15 to 20)
#    0.000    2.600    0.000    5.400    0.000    2.400 
#    0.000    3.000    0.000    2.400    0.000    0.000 
#    0.000    0.000    0.000    0.000    0.000    0.000 
#
# Total GULP energy -222898.363668 kJ/mol
# GULP energy per Si atom -5572.459092 kJ/mol
# Density = 2.281086 g / cm^3
# Si number density = 22.862892 Si / 1000 Ang^3
#
#
#
# Elastic Constant Matrix: (Units=GPa)
#
#
# Indices 1 2 3 4 5 6 
#
# 1 187.3974 118.5647 12.5030 0.0000 0.0000 0.0000
# 2 118.5647 253.5785 9.4052 0.0000 0.0000 0.0000
# 3 12.5030 9.4052 56.8930 0.0000 0.0000 0.0000
# 4 0.0000 0.0000 0.0000 27.8273 0.0000 0.0000
# 5 0.0000 0.0000 0.0000 0.0000 -15.3976 0.0000
# 6 0.0000 0.0000 0.0000 0.0000 0.0000 2.4462
#
#
#
# Elastic Compliance Matrix: (Units=1/GPa)
#
#
# Indices 1 2 3 4 5 6 
#
# 1 0.007645 -0.003534 -0.001096 0.000000 0.000000 0.000000
# 2 -0.003534 0.005601 -0.000149 0.000000 0.000000 0.000000
# 3 -0.001096 -0.000149 0.017842 0.000000 0.000000 0.000000
# 4 0.000000 0.000000 0.000000 0.035936 0.000000 0.000000
# 5 0.000000 0.000000 0.000000 0.000000 -0.064945 0.000000
# 6 0.000000 0.000000 0.000000 0.000000 0.000000 0.408796
#
#
# Mechanical properties :
#
#
# Convention : Reuss Voigt Hill
#
# Bulk Modulus (GPa) = 46.44566 86.53498 66.49032
# Shear Modulus (GPa) = 11.69286 26.80160 19.24723
#
# Velocity S-wave (km/s) = 2.26394 3.42756 2.90462
# Velocity P-wave (km/s) = 5.21468 7.32093 6.35566
#
# Compressibility (1/GPa) = 0.02153054
#
# Stress axis : x y z
#
# Youngs Moduli (GPa) = 130.79866 178.52383 56.04631
#
# Poissons Ratio (x) = 0.63091 0.06142
# Poissons Ratio (y) = 0.46225 0.00837
# Poissons Ratio (z) = 0.14335 0.02666
#
# Static dielectric constant tensor:
#      x y z
#    x 1.910840 0.000000 0.000000 
#    y 0.000000 1.892560 0.000000 
#    z 0.000000 0.000000 1.919010 
# 
# From -- ./inp_files/9805.got.cif
#   From: 2010.05.17/outbox.cif.g08.bks.cpg/sg53_5_cif.got.tgz:9805.got - 2010.06.03 12:45:16.
