data_PCOD9417340
_publ_section_title
;
Structure prediction by ZEFSAII (Michael W. Deem and Ramdas Pophale) SiO2 
 PCOD9417340
Probable space group: P M N A
;
_chemical_formula_sum "Si O2"
_cell_formula_units_Z 48
_cell_length_a 14.603912
_cell_length_b 17.971600
_cell_length_c 9.529073
_cell_angle_alpha 90.000000
_cell_angle_beta 90.000000
_cell_angle_gamma 90.000000
_cell_volume 2500.959190
_symmetry_space_group_name_H-M "P M N A"
_symmetry_group_IT_number 53
_symmetry_cell_setting 'orthorhombic'
loop_
_space_group_symop_operation_xyz
x,y,z
1/2-x,-y,1/2+z
x,-y,-z
1/2-x,y,1/2-z
-x,-y,-z
1/2+x,y,1/2-z
-x,y,z
1/2+x,-y,1/2+z
loop_
_atom_site_type_symbol
_atom_site_label
_atom_site_fract_x
_atom_site_fract_y
_atom_site_fract_z
Si Si1 0.000000 0.361242 0.677848
Si Si2 0.296965 0.929338 0.602696
Si Si3 0.500000 0.520854 0.662496
Si Si4 0.000000 0.187065 0.749351
Si Si5 0.193762 0.165474 0.616959
Si Si6 0.293766 0.340727 0.898926
Si Si7 0.500000 0.911152 0.535146
Si Si8 0.308752 0.563741 0.617229
O O1 0.000000 0.440377 0.760764
O O2 0.000000 0.279195 0.758129
O O3 0.901982 0.361074 0.598145
O O4 0.250000 0.947331 0.750000
O O5 0.229727 0.873052 0.521986
O O6 0.402024 0.899479 0.612396
O O7 0.301186 0.000000 0.500000
O O8 0.500000 0.500000 0.500000
O O9 0.409960 0.570008 0.680424
O O10 0.911601 0.161963 0.661550
O O11 0.000000 0.143150 0.897912
O O12 0.250000 0.134952 0.750000
O O13 0.214756 0.252450 0.603351
O O14 0.250000 0.367459 0.750000
O O15 0.236928 0.369632 0.031495
O O16 0.500000 0.000000 0.500000
O O17 0.309130 0.500000 0.500000
O O18 0.250000 0.542047 0.750000
#
# Coordination Sequence:
#
# PCOD9417340 Si02
#       8
#     4   8   4   4   8   8   4   8
#     4  10  20  37  63  91 120 158 207 259 305 374
#     4  11  24  41  63  91 132 169 215 263 315 376
#     4  10  20  35  55  83 118 152 204 240 303 369
#     4  10  20  37  67  97 125 161 217 265 315 389
#     4  10  20  38  63  90 120 164 209 265 320 378
#     4  10  21  37  60  88 119 154 203 254 312 372
#     4  10  22  39  63  94 131 167 213 258 317 377
#     4  11  22  37  56  82 118 156 199 255 307 370
#
# _framework density 19.192634999999999
#
# number of rings (size 3 to 8) (size 9 to 14) (size 15 to 20)
#    0.000    1.667    1.667    4.000    2.333    2.000 
#    0.000    2.500    0.000    0.000    0.000    0.000 
#    0.000    0.000    0.000    0.000    0.000    0.000 
#
# Total GULP energy -267418.264310 kJ/mol
# GULP energy per Si atom -5571.213840 kJ/mol
# Density = 1.914895 g / cm^3
# Si number density = 19.192635 Si / 1000 Ang^3
#
#
#
# Elastic Constant Matrix: (Units=GPa)
#
#
# Indices 1 2 3 4 5 6 
#
# 1 181.4464 49.5056 66.7011 0.0000 0.0000 0.0000
# 2 49.5056 65.9560 34.2181 0.0000 0.0000 0.0000
# 3 66.7011 34.2181 95.7149 0.0000 0.0000 0.0000
# 4 0.0000 0.0000 0.0000 34.8343 0.0000 0.0000
# 5 0.0000 0.0000 0.0000 0.0000 19.4163 0.0000
# 6 0.0000 0.0000 0.0000 0.0000 0.0000 32.5470
#
#
#
# Elastic Compliance Matrix: (Units=1/GPa)
#
#
# Indices 1 2 3 4 5 6 
#
# 1 0.008149 -0.003892 -0.004288 0.000000 0.000000 0.000000
# 2 -0.003892 0.020473 -0.004607 0.000000 0.000000 0.000000
# 3 -0.004288 -0.004607 0.015082 0.000000 0.000000 0.000000
# 4 0.000000 0.000000 0.000000 0.028707 0.000000 0.000000
# 5 0.000000 0.000000 0.000000 0.000000 0.051503 0.000000
# 6 0.000000 0.000000 0.000000 0.000000 0.000000 0.030725
#
#
# Mechanical properties :
#
#
# Convention : Reuss Voigt Hill
#
# Bulk Modulus (GPa) = 55.15182 71.55190 63.35186
# Shear Modulus (GPa) = 26.84458 30.20570 28.52514
#
# Velocity S-wave (km/s) = 3.74397 3.97144 3.85938
# Velocity P-wave (km/s) = 6.89116 7.64144 7.27598
#
# Compressibility (1/GPa) = 0.01813177
#
# Stress axis : x y z
#
# Youngs Moduli (GPa) = 122.70817 48.84446 66.30219
#
# Poissons Ratio (x) = 0.19012 0.28427
# Poissons Ratio (y) = 0.47763 0.30543
# Poissons Ratio (z) = 0.52612 0.22501
#
# Static dielectric constant tensor:
#      x y z
#    x 1.624570 0.000000 0.000000 
#    y 0.000000 1.725860 0.000000 
#    z 0.000000 0.000000 1.644210 
# 
# From -- ./inp_files/8772.got.cif
#   From: 2010.05.17/outbox.cif.g08.bks.cpg/sg53_5_cif.got.tgz:8772.got - 2010.06.03 12:45:16.
