data_PCOD9417819
_publ_section_title
;
Structure prediction by ZEFSAII (Michael W. Deem and Ramdas Pophale) SiO2 
 PCOD9417819
Probable space group: P M N A
;
_chemical_formula_sum "Si O2"
_cell_formula_units_Z 56
_cell_length_a 9.387617
_cell_length_b 18.779755
_cell_length_c 16.256965
_cell_angle_alpha 90.000000
_cell_angle_beta 90.000000
_cell_angle_gamma 90.000000
_cell_volume 2866.056553
_symmetry_space_group_name_H-M "P M N A"
_symmetry_group_IT_number 53
_symmetry_cell_setting 'orthorhombic'
loop_
_space_group_symop_operation_xyz
x,y,z
1/2-x,-y,1/2+z
x,-y,-z
1/2-x,y,1/2-z
-x,-y,-z
1/2+x,y,1/2-z
-x,y,z
1/2+x,-y,1/2+z
loop_
_atom_site_type_symbol
_atom_site_label
_atom_site_fract_x
_atom_site_fract_y
_atom_site_fract_z
Si Si1 0.334225 0.085177 0.494030
Si Si2 0.329665 0.842143 0.332584
Si Si3 0.339022 0.720689 0.930418
Si Si4 0.828389 0.547887 0.419457
Si Si5 0.831784 0.302486 0.915570
Si Si6 0.332748 0.140956 0.165714
Si Si7 0.835850 0.585818 0.675322
O O1 0.500000 0.107454 0.480761
O O2 0.288244 0.117397 0.582684
O O3 0.239486 0.107612 0.415808
O O4 0.330860 0.000000 0.500000
O O5 0.250000 0.866084 0.250000
O O6 0.500000 0.851503 0.323106
O O7 0.301123 0.758020 0.348140
O O8 0.500000 0.730879 0.964209
O O9 0.324990 0.774541 0.854711
O O10 0.326227 0.639730 0.900494
O O11 0.221336 0.732424 0.999033
O O12 0.794447 0.500000 0.500000
O O13 0.751556 0.623090 0.409659
O O14 0.786890 0.493074 0.347560
O O15 0.000000 0.558246 0.419847
O O16 0.000000 0.315581 0.917252
O O17 0.250000 0.124190 0.250000
O O18 0.500000 0.121703 0.172021
O O19 0.750000 0.616826 0.750000
O O20 0.000000 0.581453 0.698181
#
# Coordination Sequence:
#
# PCOD9417819 Si02
#       7
#     8   8   8   8   8   8   8
#     4  10  22  43  68  94 129 166 202 251 307 363
#     4  10  23  42  64  92 123 161 207 254 307 363
#     4  10  20  37  59  84 115 157 200 239 298 362
#     4  10  20  37  57  76 108 152 196 242 299 366
#     4  11  22  36  59  88 116 148 199 259 304 355
#     4  11  23  38  63  95 129 166 205 251 300 363
#     4  10  21  36  54  78 110 147 189 239 294 354
#
# _framework density 19.539041000000001
#
# number of rings (size 3 to 8) (size 9 to 14) (size 15 to 20)
#    0.000    1.714    2.857    1.286    0.000    5.143 
#    0.000    4.286    0.000    0.000    0.000    0.000 
#    0.000    0.000    0.000    0.000    0.000    0.000 
#
# Total GULP energy -312382.727834 kJ/mol
# GULP energy per Si atom -5578.262997 kJ/mol
# Density = 1.949457 g / cm^3
# Si number density = 19.539041 Si / 1000 Ang^3
#
#
#
# Elastic Constant Matrix: (Units=GPa)
#
#
# Indices 1 2 3 4 5 6 
#
# 1 67.4841 38.3287 68.1573 0.0000 0.0000 0.0000
# 2 38.3287 81.4485 36.2815 0.0000 0.0000 0.0000
# 3 68.1573 36.2815 121.7400 0.0000 0.0000 0.0000
# 4 0.0000 0.0000 0.0000 12.1770 0.0000 0.0000
# 5 0.0000 0.0000 0.0000 0.0000 31.3386 0.0000
# 6 0.0000 0.0000 0.0000 0.0000 0.0000 26.3915
#
#
#
# Elastic Compliance Matrix: (Units=1/GPa)
#
#
# Indices 1 2 3 4 5 6 
#
# 1 0.040436 -0.010314 -0.019565 0.000000 0.000000 0.000000
# 2 -0.010314 0.016788 0.000771 0.000000 0.000000 0.000000
# 3 -0.019565 0.000771 0.018938 0.000000 0.000000 0.000000
# 4 0.000000 0.000000 0.000000 0.082122 0.000000 0.000000
# 5 0.000000 0.000000 0.000000 0.000000 0.031910 0.000000
# 6 0.000000 0.000000 0.000000 0.000000 0.000000 0.037891
#
#
# Mechanical properties :
#
#
# Convention : Reuss Voigt Hill
#
# Bulk Modulus (GPa) = 55.71956 61.80085 58.76020
# Shear Modulus (GPa) = 17.10680 22.50841 19.80761
#
# Velocity S-wave (km/s) = 2.96213 3.39775 3.18739
# Velocity P-wave (km/s) = 6.34649 6.86229 6.60942
#
# Compressibility (1/GPa) = 0.01794702
#
# Stress axis : x y z
#
# Youngs Moduli (GPa) = 24.73039 59.56747 52.80379
#
# Poissons Ratio (x) = 0.61435 1.03310
# Poissons Ratio (y) = 0.25506 -0.04071
# Poissons Ratio (z) = 0.48385 -0.04592
#
# Static dielectric constant tensor:
#      x y z
#    x 1.658080 0.000000 0.000000 
#    y 0.000000 1.709370 0.000000 
#    z 0.000000 0.000000 1.700360 
# 
# From -- ./inp_files/20565.got.cif
#   From: 2010.05.17/outbox.cif.g08.bks.cpg/sg53_11_cif.got.tgz:20565.got - 2010.06.03 12:45:16.
