data_PCOD9417141
_publ_section_title
;
Structure prediction by ZEFSAII (Michael W. Deem and Ramdas Pophale) SiO2 
 PCOD9417141
Probable space group: P M N A
;
_chemical_formula_sum "Si O2"
_cell_formula_units_Z 56
_cell_length_a 9.202787
_cell_length_b 14.783693
_cell_length_c 22.059316
_cell_angle_alpha 90.000000
_cell_angle_beta 90.000000
_cell_angle_gamma 90.000000
_cell_volume 3001.195922
_symmetry_space_group_name_H-M "P M N A"
_symmetry_group_IT_number 53
_symmetry_cell_setting 'orthorhombic'
loop_
_space_group_symop_operation_xyz
x,y,z
1/2-x,-y,1/2+z
x,-y,-z
1/2-x,y,1/2-z
-x,-y,-z
1/2+x,y,1/2-z
-x,y,z
1/2+x,-y,1/2+z
loop_
_atom_site_type_symbol
_atom_site_label
_atom_site_fract_x
_atom_site_fract_y
_atom_site_fract_z
Si Si1 0.325859 0.948218 0.683277
Si Si2 0.174602 0.624097 0.315192
Si Si3 0.169975 0.749636 0.811661
Si Si4 0.829184 0.741951 0.085128
Si Si5 0.176576 0.051870 0.938286
Si Si6 0.331308 0.577424 0.861900
Si Si7 0.659122 0.601202 0.523932
O O1 0.250000 0.961425 0.750000
O O2 0.500000 0.959641 0.693270
O O3 0.306936 0.846013 0.655697
O O4 0.277063 0.011515 0.627338
O O5 0.250000 0.631918 0.250000
O O6 0.236159 0.700089 0.360366
O O7 0.211028 0.524089 0.342287
O O8 0.000000 0.629842 0.310288
O O9 0.250000 0.769966 0.750000
O O10 0.238184 0.656262 0.832266
O O11 0.000000 0.737376 0.803703
O O12 0.785578 0.841824 0.063212
O O13 0.000000 0.745341 0.103309
O O14 0.818858 0.672229 0.029356
O O15 0.000000 0.045289 0.938782
O O16 0.226099 0.000000 0.000000
O O17 0.500000 0.588962 0.847560
O O18 0.294413 0.595424 0.931608
O O19 0.646073 0.500000 0.500000
O O20 0.500000 0.623569 0.553439
#
# Coordination Sequence:
#
# PCOD9417141 Si02
#       7
#     8   8   8   8   8   8   8
#     4   9  19  36  59  85 114 151 192 241 295 354
#     4  11  24  40  59  83 116 154 194 239 287 341
#     4  10  20  34  55  82 114 148 187 230 282 341
#     4  10  21  38  61  87 116 152 193 236 287 345
#     4   9  19  36  61  90 118 149 194 245 294 350
#     4  11  23  36  55  83 116 154 191 235 286 336
#     4  10  20  35  57  84 113 148 190 233 278 338
#
# _framework density 18.659229
#
# number of rings (size 3 to 8) (size 9 to 14) (size 15 to 20)
#    0.000    2.000    1.429    1.714    2.000    4.857 
#    0.000    2.143    0.000    0.857    0.000    0.000 
#    0.000    0.000    0.000    0.000    0.000    0.000 
#
# Total GULP energy -311833.000361 kJ/mol
# GULP energy per Si atom -5568.446435 kJ/mol
# Density = 1.861676 g / cm^3
# Si number density = 18.659229 Si / 1000 Ang^3
#
#
#
# Elastic Constant Matrix: (Units=GPa)
#
#
# Indices 1 2 3 4 5 6 
#
# 1 38.5733 57.7259 38.3749 0.0000 0.0000 0.0000
# 2 57.7259 144.4147 68.0488 0.0000 0.0000 0.0000
# 3 38.3749 68.0488 99.5945 0.0000 0.0000 0.0000
# 4 0.0000 0.0000 0.0000 32.2037 0.0000 0.0000
# 5 0.0000 0.0000 0.0000 0.0000 30.1966 0.0000
# 6 0.0000 0.0000 0.0000 0.0000 0.0000 26.2148
#
#
#
# Elastic Compliance Matrix: (Units=1/GPa)
#
#
# Indices 1 2 3 4 5 6 
#
# 1 0.073260 -0.023572 -0.012123 0.000000 0.000000 0.000000
# 2 -0.023572 0.017797 -0.003077 0.000000 0.000000 0.000000
# 3 -0.012123 -0.003077 0.016814 0.000000 0.000000 0.000000
# 4 0.000000 0.000000 0.000000 0.031052 0.000000 0.000000
# 5 0.000000 0.000000 0.000000 0.000000 0.033116 0.000000
# 6 0.000000 0.000000 0.000000 0.000000 0.000000 0.038146
#
#
# Mechanical properties :
#
#
# Convention : Reuss Voigt Hill
#
# Bulk Modulus (GPa) = 32.97243 67.87574 50.42408
# Shear Modulus (GPa) = 16.78760 25.61854 21.20307
#
# Velocity S-wave (km/s) = 3.00274 3.70938 3.37461
# Velocity P-wave (km/s) = 5.45263 7.40280 6.50125
#
# Compressibility (1/GPa) = 0.03032837
#
# Stress axis : x y z
#
# Youngs Moduli (GPa) = 13.64993 56.19021 59.47337
#
# Poissons Ratio (x) = 1.32450 0.72097
# Poissons Ratio (y) = 0.32175 0.18302
# Poissons Ratio (z) = 0.16547 0.17291
#
# Static dielectric constant tensor:
#      x y z
#    x 1.632130 0.000000 0.000000 
#    y 0.000000 1.389260 0.000000 
#    z 0.000000 0.000000 1.647020 
# 
# From -- ./inp_files/30804.got.cif
#   From: 2010.05.17/outbox.cif.g08.bks.cpg/sg53_16_cif.got.tgz:30804.got - 2010.06.03 12:45:16.
