data_PCOD9417681
_publ_section_title
;
Structure prediction by ZEFSAII (Michael W. Deem and Ramdas Pophale) SiO2 
 PCOD9417681
Probable space group: P M N A
;
_chemical_formula_sum "Si O2"
_cell_formula_units_Z 64
_cell_length_a 8.810876
_cell_length_b 19.846917
_cell_length_c 19.414666
_cell_angle_alpha 90.000000
_cell_angle_beta 90.000000
_cell_angle_gamma 90.000000
_cell_volume 3395.017883
_symmetry_space_group_name_H-M "P M N A"
_symmetry_group_IT_number 53
_symmetry_cell_setting 'orthorhombic'
loop_
_space_group_symop_operation_xyz
x,y,z
1/2-x,-y,1/2+z
x,-y,-z
1/2-x,y,1/2-z
-x,-y,-z
1/2+x,y,1/2-z
-x,y,z
1/2+x,-y,1/2+z
loop_
_atom_site_type_symbol
_atom_site_label
_atom_site_fract_x
_atom_site_fract_y
_atom_site_fract_z
Si Si1 0.181919 0.347782 0.093805
Si Si2 0.816746 0.711707 0.454909
Si Si3 0.181921 0.468595 0.324861
Si Si4 0.317294 0.910551 0.580390
Si Si5 0.318124 0.039750 0.673673
Si Si6 0.682218 0.624394 0.176174
Si Si7 0.317641 0.214962 0.324732
Si Si8 0.681509 0.131278 0.939600
O O1 0.253188 0.417320 0.119348
O O2 0.227356 0.288126 0.146756
O O3 0.000000 0.352482 0.093584
O O4 0.240915 0.324162 0.019827
O O5 0.770765 0.673467 0.385155
O O6 0.776284 0.790502 0.451112
O O7 0.000000 0.707079 0.461611
O O8 0.250000 0.450988 0.250000
O O9 0.224392 0.546509 0.338909
O O10 0.000000 0.463710 0.322341
O O11 0.500000 0.910609 0.571120
O O12 0.272092 0.842570 0.620959
O O13 0.241327 0.909775 0.505755
O O14 0.277337 0.973461 0.628840
O O15 0.250000 0.036459 0.750000
O O16 0.500000 0.043011 0.678087
O O17 0.254558 0.101927 0.629545
O O18 0.750000 0.643039 0.250000
O O19 0.500000 0.626740 0.181160
O O20 0.250000 0.201851 0.250000
O O21 0.500000 0.212958 0.320113
O O22 0.500000 0.126467 0.935323
#
# Coordination Sequence:
#
# PCOD9417681 Si02
#       8
#     8   8   8   8   8   8   8   8
#     4  11  22  36  56  83 117 155 194 240 287 344
#     4  10  22  40  60  85 116 153 196 241 290 346
#     4  10  20  36  58  83 115 153 192 239 290 347
#     4  10  21  40  61  85 117 155 194 237 289 345
#     4  11  24  41  63  88 119 155 194 243 292 347
#     4   9  20  39  61  84 112 148 193 241 293 347
#     4  10  21  35  54  81 114 150 191 233 280 334
#     4  11  23  39  62  89 119 155 196 242 292 351
#
# _framework density 18.851153
#
# number of rings (size 3 to 8) (size 9 to 14) (size 15 to 20)
#    0.000    1.750    1.250    2.625    0.000    7.500 
#    0.000    3.750    0.000    0.000    0.000    0.000 
#    0.000    0.000    0.000    0.000    0.000    0.000 
#
# Total GULP energy -357665.792072 kJ/mol
# GULP energy per Si atom -5588.528001 kJ/mol
# Density = 1.880825 g / cm^3
# Si number density = 18.851153 Si / 1000 Ang^3
#
#
#
# Elastic Constant Matrix: (Units=GPa)
#
#
# Indices 1 2 3 4 5 6 
#
# 1 34.4424 35.6054 46.3863 0.0000 0.0000 0.0000
# 2 35.6054 81.6486 78.2676 0.0000 0.0000 0.0000
# 3 46.3863 78.2676 139.4355 0.0000 0.0000 0.0000
# 4 0.0000 0.0000 0.0000 37.7243 0.0000 0.0000
# 5 0.0000 0.0000 0.0000 0.0000 38.8810 0.0000
# 6 0.0000 0.0000 0.0000 0.0000 0.0000 22.4101
#
#
#
# Elastic Compliance Matrix: (Units=1/GPa)
#
#
# Indices 1 2 3 4 5 6 
#
# 1 0.060300 -0.015297 -0.011473 0.000000 0.000000 0.000000
# 2 -0.015297 0.030395 -0.011972 0.000000 0.000000 0.000000
# 3 -0.011473 -0.011972 0.017709 0.000000 0.000000 0.000000
# 4 0.000000 0.000000 0.000000 0.026508 0.000000 0.000000
# 5 0.000000 0.000000 0.000000 0.000000 0.025720 0.000000
# 6 0.000000 0.000000 0.000000 0.000000 0.000000 0.044623
#
#
# Mechanical properties :
#
#
# Convention : Reuss Voigt Hill
#
# Bulk Modulus (GPa) = 32.34382 64.00501 48.17442
# Shear Modulus (GPa) = 17.06215 26.15421 21.60818
#
# Velocity S-wave (km/s) = 3.01175 3.72883 3.38931
# Velocity P-wave (km/s) = 5.41192 7.25020 6.39744
#
# Compressibility (1/GPa) = 0.03091781
#
# Stress axis : x y z
#
# Youngs Moduli (GPa) = 16.58372 32.90022 56.46882
#
# Poissons Ratio (x) = 0.50329 0.64789
# Poissons Ratio (y) = 0.25369 0.67606
# Poissons Ratio (z) = 0.19027 0.39389
#
# Static dielectric constant tensor:
#      x y z
#    x 1.632880 0.000000 0.000000 
#    y 0.000000 1.654860 0.000000 
#    z 0.000000 0.000000 1.616590 
# 
# From -- ./inp_files/26913.got.cif
#   From: 2010.05.17/outbox.cif.g08.bks.cpg/sg53_14_cif.got.tgz:26913.got - 2010.06.03 12:45:16.
