data_PCOD9417164
_publ_section_title
;
Structure prediction by ZEFSAII (Michael W. Deem and Ramdas Pophale) SiO2 
 PCOD9417164
Probable space group: P M N A
;
_chemical_formula_sum "Si O2"
_cell_formula_units_Z 56
_cell_length_a 8.618029
_cell_length_b 22.856595
_cell_length_c 14.762033
_cell_angle_alpha 90.000000
_cell_angle_beta 90.000000
_cell_angle_gamma 90.000000
_cell_volume 2907.807525
_symmetry_space_group_name_H-M "P M N A"
_symmetry_group_IT_number 53
_symmetry_cell_setting 'orthorhombic'
loop_
_space_group_symop_operation_xyz
x,y,z
1/2-x,-y,1/2+z
x,-y,-z
1/2-x,y,1/2-z
-x,-y,-z
1/2+x,y,1/2-z
-x,y,z
1/2+x,-y,1/2+z
loop_
_atom_site_type_symbol
_atom_site_label
_atom_site_fract_x
_atom_site_fract_y
_atom_site_fract_z
Si Si1 0.811845 0.604961 0.843538
Si Si2 0.811383 0.642076 0.044885
Si Si3 0.823898 0.480561 0.894770
Si Si4 0.313809 0.245520 0.851542
Si Si5 0.314619 0.132259 0.966040
Si Si6 0.814268 0.030038 0.847509
Si Si7 0.685507 0.893632 0.653137
O O1 0.750000 0.631397 0.750000
O O2 0.750773 0.537580 0.849328
O O3 0.000000 0.603255 0.841966
O O4 0.767508 0.635310 0.938683
O O5 0.754363 0.584217 0.099864
O O6 0.748847 0.699996 0.090934
O O7 0.000000 0.640928 0.047944
O O8 0.000000 0.474751 0.858864
O O9 0.835841 0.500000 0.000000
O O10 0.250000 0.247449 0.750000
O O11 0.500000 0.247527 0.849065
O O12 0.266004 0.185503 0.901276
O O13 0.500000 0.129501 0.967877
O O14 0.249520 0.072205 0.924528
O O15 0.251521 0.140146 0.067193
O O16 0.750000 0.049927 0.750000
O O17 0.000000 0.032549 0.847295
O O18 0.767298 0.962156 0.858410
O O19 0.750000 0.873861 0.750000
O O20 0.500000 0.891098 0.653703
#
# Coordination Sequence:
#
# PCOD9417164 Si02
#       7
#     8   8   8   8   8   8   8
#     4   9  17  30  51  80 112 144 177 217 266 320
#     4   9  18  35  57  78 105 144 184 222 268 319
#     4   7  12  26  48  73 102 136 174 215 260 311
#     4  11  25  42  59  80 106 138 179 226 271 318
#     4  11  23  38  57  81 110 146 186 228 273 320
#     4  10  20  34  55  85 117 148 182 222 271 325
#     4  10  21  37  58  85 116 147 180 221 270 325
#
# _framework density 19.258495
#
# number of rings (size 3 to 8) (size 9 to 14) (size 15 to 20)
#    0.000    2.429    0.000    4.286    0.000    8.000 
#    0.000    2.857    0.000    4.286    0.000    0.000 
#    0.000    0.000    0.000    0.000    0.000    0.000 
#
# Total GULP energy -312395.107712 kJ/mol
# GULP energy per Si atom -5578.484066 kJ/mol
# Density = 1.921466 g / cm^3
# Si number density = 19.258495 Si / 1000 Ang^3
#
#
#
# Elastic Constant Matrix: (Units=GPa)
#
#
# Indices 1 2 3 4 5 6 
#
# 1 23.6508 18.5694 28.6617 0.0000 0.0000 0.0000
# 2 18.5694 49.9926 44.4744 0.0000 0.0000 0.0000
# 3 28.6617 44.4744 154.6690 0.0000 0.0000 0.0000
# 4 0.0000 0.0000 0.0000 26.4909 0.0000 0.0000
# 5 0.0000 0.0000 0.0000 0.0000 32.6057 0.0000
# 6 0.0000 0.0000 0.0000 0.0000 0.0000 7.8482
#
#
#
# Elastic Compliance Matrix: (Units=1/GPa)
#
#
# Indices 1 2 3 4 5 6 
#
# 1 0.064631 -0.017942 -0.006818 0.000000 0.000000 0.000000
# 2 -0.017942 0.031859 -0.005836 0.000000 0.000000 0.000000
# 3 -0.006818 -0.005836 0.009407 0.000000 0.000000 0.000000
# 4 0.000000 0.000000 0.000000 0.037749 0.000000 0.000000
# 5 0.000000 0.000000 0.000000 0.000000 0.030669 0.000000
# 6 0.000000 0.000000 0.000000 0.000000 0.000000 0.127417
#
#
# Mechanical properties :
#
#
# Convention : Reuss Voigt Hill
#
# Bulk Modulus (GPa) = 22.36833 45.74705 34.05769
# Shear Modulus (GPa) = 13.23363 22.49609 17.86486
#
# Velocity S-wave (km/s) = 2.62421 3.42147 3.04901
# Velocity P-wave (km/s) = 4.56311 6.27809 5.48801
#
# Compressibility (1/GPa) = 0.04470606
#
# Stress axis : x y z
#
# Youngs Moduli (GPa) = 15.47250 31.38805 106.30380
#
# Poissons Ratio (x) = 0.56315 0.72475
# Poissons Ratio (y) = 0.27760 0.62042
# Poissons Ratio (z) = 0.10549 0.18319
#
# Static dielectric constant tensor:
#      x y z
#    x 1.657430 0.000000 0.000000 
#    y 0.000000 1.682520 0.000000 
#    z 0.000000 0.000000 1.618870 
# 
# From -- ./inp_files/20581.got.cif
#   From: 2010.05.17/outbox.cif.g08.bks.cpg/sg53_11_cif.got.tgz:20581.got - 2010.06.03 12:45:16.
