data_PCOD9417446
_publ_section_title
;
Structure prediction by ZEFSAII (Michael W. Deem and Ramdas Pophale) SiO2 
 PCOD9417446
Probable space group: P M N A
;
_chemical_formula_sum "Si O2"
_cell_formula_units_Z 48
_cell_length_a 8.571188
_cell_length_b 12.128082
_cell_length_c 25.985499
_cell_angle_alpha 90.000000
_cell_angle_beta 90.000000
_cell_angle_gamma 90.000000
_cell_volume 2701.246434
_symmetry_space_group_name_H-M "P M N A"
_symmetry_group_IT_number 53
_symmetry_cell_setting 'orthorhombic'
loop_
_space_group_symop_operation_xyz
x,y,z
1/2-x,-y,1/2+z
x,-y,-z
1/2-x,y,1/2-z
-x,-y,-z
1/2+x,y,1/2-z
-x,y,z
1/2+x,-y,1/2+z
loop_
_atom_site_type_symbol
_atom_site_label
_atom_site_fract_x
_atom_site_fract_y
_atom_site_fract_z
Si Si1 0.810044 0.001255 0.440282
Si Si2 0.685674 0.376921 0.306693
Si Si3 0.312879 0.620432 0.193309
Si Si4 0.313041 0.238100 0.099949
Si Si5 0.689005 0.238647 0.904708
Si Si6 0.313136 0.628718 0.502641
O O1 0.759875 0.113406 0.412513
O O2 0.000000 0.002976 0.441103
O O3 0.758836 0.000000 0.500000
O O4 0.762450 0.888226 0.412652
O O5 0.750000 0.349995 0.250000
O O6 0.500000 0.382734 0.304797
O O7 0.750511 0.498575 0.320309
O O8 0.740152 0.290082 0.349081
O O9 0.250000 0.648081 0.250000
O O10 0.500000 0.615491 0.195355
O O11 0.265711 0.707185 0.149524
O O12 0.500000 0.238484 0.104797
O O13 0.264895 0.312620 0.051378
O O14 0.500000 0.242903 0.908418
O O15 0.758264 0.309812 0.951207
O O16 0.270116 0.500000 0.500000
O O17 0.500000 0.636487 0.507670
#
# Coordination Sequence:
#
# PCOD9417446 Si02
#       6
#     8   8   8   8   8   8
#     4   9  17  34  58  81 107 146 188 227 272 324
#     4  11  22  38  59  83 114 146 185 228 277 330
#     4  10  20  35  58  84 112 145 184 225 275 332
#     4  11  21  36  59  82 110 146 187 228 274 330
#     4  10  20  36  57  81 107 143 188 228 272 332
#     4  11  23  35  50  78 114 146 178 226 282 331
#
# _framework density 17.769573999999999
#
# number of rings (size 3 to 8) (size 9 to 14) (size 15 to 20)
#    0.000    1.667    1.667    5.000    0.000    5.333 
#    0.000    3.333    0.000    2.000    0.000    0.000 
#    0.000    0.000    0.000    0.000    0.000    0.000 
#
# Total GULP energy -268147.961898 kJ/mol
# GULP energy per Si atom -5586.415873 kJ/mol
# Density = 1.772913 g / cm^3
# Si number density = 17.769574 Si / 1000 Ang^3
#
#
#
# Elastic Constant Matrix: (Units=GPa)
#
#
# Indices 1 2 3 4 5 6 
#
# 1 54.5996 41.6387 39.9503 0.0000 0.0000 0.0000
# 2 41.6387 173.6093 110.4171 0.0000 0.0000 0.0000
# 3 39.9503 110.4171 139.8949 0.0000 0.0000 0.0000
# 4 0.0000 0.0000 0.0000 31.4039 0.0000 0.0000
# 5 0.0000 0.0000 0.0000 0.0000 31.5116 0.0000
# 6 0.0000 0.0000 0.0000 0.0000 0.0000 15.5274
#
#
#
# Elastic Compliance Matrix: (Units=1/GPa)
#
#
# Indices 1 2 3 4 5 6 
#
# 1 0.023804 -0.002783 -0.004602 0.000000 0.000000 0.000000
# 2 -0.002783 0.011891 -0.008591 0.000000 0.000000 0.000000
# 3 -0.004602 -0.008591 0.015243 0.000000 0.000000 0.000000
# 4 0.000000 0.000000 0.000000 0.031843 0.000000 0.000000
# 5 0.000000 0.000000 0.000000 0.000000 0.031734 0.000000
# 6 0.000000 0.000000 0.000000 0.000000 0.000000 0.064402
#
#
# Mechanical properties :
#
#
# Convention : Reuss Voigt Hill
#
# Bulk Modulus (GPa) = 52.66428 83.56845 68.11636
# Shear Modulus (GPa) = 23.02038 27.42842 25.22440
#
# Velocity S-wave (km/s) = 3.60320 3.93308 3.77175
# Velocity P-wave (km/s) = 6.85656 8.23144 7.57525
#
# Compressibility (1/GPa) = 0.01898820
#
# Stress axis : x y z
#
# Youngs Moduli (GPa) = 42.00942 84.09381 65.60302
#
# Poissons Ratio (x) = 0.23400 0.30188
# Poissons Ratio (y) = 0.11689 0.56361
# Poissons Ratio (z) = 0.19331 0.72246
#
# Static dielectric constant tensor:
#      x y z
#    x 1.634060 0.000000 0.000000 
#    y 0.000000 1.596520 0.000000 
#    z 0.000000 0.000000 1.578230 
# 
# From -- ./inp_files/36149.got.cif
#   From: 2010.05.17/outbox.cif.g08.bks.cpg/sg53_19_cif.got.tgz:36149.got - 2010.06.03 12:45:16.
