data_PCOD9417495
_publ_section_title
;
Structure prediction by ZEFSAII (Michael W. Deem and Ramdas Pophale) SiO2 
 PCOD9417495
Probable space group: P M N A
;
_chemical_formula_sum "Si O2"
_cell_formula_units_Z 64
_cell_length_a 8.890793
_cell_length_b 12.907119
_cell_length_c 29.649163
_cell_angle_alpha 90.000000
_cell_angle_beta 90.000000
_cell_angle_gamma 90.000000
_cell_volume 3402.375565
_symmetry_space_group_name_H-M "P M N A"
_symmetry_group_IT_number 53
_symmetry_cell_setting 'orthorhombic'
loop_
_space_group_symop_operation_xyz
x,y,z
1/2-x,-y,1/2+z
x,-y,-z
1/2-x,y,1/2-z
-x,-y,-z
1/2+x,y,1/2-z
-x,y,z
1/2+x,-y,1/2+z
loop_
_atom_site_type_symbol
_atom_site_label
_atom_site_fract_x
_atom_site_fract_y
_atom_site_fract_z
Si Si1 0.325274 0.640587 0.820112
Si Si2 0.674399 0.415300 0.074555
Si Si3 0.318384 0.050917 0.389192
Si Si4 0.818935 0.634251 0.390757
Si Si5 0.318538 0.834721 0.436939
Si Si6 0.820471 0.121817 0.297450
Si Si7 0.319588 0.218405 0.462505
Si Si8 0.822245 0.430540 0.796450
O O1 0.500000 0.618827 0.807443
O O2 0.317071 0.629145 0.874281
O O3 0.285251 0.756058 0.805281
O O4 0.218474 0.552585 0.800279
O O5 0.500000 0.416923 0.060768
O O6 0.728724 0.533615 0.079560
O O7 0.761335 0.334919 0.043495
O O8 0.500000 0.056327 0.385171
O O9 0.246341 0.062061 0.340202
O O10 0.267340 0.145380 0.421437
O O11 0.280060 0.943318 0.413626
O O12 0.759469 0.739132 0.412211
O O13 0.752490 0.619092 0.340758
O O14 0.000000 0.631466 0.388241
O O15 0.500000 0.822985 0.434320
O O16 0.275512 0.830076 0.489575
O O17 0.750000 0.089018 0.250000
O O18 0.000000 0.111567 0.296391
O O19 0.500000 0.219689 0.460765
O O20 0.750000 0.391350 0.750000
O O21 0.000000 0.415320 0.796730
#
# Coordination Sequence:
#
# PCOD9417495 Si02
#       8
#     8   8   8   8   8   8   8   8
#     4   9  18  33  52  80 118 154 187 230 281 337
#     4   9  18  34  55  82 118 152 184 230 284 338
#     4  10  21  39  61  85 117 153 192 240 292 341
#     4  10  22  40  58  81 116 155 195 239 290 344
#     4  10  22  40  60  84 114 151 197 245 290 343
#     4  11  22  36  56  84 118 153 192 235 285 344
#     4  10  20  35  60  90 117 149 190 237 291 348
#     4  11  21  34  56  84 114 150 192 237 286 343
#
# _framework density 18.810386000000001
#
# number of rings (size 3 to 8) (size 9 to 14) (size 15 to 20)
#    0.000    2.000    1.250    3.375    0.000    7.500 
#    0.000    3.125    0.000    5.250    0.000    0.000 
#    0.000    0.000    0.000    0.000    0.000    0.000 
#
# Total GULP energy -357443.136062 kJ/mol
# GULP energy per Si atom -5585.049001 kJ/mol
# Density = 1.876757 g / cm^3
# Si number density = 18.810386 Si / 1000 Ang^3
#
#
#
# Elastic Constant Matrix: (Units=GPa)
#
#
# Indices 1 2 3 4 5 6 
#
# 1 37.2757 26.8023 31.3864 0.0000 0.0000 0.0000
# 2 26.8023 78.3295 30.9675 0.0000 0.0000 0.0000
# 3 31.3864 30.9675 84.6391 0.0000 0.0000 0.0000
# 4 0.0000 0.0000 0.0000 38.3324 0.0000 0.0000
# 5 0.0000 0.0000 0.0000 0.0000 24.8529 0.0000
# 6 0.0000 0.0000 0.0000 0.0000 0.0000 29.1594
#
#
#
# Elastic Compliance Matrix: (Units=1/GPa)
#
#
# Indices 1 2 3 4 5 6 
#
# 1 0.045179 -0.010330 -0.012974 0.000000 0.000000 0.000000
# 2 -0.010330 0.017287 -0.002495 0.000000 0.000000 0.000000
# 3 -0.012974 -0.002495 0.017539 0.000000 0.000000 0.000000
# 4 0.000000 0.000000 0.000000 0.026088 0.000000 0.000000
# 5 0.000000 0.000000 0.000000 0.000000 0.040237 0.000000
# 6 0.000000 0.000000 0.000000 0.000000 0.000000 0.034294
#
#
# Mechanical properties :
#
#
# Convention : Reuss Voigt Hill
#
# Bulk Modulus (GPa) = 35.20111 42.06183 38.63147
# Shear Modulus (GPa) = 20.68774 25.87481 23.28127
#
# Velocity S-wave (km/s) = 3.31993 3.71288 3.52189
# Velocity P-wave (km/s) = 5.78361 6.38671 6.09263
#
# Compressibility (1/GPa) = 0.02840820
#
# Stress axis : x y z
#
# Youngs Moduli (GPa) = 22.13436 57.84581 57.01687
#
# Poissons Ratio (x) = 0.59753 0.73974
# Poissons Ratio (y) = 0.22864 0.14223
# Poissons Ratio (z) = 0.28717 0.14430
#
# Static dielectric constant tensor:
#      x y z
#    x 1.632930 0.000000 0.000000 
#    y 0.000000 1.633450 0.000000 
#    z 0.000000 0.000000 1.656020 
# 
# From -- ./inp_files/38203.got.cif
#   From: 2010.05.17/outbox.cif.g08.bks.cpg/sg53_20_cif.got.tgz:38203.got - 2010.06.03 12:45:16.
