data_PCOD9417393
_publ_section_title
;
Structure prediction by ZEFSAII (Michael W. Deem and Ramdas Pophale) SiO2 
 PCOD9417393
Probable space group: P M N A
;
_chemical_formula_sum "Si O2"
_cell_formula_units_Z 64
_cell_length_a 13.847061
_cell_length_b 11.461430
_cell_length_c 17.591871
_cell_angle_alpha 90.000000
_cell_angle_beta 90.000000
_cell_angle_gamma 90.000000
_cell_volume 2791.955188
_symmetry_space_group_name_H-M "P M N A"
_symmetry_group_IT_number 53
_symmetry_cell_setting 'orthorhombic'
loop_
_space_group_symop_operation_xyz
x,y,z
1/2-x,-y,1/2+z
x,-y,-z
1/2-x,y,1/2-z
-x,-y,-z
1/2+x,y,1/2-z
-x,y,z
1/2+x,-y,1/2+z
loop_
_atom_site_type_symbol
_atom_site_label
_atom_site_fract_x
_atom_site_fract_y
_atom_site_fract_z
Si Si1 0.109749 0.595890 0.433819
Si Si2 0.390316 0.404026 0.560472
Si Si3 0.606615 0.935626 0.919433
Si Si4 0.275090 0.531865 0.663002
Si Si5 0.611613 0.023643 0.626110
Si Si6 0.740479 0.206246 0.913776
Si Si7 0.893095 0.140098 0.707729
Si Si8 0.224983 0.801518 0.840409
O O1 0.107083 0.500000 0.500000
O O2 0.188229 0.536683 0.378266
O O3 0.150686 0.725873 0.455002
O O4 0.000000 0.606803 0.405629
O O5 0.354342 0.500000 0.500000
O O6 0.500000 0.378079 0.543558
O O7 0.372497 0.464358 0.641405
O O8 0.327604 0.289864 0.563345
O O9 0.500000 0.881328 0.922135
O O10 0.686706 0.847394 0.891014
O O11 0.604563 0.035529 0.854267
O O12 0.622213 0.000000 0.000000
O O13 0.250000 0.530878 0.750000
O O14 0.289111 0.666568 0.640656
O O15 0.500000 0.038757 0.599370
O O16 0.701071 0.083182 0.580367
O O17 0.619147 0.086680 0.708786
O O18 0.637191 0.888267 0.639555
O O19 0.695393 0.211952 0.828016
O O20 0.000000 0.195762 0.707163
O O21 0.250000 0.813515 0.750000
#
# Coordination Sequence:
#
# PCOD9417393 Si02
#       8
#     8   8   8   8   8   8   8   8
#     4  10  23  44  68  94 126 165 206 256 323 389
#     4  10  23  44  65  84 116 164 214 261 311 372
#     4  10  21  36  57  88 122 158 201 251 307 370
#     4  10  23  39  63  93 126 162 209 260 315 368
#     4  11  22  37  60  90 126 167 210 255 306 366
#     4  11  19  35  61  90 118 154 198 256 309 367
#     4  10  20  35  56  88 126 159 196 246 310 376
#     4  11  21  40  62  87 124 174 211 254 307 373
#
# _framework density 22.923005
#
# number of rings (size 3 to 8) (size 9 to 14) (size 15 to 20)
#    0.000    1.625    2.500    2.625    0.000    7.500 
#    0.000    5.000    0.000    0.375    0.000    0.000 
#    0.000    0.000    0.000    0.000    0.000    0.000 
#
# Total GULP energy -356994.724013 kJ/mol
# GULP energy per Si atom -5578.042563 kJ/mol
# Density = 2.287083 g / cm^3
# Si number density = 22.923005 Si / 1000 Ang^3
#
#
#
# Elastic Constant Matrix: (Units=GPa)
#
#
# Indices 1 2 3 4 5 6 
#
# 1 134.0814 21.5388 9.9279 0.0000 0.0000 0.0000
# 2 21.5388 57.4863 8.3915 0.0000 0.0000 0.0000
# 3 9.9279 8.3915 48.1989 0.0000 0.0000 0.0000
# 4 0.0000 0.0000 0.0000 30.2293 0.0000 0.0000
# 5 0.0000 0.0000 0.0000 0.0000 23.9873 0.0000
# 6 0.0000 0.0000 0.0000 0.0000 0.0000 -62.6746
#
#
#
# Elastic Compliance Matrix: (Units=1/GPa)
#
#
# Indices 1 2 3 4 5 6 
#
# 1 0.007998 -0.002828 -0.001155 0.000000 0.000000 0.000000
# 2 -0.002828 0.018849 -0.002699 0.000000 0.000000 0.000000
# 3 -0.001155 -0.002699 0.021455 0.000000 0.000000 0.000000
# 4 0.000000 0.000000 0.000000 0.033080 0.000000 0.000000
# 5 0.000000 0.000000 0.000000 0.000000 0.041689 0.000000
# 6 0.000000 0.000000 0.000000 0.000000 0.000000 -0.015955
#
#
# Mechanical properties :
#
#
# Convention : Reuss Voigt Hill
#
# Bulk Modulus (GPa) = 28.62233 35.49813 32.06023
# Shear Modulus (GPa) = 37.84252 11.63561 24.73906
#
# Velocity S-wave (km/s) = 4.06748 2.25543 3.28872
# Velocity P-wave (km/s) = 5.87984 4.72251 5.33266
#
# Compressibility (1/GPa) = 0.03493776
#
# Stress axis : x y z
#
# Youngs Moduli (GPa) = 125.03155 53.05300 46.60874
#
# Poissons Ratio (x) = 0.15004 0.05384
# Poissons Ratio (y) = 0.35360 0.12580
# Poissons Ratio (z) = 0.14442 0.14320
#
# Static dielectric constant tensor:
#      x y z
#    x 1.863900 0.000000 0.000000 
#    y 0.000000 1.888590 0.000000 
#    z 0.000000 0.000000 1.920120 
# 
# From -- ./inp_files/28552.got.cif
#   From: 2010.05.17/outbox.cif.g08.bks.cpg/sg53_15_cif.got.tgz:28552.got - 2010.06.03 12:45:16.
