data_PCOD9417256
_publ_section_title
;
Structure prediction by ZEFSAII (Michael W. Deem and Ramdas Pophale) SiO2 
 PCOD9417256
Probable space group: P M N A
;
_chemical_formula_sum "Si O2"
_cell_formula_units_Z 48
_cell_length_a 8.586212
_cell_length_b 30.057064
_cell_length_c 10.500863
_cell_angle_alpha 90.000000
_cell_angle_beta 90.000000
_cell_angle_gamma 90.000000
_cell_volume 2710.024118
_symmetry_space_group_name_H-M "P M N A"
_symmetry_group_IT_number 53
_symmetry_cell_setting 'orthorhombic'
loop_
_space_group_symop_operation_xyz
x,y,z
1/2-x,-y,1/2+z
x,-y,-z
1/2-x,y,1/2-z
-x,-y,-z
1/2+x,y,1/2-z
-x,y,z
1/2+x,-y,1/2+z
loop_
_atom_site_type_symbol
_atom_site_label
_atom_site_fract_x
_atom_site_fract_y
_atom_site_fract_z
Si Si1 0.187557 0.298035 0.888267
Si Si2 0.187157 0.135710 0.110399
Si Si3 0.188150 0.467037 0.111285
Si Si4 0.313999 0.198524 0.888816
Si Si5 0.312284 0.032495 0.388191
Si Si6 0.187788 0.364619 0.111410
O O1 0.250000 0.312294 0.750000
O O2 0.251145 0.248446 0.911945
O O3 0.000000 0.296400 0.884446
O O4 0.237699 0.331679 0.999260
O O5 0.250000 0.148692 0.250000
O O6 0.233068 0.083968 0.089580
O O7 0.000000 0.138556 0.110038
O O8 0.255154 0.166312 0.999730
O O9 0.250000 0.480316 0.250000
O O10 0.237201 0.415805 0.087997
O O11 0.000000 0.467896 0.114251
O O12 0.241194 0.500000 0.000000
O O13 0.250000 0.184566 0.750000
O O14 0.500000 0.199328 0.884681
O O15 0.250000 0.018958 0.250000
O O16 0.500000 0.031036 0.384979
O O17 0.257415 0.000000 0.500000
O O18 0.250000 0.351152 0.250000
O O19 0.000000 0.364010 0.115309
#
# Coordination Sequence:
#
# PCOD9417256 Si02
#       6
#     8   8   8   8   8   8
#     4  10  20  35  53  75 103 133 169 211 256 305
#     4  10  20  36  56  79 108 140 176 216 259 307
#     4   9  18  33  51  73 102 133 167 207 250 297
#     4  11  22  37  56  78 105 137 174 215 261 310
#     4   9  19  35  54  78 107 138 173 213 255 302
#     4   9  19  34  52  74 101 133 168 208 251 299
#
# _framework density 17.712019999999999
#
# number of rings (size 3 to 8) (size 9 to 14) (size 15 to 20)
#    0.000    2.333    0.000    3.500    0.000    4.667 
#    0.000    3.333    0.000    0.000    0.000    0.000 
#    0.000    0.000    0.000    0.000    0.000    0.000 
#
# Total GULP energy -267886.397685 kJ/mol
# GULP energy per Si atom -5580.966618 kJ/mol
# Density = 1.767171 g / cm^3
# Si number density = 17.712020 Si / 1000 Ang^3
#
#
#
# Elastic Constant Matrix: (Units=GPa)
#
#
# Indices 1 2 3 4 5 6 
#
# 1 53.2826 33.5210 47.3841 0.0000 0.0000 0.0000
# 2 33.5210 94.0666 127.2251 0.0000 0.0000 0.0000
# 3 47.3841 127.2251 209.6752 0.0000 0.0000 0.0000
# 4 0.0000 0.0000 0.0000 44.7901 0.0000 0.0000
# 5 0.0000 0.0000 0.0000 0.0000 35.1740 0.0000
# 6 0.0000 0.0000 0.0000 0.0000 0.0000 -40.3011
#
#
#
# Elastic Compliance Matrix: (Units=1/GPa)
#
#
# Indices 1 2 3 4 5 6 
#
# 1 0.024257 -0.006858 -0.001320 0.000000 0.000000 0.000000
# 2 -0.006858 0.061216 -0.035594 0.000000 0.000000 0.000000
# 3 -0.001320 -0.035594 0.026665 0.000000 0.000000 0.000000
# 4 0.000000 0.000000 0.000000 0.022326 0.000000 0.000000
# 5 0.000000 0.000000 0.000000 0.000000 0.028430 0.000000
# 6 0.000000 0.000000 0.000000 0.000000 0.000000 -0.024813
#
#
# Mechanical properties :
#
#
# Convention : Reuss Voigt Hill
#
# Bulk Modulus (GPa) = 40.66315 85.92052 63.29184
# Shear Modulus (GPa) = 21.38356 17.85887 19.62122
#
# Velocity S-wave (km/s) = 3.47838 3.17880 3.33196
# Velocity P-wave (km/s) = 6.25619 7.87960 7.11435
#
# Compressibility (1/GPa) = 0.02459229
#
# Stress axis : x y z
#
# Youngs Moduli (GPa) = 41.22586 16.33558 37.50188
#
# Poissons Ratio (x) = 0.11203 0.04952
# Poissons Ratio (y) = 0.28273 1.33486
# Poissons Ratio (z) = 0.05443 0.58145
#
# Static dielectric constant tensor:
#      x y z
#    x 1.597310 0.000000 0.000000 
#    y 0.000000 1.597480 0.000000 
#    z 0.000000 0.000000 1.574900 
# 
# From -- ./inp_files/6761.got.cif
#   From: 2010.05.17/outbox.cif.g08.bks.cpg/sg53_4_cif.got.tgz:6761.got - 2010.06.03 12:45:16.
