data_PCOD9417002
_publ_section_title
;
Structure prediction by ZEFSAII (Michael W. Deem and Ramdas Pophale) SiO2 
 PCOD9417002
Probable space group: P M N A
;
_chemical_formula_sum "Si O2"
_cell_formula_units_Z 48
_cell_length_a 8.603699
_cell_length_b 10.415853
_cell_length_c 30.569799
_cell_angle_alpha 90.000000
_cell_angle_beta 90.000000
_cell_angle_gamma 90.000000
_cell_volume 2739.508381
_symmetry_space_group_name_H-M "P M N A"
_symmetry_group_IT_number 53
_symmetry_cell_setting 'orthorhombic'
loop_
_space_group_symop_operation_xyz
x,y,z
1/2-x,-y,1/2+z
x,-y,-z
1/2-x,y,1/2-z
-x,-y,-z
1/2+x,y,1/2-z
-x,y,z
1/2+x,-y,1/2+z
loop_
_atom_site_type_symbol
_atom_site_label
_atom_site_fract_x
_atom_site_fract_y
_atom_site_fract_z
Si Si1 0.186391 0.100013 0.798415
Si Si2 0.186231 0.107705 0.365809
Si Si3 0.812392 0.605935 0.201761
Si Si4 0.312418 0.109698 0.033318
Si Si5 0.687608 0.389762 0.466979
Si Si6 0.812044 0.610877 0.866257
O O1 0.250000 0.070181 0.750000
O O2 0.234642 0.247280 0.808803
O O3 0.000000 0.095109 0.797512
O O4 0.248533 0.999741 0.833630
O O5 0.235140 0.084107 0.416350
O O6 0.246472 0.249753 0.353806
O O7 0.000000 0.106757 0.364052
O O8 0.750000 0.575101 0.250000
O O9 0.760276 0.501795 0.166207
O O10 0.000000 0.603489 0.202970
O O11 0.500000 0.113137 0.032396
O O12 0.250009 0.249648 0.020822
O O13 0.258962 0.000000 0.000000
O O14 0.741461 0.500000 0.500000
O O15 0.500000 0.386448 0.468222
O O16 0.734349 0.415318 0.416614
O O17 0.000000 0.617057 0.864925
#
# Coordination Sequence:
#
# PCOD9417002 Si02
#       6
#     8   8   8   8   8   8
#     4  10  20  35  54  76 102 132 166 205 250 298
#     4  10  20  34  52  75 102 133 170 209 249 296
#     4   9  19  34  52  73  98 128 162 201 244 292
#     4   9  19  35  52  72 101 135 170 208 250 298
#     4   9  18  32  51  75 101 129 164 206 250 299
#     4   9  18  34  52  72 101 133 164 203 251 299
#
# _framework density 17.521391999999999
#
# number of rings (size 3 to 8) (size 9 to 14) (size 15 to 20)
#    0.000    2.667    0.000    1.000    0.000    4.667 
#    0.000    3.333    0.000    0.000    0.000    0.000 
#    0.000    0.000    0.000    0.000    0.000    0.000 
#
# Total GULP energy -267725.489854 kJ/mol
# GULP energy per Si atom -5577.614372 kJ/mol
# Density = 1.748151 g / cm^3
# Si number density = 17.521392 Si / 1000 Ang^3
#
#
#
# Elastic Constant Matrix: (Units=GPa)
#
#
# Indices 1 2 3 4 5 6 
#
# 1 15.5568 32.5234 27.8621 0.0000 0.0000 0.0000
# 2 32.5234 179.3440 136.5037 0.0000 0.0000 0.0000
# 3 27.8621 136.5037 123.9719 0.0000 0.0000 0.0000
# 4 0.0000 0.0000 0.0000 44.9305 0.0000 0.0000
# 5 0.0000 0.0000 0.0000 0.0000 21.8901 0.0000
# 6 0.0000 0.0000 0.0000 0.0000 0.0000 35.8873
#
#
#
# Elastic Compliance Matrix: (Units=1/GPa)
#
#
# Indices 1 2 3 4 5 6 
#
# 1 0.108960 -0.006921 -0.016867 0.000000 0.000000 0.000000
# 2 -0.006921 0.034873 -0.036843 0.000000 0.000000 0.000000
# 3 -0.016867 -0.036843 0.052424 0.000000 0.000000 0.000000
# 4 0.000000 0.000000 0.000000 0.022257 0.000000 0.000000
# 5 0.000000 0.000000 0.000000 0.000000 0.045683 0.000000
# 6 0.000000 0.000000 0.000000 0.000000 0.000000 0.027865
#
#
# Mechanical properties :
#
#
# Convention : Reuss Voigt Hill
#
# Bulk Modulus (GPa) = 13.33435 79.18344 46.25890
# Shear Modulus (GPa) = 11.40716 28.67381 20.04048
#
# Velocity S-wave (km/s) = 2.55432 4.04976 3.38564
# Velocity P-wave (km/s) = 4.04057 8.19500 6.46081
#
# Compressibility (1/GPa) = 0.07499430
#
# Stress axis : x y z
#
# Youngs Moduli (GPa) = 9.17772 28.67551 19.07520
#
# Poissons Ratio (x) = 0.19847 0.32175
# Poissons Ratio (y) = 0.06352 0.70278
# Poissons Ratio (z) = 0.15480 1.05648
#
# Static dielectric constant tensor:
#      x y z
#    x 1.596470 0.000000 0.000000 
#    y 0.000000 1.572390 0.000000 
#    z 0.000000 0.000000 1.583760 
# 
# From -- ./inp_files/37736.got.cif
#   From: 2010.05.17/outbox.cif.g08.bks.cpg/sg53_19_cif.got.tgz:37736.got - 2010.06.03 12:45:16.
