data_PCOD9417651
_publ_section_title
;
Structure prediction by ZEFSAII (Michael W. Deem and Ramdas Pophale) SiO2 
 PCOD9417651
Probable space group: P M N A
;
_chemical_formula_sum "Si O2"
_cell_formula_units_Z 48
_cell_length_a 7.705112
_cell_length_b 9.330314
_cell_length_c 31.950261
_cell_angle_alpha 90.000000
_cell_angle_beta 90.000000
_cell_angle_gamma 90.000000
_cell_volume 2296.939868
_symmetry_space_group_name_H-M "P M N A"
_symmetry_group_IT_number 53
_symmetry_cell_setting 'orthorhombic'
loop_
_space_group_symop_operation_xyz
x,y,z
1/2-x,-y,1/2+z
x,-y,-z
1/2-x,y,1/2-z
-x,-y,-z
1/2+x,y,1/2-z
-x,y,z
1/2+x,-y,1/2+z
loop_
_atom_site_type_symbol
_atom_site_label
_atom_site_fract_x
_atom_site_fract_y
_atom_site_fract_z
Si Si1 0.795502 0.586371 0.625284
Si Si2 0.212996 0.089904 0.378310
Si Si3 0.791031 0.594408 0.296743
Si Si4 0.710067 0.087840 0.959305
Si Si5 0.208191 0.077803 0.703426
Si Si6 0.704944 0.577649 0.458322
O O1 0.726114 0.746294 0.618100
O O2 0.722758 0.504243 0.665820
O O3 0.778487 0.490354 0.584008
O O4 0.000000 0.605123 0.633603
O O5 0.000000 0.089194 0.379129
O O6 0.269062 0.992834 0.417339
O O7 0.270086 0.020041 0.334582
O O8 0.750000 0.541944 0.250000
O O9 0.725474 0.758443 0.300334
O O10 0.000000 0.601059 0.300446
O O11 0.500000 0.086422 0.959423
O O12 0.764444 0.252851 0.960395
O O13 0.769448 0.000000 0.000000
O O14 0.250000 0.024640 0.750000
O O15 0.000000 0.083822 0.700113
O O16 0.775764 0.500000 0.500000
O O17 0.500000 0.550466 0.456859
#
# Coordination Sequence:
#
# PCOD9417651 Si02
#       6
#     8   8   8   8   8   8
#     4  10  20  36  58  81 106 141 184 225 265 313
#     4   9  18  33  54  80 107 134 172 223 268 307
#     4   9  18  32  52  77 106 141 179 221 267 316
#     4  10  20  36  60  85 106 135 178 222 264 317
#     4   9  17  31  49  71 102 137 174 215 259 308
#     4  11  24  39  55  79 112 145 176 217 271 326
#
# _framework density 20.897366999999999
#
# number of rings (size 3 to 8) (size 9 to 14) (size 15 to 20)
#    0.000    2.333    0.000    2.500    0.000    7.000 
#    0.000    5.833    0.000    0.000    0.000    0.000 
#    0.000    0.000    0.000    0.000    0.000    0.000 
#
# Total GULP energy -268096.507172 kJ/mol
# GULP energy per Si atom -5585.343899 kJ/mol
# Density = 2.084980 g / cm^3
# Si number density = 20.897367 Si / 1000 Ang^3
#
#
#
# Elastic Constant Matrix: (Units=GPa)
#
#
# Indices 1 2 3 4 5 6 
#
# 1 27.4162 -12.7251 -14.2493 0.0000 0.0000 0.0000
# 2 -12.7251 141.1411 93.2375 0.0000 0.0000 0.0000
# 3 -14.2493 93.2375 176.3567 0.0000 0.0000 0.0000
# 4 0.0000 0.0000 0.0000 39.7096 0.0000 0.0000
# 5 0.0000 0.0000 0.0000 0.0000 17.9912 0.0000
# 6 0.0000 0.0000 0.0000 0.0000 0.0000 32.9209
#
#
#
# Elastic Compliance Matrix: (Units=1/GPa)
#
#
# Indices 1 2 3 4 5 6 
#
# 1 0.038504 0.002176 0.001960 0.000000 0.000000 0.000000
# 2 0.002176 0.011011 -0.005645 0.000000 0.000000 0.000000
# 3 0.001960 -0.005645 0.008813 0.000000 0.000000 0.000000
# 4 0.000000 0.000000 0.000000 0.025183 0.000000 0.000000
# 5 0.000000 0.000000 0.000000 0.000000 0.055583 0.000000
# 6 0.000000 0.000000 0.000000 0.000000 0.000000 0.030376
#
#
# Mechanical properties :
#
#
# Convention : Reuss Voigt Hill
#
# Bulk Modulus (GPa) = 18.07964 53.04891 35.56428
# Shear Modulus (GPa) = 26.18856 36.70106 31.44481
#
# Velocity S-wave (km/s) = 3.54390 4.19531 3.88329
# Velocity P-wave (km/s) = 5.04143 6.99343 6.09607
#
# Compressibility (1/GPa) = 0.05531082
#
# Stress axis : x y z
#
# Youngs Moduli (GPa) = 25.97142 90.82138 113.46453
#
# Poissons Ratio (x) = -0.19767 -0.22243
# Poissons Ratio (y) = -0.05653 0.64054
# Poissons Ratio (z) = -0.05091 0.51272
#
# Static dielectric constant tensor:
#      x y z
#    x 1.780070 0.000000 0.000000 
#    y 0.000000 1.719370 0.000000 
#    z 0.000000 0.000000 1.723150 
# 
# From -- ./inp_files/37742.got.cif
#   From: 2010.05.17/outbox.cif.g08.bks.cpg/sg53_19_cif.got.tgz:37742.got - 2010.06.03 12:45:16.
