data_PCOD9417135
_publ_section_title
;
Structure prediction by ZEFSAII (Michael W. Deem and Ramdas Pophale) SiO2 
 PCOD9417135
Probable space group: P M N A
;
_chemical_formula_sum "Si O2"
_cell_formula_units_Z 48
_cell_length_a 15.933549
_cell_length_b 14.577194
_cell_length_c 10.402141
_cell_angle_alpha 90.000000
_cell_angle_beta 90.000000
_cell_angle_gamma 90.000000
_cell_volume 2416.068205
_symmetry_space_group_name_H-M "P M N A"
_symmetry_group_IT_number 53
_symmetry_cell_setting 'orthorhombic'
loop_
_space_group_symop_operation_xyz
x,y,z
1/2-x,-y,1/2+z
x,-y,-z
1/2-x,y,1/2-z
-x,-y,-z
1/2+x,y,1/2-z
-x,y,z
1/2+x,-y,1/2+z
loop_
_atom_site_type_symbol
_atom_site_label
_atom_site_fract_x
_atom_site_fract_y
_atom_site_fract_z
Si Si1 0.649915 0.209436 0.235661
Si Si2 0.397496 0.603821 0.355078
Si Si3 0.403834 0.208677 0.748681
Si Si4 0.398886 0.601769 0.652769
Si Si5 0.370304 0.105298 0.488380
Si Si6 0.168229 0.105084 0.515026
O O1 0.750000 0.198229 0.250000
O O2 0.630488 0.316115 0.257260
O O3 0.608708 0.152199 0.352429
O O4 0.628780 0.167348 0.097548
O O5 0.500000 0.606151 0.354775
O O6 0.369016 0.688360 0.268328
O O7 0.372049 0.618317 0.504228
O O8 0.371684 0.501759 0.313130
O O9 0.500000 0.213492 0.793994
O O10 0.402962 0.164100 0.607447
O O11 0.353417 0.146521 0.847213
O O12 0.500000 0.602183 0.652896
O O13 0.268924 0.105509 0.499766
O O14 0.398120 0.000000 0.500000
O O15 0.139835 0.000000 0.500000
#
# Coordination Sequence:
#
# PCOD9417135 Si02
#       6
#     8   8   8   8   8   8
#     4  10  20  34  55  81 108 138 182 231 265 310
#     4   8  16  31  55  82 104 135 175 219 268 320
#     4  11  21  35  56  84 111 136 178 229 270 312
#     4   9  16  32  57  79 104 140 179 218 269 322
#     4  10  20  37  59  78 102 143 192 225 256 319
#     4  10  22  39  55  75 111 154 179 209 274 333
#
# _framework density 19.866987999999999
#
# number of rings (size 3 to 8) (size 9 to 14) (size 15 to 20)
#    0.000    2.333    1.667    2.500    0.000    4.000 
#    0.000    4.167    0.000    3.000    0.000    0.000 
#    0.000    0.000    0.000    0.000    0.000    0.000 
#
# Total GULP energy -267912.325663 kJ/mol
# GULP energy per Si atom -5581.506785 kJ/mol
# Density = 1.982177 g / cm^3
# Si number density = 19.866988 Si / 1000 Ang^3
#
#
#
# Elastic Constant Matrix: (Units=GPa)
#
#
# Indices 1 2 3 4 5 6 
#
# 1 20.9188 14.1999 11.1206 0.0000 0.0000 0.0000
# 2 14.1999 154.7238 42.4921 0.0000 0.0000 0.0000
# 3 11.1206 42.4921 74.3726 0.0000 0.0000 0.0000
# 4 0.0000 0.0000 0.0000 37.3939 0.0000 0.0000
# 5 0.0000 0.0000 0.0000 0.0000 10.7226 0.0000
# 6 0.0000 0.0000 0.0000 0.0000 0.0000 12.1673
#
#
#
# Elastic Compliance Matrix: (Units=1/GPa)
#
#
# Indices 1 2 3 4 5 6 
#
# 1 0.053237 -0.003202 -0.006131 0.000000 0.000000 0.000000
# 2 -0.003202 0.007859 -0.004011 0.000000 0.000000 0.000000
# 3 -0.006131 -0.004011 0.016654 0.000000 0.000000 0.000000
# 4 0.000000 0.000000 0.000000 0.026742 0.000000 0.000000
# 5 0.000000 0.000000 0.000000 0.000000 0.093261 0.000000
# 6 0.000000 0.000000 0.000000 0.000000 0.000000 0.082188
#
#
# Mechanical properties :
#
#
# Convention : Reuss Voigt Hill
#
# Bulk Modulus (GPa) = 19.58423 42.84891 31.21657
# Shear Modulus (GPa) = 15.44883 24.20359 19.82621
#
# Velocity S-wave (km/s) = 2.79160 3.49418 3.16246
# Velocity P-wave (km/s) = 4.50219 6.15579 5.39275
#
# Compressibility (1/GPa) = 0.05106150
#
# Stress axis : x y z
#
# Youngs Moduli (GPa) = 18.78405 127.24918 60.04474
#
# Poissons Ratio (x) = 0.40747 0.36812
# Poissons Ratio (y) = 0.06015 0.24085
# Poissons Ratio (z) = 0.11516 0.51041
#
# Static dielectric constant tensor:
#      x y z
#    x 1.717740 0.000000 0.000000 
#    y 0.000000 1.710650 0.000000 
#    z 0.000000 0.000000 1.669300 
# 
# From -- ./inp_files/9930.got.cif
#   From: 2010.05.17/outbox.cif.g08.bks.cpg/sg53_5_cif.got.tgz:9930.got - 2010.06.03 12:45:16.
