data_PCOD9417973
_publ_section_title
;
Structure prediction by ZEFSAII (Michael W. Deem and Ramdas Pophale) SiO2 
 PCOD9417973
Probable space group: P M N A
;
_chemical_formula_sum "Si O2"
_cell_formula_units_Z 64
_cell_length_a 8.123677
_cell_length_b 14.796027
_cell_length_c 26.162303
_cell_angle_alpha 90.000000
_cell_angle_beta 90.000000
_cell_angle_gamma 90.000000
_cell_volume 3144.660269
_symmetry_space_group_name_H-M "P M N A"
_symmetry_group_IT_number 53
_symmetry_cell_setting 'orthorhombic'
loop_
_space_group_symop_operation_xyz
x,y,z
1/2-x,-y,1/2+z
x,-y,-z
1/2-x,y,1/2-z
-x,-y,-z
1/2+x,y,1/2-z
-x,y,z
1/2+x,-y,1/2+z
loop_
_atom_site_type_symbol
_atom_site_label
_atom_site_fract_x
_atom_site_fract_y
_atom_site_fract_z
Si Si1 0.692089 0.097883 0.015367
Si Si2 0.799955 0.379279 0.102699
Si Si3 0.694223 0.916950 0.628563
Si Si4 0.193761 0.749014 0.692453
Si Si5 0.201555 0.411755 0.901754
Si Si6 0.301466 0.708502 0.307301
Si Si7 0.196586 0.292102 0.996756
Si Si8 0.198594 0.913816 0.192398
O O1 0.500000 0.097804 0.002343
O O2 0.716141 0.106826 0.076130
O O3 0.768279 0.186356 0.989581
O O4 0.763279 0.000000 0.000000
O O5 0.734961 0.331855 0.153583
O O6 0.749880 0.483717 0.097891
O O7 0.000000 0.375177 0.104398
O O8 0.742727 0.325511 0.052140
O O9 0.500000 0.924086 0.617008
O O10 0.719045 0.837937 0.669695
O O11 0.755825 0.011076 0.652463
O O12 0.250000 0.730084 0.750000
O O13 0.000000 0.766051 0.692201
O O14 0.256074 0.360209 0.850599
O O15 0.258863 0.355445 0.951098
O O16 0.000000 0.410743 0.902344
O O17 0.250000 0.683526 0.250000
O O18 0.500000 0.710249 0.308923
O O19 0.243249 0.811435 0.317500
O O20 0.000000 0.303267 0.997797
O O21 0.250000 0.938340 0.250000
O O22 0.000000 0.913960 0.190536
#
# Coordination Sequence:
#
# PCOD9417973 Si02
#       8
#     8   8   8   8   8   8   8   8
#     4  11  25  41  57  85 125 163 195 238 299 357
#     4  10  20  38  61  90 121 152 197 250 304 360
#     4  11  22  38  61  88 116 152 198 248 299 358
#     4  12  25  41  62  88 123 163 205 253 306 365
#     4   9  19  35  61  90 117 152 197 249 299 355
#     4   9  18  35  55  80 115 151 188 235 290 345
#     4  10  20  37  64  90 117 155 200 247 298 358
#     4   9  19  33  53  80 110 144 186 230 279 339
#
# _framework density 20.351960999999999
#
# number of rings (size 3 to 8) (size 9 to 14) (size 15 to 20)
#    0.000    1.875    1.250    2.625    1.750    5.000 
#    0.000    3.125    0.000    1.500    0.000    0.000 
#    0.000    0.000    0.000    0.000    0.000    0.000 
#
# Total GULP energy -357572.172478 kJ/mol
# GULP energy per Si atom -5587.065195 kJ/mol
# Density = 2.030564 g / cm^3
# Si number density = 20.351961 Si / 1000 Ang^3
#
#
#
# Elastic Constant Matrix: (Units=GPa)
#
#
# Indices 1 2 3 4 5 6 
#
# 1 10.7069 -4.5676 -2.8568 0.0000 0.0000 0.0000
# 2 -4.5676 123.6000 64.3036 0.0000 0.0000 0.0000
# 3 -2.8568 64.3036 106.3738 0.0000 0.0000 0.0000
# 4 0.0000 0.0000 0.0000 -2.0929 0.0000 0.0000
# 5 0.0000 0.0000 0.0000 0.0000 15.2046 0.0000
# 6 0.0000 0.0000 0.0000 0.0000 0.0000 14.3554
#
#
#
# Elastic Compliance Matrix: (Units=1/GPa)
#
#
# Indices 1 2 3 4 5 6 
#
# 1 0.094922 0.003182 0.000625 0.000000 0.000000 0.000000
# 2 0.003182 0.011909 -0.007114 0.000000 0.000000 0.000000
# 3 0.000625 -0.007114 0.013718 0.000000 0.000000 0.000000
# 4 0.000000 0.000000 0.000000 -0.477805 0.000000 0.000000
# 5 0.000000 0.000000 0.000000 0.000000 0.065770 0.000000
# 6 0.000000 0.000000 0.000000 0.000000 0.000000 0.069660
#
#
# Mechanical properties :
#
#
# Convention : Reuss Voigt Hill
#
# Bulk Modulus (GPa) = 8.77673 39.38214 24.07944
# Shear Modulus (GPa) = -28.21117 17.74683 -5.23217
#
# Velocity S-wave (km/s) = -3.72716 2.95616 -1.60512
# Velocity P-wave (km/s) = 3.76835 5.57175 2.90206
#
# Compressibility (1/GPa) = 0.11393759
#
# Stress axis : x y z
#
# Youngs Moduli (GPa) = 10.53494 83.96897 72.89758
#
# Poissons Ratio (x) = -0.26722 -0.04559
# Poissons Ratio (y) = -0.03353 0.51857
# Poissons Ratio (z) = -0.00659 0.59733
#
# Static dielectric constant tensor:
#      x y z
#    x 1.725410 0.000000 0.000000 
#    y 0.000000 1.718490 0.000000 
#    z 0.000000 0.000000 1.695160 
# 
# From -- ./inp_files/34239.got.cif
#   From: 2010.05.17/outbox.cif.g08.bks.cpg/sg53_18_cif.got.tgz:34239.got - 2010.06.03 12:45:16.
