data_PCOD9417866
_publ_section_title
;
Structure prediction by ZEFSAII (Michael W. Deem and Ramdas Pophale) SiO2 
 PCOD9417866
Probable space group: P M N A
;
_chemical_formula_sum "Si O2"
_cell_formula_units_Z 40
_cell_length_a 8.655025
_cell_length_b 26.079686
_cell_length_c 9.395329
_cell_angle_alpha 90.000000
_cell_angle_beta 90.000000
_cell_angle_gamma 90.000000
_cell_volume 2120.716803
_symmetry_space_group_name_H-M "P M N A"
_symmetry_group_IT_number 53
_symmetry_cell_setting 'orthorhombic'
loop_
_space_group_symop_operation_xyz
x,y,z
1/2-x,-y,1/2+z
x,-y,-z
1/2-x,y,1/2-z
-x,-y,-z
1/2+x,y,1/2-z
-x,y,z
1/2+x,-y,1/2+z
loop_
_atom_site_type_symbol
_atom_site_label
_atom_site_fract_x
_atom_site_fract_y
_atom_site_fract_z
Si Si1 0.814870 0.948953 0.909537
Si Si2 0.685936 0.762559 0.591667
Si Si3 0.313962 0.354973 0.406454
Si Si4 0.313373 0.549203 0.407855
Si Si5 0.315500 0.145445 0.908893
O O1 0.750000 0.952770 0.750000
O O2 0.000000 0.943241 0.903400
O O3 0.743695 0.900654 0.991649
O O4 0.778749 0.000000 0.000000
O O5 0.750000 0.773926 0.750000
O O6 0.500000 0.766649 0.593433
O O7 0.729945 0.703584 0.557499
O O8 0.755091 0.802154 0.479700
O O9 0.250000 0.366647 0.250000
O O10 0.500000 0.356463 0.400151
O O11 0.261553 0.398211 0.516386
O O12 0.264574 0.500000 0.500000
O O13 0.250000 0.545453 0.250000
O O14 0.500000 0.549412 0.403546
O O15 0.250000 0.139394 0.750000
O O16 0.500000 0.145274 0.904307
#
# Coordination Sequence:
#
# PCOD9417866 Si02
#       5
#     8   8   8   8   8
#     4  11  24  42  65  92 122 156 194 236 284 338
#     4  10  20  37  59  84 115 150 191 235 283 338
#     4   9  19  35  56  82 111 145 185 230 278 333
#     4  10  21  36  54  79 110 143 183 229 278 334
#     4  12  25  41  61  86 118 154 194 239 288 339
#
# _framework density 18.861547000000002
#
# number of rings (size 3 to 8) (size 9 to 14) (size 15 to 20)
#    0.000    1.600    0.000    4.800    0.000    6.000 
#    0.000    2.000    0.000    0.000    0.000    0.000 
#    0.000    0.000    0.000    0.000    0.000    0.000 
#
# Total GULP energy -223620.393443 kJ/mol
# GULP energy per Si atom -5590.509836 kJ/mol
# Density = 1.881862 g / cm^3
# Si number density = 18.861547 Si / 1000 Ang^3
#
#
#
# Elastic Constant Matrix: (Units=GPa)
#
#
# Indices 1 2 3 4 5 6 
#
# 1 65.0928 57.2563 61.3165 0.0000 0.0000 0.0000
# 2 57.2563 135.7497 119.8749 0.0000 0.0000 0.0000
# 3 61.3165 119.8749 192.3469 0.0000 0.0000 0.0000
# 4 0.0000 0.0000 0.0000 41.3279 0.0000 0.0000
# 5 0.0000 0.0000 0.0000 0.0000 38.9530 0.0000
# 6 0.0000 0.0000 0.0000 0.0000 0.0000 -169.9627
#
#
#
# Elastic Compliance Matrix: (Units=1/GPa)
#
#
# Indices 1 2 3 4 5 6 
#
# 1 0.025249 -0.007877 -0.003140 0.000000 0.000000 0.000000
# 2 -0.007877 0.018840 -0.009230 0.000000 0.000000 0.000000
# 3 -0.003140 -0.009230 0.011952 0.000000 0.000000 0.000000
# 4 0.000000 0.000000 0.000000 0.024197 0.000000 0.000000
# 5 0.000000 0.000000 0.000000 0.000000 0.025672 0.000000
# 6 0.000000 0.000000 0.000000 0.000000 0.000000 -0.005884
#
#
# Mechanical properties :
#
#
# Convention : Reuss Voigt Hill
#
# Bulk Modulus (GPa) = 64.32101 96.67609 80.49855
# Shear Modulus (GPa) = 34.31654 -7.62024 13.34815
#
# Velocity S-wave (km/s) = 4.27006 -2.01218 2.66313
# Velocity P-wave (km/s) = 7.64767 6.78000 7.22687
#
# Compressibility (1/GPa) = 0.01554702
#
# Stress axis : x y z
#
# Youngs Moduli (GPa) = 39.60576 53.07945 83.66489
#
# Poissons Ratio (x) = 0.41809 0.26270
# Poissons Ratio (y) = 0.31196 0.77226
# Poissons Ratio (z) = 0.12436 0.48994
#
# Static dielectric constant tensor:
#      x y z
#    x 1.632410 0.000000 0.000000 
#    y 0.000000 1.655980 0.000000 
#    z 0.000000 0.000000 1.601820 
# 
# From -- ./inp_files/6250.got.cif
#   From: 2010.05.17/outbox.cif.g08.bks.cpg/sg53_4_cif.got.tgz:6250.got - 2010.06.03 12:45:16.
