data_PCOD9417210
_publ_section_title
;
Structure prediction by ZEFSAII (Michael W. Deem and Ramdas Pophale) SiO2 
 PCOD9417210
Probable space group: P M N A
;
_chemical_formula_sum "Si O2"
_cell_formula_units_Z 56
_cell_length_a 8.239765
_cell_length_b 15.015018
_cell_length_c 21.990438
_cell_angle_alpha 90.000000
_cell_angle_beta 90.000000
_cell_angle_gamma 90.000000
_cell_volume 2720.661823
_symmetry_space_group_name_H-M "P M N A"
_symmetry_group_IT_number 53
_symmetry_cell_setting 'orthorhombic'
loop_
_space_group_symop_operation_xyz
x,y,z
1/2-x,-y,1/2+z
x,-y,-z
1/2-x,y,1/2-z
-x,-y,-z
1/2+x,y,1/2-z
-x,y,z
1/2+x,-y,1/2+z
loop_
_atom_site_type_symbol
_atom_site_label
_atom_site_fract_x
_atom_site_fract_y
_atom_site_fract_z
Si Si1 0.807248 0.373487 0.682038
Si Si2 0.682812 0.571292 0.655166
Si Si3 0.691871 0.746862 0.070242
Si Si4 0.196433 0.952235 0.820674
Si Si5 0.805868 0.053549 0.939996
Si Si6 0.805001 0.239141 0.183327
Si Si7 0.815351 0.405024 0.012497
O O1 0.750000 0.352675 0.750000
O O2 0.760963 0.475722 0.666443
O O3 0.744525 0.305042 0.630614
O O4 0.000000 0.368212 0.680457
O O5 0.500000 0.563689 0.681342
O O6 0.767556 0.662000 0.676906
O O7 0.670682 0.594161 0.584327
O O8 0.500000 0.760548 0.077164
O O9 0.770862 0.841539 0.056755
O O10 0.725012 0.677890 0.015706
O O11 0.250000 0.969687 0.750000
O O12 0.242269 0.853650 0.848258
O O13 0.000000 0.953225 0.817591
O O14 0.253766 0.019305 0.873579
O O15 0.000000 0.040105 0.939254
O O16 0.744289 0.000000 0.000000
O O17 0.750000 0.213647 0.250000
O O18 0.000000 0.248721 0.175693
O O19 0.000000 0.405987 0.986330
O O20 0.733842 0.500000 0.000000
#
# Coordination Sequence:
#
# PCOD9417210 Si02
#       7
#     8   8   8   8   8   8   8
#     4  11  24  40  59  84 119 160 202 248 295 350
#     4  10  20  34  57  87 118 155 196 242 289 343
#     4  11  25  42  60  87 122 157 194 245 304 362
#     4   9  19  37  60  87 117 153 195 244 301 363
#     4  10  23  42  67  92 117 153 202 256 307 365
#     4   9  18  32  52  80 115 148 185 229 281 342
#     4  10  20  36  61  88 116 154 197 238 284 347
#
# _framework density 20.583227999999998
#
# number of rings (size 3 to 8) (size 9 to 14) (size 15 to 20)
#    0.000    2.000    1.429    1.286    2.000    5.714 
#    0.000    2.857    0.000    0.000    0.000    0.000 
#    0.000    0.000    0.000    0.000    0.000    0.000 
#
# Total GULP energy -311767.292752 kJ/mol
# GULP energy per Si atom -5567.273085 kJ/mol
# Density = 2.053638 g / cm^3
# Si number density = 20.583228 Si / 1000 Ang^3
#
#
#
# Elastic Constant Matrix: (Units=GPa)
#
#
# Indices 1 2 3 4 5 6 
#
# 1 15.2935 3.8247 9.5898 0.0000 0.0000 0.0000
# 2 3.8247 133.4717 45.0807 0.0000 0.0000 0.0000
# 3 9.5898 45.0807 87.6211 0.0000 0.0000 0.0000
# 4 0.0000 0.0000 0.0000 32.0370 0.0000 0.0000
# 5 0.0000 0.0000 0.0000 0.0000 23.0204 0.0000
# 6 0.0000 0.0000 0.0000 0.0000 0.0000 21.9004
#
#
#
# Elastic Compliance Matrix: (Units=1/GPa)
#
#
# Indices 1 2 3 4 5 6 
#
# 1 0.070261 0.000707 -0.008053 0.000000 0.000000 0.000000
# 2 0.000707 0.009075 -0.004746 0.000000 0.000000 0.000000
# 3 -0.008053 -0.004746 0.014736 0.000000 0.000000 0.000000
# 4 0.000000 0.000000 0.000000 0.031214 0.000000 0.000000
# 5 0.000000 0.000000 0.000000 0.000000 0.043440 0.000000
# 6 0.000000 0.000000 0.000000 0.000000 0.000000 0.045661
#
#
# Mechanical properties :
#
#
# Convention : Reuss Voigt Hill
#
# Bulk Modulus (GPa) = 14.30908 39.26406 26.78657
# Shear Modulus (GPa) = 19.09358 27.25097 23.17228
#
# Velocity S-wave (km/s) = 3.04900 3.64255 3.35891
# Velocity P-wave (km/s) = 4.40024 6.06696 5.29954
#
# Compressibility (1/GPa) = 0.06988570
#
# Stress axis : x y z
#
# Youngs Moduli (GPa) = 14.23274 110.19145 67.86006
#
# Poissons Ratio (x) = -0.07787 0.54650
# Poissons Ratio (y) = -0.01006 0.32209
# Poissons Ratio (z) = 0.11462 0.52302
#
# Static dielectric constant tensor:
#      x y z
#    x 1.698320 0.000000 0.000000 
#    y 0.000000 1.854680 0.000000 
#    z 0.000000 0.000000 1.756550 
# 
# From -- ./inp_files/30851.got.cif
#   From: 2010.05.17/outbox.cif.g08.bks.cpg/sg53_16_cif.got.tgz:30851.got - 2010.06.03 12:45:16.
