data_PCOD9417852
_publ_section_title
;
Structure prediction by ZEFSAII (Michael W. Deem and Ramdas Pophale) SiO2 
 PCOD9417852
Probable space group: P M N A
;
_chemical_formula_sum "Si O2"
_cell_formula_units_Z 44
_cell_length_a 29.275106
_cell_length_b 5.084029
_cell_length_c 15.712356
_cell_angle_alpha 90.000000
_cell_angle_beta 90.000000
_cell_angle_gamma 90.000000
_cell_volume 2338.556171
_symmetry_space_group_name_H-M "P M N A"
_symmetry_group_IT_number 53
_symmetry_cell_setting 'orthorhombic'
loop_
_space_group_symop_operation_xyz
x,y,z
1/2-x,-y,1/2+z
x,-y,-z
1/2-x,y,1/2-z
-x,-y,-z
1/2+x,y,1/2-z
-x,y,z
1/2+x,-y,1/2+z
loop_
_atom_site_type_symbol
_atom_site_label
_atom_site_fract_x
_atom_site_fract_y
_atom_site_fract_z
Si Si1 0.414391 0.106403 0.672421
Si Si2 0.184995 0.118662 0.906636
Si Si3 0.105178 0.604915 0.727556
Si Si4 0.500000 0.248657 0.560489
Si Si5 0.205612 0.621937 0.804182
Si Si6 0.552463 0.246071 0.059979
O O1 0.368944 0.115026 0.614960
O O2 0.408158 0.305249 0.751647
O O3 0.455952 0.219295 0.619352
O O4 0.418142 0.808696 0.705823
O O5 0.200247 0.411916 0.881111
O O6 0.208461 0.913653 0.842306
O O7 0.192525 0.000000 0.000000
O O8 0.159413 0.617301 0.747080
O O9 0.087392 0.699029 0.636384
O O10 0.500000 0.500000 0.500000
O O11 0.500000 0.000000 0.500000
O O12 0.250000 0.556637 0.750000
O O13 0.500000 0.205231 0.092504
O O14 0.551893 0.500000 0.000000
O O15 0.564329 0.000000 0.000000
#
# Coordination Sequence:
#
# PCOD9417852 Si02
#       6
#     8   8   8   4   8   8
#     4  10  22  35  56  82 111 152 186 228 272 331
#     4  10  20  37  59  83 112 149 190 229 280 341
#     4  10  21  38  58  81 110 150 190 228 287 344
#     4  12  24  36  52  82 118 148 184 230 278 318
#     4  10  21  38  59  84 114 146 188 240 286 339
#     4  10  21  36  56  82 110 145 185 235 284 330
#
# _framework density 18.815028000000002
#
# number of rings (size 3 to 8) (size 9 to 14) (size 15 to 20)
#    0.000    1.818    0.000    3.818    2.545    2.909 
#    0.000    2.727    0.000    0.000    0.000    0.000 
#    0.000    0.000    0.000    0.000    0.000    0.000 
#
# Total GULP energy -245552.690255 kJ/mol
# GULP energy per Si atom -5580.742960 kJ/mol
# Density = 1.877220 g / cm^3
# Si number density = 18.815028 Si / 1000 Ang^3
#
#
#
# Elastic Constant Matrix: (Units=GPa)
#
#
# Indices 1 2 3 4 5 6 
#
# 1 62.1243 19.7450 55.0354 0.0000 0.0000 0.0000
# 2 19.7450 95.1413 13.1289 0.0000 0.0000 0.0000
# 3 55.0354 13.1289 86.8493 0.0000 0.0000 0.0000
# 4 0.0000 0.0000 0.0000 38.0695 0.0000 0.0000
# 5 0.0000 0.0000 0.0000 0.0000 6.1580 0.0000
# 6 0.0000 0.0000 0.0000 0.0000 0.0000 7.5981
#
#
#
# Elastic Compliance Matrix: (Units=1/GPa)
#
#
# Indices 1 2 3 4 5 6 
#
# 1 0.038688 -0.004745 -0.023799 0.000000 0.000000 0.000000
# 2 -0.004745 0.011317 0.001296 0.000000 0.000000 0.000000
# 3 -0.023799 0.001296 0.026399 0.000000 0.000000 0.000000
# 4 0.000000 0.000000 0.000000 0.026268 0.000000 0.000000
# 5 0.000000 0.000000 0.000000 0.000000 0.162390 0.000000
# 6 0.000000 0.000000 0.000000 0.000000 0.000000 0.131611
#
#
# Mechanical properties :
#
#
# Convention : Reuss Voigt Hill
#
# Bulk Modulus (GPa) = 45.64438 46.65929 46.15184
# Shear Modulus (GPa) = 10.90580 20.77883 15.84232
#
# Velocity S-wave (km/s) = 2.41017 3.32682 2.90488
# Velocity P-wave (km/s) = 5.66193 6.29363 5.98612
#
# Compressibility (1/GPa) = 0.02190850
#
# Stress axis : x y z
#
# Youngs Moduli (GPa) = 25.84771 88.36601 37.87969
#
# Poissons Ratio (x) = 0.41929 0.90150
# Poissons Ratio (y) = 0.12265 -0.04910
# Poissons Ratio (z) = 0.61515 -0.11453
#
# Static dielectric constant tensor:
#      x y z
#    x 1.663950 0.000000 0.000000 
#    y 0.000000 1.572360 0.000000 
#    z 0.000000 0.000000 1.621920 
# 
# From -- ./inp_files/24854.got.cif
#   From: 2010.05.17/outbox.cif.g08.bks.cpg/sg53_13_cif.got.tgz:24854.got - 2010.06.03 12:45:16.
