data_PCOD9417450
_publ_section_title
;
Structure prediction by ZEFSAII (Michael W. Deem and Ramdas Pophale) SiO2 
 PCOD9417450
Probable space group: P M N A
;
_chemical_formula_sum "Si O2"
_cell_formula_units_Z 56
_cell_length_a 14.510272
_cell_length_b 9.367109
_cell_length_c 21.742889
_cell_angle_alpha 90.000000
_cell_angle_beta 90.000000
_cell_angle_gamma 90.000000
_cell_volume 2955.278241
_symmetry_space_group_name_H-M "P M N A"
_symmetry_group_IT_number 53
_symmetry_cell_setting 'orthorhombic'
loop_
_space_group_symop_operation_xyz
x,y,z
1/2-x,-y,1/2+z
x,-y,-z
1/2-x,y,1/2-z
-x,-y,-z
1/2+x,y,1/2-z
-x,y,z
1/2+x,-y,1/2+z
loop_
_atom_site_type_symbol
_atom_site_label
_atom_site_fract_x
_atom_site_fract_y
_atom_site_fract_z
Si Si1 0.760615 0.337689 0.524670
Si Si2 0.248433 0.072652 0.819778
Si Si3 0.391966 0.611859 0.666457
Si Si4 0.890662 0.694560 0.359736
Si Si5 0.108762 0.286898 0.875873
Si Si6 0.390536 0.616189 0.806038
Si Si7 0.760572 0.789400 0.604106
O O1 0.753376 0.500000 0.500000
O O2 0.842865 0.329127 0.574155
O O3 0.667701 0.294969 0.561215
O O4 0.778468 0.232984 0.467668
O O5 0.250000 0.016877 0.750000
O O6 0.336329 0.175346 0.829039
O O7 0.158785 0.169661 0.833603
O O8 0.251844 0.948014 0.870010
O O9 0.500000 0.643075 0.660353
O O10 0.379724 0.443531 0.654283
O O11 0.362176 0.646217 0.736028
O O12 0.332526 0.702909 0.619567
O O13 0.873616 0.549889 0.321358
O O14 0.000000 0.717605 0.363904
O O15 0.000000 0.260530 0.884213
O O16 0.500000 0.639546 0.810416
O O17 0.338161 0.710766 0.855461
#
# Coordination Sequence:
#
# PCOD9417450 Si02
#       7
#     8   8   8   8   8   8   8
#     4  11  21  39  62  92 120 158 202 252 297 351
#     4  11  24  40  60  87 121 159 195 243 306 366
#     4  10  20  35  58  86 113 149 200 251 298 349
#     4  10  22  40  63  88 117 159 204 247 295 354
#     4  10  22  40  63  88 117 159 204 247 295 354
#     4  10  20  35  58  86 113 149 200 251 298 349
#     4  12  23  38  58  87 124 158 195 245 304 354
#
# _framework density 18.949147
#
# number of rings (size 3 to 8) (size 9 to 14) (size 15 to 20)
#    0.000    1.429    2.857    3.000    0.000    6.857 
#    0.000    1.429    0.000    0.000    0.000    0.000 
#    0.000    0.000    0.000    0.000    0.000    0.000 
#
# Total GULP energy -312946.066006 kJ/mol
# GULP energy per Si atom -5588.322607 kJ/mol
# Density = 1.890602 g / cm^3
# Si number density = 18.949147 Si / 1000 Ang^3
#
#
#
# Elastic Constant Matrix: (Units=GPa)
#
#
# Indices 1 2 3 4 5 6 
#
# 1 57.6895 16.4981 -17.0454 0.0000 0.0000 0.0000
# 2 16.4981 48.1681 -15.3306 0.0000 0.0000 0.0000
# 3 -17.0454 -15.3306 59.7235 0.0000 0.0000 0.0000
# 4 0.0000 0.0000 0.0000 16.9605 0.0000 0.0000
# 5 0.0000 0.0000 0.0000 0.0000 5.8077 0.0000
# 6 0.0000 0.0000 0.0000 0.0000 0.0000 -10.5799
#
#
#
# Elastic Compliance Matrix: (Units=1/GPa)
#
#
# Indices 1 2 3 4 5 6 
#
# 1 0.020201 -0.005536 0.004344 0.000000 0.000000 0.000000
# 2 -0.005536 0.024125 0.004613 0.000000 0.000000 0.000000
# 3 0.004344 0.004613 0.019168 0.000000 0.000000 0.000000
# 4 0.000000 0.000000 0.000000 0.058960 0.000000 0.000000
# 5 0.000000 0.000000 0.000000 0.000000 0.172184 0.000000
# 6 0.000000 0.000000 0.000000 0.000000 0.000000 -0.094519
#
#
# Mechanical properties :
#
#
# Convention : Reuss Voigt Hill
#
# Bulk Modulus (GPa) = 14.21770 14.86948 14.54359
# Shear Modulus (GPa) = 23.07090 14.53494 18.80292
#
# Velocity S-wave (km/s) = 3.49308 2.77257 3.15347
# Velocity P-wave (km/s) = 4.87731 4.25601 4.57721
#
# Compressibility (1/GPa) = 0.07033487
#
# Stress axis : x y z
#
# Youngs Moduli (GPa) = 49.50220 41.45078 52.17096
#
# Poissons Ratio (x) = 0.22949 -0.22665
# Poissons Ratio (y) = 0.27407 -0.24064
# Poissons Ratio (z) = -0.21505 -0.19120
#
# Static dielectric constant tensor:
#      x y z
#    x 1.608900 0.000000 0.000000 
#    y 0.000000 1.644170 0.000000 
#    z 0.000000 0.000000 1.661050 
# 
# From -- ./inp_files/32466.got.cif
#   From: 2010.05.17/outbox.cif.g08.bks.cpg/sg53_17_cif.got.tgz:32466.got - 2010.06.03 12:45:16.
