data_PCOD9417582
_publ_section_title
;
Structure prediction by ZEFSAII (Michael W. Deem and Ramdas Pophale) SiO2 
 PCOD9417582
Probable space group: P M N A
;
_chemical_formula_sum "Si O2"
_cell_formula_units_Z 40
_cell_length_a 8.452331
_cell_length_b 26.084290
_cell_length_c 9.928043
_cell_angle_alpha 90.000000
_cell_angle_beta 90.000000
_cell_angle_gamma 90.000000
_cell_volume 2188.865950
_symmetry_space_group_name_H-M "P M N A"
_symmetry_group_IT_number 53
_symmetry_cell_setting 'orthorhombic'
loop_
_space_group_symop_operation_xyz
x,y,z
1/2-x,-y,1/2+z
x,-y,-z
1/2-x,y,1/2-z
-x,-y,-z
1/2+x,y,1/2-z
-x,y,z
1/2+x,-y,1/2+z
loop_
_atom_site_type_symbol
_atom_site_label
_atom_site_fract_x
_atom_site_fract_y
_atom_site_fract_z
Si Si1 0.310351 0.248850 0.902816
Si Si2 0.810012 0.839081 0.901050
Si Si3 0.191115 0.544119 0.600207
Si Si4 0.690917 0.043856 0.399299
Si Si5 0.191122 0.660596 0.599178
O O1 0.250000 0.248634 0.750000
O O2 0.500000 0.249486 0.899812
O O3 0.254654 0.199816 0.988304
O O4 0.254957 0.298537 0.988315
O O5 0.750000 0.826488 0.750000
O O6 0.759624 0.897775 0.931964
O O7 0.000000 0.836804 0.900024
O O8 0.247943 0.500000 0.500000
O O9 0.250000 0.533261 0.750000
O O10 0.242134 0.602307 0.566174
O O11 0.000000 0.543807 0.599114
O O12 0.750000 0.032492 0.250000
O O13 0.500000 0.043423 0.400309
O O14 0.748373 0.000000 0.500000
O O15 0.250000 0.673181 0.750000
O O16 0.000000 0.661572 0.602506
#
# Coordination Sequence:
#
# PCOD9417582 Si02
#       5
#     8   8   8   8   8
#     4  11  23  37  53  76 106 137 172 215 263 310
#     4  10  20  36  57  79 105 138 176 214 255 307
#     4   9  18  33  52  75 103 133 168 209 252 301
#     4   9  19  35  54  78 106 136 171 210 253 302
#     4   9  19  35  54  75 100 134 172 209 252 304
#
# _framework density 18.274304000000001
#
# number of rings (size 3 to 8) (size 9 to 14) (size 15 to 20)
#    0.000    2.400    0.000    1.800    0.000    6.400 
#    0.000    2.000    0.000    0.000    0.000    0.000 
#    0.000    0.000    0.000    0.000    0.000    0.000 
#
# Total GULP energy -223202.766674 kJ/mol
# GULP energy per Si atom -5580.069167 kJ/mol
# Density = 1.823271 g / cm^3
# Si number density = 18.274304 Si / 1000 Ang^3
#
#
#
# Elastic Constant Matrix: (Units=GPa)
#
#
# Indices 1 2 3 4 5 6 
#
# 1 19.7567 29.5310 28.6894 0.0000 0.0000 0.0000
# 2 29.5310 167.1481 148.6127 0.0000 0.0000 0.0000
# 3 28.6894 148.6127 173.1528 0.0000 0.0000 0.0000
# 4 0.0000 0.0000 0.0000 37.8456 0.0000 0.0000
# 5 0.0000 0.0000 0.0000 0.0000 34.1450 0.0000
# 6 0.0000 0.0000 0.0000 0.0000 0.0000 25.3187
#
#
#
# Elastic Compliance Matrix: (Units=1/GPa)
#
#
# Indices 1 2 3 4 5 6 
#
# 1 0.069469 -0.008610 -0.004121 0.000000 0.000000 0.000000
# 2 -0.008610 0.026321 -0.021164 0.000000 0.000000 0.000000
# 3 -0.004121 -0.021164 0.024623 0.000000 0.000000 0.000000
# 4 0.000000 0.000000 0.000000 0.026423 0.000000 0.000000
# 5 0.000000 0.000000 0.000000 0.000000 0.029287 0.000000
# 6 0.000000 0.000000 0.000000 0.000000 0.000000 0.039496
#
#
# Mechanical properties :
#
#
# Convention : Reuss Voigt Hill
#
# Bulk Modulus (GPa) = 19.00302 85.96931 52.48616
# Shear Modulus (GPa) = 16.61410 29.67683 23.14547
#
# Velocity S-wave (km/s) = 3.01848 4.03422 3.56273
# Velocity P-wave (km/s) = 4.75075 8.29734 6.76075
#
# Compressibility (1/GPa) = 0.05262322
#
# Stress axis : x y z
#
# Youngs Moduli (GPa) = 14.39501 37.99227 40.61287
#
# Poissons Ratio (x) = 0.32710 0.16735
# Poissons Ratio (y) = 0.12394 0.85954
# Poissons Ratio (z) = 0.05932 0.80408
#
# Static dielectric constant tensor:
#      x y z
#    x 1.629100 0.000000 0.000000 
#    y 0.000000 1.651670 0.000000 
#    z 0.000000 0.000000 1.580050 
# 
# From -- ./inp_files/6247.got.cif
#   From: 2010.05.17/outbox.cif.g08.bks.cpg/sg53_4_cif.got.tgz:6247.got - 2010.06.03 12:45:16.
