data_PCOD9417414
_publ_section_title
;
Structure prediction by ZEFSAII (Michael W. Deem and Ramdas Pophale) SiO2 
 PCOD9417414
Probable space group: P M N A
;
_chemical_formula_sum "Si O2"
_cell_formula_units_Z 48
_cell_length_a 8.690822
_cell_length_b 31.565499
_cell_length_c 9.241908
_cell_angle_alpha 90.000000
_cell_angle_beta 90.000000
_cell_angle_gamma 90.000000
_cell_volume 2535.333852
_symmetry_space_group_name_H-M "P M N A"
_symmetry_group_IT_number 53
_symmetry_cell_setting 'orthorhombic'
loop_
_space_group_symop_operation_xyz
x,y,z
1/2-x,-y,1/2+z
x,-y,-z
1/2-x,y,1/2-z
-x,-y,-z
1/2+x,y,1/2-z
-x,y,z
1/2+x,-y,1/2+z
loop_
_atom_site_type_symbol
_atom_site_label
_atom_site_fract_x
_atom_site_fract_y
_atom_site_fract_z
Si Si1 0.684833 0.375878 0.411377
Si Si2 0.315742 0.285817 0.088780
Si Si3 0.816000 0.122429 0.088008
Si Si4 0.185698 0.541295 0.089494
Si Si5 0.315813 0.957001 0.088247
Si Si6 0.315211 0.201712 0.911641
O O1 0.750000 0.382030 0.250000
O O2 0.500000 0.374233 0.405004
O O3 0.747855 0.330575 0.463585
O O4 0.732648 0.415404 0.509670
O O5 0.250000 0.278211 0.250000
O O6 0.500000 0.289219 0.098759
O O7 0.276536 0.246762 0.985082
O O8 0.750000 0.120139 0.250000
O O9 0.000000 0.122890 0.093218
O O10 0.758110 0.082289 0.996219
O O11 0.754766 0.164444 0.008907
O O12 0.250000 0.539676 0.250000
O O13 0.000000 0.540770 0.094490
O O14 0.236499 0.500000 0.000000
O O15 0.250000 0.959734 0.250000
O O16 0.500000 0.951368 0.094516
O O17 0.282932 0.000000 0.000000
O O18 0.250000 0.199124 0.750000
O O19 0.500000 0.197426 0.908626
#
# Coordination Sequence:
#
# PCOD9417414 Si02
#       6
#     8   8   8   8   8   8
#     4  10  20  35  57  83 112 146 186 232 281 337
#     4  10  21  37  59  85 114 150 191 235 285 342
#     4  12  25  42  65  91 122 158 199 247 297 352
#     4  10  22  38  56  81 111 145 186 230 279 335
#     4  11  24  42  65  93 126 163 203 247 296 350
#     4  11  24  41  61  87 119 156 197 242 294 348
#
# _framework density 18.932417999999998
#
# number of rings (size 3 to 8) (size 9 to 14) (size 15 to 20)
#    0.000    1.333    0.000    6.500    0.000    9.000 
#    0.000    3.333    0.000    0.000    0.000    0.000 
#    0.000    0.000    0.000    0.000    0.000    0.000 
#
# Total GULP energy -268485.153523 kJ/mol
# GULP energy per Si atom -5593.440698 kJ/mol
# Density = 1.888933 g / cm^3
# Si number density = 18.932418 Si / 1000 Ang^3
#
#
#
# Elastic Constant Matrix: (Units=GPa)
#
#
# Indices 1 2 3 4 5 6 
#
# 1 86.6616 84.6606 68.7432 0.0000 0.0000 0.0000
# 2 84.6606 196.0676 125.3334 0.0000 0.0000 0.0000
# 3 68.7432 125.3334 173.7483 0.0000 0.0000 0.0000
# 4 0.0000 0.0000 0.0000 38.9306 0.0000 0.0000
# 5 0.0000 0.0000 0.0000 0.0000 32.8205 0.0000
# 6 0.0000 0.0000 0.0000 0.0000 0.0000 29.6879
#
#
#
# Elastic Compliance Matrix: (Units=1/GPa)
#
#
# Indices 1 2 3 4 5 6 
#
# 1 0.020911 -0.006941 -0.003266 0.000000 0.000000 0.000000
# 2 -0.006941 0.011769 -0.005743 0.000000 0.000000 0.000000
# 3 -0.003266 -0.005743 0.011190 0.000000 0.000000 0.000000
# 4 0.000000 0.000000 0.000000 0.025687 0.000000 0.000000
# 5 0.000000 0.000000 0.000000 0.000000 0.030469 0.000000
# 6 0.000000 0.000000 0.000000 0.000000 0.000000 0.033684
#
#
# Mechanical properties :
#
#
# Convention : Reuss Voigt Hill
#
# Bulk Modulus (GPa) = 83.54932 112.66133 98.10532
# Shear Modulus (GPa) = 29.48106 32.13716 30.80911
#
# Velocity S-wave (km/s) = 3.95038 4.12450 4.03838
# Velocity P-wave (km/s) = 8.06433 9.07294 8.58347
#
# Compressibility (1/GPa) = 0.01196898
#
# Stress axis : x y z
#
# Youngs Moduli (GPa) = 47.82126 84.97176 89.36181
#
# Poissons Ratio (x) = 0.58982 0.29189
# Poissons Ratio (y) = 0.33194 0.51320
# Poissons Ratio (z) = 0.15620 0.48799
#
# Static dielectric constant tensor:
#      x y z
#    x 1.637940 0.000000 0.000000 
#    y 0.000000 1.646740 0.000000 
#    z 0.000000 0.000000 1.609770 
# 
# From -- ./inp_files/6699.got.cif
#   From: 2010.05.17/outbox.cif.g08.bks.cpg/sg53_4_cif.got.tgz:6699.got - 2010.06.03 12:45:16.
