data_PCOD9417327
_publ_section_title
;
Structure prediction by ZEFSAII (Michael W. Deem and Ramdas Pophale) SiO2 
 PCOD9417327
Probable space group: P M N A
;
_chemical_formula_sum "Si O2"
_cell_formula_units_Z 64
_cell_length_a 9.135919
_cell_length_b 15.161122
_cell_length_c 24.519188
_cell_angle_alpha 90.000000
_cell_angle_beta 90.000000
_cell_angle_gamma 90.000000
_cell_volume 3396.171917
_symmetry_space_group_name_H-M "P M N A"
_symmetry_group_IT_number 53
_symmetry_cell_setting 'orthorhombic'
loop_
_space_group_symop_operation_xyz
x,y,z
1/2-x,-y,1/2+z
x,-y,-z
1/2-x,y,1/2-z
-x,-y,-z
1/2+x,y,1/2-z
-x,y,z
1/2+x,-y,1/2+z
loop_
_atom_site_type_symbol
_atom_site_label
_atom_site_fract_x
_atom_site_fract_y
_atom_site_fract_z
Si Si1 0.677777 0.601574 0.004429
Si Si2 0.674942 0.146067 0.596261
Si Si3 0.176820 0.320063 0.621567
Si Si4 0.672607 0.208252 0.306448
Si Si5 0.673108 0.945462 0.619377
Si Si6 0.675737 0.655494 0.885279
Si Si7 0.674966 0.511510 0.191926
Si Si8 0.334911 0.895290 0.986798
O O1 0.500000 0.600326 0.004952
O O2 0.722417 0.644347 0.061547
O O3 0.726224 0.500000 0.000000
O O4 0.720912 0.649703 0.948550
O O5 0.500000 0.154546 0.594834
O O6 0.747936 0.225785 0.628939
O O7 0.741056 0.147193 0.535014
O O8 0.712604 0.048673 0.619406
O O9 0.216892 0.394161 0.665886
O O10 0.000000 0.311066 0.621677
O O11 0.750000 0.228243 0.250000
O O12 0.500000 0.223309 0.301964
O O13 0.697788 0.107367 0.325159
O O14 0.740141 0.269962 0.352652
O O15 0.500000 0.940713 0.606159
O O16 0.760048 0.895029 0.571830
O O17 0.500000 0.669742 0.883110
O O18 0.705671 0.563707 0.853284
O O19 0.750000 0.494620 0.250000
O O20 0.500000 0.511506 0.199903
O O21 0.500000 0.858938 0.986297
O O22 0.342464 0.000000 0.000000
#
# Coordination Sequence:
#
# PCOD9417327 Si02
#       8
#     8   8   8   8   8   8   8   8
#     4   9  16  32  58  85 115 150 187 229 283 340
#     4  10  20  35  55  79 113 152 184 224 283 340
#     4  10  20  35  56  85 116 148 191 239 277 330
#     4  11  24  41  59  82 112 147 192 241 288 343
#     4   9  20  38  56  76 108 147 185 228 282 338
#     4  10  20  36  60  88 115 149 187 228 285 346
#     4  10  21  37  58  81 111 148 190 234 281 335
#     4   9  17  30  51  79 107 138 180 225 266 320
#
# _framework density 18.844747000000002
#
# number of rings (size 3 to 8) (size 9 to 14) (size 15 to 20)
#    0.000    2.250    1.250    1.500    1.750    5.000 
#    0.000    0.625    0.000    3.750    0.000    0.000 
#    0.000    0.000    0.000    0.000    0.000    0.000 
#
# Total GULP energy -357238.247032 kJ/mol
# GULP energy per Si atom -5581.847610 kJ/mol
# Density = 1.880186 g / cm^3
# Si number density = 18.844747 Si / 1000 Ang^3
#
#
#
# Elastic Constant Matrix: (Units=GPa)
#
#
# Indices 1 2 3 4 5 6 
#
# 1 26.2985 26.6163 15.4858 0.0000 0.0000 0.0000
# 2 26.6163 73.6514 5.9253 0.0000 0.0000 0.0000
# 3 15.4858 5.9253 66.5745 0.0000 0.0000 0.0000
# 4 0.0000 0.0000 0.0000 19.9269 0.0000 0.0000
# 5 0.0000 0.0000 0.0000 0.0000 12.5762 0.0000
# 6 0.0000 0.0000 0.0000 0.0000 0.0000 21.4544
#
#
#
# Elastic Compliance Matrix: (Units=1/GPa)
#
#
# Indices 1 2 3 4 5 6 
#
# 1 0.071501 -0.024678 -0.014435 0.000000 0.000000 0.000000
# 2 -0.024678 0.022193 0.003765 0.000000 0.000000 0.000000
# 3 -0.014435 0.003765 0.018043 0.000000 0.000000 0.000000
# 4 0.000000 0.000000 0.000000 0.050183 0.000000 0.000000
# 5 0.000000 0.000000 0.000000 0.000000 0.079515 0.000000
# 6 0.000000 0.000000 0.000000 0.000000 0.000000 0.046610
#
#
# Mechanical properties :
#
#
# Convention : Reuss Voigt Hill
#
# Bulk Modulus (GPa) = 24.36587 29.17545 26.77066
# Shear Modulus (GPa) = 13.42556 18.69130 16.05843
#
# Velocity S-wave (km/s) = 2.67203 3.15279 2.92232
# Velocity P-wave (km/s) = 4.74105 5.36368 5.06195
#
# Compressibility (1/GPa) = 0.04104102
#
# Stress axis : x y z
#
# Youngs Moduli (GPa) = 13.98573 45.05968 55.42174
#
# Poissons Ratio (x) = 1.11198 0.80004
# Poissons Ratio (y) = 0.34514 -0.20867
# Poissons Ratio (z) = 0.20189 -0.16965
#
# Static dielectric constant tensor:
#      x y z
#    x 1.628780 0.000000 0.000000 
#    y 0.000000 1.682820 0.000000 
#    z 0.000000 0.000000 1.631300 
# 
# From -- ./inp_files/34286.got.cif
#   From: 2010.05.17/outbox.cif.g08.bks.cpg/sg53_18_cif.got.tgz:34286.got - 2010.06.03 12:45:16.
