data_PCOD9417992
_publ_section_title
;
Structure prediction by ZEFSAII (Michael W. Deem and Ramdas Pophale) SiO2 
 PCOD9417992
Probable space group: P M N A
;
_chemical_formula_sum "Si O2"
_cell_formula_units_Z 28
_cell_length_a 21.692057
_cell_length_b 13.266393
_cell_length_c 4.908811
_cell_angle_alpha 90.000000
_cell_angle_beta 90.000000
_cell_angle_gamma 90.000000
_cell_volume 1412.634819
_symmetry_space_group_name_H-M "P M N A"
_symmetry_group_IT_number 53
_symmetry_cell_setting 'orthorhombic'
loop_
_space_group_symop_operation_xyz
x,y,z
1/2-x,-y,1/2+z
x,-y,-z
1/2-x,y,1/2-z
-x,-y,-z
1/2+x,y,1/2-z
-x,y,z
1/2+x,-y,1/2+z
loop_
_atom_site_type_symbol
_atom_site_label
_atom_site_fract_x
_atom_site_fract_y
_atom_site_fract_z
Si Si1 0.878593 0.880575 0.548658
Si Si2 0.750000 0.073209 0.250000
Si Si3 0.570056 0.569989 0.761941
Si Si4 0.070998 0.229109 0.977815
O O1 0.808661 0.863981 0.652140
O O2 0.894446 0.812514 0.287405
O O3 0.881887 0.000000 0.500000
O O4 0.924642 0.855654 0.792498
O O5 0.730862 0.000000 0.500000
O O6 0.565634 0.500000 0.500000
O O7 0.500000 0.596092 0.858645
O O8 0.597297 0.673287 0.640084
O O9 0.598359 0.500000 0.000000
O O10 0.000000 0.251439 0.903384
#
# Coordination Sequence:
#
# PCOD9417992 Si02
#       4
#     8   4   8   8
#     4  11  22  36  54  77 109 148 188 232 277 329
#     4  10  20  38  58  74  98 142 200 244 272 316
#     4   9  17  31  50  72 103 143 184 224 263 313
#     4  11  22  34  52  82 115 147 184 225 284 350
#
# _framework density 19.821116
#
# number of rings (size 3 to 8) (size 9 to 14) (size 15 to 20)
#    0.000    1.714    0.000    6.857    0.000    8.000 
#    0.000    0.000    0.000    0.000    0.000    6.000 
#    0.000    2.286    0.000    0.000    0.000    0.000 
#
# Total GULP energy -156097.035818 kJ/mol
# GULP energy per Si atom -5574.894136 kJ/mol
# Density = 1.977600 g / cm^3
# Si number density = 19.821116 Si / 1000 Ang^3
#
#
#
# Elastic Constant Matrix: (Units=GPa)
#
#
# Indices 1 2 3 4 5 6 
#
# 1 62.4710 42.3769 43.9279 0.0000 0.0000 0.0000
# 2 42.3769 80.9157 51.3851 0.0000 0.0000 0.0000
# 3 43.9279 51.3851 163.4390 0.0000 0.0000 0.0000
# 4 0.0000 0.0000 0.0000 50.6912 0.0000 0.0000
# 5 0.0000 0.0000 0.0000 0.0000 31.4278 0.0000
# 6 0.0000 0.0000 0.0000 0.0000 0.0000 -2.3578
#
#
#
# Elastic Compliance Matrix: (Units=1/GPa)
#
#
# Indices 1 2 3 4 5 6 
#
# 1 0.026272 -0.011589 -0.003418 0.000000 0.000000 0.000000
# 2 -0.011589 0.020553 -0.003347 0.000000 0.000000 0.000000
# 3 -0.003418 -0.003347 0.008089 0.000000 0.000000 0.000000
# 4 0.000000 0.000000 0.000000 0.019727 0.000000 0.000000
# 5 0.000000 0.000000 0.000000 0.000000 0.031819 0.000000
# 6 0.000000 0.000000 0.000000 0.000000 0.000000 -0.424127
#
#
# Mechanical properties :
#
#
# Convention : Reuss Voigt Hill
#
# Bulk Modulus (GPa) = 54.92252 64.68951 59.80601
# Shear Modulus (GPa) = -18.18909 27.22796 4.51944
#
# Velocity S-wave (km/s) = -3.03258 3.71035 1.51164
# Velocity P-wave (km/s) = 3.93792 7.14584 5.76933
#
# Compressibility (1/GPa) = 0.01820747
#
# Stress axis : x y z
#
# Youngs Moduli (GPa) = 38.06383 48.65390 123.61791
#
# Poissons Ratio (x) = 0.56383 0.42248
# Poissons Ratio (y) = 0.44110 0.41378
# Poissons Ratio (z) = 0.13009 0.16286
#
# Static dielectric constant tensor:
#      x y z
#    x 1.720990 0.000000 0.000000 
#    y 0.000000 1.767800 0.000000 
#    z 0.000000 0.000000 1.731850 
# 
# From -- ./inp_files/2558.got.cif
#   From: 2010.05.17/outbox.cif.g08.bks.cpg/sg53_2_cif.got.tgz:2558.got - 2010.06.03 12:45:16.
