data_PCOD9417917
_publ_section_title
;
Structure prediction by ZEFSAII (Michael W. Deem and Ramdas Pophale) SiO2 
 PCOD9417917
Probable space group: P M N A
;
_chemical_formula_sum "Si O2"
_cell_formula_units_Z 40
_cell_length_a 14.826361
_cell_length_b 5.138797
_cell_length_c 22.370099
_cell_angle_alpha 90.000000
_cell_angle_beta 90.000000
_cell_angle_gamma 90.000000
_cell_volume 1704.370224
_symmetry_space_group_name_H-M "P M N A"
_symmetry_group_IT_number 53
_symmetry_cell_setting 'orthorhombic'
loop_
_space_group_symop_operation_xyz
x,y,z
1/2-x,-y,1/2+z
x,-y,-z
1/2-x,y,1/2-z
-x,-y,-z
1/2+x,y,1/2-z
-x,y,z
1/2+x,-y,1/2+z
loop_
_atom_site_type_symbol
_atom_site_label
_atom_site_fract_x
_atom_site_fract_y
_atom_site_fract_z
Si Si1 0.357932 0.253581 0.035420
Si Si2 0.610327 0.936049 0.235893
Si Si3 0.652254 0.649152 0.556072
Si Si4 0.392309 0.570413 0.830215
Si Si5 0.394643 0.832142 0.372216
O O1 0.249312 0.259557 0.032872
O O2 0.378314 0.306957 0.104517
O O3 0.393696 0.500000 0.000000
O O4 0.389685 0.000000 0.000000
O O5 0.500000 0.943917 0.234362
O O6 0.641108 0.714223 0.189147
O O7 0.634040 0.883445 0.304326
O O8 0.643830 0.216315 0.215667
O O9 0.605452 0.500000 0.500000
O O10 0.660531 0.412127 0.602599
O O11 0.612045 0.905319 0.587684
O O12 0.500000 0.552505 0.823036
O O13 0.500000 0.751021 0.371979
#
# Coordination Sequence:
#
# PCOD9417917 Si02
#       5
#     8   8   8   8   8
#     4  11  23  40  59  81 116 154 185 229 288 337
#     4   9  19  36  57  84 116 146 180 234 293 332
#     4  11  23  39  56  81 117 153 189 235 290 335
#     4  10  20  37  61  86 113 147 189 231 276 338
#     4  11  22  38  61  85 112 149 193 236 281 339
#
# _framework density 23.469078
#
# number of rings (size 3 to 8) (size 9 to 14) (size 15 to 20)
#    0.000    1.600    0.000    6.000    0.000    6.400 
#    0.000    6.000    0.000    0.000    0.000    0.000 
#    0.000    0.000    0.000    0.000    0.000    0.000 
#
# Total GULP energy -223501.763159 kJ/mol
# GULP energy per Si atom -5587.544079 kJ/mol
# Density = 2.341566 g / cm^3
# Si number density = 23.469078 Si / 1000 Ang^3
#
#
#
# Elastic Constant Matrix: (Units=GPa)
#
#
# Indices 1 2 3 4 5 6 
#
# 1 50.4338 12.4900 -0.9097 0.0000 0.0000 0.0000
# 2 12.4900 119.4312 -0.4633 0.0000 0.0000 0.0000
# 3 -0.9097 -0.4633 62.6309 0.0000 0.0000 0.0000
# 4 0.0000 0.0000 0.0000 49.7375 0.0000 0.0000
# 5 0.0000 0.0000 0.0000 0.0000 26.5043 0.0000
# 6 0.0000 0.0000 0.0000 0.0000 0.0000 65.7014
#
#
#
# Elastic Compliance Matrix: (Units=1/GPa)
#
#
# Indices 1 2 3 4 5 6 
#
# 1 0.020360 -0.002128 0.000280 0.000000 0.000000 0.000000
# 2 -0.002128 0.008596 0.000033 0.000000 0.000000 0.000000
# 3 0.000280 0.000033 0.015971 0.000000 0.000000 0.000000
# 4 0.000000 0.000000 0.000000 0.020106 0.000000 0.000000
# 5 0.000000 0.000000 0.000000 0.000000 0.037730 0.000000
# 6 0.000000 0.000000 0.000000 0.000000 0.000000 0.015220
#
#
# Mechanical properties :
#
#
# Convention : Reuss Voigt Hill
#
# Bulk Modulus (GPa) = 24.21561 28.30331 26.25946
# Shear Modulus (GPa) = 36.93350 43.14724 40.04037
#
# Velocity S-wave (km/s) = 3.97130 4.29239 4.13497
# Velocity P-wave (km/s) = 5.60079 6.05410 5.83185
#
# Compressibility (1/GPa) = 0.04129567
#
# Stress axis : x y z
#
# Youngs Moduli (GPa) = 49.11580 116.33711 62.61398
#
# Poissons Ratio (x) = 0.24758 -0.01753
# Poissons Ratio (y) = 0.10453 -0.00205
# Poissons Ratio (z) = -0.01375 -0.00380
#
# Static dielectric constant tensor:
#      x y z
#    x 1.892690 0.000000 0.000000 
#    y 0.000000 1.880380 0.000000 
#    z 0.000000 0.000000 1.877330 
# 
# From -- ./inp_files/28763.got.cif
#   From: 2010.05.17/outbox.cif.g08.bks.cpg/sg53_15_cif.got.tgz:28763.got - 2010.06.03 12:45:16.
