data_PCOD9417196
_publ_section_title
;
Structure prediction by ZEFSAII (Michael W. Deem and Ramdas Pophale) SiO2 
 PCOD9417196
Probable space group: P M N A
;
_chemical_formula_sum "Si O2"
_cell_formula_units_Z 32
_cell_length_a 11.113517
_cell_length_b 8.578654
_cell_length_c 15.802771
_cell_angle_alpha 90.000000
_cell_angle_beta 90.000000
_cell_angle_gamma 90.000000
_cell_volume 1506.620654
_symmetry_space_group_name_H-M "P M N A"
_symmetry_group_IT_number 53
_symmetry_cell_setting 'orthorhombic'
loop_
_space_group_symop_operation_xyz
x,y,z
1/2-x,-y,1/2+z
x,-y,-z
1/2-x,y,1/2-z
-x,-y,-z
1/2+x,y,1/2-z
-x,y,z
1/2+x,-y,1/2+z
loop_
_atom_site_type_symbol
_atom_site_label
_atom_site_fract_x
_atom_site_fract_y
_atom_site_fract_z
Si Si1 0.743246 0.937256 0.403806
Si Si2 0.500000 0.062310 0.903223
Si Si3 0.500000 0.564658 0.595272
Si Si4 0.500000 0.439739 0.905249
Si Si5 0.243436 0.405394 0.846823
Si Si6 0.500000 0.065612 0.403156
O O1 0.871818 0.984719 0.364619
O O2 0.734702 0.749959 0.403839
O O3 0.746077 0.000000 0.500000
O O4 0.622597 0.002665 0.362630
O O5 0.500000 0.250845 0.902995
O O6 0.500000 0.000000 0.000000
O O7 0.500000 0.500000 0.500000
O O8 0.376897 0.503820 0.638031
O O9 0.500000 0.750004 0.594025
O O10 0.371470 0.488088 0.865654
O O11 0.500000 0.500000 0.000000
O O12 0.250000 0.351763 0.750000
O O13 0.500000 0.000000 0.500000
#
# Coordination Sequence:
#
# PCOD9417196 Si02
#       6
#     8   4   4   4   8   4
#     4   9  17  34  57  85 118 156 206 255 305 380
#     4   8  16  29  51  80 109 141 187 247 297 350
#     4  12  23  39  65  93 124 169 219 264 312 385
#     4  10  21  36  58  88 117 156 210 259 308 381
#     4  11  23  40  63  93 129 169 211 268 332 380
#     4  10  20  34  56  87 118 152 208 262 300 356
#
# _framework density 21.239585999999999
#
# number of rings (size 3 to 8) (size 9 to 14) (size 15 to 20)
#    0.000    2.000    0.000    5.250    0.000    6.000 
#    0.000    1.250    0.000   12.000    0.000    0.000 
#    0.000    0.000    0.000    0.000    0.000    0.000 
#
# Total GULP energy -178468.192490 kJ/mol
# GULP energy per Si atom -5577.131015 kJ/mol
# Density = 2.119124 g / cm^3
# Si number density = 21.239586 Si / 1000 Ang^3
#
#
#
# Elastic Constant Matrix: (Units=GPa)
#
#
# Indices 1 2 3 4 5 6 
#
# 1 276.5039 59.5755 13.1623 0.0000 0.0000 0.0000
# 2 59.5755 71.7035 -0.0875 0.0000 0.0000 0.0000
# 3 13.1623 -0.0875 52.6261 0.0000 0.0000 0.0000
# 4 0.0000 0.0000 0.0000 7.9228 0.0000 0.0000
# 5 0.0000 0.0000 0.0000 0.0000 14.3970 0.0000
# 6 0.0000 0.0000 0.0000 0.0000 0.0000 8.6755
#
#
#
# Elastic Compliance Matrix: (Units=1/GPa)
#
#
# Indices 1 2 3 4 5 6 
#
# 1 0.004471 -0.003716 -0.001124 0.000000 0.000000 0.000000
# 2 -0.003716 0.017035 0.000958 0.000000 0.000000 0.000000
# 3 -0.001124 0.000958 0.019285 0.000000 0.000000 0.000000
# 4 0.000000 0.000000 0.000000 0.126218 0.000000 0.000000
# 5 0.000000 0.000000 0.000000 0.000000 0.069459 0.000000
# 6 0.000000 0.000000 0.000000 0.000000 0.000000 0.115268
#
#
# Mechanical properties :
#
#
# Convention : Reuss Voigt Hill
#
# Bulk Modulus (GPa) = 30.27981 60.68155 45.48068
# Shear Modulus (GPa) = 13.49495 28.07792 20.78643
#
# Velocity S-wave (km/s) = 2.52338 3.63982 3.13176
# Velocity P-wave (km/s) = 4.77255 6.80415 5.87681
#
# Compressibility (1/GPa) = 0.03302531
#
# Stress axis : x y z
#
# Youngs Moduli (GPa) = 223.67655 58.70298 51.85436
#
# Poissons Ratio (x) = 0.21814 0.05830
# Poissons Ratio (y) = 0.83117 -0.04966
# Poissons Ratio (z) = 0.25149 -0.05622
#
# Static dielectric constant tensor:
#      x y z
#    x 1.885700 0.000000 0.000000 
#    y 0.000000 1.728490 0.000000 
#    z 0.000000 0.000000 1.738930 
# 
# From -- ./inp_files/21499.got.cif
#   From: 2010.05.17/outbox.cif.g08.bks.cpg/sg53_11_cif.got.tgz:21499.got - 2010.06.03 12:45:16.
