data_PCOD9417674
_publ_section_title
;
Structure prediction by ZEFSAII (Michael W. Deem and Ramdas Pophale) SiO2 
 PCOD9417674
Probable space group: P M N A
;
_chemical_formula_sum "Si O2"
_cell_formula_units_Z 48
_cell_length_a 8.597735
_cell_length_b 31.599817
_cell_length_c 9.371133
_cell_angle_alpha 90.000000
_cell_angle_beta 90.000000
_cell_angle_gamma 90.000000
_cell_volume 2546.013630
_symmetry_space_group_name_H-M "P M N A"
_symmetry_group_IT_number 53
_symmetry_cell_setting 'orthorhombic'
loop_
_space_group_symop_operation_xyz
x,y,z
1/2-x,-y,1/2+z
x,-y,-z
1/2-x,y,1/2-z
-x,-y,-z
1/2+x,y,1/2-z
-x,y,z
1/2+x,-y,1/2+z
loop_
_atom_site_type_symbol
_atom_site_label
_atom_site_fract_x
_atom_site_fract_y
_atom_site_fract_z
Si Si1 0.312035 0.541355 0.089149
Si Si2 0.688000 0.294094 0.909349
Si Si3 0.187884 0.376108 0.410455
Si Si4 0.687586 0.785751 0.908349
Si Si5 0.313586 0.040962 0.590955
Si Si6 0.186708 0.117912 0.408923
O O1 0.250000 0.540789 0.250000
O O2 0.500000 0.541320 0.095167
O O3 0.262511 0.500000 0.000000
O O4 0.262314 0.583339 0.003564
O O5 0.750000 0.298795 0.750000
O O6 0.500000 0.294190 0.904746
O O7 0.737380 0.333284 0.008900
O O8 0.739902 0.250063 0.981429
O O9 0.250000 0.378061 0.250000
O O10 0.000000 0.376334 0.404691
O O11 0.750000 0.776550 0.750000
O O12 0.500000 0.784726 0.902807
O O13 0.734032 0.833819 0.946474
O O14 0.250000 0.037570 0.750000
O O15 0.500000 0.041889 0.593608
O O16 0.252336 0.083288 0.515937
O O17 0.263381 0.000000 0.500000
O O18 0.250000 0.109317 0.250000
O O19 0.000000 0.115789 0.407090
#
# Coordination Sequence:
#
# PCOD9417674 Si02
#       6
#     8   8   8   8   8   8
#     4  10  21  36  54  79 109 140 178 221 265 317
#     4  10  21  36  53  77 108 140 178 221 266 317
#     4  10  21  36  55  79 106 138 178 222 267 319
#     4   9  19  35  55  80 108 140 178 219 263 315
#     4  11  24  40  59  83 111 144 181 222 269 319
#     4  10  20  36  58  83 112 144 180 222 268 319
#
# _framework density 18.853003000000001
#
# number of rings (size 3 to 8) (size 9 to 14) (size 15 to 20)
#    0.000    2.000    0.000    3.000    0.000    6.333 
#    0.000    1.667    0.000    0.000    0.000    0.000 
#    0.000    0.000    0.000    0.000    0.000    0.000 
#
# Total GULP energy -268166.367734 kJ/mol
# GULP energy per Si atom -5586.799328 kJ/mol
# Density = 1.881009 g / cm^3
# Si number density = 18.853003 Si / 1000 Ang^3
#
#
#
# Elastic Constant Matrix: (Units=GPa)
#
#
# Indices 1 2 3 4 5 6 
#
# 1 17.2566 35.2206 32.8982 0.0000 0.0000 0.0000
# 2 35.2206 162.2920 130.1064 0.0000 0.0000 0.0000
# 3 32.8982 130.1064 197.3402 0.0000 0.0000 0.0000
# 4 0.0000 0.0000 0.0000 43.5384 0.0000 0.0000
# 5 0.0000 0.0000 0.0000 0.0000 40.3714 0.0000
# 6 0.0000 0.0000 0.0000 0.0000 0.0000 77.7677
#
#
#
# Elastic Compliance Matrix: (Units=1/GPa)
#
#
# Indices 1 2 3 4 5 6 
#
# 1 0.106617 -0.018854 -0.005343 0.000000 0.000000 0.000000
# 2 -0.018854 0.016404 -0.007672 0.000000 0.000000 0.000000
# 3 -0.005343 -0.007672 0.011016 0.000000 0.000000 0.000000
# 4 0.000000 0.000000 0.000000 0.022968 0.000000 0.000000
# 5 0.000000 0.000000 0.000000 0.000000 0.024770 0.000000
# 6 0.000000 0.000000 0.000000 0.000000 0.000000 0.012859
#
#
# Mechanical properties :
#
#
# Convention : Reuss Voigt Hill
#
# Bulk Modulus (GPa) = 14.22515 85.92658 50.07587
# Shear Modulus (GPa) = 17.74270 44.24641 30.99456
#
# Velocity S-wave (km/s) = 3.07108 4.84975 4.05904
# Velocity P-wave (km/s) = 4.48743 8.77703 6.97041
#
# Compressibility (1/GPa) = 0.07029801
#
# Stress axis : x y z
#
# Youngs Moduli (GPa) = 9.37937 60.96077 90.77492
#
# Poissons Ratio (x) = 1.14938 0.48502
# Poissons Ratio (y) = 0.17684 0.69642
# Poissons Ratio (z) = 0.05012 0.46769
#
# Static dielectric constant tensor:
#      x y z
#    x 1.640870 0.000000 0.000000 
#    y 0.000000 1.660040 0.000000 
#    z 0.000000 0.000000 1.592460 
# 
# From -- ./inp_files/6645.got.cif
#   From: 2010.05.17/outbox.cif.g08.bks.cpg/sg53_4_cif.got.tgz:6645.got - 2010.06.03 12:45:16.
