data_PCOD9417278
_publ_section_title
;
Structure prediction by ZEFSAII (Michael W. Deem and Ramdas Pophale) SiO2 
 PCOD9417278
Probable space group: P M N A
;
_chemical_formula_sum "Si O2"
_cell_formula_units_Z 40
_cell_length_a 8.199572
_cell_length_b 16.184441
_cell_length_c 13.666233
_cell_angle_alpha 90.000000
_cell_angle_beta 90.000000
_cell_angle_gamma 90.000000
_cell_volume 1813.584137
_symmetry_space_group_name_H-M "P M N A"
_symmetry_group_IT_number 53
_symmetry_cell_setting 'orthorhombic'
loop_
_space_group_symop_operation_xyz
x,y,z
1/2-x,-y,1/2+z
x,-y,-z
1/2-x,y,1/2-z
-x,-y,-z
1/2+x,y,1/2-z
-x,y,z
1/2+x,-y,1/2+z
loop_
_atom_site_type_symbol
_atom_site_label
_atom_site_fract_x
_atom_site_fract_y
_atom_site_fract_z
Si Si1 0.803507 0.955354 0.637939
Si Si2 0.302642 0.218918 0.049959
Si Si3 0.196024 0.862178 0.360658
Si Si4 0.687447 0.561231 0.141693
Si Si5 0.312860 0.394538 0.429659
O O1 0.750000 0.956022 0.750000
O O2 0.747559 0.868017 0.595778
O O3 0.000000 0.954799 0.627367
O O4 0.748624 0.046449 0.602319
O O5 0.500000 0.224704 0.056244
O O6 0.228317 0.300573 0.095871
O O7 0.253738 0.208145 0.936192
O O8 0.250000 0.849256 0.250000
O O9 0.000000 0.864507 0.361714
O O10 0.750000 0.583008 0.250000
O O11 0.500000 0.586847 0.132329
O O12 0.704432 0.462198 0.125775
O O13 0.781248 0.595705 0.046508
O O14 0.500000 0.414285 0.408124
#
# Coordination Sequence:
#
# PCOD9417278 Si02
#       5
#     8   8   8   8   8
#     4   9  18  33  53  76 104 141 185 230 276 326
#     4  10  20  35  54  77 109 147 184 225 276 329
#     4   9  18  33  53  76 104 141 185 230 276 326
#     4  11  22  41  66  88 112 145 182 223 276 332
#     4  11  23  39  58  86 118 147 185 228 273 330
#
# _framework density 22.055772999999999
#
# number of rings (size 3 to 8) (size 9 to 14) (size 15 to 20)
#    0.000    2.000    0.000    5.400    0.000    5.600 
#    0.000    4.000    0.000    6.000    0.000    0.000 
#    0.000    0.000    0.000    0.000    0.000    0.000 
#
# Total GULP energy -223355.373492 kJ/mol
# GULP energy per Si atom -5583.884337 kJ/mol
# Density = 2.200557 g / cm^3
# Si number density = 22.055773 Si / 1000 Ang^3
#
#
#
# Elastic Constant Matrix: (Units=GPa)
#
#
# Indices 1 2 3 4 5 6 
#
# 1 33.4138 -8.9853 -9.4659 0.0000 0.0000 0.0000
# 2 -8.9853 68.0238 -19.3431 0.0000 0.0000 0.0000
# 3 -9.4659 -19.3431 17.9336 0.0000 0.0000 0.0000
# 4 0.0000 0.0000 0.0000 13.3033 0.0000 0.0000
# 5 0.0000 0.0000 0.0000 0.0000 23.8082 0.0000
# 6 0.0000 0.0000 0.0000 0.0000 0.0000 26.8221
#
#
#
# Elastic Compliance Matrix: (Units=1/GPa)
#
#
# Indices 1 2 3 4 5 6 
#
# 1 0.048533 0.019754 0.046924 0.000000 0.000000 0.000000
# 2 0.019754 0.029244 0.041970 0.000000 0.000000 0.000000
# 3 0.046924 0.041970 0.125797 0.000000 0.000000 0.000000
# 4 0.000000 0.000000 0.000000 0.075169 0.000000 0.000000
# 5 0.000000 0.000000 0.000000 0.000000 0.042002 0.000000
# 6 0.000000 0.000000 0.000000 0.000000 0.000000 0.037283
#
#
# Mechanical properties :
#
#
# Convention : Reuss Voigt Hill
#
# Bulk Modulus (GPa) = 2.37604 4.86472 3.62038
# Shear Modulus (GPa) = 17.79207 23.26443 20.52825
#
# Velocity S-wave (km/s) = 2.84330 3.25129 3.05412
# Velocity P-wave (km/s) = 3.44366 4.03794 3.75258
#
# Compressibility (1/GPa) = 0.42086886
#
# Stress axis : x y z
#
# Youngs Moduli (GPa) = 20.60455 34.19452 7.94930
#
# Poissons Ratio (x) = -0.67547 -0.37301
# Poissons Ratio (y) = -0.40702 -0.33363
# Poissons Ratio (z) = -0.96684 -1.43513
#
# Static dielectric constant tensor:
#      x y z
#    x 1.775170 0.000000 0.000000 
#    y 0.000000 1.826700 0.000000 
#    z 0.000000 0.000000 1.812750 
# 
# From -- ./inp_files/19894.got.cif
#   From: 2010.05.17/outbox.cif.g08.bks.cpg/sg53_10_cif.got.tgz:19894.got - 2010.06.03 12:45:16.
