data_PCOD9417942
_publ_section_title
;
Structure prediction by ZEFSAII (Michael W. Deem and Ramdas Pophale) SiO2 
 PCOD9417942
Probable space group: P M N A
;
_chemical_formula_sum "Si O2"
_cell_formula_units_Z 40
_cell_length_a 7.755179
_cell_length_b 12.426933
_cell_length_c 19.409615
_cell_angle_alpha 90.000000
_cell_angle_beta 90.000000
_cell_angle_gamma 90.000000
_cell_volume 1870.564570
_symmetry_space_group_name_H-M "P M N A"
_symmetry_group_IT_number 53
_symmetry_cell_setting 'orthorhombic'
loop_
_space_group_symop_operation_xyz
x,y,z
1/2-x,-y,1/2+z
x,-y,-z
1/2-x,y,1/2-z
-x,-y,-z
1/2+x,y,1/2-z
-x,y,z
1/2+x,-y,1/2+z
loop_
_atom_site_type_symbol
_atom_site_label
_atom_site_fract_x
_atom_site_fract_y
_atom_site_fract_z
Si Si1 0.299604 0.679475 0.952722
Si Si2 0.705920 0.909689 0.169846
Si Si3 0.292751 0.536855 0.827327
Si Si4 0.700792 0.078163 0.439927
Si Si5 0.711327 0.682463 0.107440
O O1 0.500000 0.646940 0.957626
O O2 0.225096 0.613470 0.888489
O O3 0.289612 0.806612 0.938590
O O4 0.227546 0.661238 0.029370
O O5 0.750000 0.908508 0.250000
O O6 0.500000 0.914608 0.161791
O O7 0.768245 0.798879 0.134397
O O8 0.782188 0.011691 0.130198
O O9 0.250000 0.570809 0.750000
O O10 0.500000 0.537022 0.831331
O O11 0.234004 0.415195 0.843584
O O12 0.500000 0.098542 0.455336
O O13 0.771342 0.000000 0.500000
O O14 0.500000 0.684912 0.106667
#
# Coordination Sequence:
#
# PCOD9417942 Si02
#       5
#     8   8   8   8   8
#     4  10  20  37  62  86 112 152 200 241 285 346
#     4  11  22  37  60  88 119 153 194 240 294 351
#     4  10  21  37  58  85 118 153 190 237 289 346
#     4  11  23  39  59  85 118 153 194 244 293 343
#     4   9  18  35  60  87 113 149 194 239 286 345
#
# _framework density 21.383917
#
# number of rings (size 3 to 8) (size 9 to 14) (size 15 to 20)
#    0.000    1.800    2.000    2.400    0.000    4.800 
#    0.000    4.000    0.000    2.400    0.000    0.000 
#    0.000    0.000    0.000    0.000    0.000    0.000 
#
# Total GULP energy -223539.140054 kJ/mol
# GULP energy per Si atom -5588.478501 kJ/mol
# Density = 2.133525 g / cm^3
# Si number density = 21.383917 Si / 1000 Ang^3
#
#
#
# Elastic Constant Matrix: (Units=GPa)
#
#
# Indices 1 2 3 4 5 6 
#
# 1 34.8801 -11.1642 -10.7234 0.0000 0.0000 0.0000
# 2 -11.1642 37.9829 14.5404 0.0000 0.0000 0.0000
# 3 -10.7234 14.5404 137.7128 0.0000 0.0000 0.0000
# 4 0.0000 0.0000 0.0000 36.7029 0.0000 0.0000
# 5 0.0000 0.0000 0.0000 0.0000 14.9924 0.0000
# 6 0.0000 0.0000 0.0000 0.0000 0.0000 15.1776
#
#
#
# Elastic Compliance Matrix: (Units=1/GPa)
#
#
# Indices 1 2 3 4 5 6 
#
# 1 0.031965 0.008798 0.001560 0.000000 0.000000 0.000000
# 2 0.008798 0.029858 -0.002467 0.000000 0.000000 0.000000
# 3 0.001560 -0.002467 0.007644 0.000000 0.000000 0.000000
# 4 0.000000 0.000000 0.000000 0.027246 0.000000 0.000000
# 5 0.000000 0.000000 0.000000 0.000000 0.066700 0.000000
# 6 0.000000 0.000000 0.000000 0.000000 0.000000 0.065887
#
#
# Mechanical properties :
#
#
# Convention : Reuss Voigt Hill
#
# Bulk Modulus (GPa) = 11.73034 21.76460 16.74747
# Shear Modulus (GPa) = 20.66673 27.90277 24.28475
#
# Velocity S-wave (km/s) = 3.11217 3.61619 3.37360
# Velocity P-wave (km/s) = 4.29088 5.25698 4.79831
#
# Compressibility (1/GPa) = 0.08524901
#
# Stress axis : x y z
#
# Youngs Moduli (GPa) = 31.28382 33.49151 130.83003
#
# Poissons Ratio (x) = -0.29467 -0.20411
# Poissons Ratio (y) = -0.27524 0.32282
# Poissons Ratio (z) = -0.04881 0.08264
#
# Static dielectric constant tensor:
#      x y z
#    x 1.813980 0.000000 0.000000 
#    y 0.000000 1.742510 0.000000 
#    z 0.000000 0.000000 1.760490 
# 
# From -- ./inp_files/19867.got.cif
#   From: 2010.05.17/outbox.cif.g08.bks.cpg/sg53_10_cif.got.tgz:19867.got - 2010.06.03 12:45:16.
