data_PCOD9417799
_publ_section_title
;
Structure prediction by ZEFSAII (Michael W. Deem and Ramdas Pophale) SiO2 
 PCOD9417799
Probable space group: P M N A
;
_chemical_formula_sum "Si O2"
_cell_formula_units_Z 64
_cell_length_a 18.072067
_cell_length_b 19.569729
_cell_length_c 9.976012
_cell_angle_alpha 90.000000
_cell_angle_beta 90.000000
_cell_angle_gamma 90.000000
_cell_volume 3528.170810
_symmetry_space_group_name_H-M "P M N A"
_symmetry_group_IT_number 53
_symmetry_cell_setting 'orthorhombic'
loop_
_space_group_symop_operation_xyz
x,y,z
1/2-x,-y,1/2+z
x,-y,-z
1/2-x,y,1/2-z
-x,-y,-z
1/2+x,y,1/2-z
-x,y,z
1/2+x,-y,1/2+z
loop_
_atom_site_type_symbol
_atom_site_label
_atom_site_fract_x
_atom_site_fract_y
_atom_site_fract_z
Si Si1 0.662158 0.566331 0.410671
Si Si2 0.822570 0.083645 0.344777
Si Si3 0.676218 0.068141 0.838632
Si Si4 0.588050 0.799642 0.221106
Si Si5 0.411796 0.698547 0.985325
Si Si6 0.661266 0.436340 0.903706
Si Si7 0.660818 0.229417 0.253824
Si Si8 0.910810 0.289498 0.981486
O O1 0.644415 0.500000 0.500000
O O2 0.750843 0.578388 0.419243
O O3 0.646027 0.551872 0.253810
O O4 0.620061 0.633856 0.461393
O O5 0.750000 0.081884 0.250000
O O6 0.806519 0.085348 0.504737
O O7 0.862291 0.153215 0.297154
O O8 0.857793 0.008283 0.328175
O O9 0.750000 0.068740 0.750000
O O10 0.624270 0.126717 0.781744
O O11 0.500000 0.806625 0.219802
O O12 0.607655 0.753292 0.347975
O O13 0.610211 0.757952 0.089069
O O14 0.500000 0.699336 0.968368
O O15 0.371319 0.715092 0.847998
O O16 0.385434 0.627879 0.047580
O O17 0.644394 0.500000 0.000000
O O18 0.750000 0.231597 0.250000
O O19 0.628424 0.249947 0.397052
O O20 0.000000 0.291027 0.998747
#
# Coordination Sequence:
#
# PCOD9417799 Si02
#       8
#     8   8   8   8   8   8   8   8
#     4  10  22  40  61  87 121 157 198 241 292 354
#     4   9  20  37  55  91 121 149 194 251 301 349
#     4  10  20  36  63  87 115 155 200 244 298 354
#     4  10  22  39  58  85 120 155 198 242 288 348
#     4  11  22  40  61  86 120 157 199 246 295 351
#     4  10  22  39  61  90 120 154 196 247 296 345
#     4  11  23  39  61  89 120 154 198 248 300 354
#     4  11  24  42  61  86 121 160 199 243 297 355
#
# _framework density 18.139710999999998
#
# number of rings (size 3 to 8) (size 9 to 14) (size 15 to 20)
#    0.000    1.750    2.500    1.125    5.250    1.500 
#    0.000    2.500    0.000    1.500    0.000    0.000 
#    0.000    0.000    0.000    0.000    0.000    0.000 
#
# Total GULP energy -357042.295293 kJ/mol
# GULP energy per Si atom -5578.785864 kJ/mol
# Density = 1.809842 g / cm^3
# Si number density = 18.139711 Si / 1000 Ang^3
#
#
#
# Elastic Constant Matrix: (Units=GPa)
#
#
# Indices 1 2 3 4 5 6 
#
# 1 25.4903 33.0143 21.6626 0.0000 0.0000 0.0000
# 2 33.0143 117.2731 34.4729 0.0000 0.0000 0.0000
# 3 21.6626 34.4729 66.5387 0.0000 0.0000 0.0000
# 4 0.0000 0.0000 0.0000 32.3432 0.0000 0.0000
# 5 0.0000 0.0000 0.0000 0.0000 21.7967 0.0000
# 6 0.0000 0.0000 0.0000 0.0000 0.0000 -22.2617
#
#
#
# Elastic Compliance Matrix: (Units=1/GPa)
#
#
# Indices 1 2 3 4 5 6 
#
# 1 0.073200 -0.016045 -0.015518 0.000000 0.000000 0.000000
# 2 -0.016045 0.013576 -0.001810 0.000000 0.000000 0.000000
# 3 -0.015518 -0.001810 0.021019 0.000000 0.000000 0.000000
# 4 0.000000 0.000000 0.000000 0.030918 0.000000 0.000000
# 5 0.000000 0.000000 0.000000 0.000000 0.045878 0.000000
# 6 0.000000 0.000000 0.000000 0.000000 0.000000 -0.044920
#
#
# Mechanical properties :
#
#
# Convention : Reuss Voigt Hill
#
# Bulk Modulus (GPa) = 24.36185 43.06684 33.71435
# Shear Modulus (GPa) = 22.71682 14.38581 18.55132
#
# Velocity S-wave (km/s) = 3.54266 2.81918 3.20142
# Velocity P-wave (km/s) = 5.49483 5.86433 5.68258
#
# Compressibility (1/GPa) = 0.04104778
#
# Stress axis : x y z
#
# Youngs Moduli (GPa) = 13.66120 73.65869 47.57656
#
# Poissons Ratio (x) = 1.18188 0.73831
# Poissons Ratio (y) = 0.21920 0.08611
# Poissons Ratio (z) = 0.21200 0.13331
#
# Static dielectric constant tensor:
#      x y z
#    x 1.599800 0.000000 0.000000 
#    y 0.000000 1.623990 0.000000 
#    z 0.000000 0.000000 0.783990 
# 
# From -- ./inp_files/11212.got.cif
#   From: 2010.05.17/outbox.cif.g08.bks.cpg/sg53_6_cif.got.tgz:11212.got - 2010.06.03 12:45:16.
