data_PCOD9417719
_publ_section_title
;
Structure prediction by ZEFSAII (Michael W. Deem and Ramdas Pophale) SiO2 
 PCOD9417719
Probable space group: P M N A
;
_chemical_formula_sum "Si O2"
_cell_formula_units_Z 40
_cell_length_a 8.685518
_cell_length_b 9.353033
_cell_length_c 26.366511
_cell_angle_alpha 90.000000
_cell_angle_beta 90.000000
_cell_angle_gamma 90.000000
_cell_volume 2141.908213
_symmetry_space_group_name_H-M "P M N A"
_symmetry_group_IT_number 53
_symmetry_cell_setting 'orthorhombic'
loop_
_space_group_symop_operation_xyz
x,y,z
1/2-x,-y,1/2+z
x,-y,-z
1/2-x,y,1/2-z
-x,-y,-z
1/2+x,y,1/2-z
-x,y,z
1/2+x,-y,1/2+z
loop_
_atom_site_type_symbol
_atom_site_label
_atom_site_fract_x
_atom_site_fract_y
_atom_site_fract_z
Si Si1 0.313837 0.165409 0.501628
Si Si2 0.314155 0.343507 0.402128
Si Si3 0.314884 0.159724 0.304494
Si Si4 0.184319 0.338047 0.596949
Si Si5 0.815077 0.158512 0.695585
O O1 0.500000 0.167892 0.504319
O O2 0.267382 0.248402 0.450518
O O3 0.248795 0.246273 0.550334
O O4 0.264774 0.000000 0.500000
O O5 0.500000 0.353367 0.402754
O O6 0.269143 0.263649 0.350254
O O7 0.246224 0.501253 0.405496
O O8 0.250000 0.206997 0.250000
O O9 0.500000 0.152734 0.302157
O O10 0.250748 0.000334 0.313929
O O11 0.229882 0.262445 0.649790
O O12 0.000000 0.339433 0.594423
O O13 0.750000 0.206304 0.750000
O O14 0.000000 0.150418 0.698360
#
# Coordination Sequence:
#
# PCOD9417719 Si02
#       5
#     8   8   8   8   8
#     4  10  21  39  62  84 108 143 187 229 271 328
#     4  10  22  38  57  82 112 148 186 224 271 329
#     4  10  20  36  59  85 112 145 186 230 276 325
#     4  11  24  38  55  83 116 147 181 228 281 327
#     4  10  21  37  57  82 111 145 186 228 273 325
#
# _framework density 18.674937
#
# number of rings (size 3 to 8) (size 9 to 14) (size 15 to 20)
#    0.000    1.800    0.000    4.800    0.000   10.800 
#    0.000    4.000    0.000    0.000    0.000    0.000 
#    0.000    0.000    0.000    0.000    0.000    0.000 
#
# Total GULP energy -223550.088174 kJ/mol
# GULP energy per Si atom -5588.752204 kJ/mol
# Density = 1.863243 g / cm^3
# Si number density = 18.674937 Si / 1000 Ang^3
#
#
#
# Elastic Constant Matrix: (Units=GPa)
#
#
# Indices 1 2 3 4 5 6 
#
# 1 34.9393 43.7453 51.4500 0.0000 0.0000 0.0000
# 2 43.7453 176.1931 144.1387 0.0000 0.0000 0.0000
# 3 51.4500 144.1387 203.0236 0.0000 0.0000 0.0000
# 4 0.0000 0.0000 0.0000 -44.1209 0.0000 0.0000
# 5 0.0000 0.0000 0.0000 0.0000 12.6349 0.0000
# 6 0.0000 0.0000 0.0000 0.0000 0.0000 2.4721
#
#
#
# Elastic Compliance Matrix: (Units=1/GPa)
#
#
# Indices 1 2 3 4 5 6 
#
# 1 0.047180 -0.004611 -0.008683 0.000000 0.000000 0.000000
# 2 -0.004611 0.013990 -0.008764 0.000000 0.000000 0.000000
# 3 -0.008683 -0.008764 0.013348 0.000000 0.000000 0.000000
# 4 0.000000 0.000000 0.000000 -0.022665 0.000000 0.000000
# 5 0.000000 0.000000 0.000000 0.000000 0.079146 0.000000
# 6 0.000000 0.000000 0.000000 0.000000 0.000000 0.404512
#
#
# Mechanical properties :
#
#
# Convention : Reuss Voigt Hill
#
# Bulk Modulus (GPa) = 32.89159 99.20269 66.04714
# Shear Modulus (GPa) = 8.47804 5.85202 7.16503
#
# Velocity S-wave (km/s) = 2.13299 1.77212 1.96088
# Velocity P-wave (km/s) = 4.87002 7.57782 6.36948
#
# Compressibility (1/GPa) = 0.03040291
#
# Stress axis : x y z
#
# Youngs Moduli (GPa) = 21.19550 71.48157 74.91852
#
# Poissons Ratio (x) = 0.32957 0.65052
# Poissons Ratio (y) = 0.09772 0.65656
# Poissons Ratio (z) = 0.18404 0.62644
#
# Static dielectric constant tensor:
#      x y z
#    x 1.632190 0.000000 0.000000 
#    y 0.000000 1.606280 0.000000 
#    z 0.000000 0.000000 1.632930 
# 
# From -- ./inp_files/33615.got.cif
#   From: 2010.05.17/outbox.cif.g08.bks.cpg/sg53_17_cif.got.tgz:33615.got - 2010.06.03 12:45:16.
