data_PCOD9417182
_publ_section_title
;
Structure prediction by ZEFSAII (Michael W. Deem and Ramdas Pophale) SiO2 
 PCOD9417182
Probable space group: P M N A
;
_chemical_formula_sum "Si O2"
_cell_formula_units_Z 64
_cell_length_a 9.182231
_cell_length_b 15.008222
_cell_length_c 24.130490
_cell_angle_alpha 90.000000
_cell_angle_beta 90.000000
_cell_angle_gamma 90.000000
_cell_volume 3325.397763
_symmetry_space_group_name_H-M "P M N A"
_symmetry_group_IT_number 53
_symmetry_cell_setting 'orthorhombic'
loop_
_space_group_symop_operation_xyz
x,y,z
1/2-x,-y,1/2+z
x,-y,-z
1/2-x,y,1/2-z
-x,-y,-z
1/2+x,y,1/2-z
-x,y,z
1/2+x,-y,1/2+z
loop_
_atom_site_type_symbol
_atom_site_label
_atom_site_fract_x
_atom_site_fract_y
_atom_site_fract_z
Si Si1 0.671906 0.606542 0.002432
Si Si2 0.673924 0.146519 0.597141
Si Si3 0.826980 0.318874 0.624444
Si Si4 0.669844 0.208634 0.303716
Si Si5 0.675142 0.943929 0.623207
Si Si6 0.828407 0.635870 0.890797
Si Si7 0.674415 0.503394 0.190690
Si Si8 0.335121 0.894509 0.986030
O O1 0.500000 0.623413 0.993503
O O2 0.763407 0.646465 0.952012
O O3 0.693648 0.500000 0.000000
O O4 0.710239 0.641683 0.063477
O O5 0.500000 0.152333 0.591960
O O6 0.737814 0.228337 0.631694
O O7 0.748577 0.149639 0.536492
O O8 0.710700 0.048671 0.621592
O O9 0.799431 0.395753 0.669338
O O10 0.000000 0.299799 0.624392
O O11 0.750000 0.243182 0.250000
O O12 0.500000 0.204149 0.290603
O O13 0.720430 0.110681 0.322612
O O14 0.688198 0.274790 0.355025
O O15 0.500000 0.936240 0.617339
O O16 0.749400 0.895026 0.571307
O O17 0.741909 0.560689 0.856279
O O18 0.000000 0.613614 0.893597
O O19 0.750000 0.487970 0.250000
O O20 0.500000 0.489332 0.194311
O O21 0.500000 0.859619 0.981963
O O22 0.343403 0.000000 0.000000
#
# Coordination Sequence:
#
# PCOD9417182 Si02
#       8
#     8   8   8   8   8   8   8   8
#     4  10  20  39  61  85 120 161 196 236 296 354
#     4  10  20  34  56  82 114 153 191 235 289 343
#     4  10  22  39  59  85 121 158 195 241 292 349
#     4  10  23  41  59  83 115 150 195 243 292 349
#     4   9  19  37  56  78 111 149 189 237 289 340
#     4  11  23  38  60  91 121 153 193 241 292 353
#     4  11  23  42  64  86 115 154 196 242 293 348
#     4   9  17  30  50  78 109 142 184 229 275 336
#
# _framework density 19.245819000000001
#
# number of rings (size 3 to 8) (size 9 to 14) (size 15 to 20)
#    0.000    2.000    1.250    1.875    1.750    6.250 
#    0.000    0.625    0.000    3.000    0.000    0.000 
#    0.000    0.000    0.000    0.000    0.000    0.000 
#
# Total GULP energy -357398.378097 kJ/mol
# GULP energy per Si atom -5584.349658 kJ/mol
# Density = 1.920201 g / cm^3
# Si number density = 19.245819 Si / 1000 Ang^3
#
#
#
# Elastic Constant Matrix: (Units=GPa)
#
#
# Indices 1 2 3 4 5 6 
#
# 1 47.4320 32.6605 24.4510 0.0000 0.0000 0.0000
# 2 32.6605 56.5380 -4.9352 0.0000 0.0000 0.0000
# 3 24.4510 -4.9352 59.7372 0.0000 0.0000 0.0000
# 4 0.0000 0.0000 0.0000 8.2013 0.0000 0.0000
# 5 0.0000 0.0000 0.0000 0.0000 18.6948 0.0000
# 6 0.0000 0.0000 0.0000 0.0000 0.0000 28.9181
#
#
#
# Elastic Compliance Matrix: (Units=1/GPa)
#
#
# Indices 1 2 3 4 5 6 
#
# 1 0.062514 -0.038625 -0.028779 0.000000 0.000000 0.000000
# 2 -0.038625 0.041680 0.019253 0.000000 0.000000 0.000000
# 3 -0.028779 0.019253 0.030110 0.000000 0.000000 0.000000
# 4 0.000000 0.000000 0.000000 0.121932 0.000000 0.000000
# 5 0.000000 0.000000 0.000000 0.000000 0.053491 0.000000
# 6 0.000000 0.000000 0.000000 0.000000 0.000000 0.034580
#
#
# Mechanical properties :
#
#
# Convention : Reuss Voigt Hill
#
# Bulk Modulus (GPa) = 26.31345 29.78441 28.04893
# Shear Modulus (GPa) = 11.03081 18.59824 14.81452
#
# Velocity S-wave (km/s) = 2.39666 3.11199 2.77745
# Velocity P-wave (km/s) = 4.62175 5.33123 4.98912
#
# Compressibility (1/GPa) = 0.03800338
#
# Stress axis : x y z
#
# Youngs Moduli (GPa) = 15.99640 23.99212 33.21168
#
# Poissons Ratio (x) = 0.92669 0.95578
# Poissons Ratio (y) = 0.61786 -0.63942
# Poissons Ratio (z) = 0.46035 -0.46192
#
# Static dielectric constant tensor:
#      x y z
#    x 1.646460 0.000000 0.000000 
#    y 0.000000 1.695330 0.000000 
#    z 0.000000 0.000000 1.644680 
# 
# From -- ./inp_files/34346.got.cif
#   From: 2010.05.17/outbox.cif.g08.bks.cpg/sg53_18_cif.got.tgz:34346.got - 2010.06.03 12:45:16.
