data_PCOD9417371
_publ_section_title
;
Structure prediction by ZEFSAII (Michael W. Deem and Ramdas Pophale) SiO2 
 PCOD9417371
Probable space group: P M N A
;
_chemical_formula_sum "Si O2"
_cell_formula_units_Z 64
_cell_length_a 15.200484
_cell_length_b 25.736961
_cell_length_c 8.118026
_cell_angle_alpha 90.000000
_cell_angle_beta 90.000000
_cell_angle_gamma 90.000000
_cell_volume 3175.887566
_symmetry_space_group_name_H-M "P M N A"
_symmetry_group_IT_number 53
_symmetry_cell_setting 'orthorhombic'
loop_
_space_group_symop_operation_xyz
x,y,z
1/2-x,-y,1/2+z
x,-y,-z
1/2-x,y,1/2-z
-x,-y,-z
1/2+x,y,1/2-z
-x,y,z
1/2+x,-y,1/2+z
loop_
_atom_site_type_symbol
_atom_site_label
_atom_site_fract_x
_atom_site_fract_y
_atom_site_fract_z
Si Si1 0.106880 0.675612 0.983559
Si Si2 0.601177 0.204174 0.465234
Si Si3 0.758838 0.129239 0.929514
Si Si4 0.607605 0.382003 0.811096
Si Si5 0.607855 0.393791 0.176249
Si Si6 0.596379 0.871375 0.851201
Si Si7 0.392674 0.495847 0.690835
Si Si8 0.832895 0.963304 0.852018
O O1 0.137355 0.655356 0.162561
O O2 0.000000 0.670916 0.985587
O O3 0.125592 0.735724 0.947848
O O4 0.137669 0.639497 0.833351
O O5 0.500000 0.201091 0.525096
O O6 0.671885 0.175832 0.578577
O O7 0.604075 0.170540 0.296712
O O8 0.750000 0.107200 0.750000
O O9 0.667896 0.143512 0.014505
O O10 0.793931 0.084710 0.047248
O O11 0.500000 0.380344 0.811452
O O12 0.634129 0.440807 0.765287
O O13 0.636393 0.372072 0.998734
O O14 0.500000 0.393187 0.176251
O O15 0.634779 0.453558 0.206471
O O16 0.500000 0.867850 0.923690
O O17 0.608064 0.930373 0.777768
O O18 0.365347 0.500000 0.500000
O O19 0.500000 0.495996 0.690950
O O20 0.750000 0.986858 0.750000
O O21 0.869397 0.000000 0.000000
#
# Coordination Sequence:
#
# PCOD9417371 Si02
#       8
#     8   8   8   8   8   8   8   8
#     4   9  16  27  40  57  88 125 166 219 271 320
#     4   9  18  34  53  74 103 143 186 230 281 332
#     4  10  20  35  56  81 112 149 188 229 279 331
#     4   9  15  22  33  51  79 116 162 211 258 318
#     4   9  15  22  33  51  77 116 163 209 263 318
#     4   9  19  36  57  81 111 148 194 238 281 335
#     4   9  13  19  31  46  71 113 160 204 254 314
#     4   9  17  31  55  84 116 154 190 226 273 325
#
# _framework density 20.151847
#
# number of rings (size 3 to 8) (size 9 to 14) (size 15 to 20)
#    0.000    2.875    1.250    1.875    0.000    2.250 
#    2.250    0.000    0.000   12.750    0.000    0.000 
#    0.000    0.000    0.000    9.000    0.000   16.125 
#
# Total GULP energy -356554.927467 kJ/mol
# GULP energy per Si atom -5571.170742 kJ/mol
# Density = 2.010598 g / cm^3
# Si number density = 20.151847 Si / 1000 Ang^3
#
#
#
# Elastic Constant Matrix: (Units=GPa)
#
#
# Indices 1 2 3 4 5 6 
#
# 1 45.3606 23.4165 20.1098 0.0000 0.0000 0.0000
# 2 23.4165 100.7749 27.7646 0.0000 0.0000 0.0000
# 3 20.1098 27.7646 100.6794 0.0000 0.0000 0.0000
# 4 0.0000 0.0000 0.0000 -7.1557 0.0000 0.0000
# 5 0.0000 0.0000 0.0000 0.0000 -10.2172 0.0000
# 6 0.0000 0.0000 0.0000 0.0000 0.0000 -7.9224
#
#
#
# Elastic Compliance Matrix: (Units=1/GPa)
#
#
# Indices 1 2 3 4 5 6 
#
# 1 0.026375 -0.005062 -0.003872 0.000000 0.000000 0.000000
# 2 -0.005062 0.011710 -0.002218 0.000000 0.000000 0.000000
# 3 -0.003872 -0.002218 0.011318 0.000000 0.000000 0.000000
# 4 0.000000 0.000000 0.000000 -0.139749 0.000000 0.000000
# 5 0.000000 0.000000 0.000000 0.000000 -0.097875 0.000000
# 6 0.000000 0.000000 0.000000 0.000000 0.000000 -0.126225
#
#
# Mechanical properties :
#
#
# Convention : Reuss Voigt Hill
#
# Bulk Modulus (GPa) = 36.90239 43.26632 40.08435
# Shear Modulus (GPa) = -17.66118 6.64255 -5.50931
#
# Velocity S-wave (km/s) = -2.96363 1.81753 -1.65524
# Velocity P-wave (km/s) = 2.57704 5.09130 4.03500
#
# Compressibility (1/GPa) = 0.02709852
#
# Stress axis : x y z
#
# Youngs Moduli (GPa) = 37.91422 85.39356 88.35679
#
# Poissons Ratio (x) = 0.43225 0.34214
# Poissons Ratio (y) = 0.19192 0.19601
# Poissons Ratio (z) = 0.14682 0.18944
#
# Static dielectric constant tensor:
#      x y z
#    x 1.754100 0.000000 0.000000 
#    y 0.000000 1.695990 0.000000 
#    z 0.000000 0.000000 1.653140 
# 
# From -- ./inp_files/8955.got.cif
#   From: 2010.05.17/outbox.cif.g08.bks.cpg/sg53_5_cif.got.tgz:8955.got - 2010.06.03 12:45:16.
