data_PCOD9417660
_publ_section_title
;
Structure prediction by ZEFSAII (Michael W. Deem and Ramdas Pophale) SiO2 
 PCOD9417660
Probable space group: P M N A
;
_chemical_formula_sum "Si O2"
_cell_formula_units_Z 64
_cell_length_a 8.292453
_cell_length_b 26.314175
_cell_length_c 14.733951
_cell_angle_alpha 90.000000
_cell_angle_beta 90.000000
_cell_angle_gamma 90.000000
_cell_volume 3215.081589
_symmetry_space_group_name_H-M "P M N A"
_symmetry_group_IT_number 53
_symmetry_cell_setting 'orthorhombic'
loop_
_space_group_symop_operation_xyz
x,y,z
1/2-x,-y,1/2+z
x,-y,-z
1/2-x,y,1/2-z
-x,-y,-z
1/2+x,y,1/2-z
-x,y,z
1/2+x,-y,1/2+z
loop_
_atom_site_type_symbol
_atom_site_label
_atom_site_fract_x
_atom_site_fract_y
_atom_site_fract_z
Si Si1 0.694368 0.407135 0.848868
Si Si2 0.804998 0.620974 0.540643
Si Si3 0.305234 0.862995 0.146810
Si Si4 0.194622 0.975616 0.354918
Si Si5 0.809381 0.280783 0.147049
Si Si6 0.194447 0.476178 0.349876
Si Si7 0.695040 0.815574 0.966363
Si Si8 0.304685 0.914093 0.854622
O O1 0.750000 0.389842 0.750000
O O2 0.500000 0.407930 0.848409
O O3 0.750478 0.465772 0.862680
O O4 0.748111 0.375161 0.935967
O O5 0.748015 0.666285 0.603920
O O6 0.751108 0.566232 0.579272
O O7 0.000000 0.621156 0.541946
O O8 0.250000 0.854525 0.250000
O O9 0.500000 0.863328 0.148265
O O10 0.251844 0.919702 0.114128
O O11 0.251971 0.822980 0.070720
O O12 0.250000 0.977120 0.250000
O O13 0.000000 0.975441 0.360795
O O14 0.248249 0.030450 0.392779
O O15 0.750000 0.274767 0.250000
O O16 0.750103 0.234820 0.083989
O O17 0.000000 0.280295 0.148820
O O18 0.250000 0.459985 0.250000
O O19 0.000000 0.477496 0.353487
O O20 0.500000 0.815799 0.965696
O O21 0.750864 0.865397 0.910772
O O22 0.250000 0.909893 0.750000
O O23 0.500000 0.913944 0.856230
#
# Coordination Sequence:
#
# PCOD9417660 Si02
#       8
#     8   8   8   8   8   8   8   8
#     4   9  18  33  54  82 117 153 186 223 267 316
#     4  10  20  36  58  82 111 148 188 228 270 318
#     4   9  18  33  54  78 107 140 175 217 264 316
#     4   8  14  26  45  72 104 137 170 207 255 311
#     4  12  26  43  62  83 108 138 175 222 272 321
#     4   9  17  30  51  81 115 150 185 221 267 320
#     4  10  21  37  56  79 105 138 180 224 270 318
#     4   9  17  29  48  74 105 138 173 212 258 316
#
# _framework density 19.906182000000001
#
# number of rings (size 3 to 8) (size 9 to 14) (size 15 to 20)
#    0.000    2.500    0.000    2.250    0.000    6.000 
#    0.000    3.125    0.000    3.750    0.000    9.625 
#    0.000    0.000    0.000    0.000    0.000    0.000 
#
# Total GULP energy -356950.426250 kJ/mol
# GULP energy per Si atom -5577.350410 kJ/mol
# Density = 1.986087 g / cm^3
# Si number density = 19.906182 Si / 1000 Ang^3
#
#
#
# Elastic Constant Matrix: (Units=GPa)
#
#
# Indices 1 2 3 4 5 6 
#
# 1 16.0413 8.7586 15.8225 0.0000 0.0000 0.0000
# 2 8.7586 37.1711 36.4834 0.0000 0.0000 0.0000
# 3 15.8225 36.4834 116.7650 0.0000 0.0000 0.0000
# 4 0.0000 0.0000 0.0000 36.7093 0.0000 0.0000
# 5 0.0000 0.0000 0.0000 0.0000 21.8346 0.0000
# 6 0.0000 0.0000 0.0000 0.0000 0.0000 16.7583
#
#
#
# Elastic Compliance Matrix: (Units=1/GPa)
#
#
# Indices 1 2 3 4 5 6 
#
# 1 0.075004 -0.011102 -0.006695 0.000000 0.000000 0.000000
# 2 -0.011102 0.040445 -0.011133 0.000000 0.000000 0.000000
# 3 -0.006695 -0.011133 0.012950 0.000000 0.000000 0.000000
# 4 0.000000 0.000000 0.000000 0.027241 0.000000 0.000000
# 5 0.000000 0.000000 0.000000 0.000000 0.045799 0.000000
# 6 0.000000 0.000000 0.000000 0.000000 0.000000 0.059672
#
#
# Mechanical properties :
#
#
# Convention : Reuss Voigt Hill
#
# Bulk Modulus (GPa) = 14.17635 32.45624 23.31629
# Shear Modulus (GPa) = 14.59922 22.32132 18.46027
#
# Velocity S-wave (km/s) = 2.71108 3.35225 3.04857
# Velocity P-wave (km/s) = 4.11545 5.59674 4.91225
#
# Compressibility (1/GPa) = 0.07054003
#
# Stress axis : x y z
#
# Youngs Moduli (GPa) = 13.33257 24.72466 77.22100
#
# Poissons Ratio (x) = 0.27450 0.51697
# Poissons Ratio (y) = 0.14802 0.85969
# Poissons Ratio (z) = 0.08926 0.27525
#
# Static dielectric constant tensor:
#      x y z
#    x 1.707500 0.000000 0.000000 
#    y 0.000000 1.715630 0.000000 
#    z 0.000000 0.000000 1.680260 
# 
# From -- ./inp_files/20863.got.cif
#   From: 2010.05.17/outbox.cif.g08.bks.cpg/sg53_11_cif.got.tgz:20863.got - 2010.06.03 12:45:16.
