data_PCOD9417423
_publ_section_title
;
Structure prediction by ZEFSAII (Michael W. Deem and Ramdas Pophale) SiO2 
 PCOD9417423
Probable space group: P M N A
;
_chemical_formula_sum "Si O2"
_cell_formula_units_Z 64
_cell_length_a 8.992884
_cell_length_b 21.813230
_cell_length_c 17.595617
_cell_angle_alpha 90.000000
_cell_angle_beta 90.000000
_cell_angle_gamma 90.000000
_cell_volume 3451.623922
_symmetry_space_group_name_H-M "P M N A"
_symmetry_group_IT_number 53
_symmetry_cell_setting 'orthorhombic'
loop_
_space_group_symop_operation_xyz
x,y,z
1/2-x,-y,1/2+z
x,-y,-z
1/2-x,y,1/2-z
-x,-y,-z
1/2+x,y,1/2-z
-x,y,z
1/2+x,-y,1/2+z
loop_
_atom_site_type_symbol
_atom_site_label
_atom_site_fract_x
_atom_site_fract_y
_atom_site_fract_z
Si Si1 0.823411 0.001001 0.672126
Si Si2 0.177109 0.218932 0.167625
Si Si3 0.175832 0.628108 0.175585
Si Si4 0.823645 0.311565 0.445843
Si Si5 0.323252 0.878431 0.390089
Si Si6 0.675120 0.096997 0.431077
Si Si7 0.677191 0.569838 0.487883
Si Si8 0.823166 0.252134 0.611122
O O1 0.750000 0.977016 0.750000
O O2 0.772458 0.957201 0.603617
O O3 0.000000 0.002462 0.679181
O O4 0.757708 0.068122 0.655850
O O5 0.250000 0.212213 0.250000
O O6 0.243824 0.276715 0.122627
O O7 0.206471 0.158726 0.116312
O O8 0.000000 0.225210 0.174949
O O9 0.250000 0.599923 0.250000
O O10 0.200545 0.588636 0.099797
O O11 0.253093 0.693429 0.160260
O O12 0.000000 0.636063 0.186040
O O13 0.760091 0.379166 0.462122
O O14 0.796513 0.272434 0.523290
O O15 0.000000 0.313827 0.433446
O O16 0.500000 0.879444 0.375704
O O17 0.299257 0.891541 0.479945
O O18 0.255332 0.812115 0.373026
O O19 0.500000 0.081500 0.421316
O O20 0.725449 0.500000 0.500000
O O21 0.500000 0.573916 0.503346
O O22 0.000000 0.248076 0.622940
#
# Coordination Sequence:
#
# PCOD9417423 Si02
#       8
#     8   8   8   8   8   8   8   8
#     4  12  26  42  59  81 112 150 192 240 293 346
#     4  11  22  37  58  86 117 152 192 237 291 344
#     4  10  20  35  57  85 118 153 193 238 288 340
#     4  10  20  35  57  85 117 150 187 235 284 338
#     4  11  22  39  62  87 115 148 189 235 289 348
#     4  10  22  40  62  86 113 149 190 236 289 348
#     4   9  19  37  61  86 115 157 201 239 284 340
#     4  10  20  35  57  85 115 147 188 232 282 339
#
# _framework density 18.541996999999999
#
# number of rings (size 3 to 8) (size 9 to 14) (size 15 to 20)
#    0.000    1.625    1.250    3.750    0.000    6.750 
#    0.000    3.125    0.000    1.500    0.000    0.000 
#    0.000    0.000    0.000    0.000    0.000    0.000 
#
# Total GULP energy -357776.928415 kJ/mol
# GULP energy per Si atom -5590.264506 kJ/mol
# Density = 1.849979 g / cm^3
# Si number density = 18.541997 Si / 1000 Ang^3
#
#
#
# Elastic Constant Matrix: (Units=GPa)
#
#
# Indices 1 2 3 4 5 6 
#
# 1 71.7242 45.2256 34.4148 0.0000 0.0000 0.0000
# 2 45.2256 96.1082 2.5468 0.0000 0.0000 0.0000
# 3 34.4148 2.5468 51.8352 0.0000 0.0000 0.0000
# 4 0.0000 0.0000 0.0000 7.8486 0.0000 0.0000
# 5 0.0000 0.0000 0.0000 0.0000 27.9719 0.0000
# 6 0.0000 0.0000 0.0000 0.0000 0.0000 19.9636
#
#
#
# Elastic Compliance Matrix: (Units=1/GPa)
#
#
# Indices 1 2 3 4 5 6 
#
# 1 0.034330 -0.015571 -0.022027 0.000000 0.000000 0.000000
# 2 -0.015571 0.017481 0.009479 0.000000 0.000000 0.000000
# 3 -0.022027 0.009479 0.033451 0.000000 0.000000 0.000000
# 4 0.000000 0.000000 0.000000 0.127412 0.000000 0.000000
# 5 0.000000 0.000000 0.000000 0.000000 0.035750 0.000000
# 6 0.000000 0.000000 0.000000 0.000000 0.000000 0.050091
#
#
# Mechanical properties :
#
#
# Convention : Reuss Voigt Hill
#
# Bulk Modulus (GPa) = 34.45542 42.67133 38.56338
# Shear Modulus (GPa) = 13.72016 20.32219 17.02117
#
# Velocity S-wave (km/s) = 2.72315 3.31419 3.03310
# Velocity P-wave (km/s) = 5.33949 6.14072 5.75407
#
# Compressibility (1/GPa) = 0.02902301
#
# Stress axis : x y z
#
# Youngs Moduli (GPa) = 29.12934 57.20535 29.89463
#
# Poissons Ratio (x) = 0.89073 0.65850
# Poissons Ratio (y) = 0.45357 -0.28337
# Poissons Ratio (z) = 0.64164 -0.54225
#
# Static dielectric constant tensor:
#      x y z
#    x 1.613460 0.000000 0.000000 
#    y 0.000000 1.613490 0.000000 
#    z 0.000000 0.000000 1.639910 
# 
# From -- ./inp_files/26924.got.cif
#   From: 2010.05.17/outbox.cif.g08.bks.cpg/sg53_14_cif.got.tgz:26924.got - 2010.06.03 12:45:16.
