data_PCOD9417047
_publ_section_title
;
Structure prediction by ZEFSAII (Michael W. Deem and Ramdas Pophale) SiO2 
 PCOD9417047
Probable space group: P M N A
;
_chemical_formula_sum "Si O2"
_cell_formula_units_Z 56
_cell_length_a 8.625391
_cell_length_b 15.436235
_cell_length_c 21.317101
_cell_angle_alpha 90.000000
_cell_angle_beta 90.000000
_cell_angle_gamma 90.000000
_cell_volume 2838.234768
_symmetry_space_group_name_H-M "P M N A"
_symmetry_group_IT_number 53
_symmetry_cell_setting 'orthorhombic'
loop_
_space_group_symop_operation_xyz
x,y,z
1/2-x,-y,1/2+z
x,-y,-z
1/2-x,y,1/2-z
-x,-y,-z
1/2+x,y,1/2-z
-x,y,z
1/2+x,-y,1/2+z
loop_
_atom_site_type_symbol
_atom_site_label
_atom_site_fract_x
_atom_site_fract_y
_atom_site_fract_z
Si Si1 0.681295 0.233314 0.018246
Si Si2 0.676697 0.444633 0.183062
Si Si3 0.813861 0.942171 0.316737
Si Si4 0.311537 0.053579 0.061450
Si Si5 0.815312 0.420440 0.045026
Si Si6 0.679417 0.210832 0.609646
Si Si7 0.822857 0.347345 0.684263
O O1 0.500000 0.248396 0.029512
O O2 0.739489 0.154040 0.061219
O O3 0.764690 0.325453 0.021640
O O4 0.709951 0.194697 0.949104
O O5 0.750000 0.416719 0.250000
O O6 0.500000 0.412844 0.180195
O O7 0.759510 0.424033 0.117410
O O8 0.674886 0.549261 0.184144
O O9 0.750000 0.972453 0.250000
O O10 0.733301 0.851515 0.334616
O O11 0.000000 0.932860 0.314699
O O12 0.771581 0.005124 0.374468
O O13 0.500000 0.055676 0.057209
O O14 0.256270 0.000000 0.000000
O O15 0.000000 0.426226 0.044387
O O16 0.756126 0.500000 0.000000
O O17 0.500000 0.197931 0.594086
O O18 0.713625 0.308466 0.631232
O O19 0.750000 0.319673 0.750000
O O20 0.000000 0.316447 0.676482
#
# Coordination Sequence:
#
# PCOD9417047 Si02
#       7
#     8   8   8   8   8   8   8
#     4  11  22  39  64  90 116 155 206 254 306 367
#     4  10  21  38  61  86 115 157 207 257 313 373
#     4  11  22  39  61  87 121 157 199 247 304 362
#     4   9  18  38  65  89 115 155 201 246 298 358
#     4  11  24  41  61  90 129 167 207 260 314 368
#     4  12  23  35  53  83 120 156 196 244 304 366
#     4  10  20  34  53  79 112 152 197 245 300 365
#
# _framework density 19.730573
#
# number of rings (size 3 to 8) (size 9 to 14) (size 15 to 20)
#    0.000    1.429    1.429    4.714    0.000    5.143 
#    0.000    4.286    0.000    1.714    0.000    0.000 
#    0.000    0.000    0.000    0.000    0.000    0.000 
#
# Total GULP energy -312550.245991 kJ/mol
# GULP energy per Si atom -5581.254393 kJ/mol
# Density = 1.968567 g / cm^3
# Si number density = 19.730573 Si / 1000 Ang^3
#
#
#
# Elastic Constant Matrix: (Units=GPa)
#
#
# Indices 1 2 3 4 5 6 
#
# 1 61.2382 21.8581 20.1442 0.0000 0.0000 0.0000
# 2 21.8581 79.0922 40.0965 0.0000 0.0000 0.0000
# 3 20.1442 40.0965 121.2824 0.0000 0.0000 0.0000
# 4 0.0000 0.0000 0.0000 12.0569 0.0000 0.0000
# 5 0.0000 0.0000 0.0000 0.0000 33.1388 0.0000
# 6 0.0000 0.0000 0.0000 0.0000 0.0000 -29.6431
#
#
#
# Elastic Compliance Matrix: (Units=1/GPa)
#
#
# Indices 1 2 3 4 5 6 
#
# 1 0.018388 -0.004245 -0.001651 0.000000 0.000000 0.000000
# 2 -0.004245 0.016169 -0.004641 0.000000 0.000000 0.000000
# 3 -0.001651 -0.004641 0.010054 0.000000 0.000000 0.000000
# 4 0.000000 0.000000 0.000000 0.082940 0.000000 0.000000
# 5 0.000000 0.000000 0.000000 0.000000 0.030176 0.000000
# 6 0.000000 0.000000 0.000000 0.000000 0.000000 -0.033735
#
#
# Mechanical properties :
#
#
# Convention : Reuss Voigt Hill
#
# Bulk Modulus (GPa) = 42.48394 47.31225 44.89809
# Shear Modulus (GPa) = 32.69890 15.07811 23.88851
#
# Velocity S-wave (km/s) = 4.07538 2.76742 3.48334
# Velocity P-wave (km/s) = 6.61239 5.85172 6.24365
#
# Compressibility (1/GPa) = 0.02353831
#
# Stress axis : x y z
#
# Youngs Moduli (GPa) = 54.38381 61.84615 99.46701
#
# Poissons Ratio (x) = 0.26253 0.16419
# Poissons Ratio (y) = 0.23085 0.46158
# Poissons Ratio (z) = 0.08977 0.28700
#
# Static dielectric constant tensor:
#      x y z
#    x 1.679060 0.000000 0.000000 
#    y 0.000000 1.719600 0.000000 
#    z 0.000000 0.000000 1.722630 
# 
# From -- ./inp_files/30825.got.cif
#   From: 2010.05.17/outbox.cif.g08.bks.cpg/sg53_16_cif.got.tgz:30825.got - 2010.06.03 12:45:16.
