data_PCOD9417717
_publ_section_title
;
Structure prediction by ZEFSAII (Michael W. Deem and Ramdas Pophale) SiO2 
 PCOD9417717
Probable space group: P M N A
;
_chemical_formula_sum "Si O2"
_cell_formula_units_Z 56
_cell_length_a 8.283198
_cell_length_b 15.668637
_cell_length_c 21.603228
_cell_angle_alpha 90.000000
_cell_angle_beta 90.000000
_cell_angle_gamma 90.000000
_cell_volume 2803.805680
_symmetry_space_group_name_H-M "P M N A"
_symmetry_group_IT_number 53
_symmetry_cell_setting 'orthorhombic'
loop_
_space_group_symop_operation_xyz
x,y,z
1/2-x,-y,1/2+z
x,-y,-z
1/2-x,y,1/2-z
-x,-y,-z
1/2+x,y,1/2-z
-x,y,z
1/2+x,-y,1/2+z
loop_
_atom_site_type_symbol
_atom_site_label
_atom_site_fract_x
_atom_site_fract_y
_atom_site_fract_z
Si Si1 0.693252 0.271818 0.988256
Si Si2 0.307176 0.442839 0.559015
Si Si3 0.806193 0.133255 0.315014
Si Si4 0.807371 0.917021 0.042132
Si Si5 0.306193 0.940155 0.182313
Si Si6 0.696440 0.296602 0.122850
Si Si7 0.193080 0.535062 0.683142
O O1 0.500000 0.264519 0.986244
O O2 0.749143 0.344349 0.941034
O O3 0.760226 0.175810 0.984740
O O4 0.744210 0.314989 0.053170
O O5 0.245629 0.500000 0.500000
O O6 0.500000 0.443213 0.555515
O O7 0.252328 0.483837 0.623523
O O8 0.750000 0.169936 0.250000
O O9 0.747899 0.200754 0.364367
O O10 0.000000 0.127616 0.317533
O O11 0.742174 0.037919 0.319064
O O12 0.745544 0.910632 0.113640
O O13 0.000000 0.924839 0.044245
O O14 0.748822 0.000000 0.000000
O O15 0.250000 0.904394 0.250000
O O16 0.500000 0.938004 0.183962
O O17 0.500000 0.295816 0.125738
O O18 0.752800 0.367848 0.170452
O O19 0.250000 0.504352 0.750000
O O20 0.000000 0.534926 0.682754
#
# Coordination Sequence:
#
# PCOD9417717 Si02
#       7
#     8   8   8   8   8   8   8
#     4  11  22  39  64  91 119 159 210 257 311 375
#     4  11  23  41  64  91 124 162 207 255 306 366
#     4   9  17  30  48  75 110 149 193 240 294 359
#     4  11  24  41  61  91 130 167 210 264 317 371
#     4  10  20  36  59  84 116 160 210 260 316 377
#     4   9  18  32  53  82 117 154 195 244 300 367
#     4  11  22  38  60  89 125 164 208 256 312 370
#
# _framework density 19.972854000000002
#
# number of rings (size 3 to 8) (size 9 to 14) (size 15 to 20)
#    0.000    1.714    1.429    3.429    0.000    3.429 
#    0.000    2.857    0.000    0.000    0.000    0.000 
#    0.000    0.000    0.000    0.000    0.000    0.000 
#
# Total GULP energy -311969.072125 kJ/mol
# GULP energy per Si atom -5570.876288 kJ/mol
# Density = 1.992739 g / cm^3
# Si number density = 19.972854 Si / 1000 Ang^3
#
#
#
# Elastic Constant Matrix: (Units=GPa)
#
#
# Indices 1 2 3 4 5 6 
#
# 1 44.9216 10.3234 18.0778 0.0000 0.0000 0.0000
# 2 10.3234 85.4388 40.1907 0.0000 0.0000 0.0000
# 3 18.0778 40.1907 127.4657 0.0000 0.0000 0.0000
# 4 0.0000 0.0000 0.0000 35.4243 0.0000 0.0000
# 5 0.0000 0.0000 0.0000 0.0000 26.9518 0.0000
# 6 0.0000 0.0000 0.0000 0.0000 0.0000 15.3480
#
#
#
# Elastic Compliance Matrix: (Units=1/GPa)
#
#
# Indices 1 2 3 4 5 6 
#
# 1 0.023773 -0.001510 -0.002895 0.000000 0.000000 0.000000
# 2 -0.001510 0.013839 -0.004149 0.000000 0.000000 0.000000
# 3 -0.002895 -0.004149 0.009564 0.000000 0.000000 0.000000
# 4 0.000000 0.000000 0.000000 0.028229 0.000000 0.000000
# 5 0.000000 0.000000 0.000000 0.000000 0.037103 0.000000
# 6 0.000000 0.000000 0.000000 0.000000 0.000000 0.065155
#
#
# Mechanical properties :
#
#
# Convention : Reuss Voigt Hill
#
# Bulk Modulus (GPa) = 33.26021 43.89000 38.57510
# Shear Modulus (GPa) = 24.41461 28.16044 26.28753
#
# Velocity S-wave (km/s) = 3.50006 3.75898 3.63183
# Velocity P-wave (km/s) = 5.74654 6.39238 6.07804
#
# Compressibility (1/GPa) = 0.03006596
#
# Stress axis : x y z
#
# Youngs Moduli (GPa) = 42.06398 72.26175 104.55725
#
# Poissons Ratio (x) = 0.10915 0.30273
# Poissons Ratio (y) = 0.06354 0.43382
# Poissons Ratio (z) = 0.12179 0.29983
#
# Static dielectric constant tensor:
#      x y z
#    x 1.685520 0.000000 0.000000 
#    y 0.000000 1.715530 0.000000 
#    z 0.000000 0.000000 1.658320 
# 
# From -- ./inp_files/30746.got.cif
#   From: 2010.05.17/outbox.cif.g08.bks.cpg/sg53_16_cif.got.tgz:30746.got - 2010.06.03 12:45:16.
