data_PCOD9417729
_publ_section_title
;
Structure prediction by ZEFSAII (Michael W. Deem and Ramdas Pophale) SiO2 
 PCOD9417729
Probable space group: P M N A
;
_chemical_formula_sum "Si O2"
_cell_formula_units_Z 48
_cell_length_a 8.711052
_cell_length_b 15.743410
_cell_length_c 17.985404
_cell_angle_alpha 90.000000
_cell_angle_beta 90.000000
_cell_angle_gamma 90.000000
_cell_volume 2466.548217
_symmetry_space_group_name_H-M "P M N A"
_symmetry_group_IT_number 53
_symmetry_cell_setting 'orthorhombic'
loop_
_space_group_symop_operation_xyz
x,y,z
1/2-x,-y,1/2+z
x,-y,-z
1/2-x,y,1/2-z
-x,-y,-z
1/2+x,y,1/2-z
-x,y,z
1/2+x,-y,1/2+z
loop_
_atom_site_type_symbol
_atom_site_label
_atom_site_fract_x
_atom_site_fract_y
_atom_site_fract_z
Si Si1 0.184208 0.857589 0.432870
Si Si2 0.316575 0.985923 0.828231
Si Si3 0.683943 0.657862 0.833793
Si Si4 0.317181 0.824886 0.594959
Si Si5 0.316054 0.530703 0.166242
Si Si6 0.683611 0.294277 0.666100
O O1 0.220971 0.946425 0.392508
O O2 0.254749 0.850867 0.514330
O O3 0.250517 0.781963 0.382626
O O4 0.000000 0.850541 0.437445
O O5 0.250000 0.017205 0.750000
O O6 0.500000 0.978459 0.823462
O O7 0.244406 0.895313 0.847763
O O8 0.750000 0.663865 0.750000
O O9 0.500000 0.666297 0.830050
O O10 0.753834 0.733007 0.882078
O O11 0.718375 0.563080 0.864882
O O12 0.500000 0.824050 0.595463
O O13 0.250000 0.527385 0.250000
O O14 0.500000 0.541646 0.168292
O O15 0.239773 0.615006 0.133331
O O16 0.750000 0.287481 0.750000
O O17 0.500000 0.291858 0.669103
#
# Coordination Sequence:
#
# PCOD9417729 Si02
#       6
#     8   8   8   8   8   8
#     4  11  24  42  62  85 117 154 193 238 289 344
#     4  11  24  42  65  90 116 149 190 237 285 337
#     4  10  20  36  59  86 117 153 196 243 289 340
#     4  12  25  40  60  86 119 155 191 235 288 347
#     4   9  17  31  54  83 114 150 192 240 289 336
#     4  11  21  35  58  87 119 154 194 240 288 341
#
# _framework density 19.460394999999998
#
# number of rings (size 3 to 8) (size 9 to 14) (size 15 to 20)
#    0.000    1.333    0.000    7.500    0.000    8.000 
#    0.000    0.833    0.000    5.000    0.000    0.000 
#    0.000    0.000    0.000    0.000    0.000    0.000 
#
# Total GULP energy -268328.608849 kJ/mol
# GULP energy per Si atom -5590.179351 kJ/mol
# Density = 1.941610 g / cm^3
# Si number density = 19.460395 Si / 1000 Ang^3
#
#
#
# Elastic Constant Matrix: (Units=GPa)
#
#
# Indices 1 2 3 4 5 6 
#
# 1 87.5272 32.6859 7.3399 0.0000 0.0000 0.0000
# 2 32.6859 91.0286 -3.2462 0.0000 0.0000 0.0000
# 3 7.3399 -3.2462 43.8556 0.0000 0.0000 0.0000
# 4 0.0000 0.0000 0.0000 6.7572 0.0000 0.0000
# 5 0.0000 0.0000 0.0000 0.0000 32.0932 0.0000
# 6 0.0000 0.0000 0.0000 0.0000 0.0000 29.1316
#
#
#
# Elastic Compliance Matrix: (Units=1/GPa)
#
#
# Indices 1 2 3 4 5 6 
#
# 1 0.013489 -0.004937 -0.002623 0.000000 0.000000 0.000000
# 2 -0.004937 0.012822 0.001775 0.000000 0.000000 0.000000
# 3 -0.002623 0.001775 0.023373 0.000000 0.000000 0.000000
# 4 0.000000 0.000000 0.000000 0.147990 0.000000 0.000000
# 5 0.000000 0.000000 0.000000 0.000000 0.031159 0.000000
# 6 0.000000 0.000000 0.000000 0.000000 0.000000 0.034327
#
#
# Mechanical properties :
#
#
# Convention : Reuss Voigt Hill
#
# Bulk Modulus (GPa) = 26.23738 32.88564 29.56151
# Shear Modulus (GPa) = 17.39539 25.97185 21.68362
#
# Velocity S-wave (km/s) = 2.99304 3.65718 3.34165
# Velocity P-wave (km/s) = 5.04540 5.89650 5.48748
#
# Compressibility (1/GPa) = 0.03811356
#
# Stress axis : x y z
#
# Youngs Moduli (GPa) = 74.13656 77.99346 42.78532
#
# Poissons Ratio (x) = 0.38505 0.11222
# Poissons Ratio (y) = 0.36601 -0.07596
# Poissons Ratio (z) = 0.19446 -0.13846
#
# Static dielectric constant tensor:
#      x y z
#    x 1.643070 0.000000 0.000000 
#    y 0.000000 1.704750 0.000000 
#    z 0.000000 0.000000 1.648070 
# 
# From -- ./inp_files/26226.got.cif
#   From: 2010.05.17/outbox.cif.g08.bks.cpg/sg53_14_cif.got.tgz:26226.got - 2010.06.03 12:45:16.
