data_PCOD9417201
_publ_section_title
;
Structure prediction by ZEFSAII (Michael W. Deem and Ramdas Pophale) SiO2 
 PCOD9417201
Probable space group: P M N A
;
_chemical_formula_sum "Si O2"
_cell_formula_units_Z 32
_cell_length_a 15.483450
_cell_length_b 10.952746
_cell_length_c 7.937009
_cell_angle_alpha 90.000000
_cell_angle_beta 90.000000
_cell_angle_gamma 90.000000
_cell_volume 1346.007950
_symmetry_space_group_name_H-M "P M N A"
_symmetry_group_IT_number 53
_symmetry_cell_setting 'orthorhombic'
loop_
_space_group_symop_operation_xyz
x,y,z
1/2-x,-y,1/2+z
x,-y,-z
1/2-x,y,1/2-z
-x,-y,-z
1/2+x,y,1/2-z
-x,y,z
1/2+x,-y,1/2+z
loop_
_atom_site_type_symbol
_atom_site_label
_atom_site_fract_x
_atom_site_fract_y
_atom_site_fract_z
Si Si1 0.907979 0.701606 0.481107
Si Si2 0.843727 0.927301 0.679025
Si Si3 0.722615 0.372893 0.443840
Si Si4 0.152865 0.166733 0.831790
O O1 0.895213 0.807565 0.622842
O O2 0.817641 0.631377 0.471328
O O3 0.907778 0.765224 0.299555
O O4 0.000000 0.640408 0.512354
O O5 0.750000 0.892647 0.750000
O O6 0.834613 0.000000 0.500000
O O7 0.877117 0.025538 0.815745
O O8 0.679538 0.500000 0.500000
O O9 0.750000 0.375328 0.250000
O O10 0.668426 0.254949 0.508367
O O11 0.250000 0.160242 0.750000
#
# Coordination Sequence:
#
# PCOD9417201 Si02
#       4
#     8   8   8   8
#     4  10  20  34  56  89 125 160 199 247 305 363
#     4   9  17  31  54  81 116 158 204 249 293 352
#     4  11  22  40  65  87 115 159 213 260 301 361
#     4   8  17  34  55  82 113 152 202 247 296 355
#
# _framework density 23.774007999999998
#
# number of rings (size 3 to 8) (size 9 to 14) (size 15 to 20)
#    0.000    2.500    0.000    4.500    0.000    5.000 
#    0.000    1.250    0.000    8.250    0.000    0.000 
#    0.000    0.000    0.000    0.000    0.000    0.000 
#
# Total GULP energy -178220.389493 kJ/mol
# GULP energy per Si atom -5569.387172 kJ/mol
# Density = 2.371990 g / cm^3
# Si number density = 23.774008 Si / 1000 Ang^3
#
#
#
# Elastic Constant Matrix: (Units=GPa)
#
#
# Indices 1 2 3 4 5 6 
#
# 1 72.4910 -4.5124 -8.4346 0.0000 0.0000 0.0000
# 2 -4.5124 147.7984 48.8199 0.0000 0.0000 0.0000
# 3 -8.4346 48.8199 133.6074 0.0000 0.0000 0.0000
# 4 0.0000 0.0000 0.0000 28.8790 0.0000 0.0000
# 5 0.0000 0.0000 0.0000 0.0000 4.2320 0.0000
# 6 0.0000 0.0000 0.0000 0.0000 0.0000 -3.0255
#
#
#
# Elastic Compliance Matrix: (Units=1/GPa)
#
#
# Indices 1 2 3 4 5 6 
#
# 1 0.013900 0.000153 0.000822 0.000000 0.000000 0.000000
# 2 0.000153 0.007696 -0.002803 0.000000 0.000000 0.000000
# 3 0.000822 -0.002803 0.008561 0.000000 0.000000 0.000000
# 4 0.000000 0.000000 0.000000 0.034627 0.000000 0.000000
# 5 0.000000 0.000000 0.000000 0.000000 0.236298 0.000000
# 6 0.000000 0.000000 0.000000 0.000000 0.000000 -0.330525
#
#
# Mechanical properties :
#
#
# Convention : Reuss Voigt Hill
#
# Bulk Modulus (GPa) = 37.73461 47.29362 42.51411
# Shear Modulus (GPa) = -294.92596 27.21868 -133.85364
#
# Velocity S-wave (km/s) = -11.15003 3.38730 -7.51164
# Velocity P-wave (km/s) = 12.24164 5.93587 7.57044
#
# Compressibility (1/GPa) = 0.02650087
#
# Stress axis : x y z
#
# Youngs Moduli (GPa) = 71.94275 129.93133 116.81503
#
# Poissons Ratio (x) = -0.01988 -0.09598
# Poissons Ratio (y) = -0.01101 0.32738
# Poissons Ratio (z) = -0.05911 0.36414
#
# Static dielectric constant tensor:
#      x y z
#    x 1.899630 0.000000 0.000000 
#    y 0.000000 2.024170 0.000000 
#    z 0.000000 0.000000 2.002370 
# 
# From -- ./inp_files/8131.got.cif
#   From: 2010.05.17/outbox.cif.g08.bks.cpg/sg53_5_cif.got.tgz:8131.got - 2010.06.03 12:45:16.
