data_PCOD9417956
_publ_section_title
;
Structure prediction by ZEFSAII (Michael W. Deem and Ramdas Pophale) SiO2 
 PCOD9417956
Probable space group: P M N A
;
_chemical_formula_sum "Si O2"
_cell_formula_units_Z 32
_cell_length_a 18.933096
_cell_length_b 10.145021
_cell_length_c 8.593143
_cell_angle_alpha 90.000000
_cell_angle_beta 90.000000
_cell_angle_gamma 90.000000
_cell_volume 1650.542176
_symmetry_space_group_name_H-M "P M N A"
_symmetry_group_IT_number 53
_symmetry_cell_setting 'orthorhombic'
loop_
_space_group_symop_operation_xyz
x,y,z
1/2-x,-y,1/2+z
x,-y,-z
1/2-x,y,1/2-z
-x,-y,-z
1/2+x,y,1/2-z
-x,y,z
1/2+x,-y,1/2+z
loop_
_atom_site_type_symbol
_atom_site_label
_atom_site_fract_x
_atom_site_fract_y
_atom_site_fract_z
Si Si1 0.685103 0.891584 0.870341
Si Si2 0.844023 0.359654 0.926468
Si Si3 0.579793 0.124767 0.388125
Si Si4 0.827444 0.360486 0.571319
O O1 0.750000 0.870061 0.750000
O O2 0.619470 0.928929 0.763449
O O3 0.659546 0.760706 0.957787
O O4 0.704804 0.000000 0.000000
O O5 0.860134 0.345101 0.742964
O O6 0.758500 0.359542 0.925025
O O7 0.866147 0.500000 0.000000
O O8 0.875846 0.241976 0.029574
O O9 0.500000 0.170629 0.356855
O O10 0.577299 0.000000 0.500000
O O11 0.849573 0.500000 0.500000
#
# Coordination Sequence:
#
# PCOD9417956 Si02
#       4
#     8   8   8   8
#     4  12  24  38  62  91 121 154 204 256 296 350
#     4  10  20  37  62  90 121 157 200 244 300 358
#     4  11  24  42  61  85 123 166 200 243 306 360
#     4  10  21  35  62  94 122 153 195 254 303 348
#
# _framework density 19.387568999999999
#
# number of rings (size 3 to 8) (size 9 to 14) (size 15 to 20)
#    0.000    1.250    2.500    3.750    7.000    1.000 
#    0.000    1.250    0.000    3.000    0.000    0.000 
#    0.000    0.000    0.000    0.000    0.000    0.000 
#
# Total GULP energy -178578.754496 kJ/mol
# GULP energy per Si atom -5580.586078 kJ/mol
# Density = 1.934344 g / cm^3
# Si number density = 19.387569 Si / 1000 Ang^3
#
#
#
# Elastic Constant Matrix: (Units=GPa)
#
#
# Indices 1 2 3 4 5 6 
#
# 1 46.4535 6.7791 30.0464 0.0000 0.0000 0.0000
# 2 6.7791 74.0297 17.6562 0.0000 0.0000 0.0000
# 3 30.0464 17.6562 114.5979 0.0000 0.0000 0.0000
# 4 0.0000 0.0000 0.0000 36.2124 0.0000 0.0000
# 5 0.0000 0.0000 0.0000 0.0000 10.3529 0.0000
# 6 0.0000 0.0000 0.0000 0.0000 0.0000 19.8822
#
#
#
# Elastic Compliance Matrix: (Units=1/GPa)
#
#
# Indices 1 2 3 4 5 6 
#
# 1 0.025967 -0.000783 -0.006688 0.000000 0.000000 0.000000
# 2 -0.000783 0.014047 -0.001959 0.000000 0.000000 0.000000
# 3 -0.006688 -0.001959 0.010781 0.000000 0.000000 0.000000
# 4 0.000000 0.000000 0.000000 0.027615 0.000000 0.000000
# 5 0.000000 0.000000 0.000000 0.000000 0.096591 0.000000
# 6 0.000000 0.000000 0.000000 0.000000 0.000000 0.050296
#
#
# Mechanical properties :
#
#
# Convention : Reuss Voigt Hill
#
# Bulk Modulus (GPa) = 31.31233 38.22716 34.76974
# Shear Modulus (GPa) = 19.62311 25.32947 22.47629
#
# Velocity S-wave (km/s) = 3.18488 3.61845 3.40856
# Velocity P-wave (km/s) = 5.45073 6.10063 5.78481
#
# Compressibility (1/GPa) = 0.03193630
#
# Stress axis : x y z
#
# Youngs Moduli (GPa) = 38.51077 71.18956 92.75224
#
# Poissons Ratio (x) = 0.05573 0.62029
# Poissons Ratio (y) = 0.03015 0.18170
# Poissons Ratio (z) = 0.25755 0.13946
#
# Static dielectric constant tensor:
#      x y z
#    x 1.681320 0.000000 0.000000 
#    y 0.000000 1.643240 0.000000 
#    z 0.000000 0.000000 1.712470 
# 
# From -- ./inp_files/10437.got.cif
#   From: 2010.05.17/outbox.cif.g08.bks.cpg/sg53_6_cif.got.tgz:10437.got - 2010.06.03 12:45:16.
