data_PCOD9417584
_publ_section_title
;
Structure prediction by ZEFSAII (Michael W. Deem and Ramdas Pophale) SiO2 
 PCOD9417584
Probable space group: P M N A
;
_chemical_formula_sum "Si O2"
_cell_formula_units_Z 64
_cell_length_a 14.504597
_cell_length_b 17.625567
_cell_length_c 10.219101
_cell_angle_alpha 90.000000
_cell_angle_beta 90.000000
_cell_angle_gamma 90.000000
_cell_volume 2612.531016
_symmetry_space_group_name_H-M "P M N A"
_symmetry_group_IT_number 53
_symmetry_cell_setting 'orthorhombic'
loop_
_space_group_symop_operation_xyz
x,y,z
1/2-x,-y,1/2+z
x,-y,-z
1/2-x,y,1/2-z
-x,-y,-z
1/2+x,y,1/2-z
-x,y,z
1/2+x,-y,1/2+z
loop_
_atom_site_type_symbol
_atom_site_label
_atom_site_fract_x
_atom_site_fract_y
_atom_site_fract_z
Si Si1 0.387562 0.919357 0.252730
Si Si2 0.612964 0.136101 0.020425
Si Si3 0.142351 0.579614 0.246245
Si Si4 0.390660 0.305601 0.962497
Si Si5 0.387339 0.915626 0.691822
Si Si6 0.891120 0.634562 0.968748
Si Si7 0.886978 0.198430 0.961884
Si Si8 0.607690 0.584668 0.813044
O O1 0.500000 0.919269 0.254427
O O2 0.359318 0.916197 0.101470
O O3 0.358014 0.844196 0.329822
O O4 0.358520 0.996945 0.322685
O O5 0.500000 0.134620 0.022908
O O6 0.645106 0.221259 0.986469
O O7 0.642432 0.111288 0.164230
O O8 0.250000 0.573592 0.250000
O O9 0.117488 0.657095 0.319893
O O10 0.114838 0.580451 0.094639
O O11 0.108273 0.506043 0.323868
O O12 0.500000 0.298053 0.982883
O O13 0.352233 0.366503 0.067566
O O14 0.500000 0.915136 0.689212
O O15 0.359215 0.857012 0.580348
O O16 0.853177 0.716467 0.012741
O O17 0.000000 0.645334 0.946995
O O18 0.852664 0.605156 0.830514
O O19 0.000000 0.201383 0.958908
O O20 0.500000 0.605317 0.810708
#
# Coordination Sequence:
#
# PCOD9417584 Si02
#       8
#     8   8   8   8   8   8   8   8
#     4   9  15  22  35  60  98 139 168 194 240 299
#     4   9  16  26  42  65  95 132 169 204 246 296
#     4  12  25  38  54  78 107 138 172 214 266 320
#     4  10  20  36  57  79 105 138 177 219 260 307
#     4   9  15  23  37  63 100 135 166 202 246 297
#     4  10  20  36  57  79 105 138 177 219 260 307
#     4   9  16  26  42  65  95 132 169 204 246 296
#     4  10  21  37  58  81 103 134 176 218 262 312
#
# _framework density 24.497316000000001
#
# number of rings (size 3 to 8) (size 9 to 14) (size 15 to 20)
#    0.000    2.250    0.000    4.125    0.000   12.000 
#    0.000    0.000    0.000    0.000    0.000    0.000 
#    0.000   16.000    0.000    0.000    0.000    0.000 
#
# Total GULP energy -357933.863406 kJ/mol
# GULP energy per Si atom -5592.716616 kJ/mol
# Density = 2.444156 g / cm^3
# Si number density = 24.497316 Si / 1000 Ang^3
#
#
#
# Elastic Constant Matrix: (Units=GPa)
#
#
# Indices 1 2 3 4 5 6 
#
# 1 54.3307 -16.2230 -8.2964 0.0000 0.0000 0.0000
# 2 -16.2230 101.7973 1.1378 0.0000 0.0000 0.0000
# 3 -8.2964 1.1378 118.2990 0.0000 0.0000 0.0000
# 4 0.0000 0.0000 0.0000 52.3632 0.0000 0.0000
# 5 0.0000 0.0000 0.0000 0.0000 -7.5172 0.0000
# 6 0.0000 0.0000 0.0000 0.0000 0.0000 -5.1245
#
#
#
# Elastic Compliance Matrix: (Units=1/GPa)
#
#
# Indices 1 2 3 4 5 6 
#
# 1 0.019536 0.003098 0.001340 0.000000 0.000000 0.000000
# 2 0.003098 0.010316 0.000118 0.000000 0.000000 0.000000
# 3 0.001340 0.000118 0.008546 0.000000 0.000000 0.000000
# 4 0.000000 0.000000 0.000000 0.019097 0.000000 0.000000
# 5 0.000000 0.000000 0.000000 0.000000 -0.133028 0.000000
# 6 0.000000 0.000000 0.000000 0.000000 0.000000 -0.195142
#
#
# Mechanical properties :
#
#
# Convention : Reuss Voigt Hill
#
# Bulk Modulus (GPa) = 21.04782 25.29596 23.17189
# Shear Modulus (GPa) = -18.94286 27.79820 4.42767
#
# Velocity S-wave (km/s) = -2.78378 3.37225 1.34586
# Velocity P-wave (km/s) = 1.31225 5.05086 3.44885
#
# Compressibility (1/GPa) = 0.04751085
#
# Stress axis : x y z
#
# Youngs Moduli (GPa) = 51.18853 96.93778 117.01361
#
# Poissons Ratio (x) = -0.30035 -0.15683
# Poissons Ratio (y) = -0.15860 -0.01382
# Poissons Ratio (z) = -0.06861 -0.01145
#
# Static dielectric constant tensor:
#      x y z
#    x 1.979030 0.000000 0.000000 
#    y 0.000000 1.956560 0.000000 
#    z 0.000000 0.000000 1.719180 
# 
# From -- ./inp_files/11184.got.cif
#   From: 2010.05.17/outbox.cif.g08.bks.cpg/sg53_6_cif.got.tgz:11184.got - 2010.06.03 12:45:16.
