data_PCOD9417008
_publ_section_title
;
Structure prediction by ZEFSAII (Michael W. Deem and Ramdas Pophale) SiO2 
 PCOD9417008
Probable space group: P M N A
;
_chemical_formula_sum "Si O2"
_cell_formula_units_Z 48
_cell_length_a 8.817913
_cell_length_b 9.490969
_cell_length_c 33.374965
_cell_angle_alpha 90.000000
_cell_angle_beta 90.000000
_cell_angle_gamma 90.000000
_cell_volume 2793.168808
_symmetry_space_group_name_H-M "P M N A"
_symmetry_group_IT_number 53
_symmetry_cell_setting 'orthorhombic'
loop_
_space_group_symop_operation_xyz
x,y,z
1/2-x,-y,1/2+z
x,-y,-z
1/2-x,y,1/2-z
-x,-y,-z
1/2+x,y,1/2-z
-x,y,z
1/2+x,-y,1/2+z
loop_
_atom_site_type_symbol
_atom_site_label
_atom_site_fract_x
_atom_site_fract_y
_atom_site_fract_z
Si Si1 0.818427 0.588801 0.128641
Si Si2 0.681380 0.835947 0.835417
Si Si3 0.682655 0.074295 0.041648
Si Si4 0.817790 0.103737 0.620318
Si Si5 0.818189 0.314447 0.086368
Si Si6 0.681308 0.414435 0.291872
O O1 0.781684 0.479224 0.092647
O O2 0.772785 0.512695 0.170430
O O3 0.000000 0.602895 0.129642
O O4 0.746907 0.741040 0.123982
O O5 0.500000 0.827736 0.831347
O O6 0.726034 0.998243 0.843286
O O7 0.734142 0.760046 0.876383
O O8 0.759352 0.743310 0.801311
O O9 0.500000 0.092271 0.043356
O O10 0.727931 0.972545 0.078690
O O11 0.760352 0.225905 0.048550
O O12 0.721840 0.000000 0.000000
O O13 0.000000 0.110433 0.620066
O O14 0.000000 0.299146 0.090648
O O15 0.750000 0.463776 0.250000
O O16 0.500000 0.412801 0.290152
#
# Coordination Sequence:
#
# PCOD9417008 Si02
#       6
#     8   8   8   8   8   8
#     4   9  19  33  49  71 100 131 162 198 242 293
#     4   9  17  31  50  72  96 125 161 198 236 282
#     4   9  18  33  51  72  98 127 163 208 253 296
#     4   9  18  31  50  74  96 124 163 200 240 291
#     4   9  17  30  48  71  96 126 165 200 236 288
#     4  10  20  34  52  75  99 127 163 200 241 287
#
# _framework density 17.184784000000001
#
# number of rings (size 3 to 8) (size 9 to 14) (size 15 to 20)
#    0.000    2.833    0.000    3.500    0.000    7.667 
#    0.000    1.667    0.000    7.000    0.000    0.000 
#    0.000    0.000    0.000    0.000    0.000    0.000 
#
# Total GULP energy -267249.790129 kJ/mol
# GULP energy per Si atom -5567.703961 kJ/mol
# Density = 1.714567 g / cm^3
# Si number density = 17.184784 Si / 1000 Ang^3
#
#
#
# Elastic Constant Matrix: (Units=GPa)
#
#
# Indices 1 2 3 4 5 6 
#
# 1 26.8639 28.3493 15.9633 0.0000 0.0000 0.0000
# 2 28.3493 134.1792 27.1614 0.0000 0.0000 0.0000
# 3 15.9633 27.1614 53.2722 0.0000 0.0000 0.0000
# 4 0.0000 0.0000 0.0000 14.6107 0.0000 0.0000
# 5 0.0000 0.0000 0.0000 0.0000 23.4300 0.0000
# 6 0.0000 0.0000 0.0000 0.0000 0.0000 34.5297
#
#
#
# Elastic Compliance Matrix: (Units=1/GPa)
#
#
# Indices 1 2 3 4 5 6 
#
# 1 0.053516 -0.008988 -0.011454 0.000000 0.000000 0.000000
# 2 -0.008988 0.009820 -0.002313 0.000000 0.000000 0.000000
# 3 -0.011454 -0.002313 0.023383 0.000000 0.000000 0.000000
# 4 0.000000 0.000000 0.000000 0.068443 0.000000 0.000000
# 5 0.000000 0.000000 0.000000 0.000000 0.042680 0.000000
# 6 0.000000 0.000000 0.000000 0.000000 0.000000 0.028961
#
#
# Mechanical properties :
#
#
# Convention : Reuss Voigt Hill
#
# Bulk Modulus (GPa) = 24.26676 39.69591 31.98134
# Shear Modulus (GPa) = 17.47945 24.03682 20.75813
#
# Velocity S-wave (km/s) = 3.19273 3.74401 3.47931
# Velocity P-wave (km/s) = 5.26717 6.46837 5.89843
#
# Compressibility (1/GPa) = 0.04120863
#
# Stress axis : x y z
#
# Youngs Moduli (GPa) = 18.68595 101.83216 42.76581
#
# Poissons Ratio (x) = 0.91530 0.48982
# Poissons Ratio (y) = 0.16796 0.09894
# Poissons Ratio (z) = 0.21402 0.23558
#
# Static dielectric constant tensor:
#      x y z
#    x 1.583610 0.000000 0.000000 
#    y 0.000000 1.598990 0.000000 
#    z 0.000000 0.000000 1.615100 
# 
# From -- ./inp_files/37781.got.cif
#   From: 2010.05.17/outbox.cif.g08.bks.cpg/sg53_19_cif.got.tgz:37781.got - 2010.06.03 12:45:16.
