data_PCOD9417304
_publ_section_title
;
Structure prediction by ZEFSAII (Michael W. Deem and Ramdas Pophale) SiO2 
 PCOD9417304
Probable space group: P M N A
;
_chemical_formula_sum "Si O2"
_cell_formula_units_Z 48
_cell_length_a 7.493418
_cell_length_b 7.973764
_cell_length_c 32.851016
_cell_angle_alpha 90.000000
_cell_angle_beta 90.000000
_cell_angle_gamma 90.000000
_cell_volume 1962.872735
_symmetry_space_group_name_H-M "P M N A"
_symmetry_group_IT_number 53
_symmetry_cell_setting 'orthorhombic'
loop_
_space_group_symop_operation_xyz
x,y,z
1/2-x,-y,1/2+z
x,-y,-z
1/2-x,y,1/2-z
-x,-y,-z
1/2+x,y,1/2-z
-x,y,z
1/2+x,-y,1/2+z
loop_
_atom_site_type_symbol
_atom_site_label
_atom_site_fract_x
_atom_site_fract_y
_atom_site_fract_z
Si Si1 0.300768 0.051922 0.818231
Si Si2 0.717578 0.697259 0.852711
Si Si3 0.214557 0.331434 0.980610
Si Si4 0.799512 0.190329 0.901786
Si Si5 0.213876 0.399914 0.705446
Si Si6 0.211653 0.846599 0.562715
O O1 0.500000 0.021911 0.801602
O O2 0.309127 0.140642 0.862474
O O3 0.212057 0.208373 0.794897
O O4 0.223139 0.867419 0.828327
O O5 0.500000 0.699116 0.851421
O O6 0.776848 0.528381 0.829691
O O7 0.767833 0.720506 0.900378
O O8 0.253343 0.201525 0.016380
O O9 0.000000 0.339256 0.975940
O O10 0.284531 0.500000 0.000000
O O11 0.284660 0.311694 0.934982
O O12 0.000000 0.239783 0.889544
O O13 0.807881 0.019060 0.927435
O O14 0.250000 0.474183 0.750000
O O15 0.000000 0.384806 0.700537
O O16 0.000000 0.872105 0.567497
#
# Coordination Sequence:
#
# PCOD9417304 Si02
#       6
#     8   8   8   8   8   8
#     4   9  19  36  58  80 108 144 181 226 272 319
#     4   8  17  35  55  78 107 139 176 218 269 319
#     4  10  22  36  49  74 112 148 180 224 277 323
#     4  10  20  35  55  77 106 144 182 223 273 326
#     4  10  21  37  57  81 110 141 173 218 273 327
#     4  10  20  35  56  79 104 140 187 231 271 323
#
# _framework density 24.453954
#
# number of rings (size 3 to 8) (size 9 to 14) (size 15 to 20)
#    0.000    2.500    0.000    2.500    2.333    5.000 
#    0.000    4.167    0.000    0.000    0.000    0.000 
#    0.000    0.000    0.000    0.000    0.000    0.000 
#
# Total GULP energy -267727.739104 kJ/mol
# GULP energy per Si atom -5577.661231 kJ/mol
# Density = 2.439830 g / cm^3
# Si number density = 24.453954 Si / 1000 Ang^3
#
#
#
# Elastic Constant Matrix: (Units=GPa)
#
#
# Indices 1 2 3 4 5 6 
#
# 1 80.0317 -2.9536 -6.5879 0.0000 0.0000 0.0000
# 2 -2.9536 74.1947 4.8442 0.0000 0.0000 0.0000
# 3 -6.5879 4.8442 47.6730 0.0000 0.0000 0.0000
# 4 0.0000 0.0000 0.0000 43.4934 0.0000 0.0000
# 5 0.0000 0.0000 0.0000 0.0000 15.3440 0.0000
# 6 0.0000 0.0000 0.0000 0.0000 0.0000 -0.2281
#
#
#
# Elastic Compliance Matrix: (Units=1/GPa)
#
#
# Indices 1 2 3 4 5 6 
#
# 1 0.012650 0.000392 0.001708 0.000000 0.000000 0.000000
# 2 0.000392 0.013580 -0.001326 0.000000 0.000000 0.000000
# 3 0.001708 -0.001326 0.021347 0.000000 0.000000 0.000000
# 4 0.000000 0.000000 0.000000 0.022992 0.000000 0.000000
# 5 0.000000 0.000000 0.000000 0.000000 0.065172 0.000000
# 6 0.000000 0.000000 0.000000 0.000000 0.000000 -4.383716
#
#
# Mechanical properties :
#
#
# Convention : Reuss Voigt Hill
#
# Bulk Modulus (GPa) = 20.35560 21.38943 20.87251
# Shear Modulus (GPa) = -1.18115 25.49497 12.15691
#
# Velocity S-wave (km/s) = -0.69574 3.23239 2.23207
# Velocity P-wave (km/s) = 2.77429 4.76413 3.89831
#
# Compressibility (1/GPa) = 0.04912652
#
# Stress axis : x y z
#
# Youngs Moduli (GPa) = 79.05055 73.63655 46.84493
#
# Poissons Ratio (x) = -0.02887 -0.08002
# Poissons Ratio (y) = -0.03099 0.06210
# Poissons Ratio (z) = -0.13504 0.09762
#
# Static dielectric constant tensor:
#      x y z
#    x 1.832870 0.000000 0.000000 
#    y 0.000000 2.021480 0.000000 
#    z 0.000000 0.000000 2.067220 
# 
# From -- ./inp_files/37731.got.cif
#   From: 2010.05.17/outbox.cif.g08.bks.cpg/sg53_19_cif.got.tgz:37731.got - 2010.06.03 12:45:16.
