data_PCOD9417292
_publ_section_title
;
Structure prediction by ZEFSAII (Michael W. Deem and Ramdas Pophale) SiO2 
 PCOD9417292
Probable space group: P M N A
;
_chemical_formula_sum "Si O2"
_cell_formula_units_Z 32
_cell_length_a 22.893104
_cell_length_b 7.169357
_cell_length_c 8.155371
_cell_angle_alpha 90.000000
_cell_angle_beta 90.000000
_cell_angle_gamma 90.000000
_cell_volume 1338.531545
_symmetry_space_group_name_H-M "P M N A"
_symmetry_group_IT_number 53
_symmetry_cell_setting 'orthorhombic'
loop_
_space_group_symop_operation_xyz
x,y,z
1/2-x,-y,1/2+z
x,-y,-z
1/2-x,y,1/2-z
-x,-y,-z
1/2+x,y,1/2-z
-x,y,z
1/2+x,-y,1/2+z
loop_
_atom_site_type_symbol
_atom_site_label
_atom_site_fract_x
_atom_site_fract_y
_atom_site_fract_z
Si Si1 0.812356 0.522277 0.693605
Si Si2 0.812478 0.043772 0.192469
Si Si3 0.062676 0.475304 0.194885
Si Si4 0.062801 0.032349 0.198138
O O1 0.812089 0.500000 0.500000
O O2 0.750000 0.441421 0.750000
O O3 0.812187 0.735209 0.763735
O O4 0.875170 0.444864 0.750246
O O5 0.750000 0.970698 0.250000
O O6 0.874041 0.968120 0.263267
O O7 0.814519 0.000000 0.000000
O O8 0.062808 0.254210 0.227535
O O9 0.000000 0.547248 0.260095
O O10 0.061462 0.500000 0.000000
O O11 0.000000 0.960253 0.259518
O O12 0.062681 0.000000 0.000000
#
# Coordination Sequence:
#
# PCOD9417292 Si02
#       4
#     8   8   8   8
#     4  10  20  35  54  80 112 147 189 238 290 341
#     4   9  18  34  54  79 108 143 186 232 283 339
#     4   9  17  30  50  78 110 144 183 229 284 343
#     4   8  14  27  48  71  97 133 176 217 260 320
#
# _framework density 23.906796
#
# number of rings (size 3 to 8) (size 9 to 14) (size 15 to 20)
#    0.000    3.000    0.000    0.750    0.000    0.500 
#    0.000   20.000    0.000    0.750    0.000    0.000 
#    0.000    0.000    0.000    0.000    0.000    0.500 
#
# Total GULP energy -178264.551681 kJ/mol
# GULP energy per Si atom -5570.767240 kJ/mol
# Density = 2.385238 g / cm^3
# Si number density = 23.906796 Si / 1000 Ang^3
#
#
#
# Elastic Constant Matrix: (Units=GPa)
#
#
# Indices 1 2 3 4 5 6 
#
# 1 382.7812 13.7299 40.5086 0.0000 0.0000 0.0000
# 2 13.7299 143.9730 0.2667 0.0000 0.0000 0.0000
# 3 40.5086 0.2667 62.4447 0.0000 0.0000 0.0000
# 4 0.0000 0.0000 0.0000 14.8760 0.0000 0.0000
# 5 0.0000 0.0000 0.0000 0.0000 42.1949 0.0000
# 6 0.0000 0.0000 0.0000 0.0000 0.0000 -230.8213
#
#
#
# Elastic Compliance Matrix: (Units=1/GPa)
#
#
# Indices 1 2 3 4 5 6 
#
# 1 0.002815 -0.000265 -0.001825 0.000000 0.000000 0.000000
# 2 -0.000265 0.006971 0.000142 0.000000 0.000000 0.000000
# 3 -0.001825 0.000142 0.017198 0.000000 0.000000 0.000000
# 4 0.000000 0.000000 0.000000 0.067222 0.000000 0.000000
# 5 0.000000 0.000000 0.000000 0.000000 0.023700 0.000000
# 6 0.000000 0.000000 0.000000 0.000000 0.000000 -0.004332
#
#
# Mechanical properties :
#
#
# Convention : Reuss Voigt Hill
#
# Bulk Modulus (GPa) = 43.31351 77.57878 60.44615
# Shear Modulus (GPa) = 39.94744 0.89618 20.42181
#
# Velocity S-wave (km/s) = 4.09218 0.61292 2.92589
# Velocity P-wave (km/s) = 6.36277 5.74647 6.06246
#
# Compressibility (1/GPa) = 0.02308748
#
# Stress axis : x y z
#
# Youngs Moduli (GPa) = 355.22618 143.45630 58.14795
#
# Poissons Ratio (x) = 0.03803 0.10612
# Poissons Ratio (y) = 0.09416 -0.00827
# Poissons Ratio (z) = 0.64831 -0.02040
#
# Static dielectric constant tensor:
#      x y z
#    x 2.061040 0.000000 0.000000 
#    y 0.000000 1.873480 0.000000 
#    z 0.000000 0.000000 1.856890 
# 
# From -- ./inp_files/11423.got.cif
#   From: 2010.05.17/outbox.cif.g08.bks.cpg/sg53_6_cif.got.tgz:11423.got - 2010.06.03 12:45:16.
