data_PCOD9417848
_publ_section_title
;
Structure prediction by ZEFSAII (Michael W. Deem and Ramdas Pophale) SiO2 
 PCOD9417848
Probable space group: P M N A
;
_chemical_formula_sum "Si O2"
_cell_formula_units_Z 64
_cell_length_a 7.657639
_cell_length_b 25.574890
_cell_length_c 14.158549
_cell_angle_alpha 90.000000
_cell_angle_beta 90.000000
_cell_angle_gamma 90.000000
_cell_volume 2772.856607
_symmetry_space_group_name_H-M "P M N A"
_symmetry_group_IT_number 53
_symmetry_cell_setting 'orthorhombic'
loop_
_space_group_symop_operation_xyz
x,y,z
1/2-x,-y,1/2+z
x,-y,-z
1/2-x,y,1/2-z
-x,-y,-z
1/2+x,y,1/2-z
-x,y,z
1/2+x,-y,1/2+z
loop_
_atom_site_type_symbol
_atom_site_label
_atom_site_fract_x
_atom_site_fract_y
_atom_site_fract_z
Si Si1 0.209774 0.410102 0.638950
Si Si2 0.709284 0.637866 0.859254
Si Si3 0.290992 0.143180 0.360283
Si Si4 0.209912 0.523108 0.637591
Si Si5 0.300962 0.807851 0.044551
Si Si6 0.209786 0.972684 0.862353
Si Si7 0.296380 0.915681 0.359916
Si Si8 0.714627 0.695098 0.037558
O O1 0.250000 0.408997 0.750000
O O2 0.274358 0.466744 0.600994
O O3 0.273280 0.356005 0.594694
O O4 0.000000 0.410625 0.625539
O O5 0.750000 0.646259 0.750000
O O6 0.500000 0.635369 0.866941
O O7 0.775539 0.580378 0.891953
O O8 0.768592 0.682558 0.930180
O O9 0.250000 0.150904 0.250000
O O10 0.500000 0.144706 0.371773
O O11 0.211072 0.184785 0.431684
O O12 0.224820 0.084902 0.390089
O O13 0.250000 0.522354 0.750000
O O14 0.000000 0.523196 0.623784
O O15 0.500000 0.806173 0.075881
O O16 0.231961 0.861447 0.087720
O O17 0.220569 0.751759 0.070168
O O18 0.250000 0.974980 0.750000
O O19 0.279720 0.028876 0.898269
O O20 0.000000 0.969826 0.877734
O O21 0.250000 0.909280 0.250000
O O22 0.500000 0.925387 0.364141
O O23 0.500000 0.696844 0.041297
#
# Coordination Sequence:
#
# PCOD9417848 Si02
#       8
#     8   8   8   8   8   8   8   8
#     4   9  17  32  52  75 101 131 164 206 256 306
#     4   9  17  32  52  75 101 131 164 206 256 306
#     4  10  20  37  59  83 109 139 173 216 267 319
#     4   8  14  25  47  75 100 124 158 201 251 307
#     4  11  23  38  53  75 107 145 186 225 260 306
#     4   8  16  31  54  81 108 134 166 209 262 319
#     4  10  20  37  59  83 109 139 173 216 267 319
#     4   9  20  36  52  71 100 135 176 217 252 294
#
# _framework density 23.080888999999999
#
# number of rings (size 3 to 8) (size 9 to 14) (size 15 to 20)
#    0.000    2.750    0.000    1.125    0.000    3.000 
#    0.000   10.625    0.000    0.000    0.000    8.750 
#    0.000    0.000    0.000    0.000    0.000    0.000 
#
# Total GULP energy -356929.039681 kJ/mol
# GULP energy per Si atom -5577.016245 kJ/mol
# Density = 2.302836 g / cm^3
# Si number density = 23.080889 Si / 1000 Ang^3
#
#
#
# Elastic Constant Matrix: (Units=GPa)
#
#
# Indices 1 2 3 4 5 6 
#
# 1 42.7641 0.8733 -10.6183 0.0000 0.0000 0.0000
# 2 0.8733 121.6105 14.2960 0.0000 0.0000 0.0000
# 3 -10.6183 14.2960 38.9739 0.0000 0.0000 0.0000
# 4 0.0000 0.0000 0.0000 31.1099 0.0000 0.0000
# 5 0.0000 0.0000 0.0000 0.0000 16.0228 0.0000
# 6 0.0000 0.0000 0.0000 0.0000 0.0000 14.1732
#
#
#
# Elastic Compliance Matrix: (Units=1/GPa)
#
#
# Indices 1 2 3 4 5 6 
#
# 1 0.025204 -0.001033 0.007246 0.000000 0.000000 0.000000
# 2 -0.001033 0.008636 -0.003449 0.000000 0.000000 0.000000
# 3 0.007246 -0.003449 0.028897 0.000000 0.000000 0.000000
# 4 0.000000 0.000000 0.000000 0.032144 0.000000 0.000000
# 5 0.000000 0.000000 0.000000 0.000000 0.062411 0.000000
# 6 0.000000 0.000000 0.000000 0.000000 0.000000 0.070556
#
#
# Mechanical properties :
#
#
# Convention : Reuss Voigt Hill
#
# Bulk Modulus (GPa) = 14.64876 23.60561 19.12719
# Shear Modulus (GPa) = 20.40188 25.51437 22.95813
#
# Velocity S-wave (km/s) = 2.97632 3.32841 3.15728
# Velocity P-wave (km/s) = 4.26284 5.00206 4.64717
#
# Compressibility (1/GPa) = 0.06826515
#
# Stress axis : x y z
#
# Youngs Moduli (GPa) = 39.67583 115.79640 34.60518
#
# Poissons Ratio (x) = 0.11959 -0.25074
# Poissons Ratio (y) = 0.04098 0.11936
# Poissons Ratio (z) = -0.28748 0.39939
#
# Static dielectric constant tensor:
#      x y z
#    x 1.832070 0.000000 0.000000 
#    y 0.000000 1.926930 0.000000 
#    z 0.000000 0.000000 1.857010 
# 
# From -- ./inp_files/21019.got.cif
#   From: 2010.05.17/outbox.cif.g08.bks.cpg/sg53_11_cif.got.tgz:21019.got - 2010.06.03 12:45:16.
