data_PCOD9417157
_publ_section_title
;
Structure prediction by ZEFSAII (Michael W. Deem and Ramdas Pophale) SiO2 
 PCOD9417157
Probable space group: P M N A
;
_chemical_formula_sum "Si O2"
_cell_formula_units_Z 64
_cell_length_a 8.777554
_cell_length_b 25.587562
_cell_length_c 14.792875
_cell_angle_alpha 90.000000
_cell_angle_beta 90.000000
_cell_angle_gamma 90.000000
_cell_volume 3322.423618
_symmetry_space_group_name_H-M "P M N A"
_symmetry_group_IT_number 53
_symmetry_cell_setting 'orthorhombic'
loop_
_space_group_symop_operation_xyz
x,y,z
1/2-x,-y,1/2+z
x,-y,-z
1/2-x,y,1/2-z
-x,-y,-z
1/2+x,y,1/2-z
-x,y,z
1/2+x,-y,1/2+z
loop_
_atom_site_type_symbol
_atom_site_label
_atom_site_fract_x
_atom_site_fract_y
_atom_site_fract_z
Si Si1 0.827632 0.016861 0.395138
Si Si2 0.184708 0.678207 0.527486
Si Si3 0.824250 0.517974 0.104281
Si Si4 0.318576 0.411349 0.160315
Si Si5 0.182901 0.123036 0.047599
Si Si6 0.682895 0.370136 0.847556
Si Si7 0.182006 0.090963 0.843400
Si Si8 0.183961 0.223528 0.351465
O O1 0.738964 0.071374 0.399107
O O2 0.000000 0.022566 0.359267
O O3 0.838740 0.000000 0.500000
O O4 0.740343 0.968837 0.349875
O O5 0.229681 0.624461 0.576801
O O6 0.232961 0.671546 0.423885
O O7 0.235309 0.726920 0.587621
O O8 0.000000 0.680059 0.527595
O O9 0.744491 0.469491 0.152526
O O10 0.740356 0.572285 0.122977
O O11 0.000000 0.523070 0.133221
O O12 0.820930 0.500000 0.000000
O O13 0.250000 0.386204 0.250000
O O14 0.500000 0.412516 0.164708
O O15 0.258806 0.172377 0.095655
O O16 0.000000 0.126314 0.051779
O O17 0.225912 0.116972 0.940483
O O18 0.750000 0.358123 0.750000
O O19 0.500000 0.371198 0.844088
O O20 0.250000 0.113683 0.750000
O O21 0.000000 0.091892 0.838071
O O22 0.250000 0.225735 0.250000
O O23 0.000000 0.223527 0.346180
#
# Coordination Sequence:
#
# PCOD9417157 Si02
#       8
#     8   8   8   8   8   8   8   8
#     4   9  17  31  53  81 114 153 195 238 286 339
#     4   9  21  40  62  84 112 147 186 233 287 341
#     4  11  22  36  55  84 117 151 191 232 277 333
#     4  11  21  36  57  83 113 149 186 227 279 336
#     4  10  21  38  58  85 119 156 197 244 294 346
#     4  11  22  40  62  86 116 153 193 233 284 341
#     4  10  20  34  55  84 121 160 199 241 287 342
#     4  11  23  42  65  89 114 146 188 239 295 349
#
# _framework density 19.263045000000002
#
# number of rings (size 3 to 8) (size 9 to 14) (size 15 to 20)
#    0.000    1.750    1.250    3.375    0.000    4.000 
#    0.000    7.500    0.000    3.000    0.000    0.000 
#    0.000    0.000    0.000    0.000    0.000    0.000 
#
# Total GULP energy -357261.433384 kJ/mol
# GULP energy per Si atom -5582.209897 kJ/mol
# Density = 1.921920 g / cm^3
# Si number density = 19.263045 Si / 1000 Ang^3
#
#
#
# Elastic Constant Matrix: (Units=GPa)
#
#
# Indices 1 2 3 4 5 6 
#
# 1 82.6480 33.8134 50.0515 0.0000 0.0000 0.0000
# 2 33.8134 109.8115 69.4657 0.0000 0.0000 0.0000
# 3 50.0515 69.4657 156.4659 0.0000 0.0000 0.0000
# 4 0.0000 0.0000 0.0000 23.3566 0.0000 0.0000
# 5 0.0000 0.0000 0.0000 0.0000 28.9634 0.0000
# 6 0.0000 0.0000 0.0000 0.0000 0.0000 8.0718
#
#
#
# Elastic Compliance Matrix: (Units=1/GPa)
#
#
# Indices 1 2 3 4 5 6 
#
# 1 0.015400 -0.002261 -0.003923 0.000000 0.000000 0.000000
# 2 -0.002261 0.012995 -0.005046 0.000000 0.000000 0.000000
# 3 -0.003923 -0.005046 0.009886 0.000000 0.000000 0.000000
# 4 0.000000 0.000000 0.000000 0.042814 0.000000 0.000000
# 5 0.000000 0.000000 0.000000 0.000000 0.034526 0.000000
# 6 0.000000 0.000000 0.000000 0.000000 0.000000 0.123889
#
#
# Mechanical properties :
#
#
# Convention : Reuss Voigt Hill
#
# Bulk Modulus (GPa) = 63.20189 72.84296 68.02242
# Shear Modulus (GPa) = 18.70956 25.11800 21.91378
#
# Velocity S-wave (km/s) = 3.11990 3.61494 3.37650
# Velocity P-wave (km/s) = 6.77196 7.43779 7.11267
#
# Compressibility (1/GPa) = 0.01582231
#
# Stress axis : x y z
#
# Youngs Moduli (GPa) = 64.93557 76.95448 101.15049
#
# Poissons Ratio (x) = 0.17396 0.39678
# Poissons Ratio (y) = 0.14679 0.51041
# Poissons Ratio (z) = 0.25472 0.38832
#
# Static dielectric constant tensor:
#      x y z
#    x 1.657100 0.000000 0.000000 
#    y 0.000000 1.640950 0.000000 
#    z 0.000000 0.000000 1.723980 
# 
# From -- ./inp_files/21006.got.cif
#   From: 2010.05.17/outbox.cif.g08.bks.cpg/sg53_11_cif.got.tgz:21006.got - 2010.06.03 12:45:16.
