data_PCOD9417574
_publ_section_title
;
Structure prediction by ZEFSAII (Michael W. Deem and Ramdas Pophale) SiO2 
 PCOD9417574
Probable space group: P M N A
;
_chemical_formula_sum "Si O2"
_cell_formula_units_Z 48
_cell_length_a 15.633287
_cell_length_b 10.147554
_cell_length_c 16.019196
_cell_angle_alpha 90.000000
_cell_angle_beta 90.000000
_cell_angle_gamma 90.000000
_cell_volume 2541.279231
_symmetry_space_group_name_H-M "P M N A"
_symmetry_group_IT_number 53
_symmetry_cell_setting 'orthorhombic'
loop_
_space_group_symop_operation_xyz
x,y,z
1/2-x,-y,1/2+z
x,-y,-z
1/2-x,y,1/2-z
-x,-y,-z
1/2+x,y,1/2-z
-x,y,z
1/2+x,-y,1/2+z
loop_
_atom_site_type_symbol
_atom_site_label
_atom_site_fract_x
_atom_site_fract_y
_atom_site_fract_z
Si Si1 0.843265 0.384361 0.785953
Si Si2 0.905150 0.838504 0.329787
Si Si3 0.339251 0.070411 0.288372
Si Si4 0.744628 0.099689 0.565912
Si Si5 0.397719 0.704445 0.471371
Si Si6 0.401873 0.646582 0.658556
O O1 0.750000 0.350127 0.750000
O O2 0.902094 0.288112 0.731108
O O3 0.865902 0.351868 0.882438
O O4 0.852210 0.542158 0.784618
O O5 0.824527 0.825967 0.392277
O O6 0.000000 0.847041 0.367642
O O7 0.887146 0.972446 0.276092
O O8 0.250000 0.119925 0.250000
O O9 0.387997 0.200269 0.318677
O O10 0.307740 0.975527 0.362329
O O11 0.670576 0.178397 0.518317
O O12 0.784375 0.000000 0.500000
O O13 0.500000 0.735569 0.465182
O O14 0.387250 0.627778 0.558923
O O15 0.500000 0.612294 0.672776
#
# Coordination Sequence:
#
# PCOD9417574 Si02
#       6
#     8   8   8   8   8   8
#     4  12  22  39  59  86 119 156 196 240 292 352
#     4  11  22  38  62  86 116 156 201 250 290 346
#     4  10  20  36  56  85 118 153 194 244 298 349
#     4  11  21  38  60  88 121 155 204 243 294 355
#     4  11  22  37  58  89 121 154 193 242 298 357
#     4  11  23  36  57  88 120 153 191 242 303 358
#
# _framework density 18.888124999999999
#
# number of rings (size 3 to 8) (size 9 to 14) (size 15 to 20)
#    0.000    1.000    5.000    3.500    0.000    2.667 
#    0.000    0.000    0.000    0.000    0.000    1.167 
#    0.000    0.000    0.000    0.000    0.000    0.000 
#
# Total GULP energy -267303.268012 kJ/mol
# GULP energy per Si atom -5568.818084 kJ/mol
# Density = 1.884514 g / cm^3
# Si number density = 18.888125 Si / 1000 Ang^3
#
#
#
# Elastic Constant Matrix: (Units=GPa)
#
#
# Indices 1 2 3 4 5 6 
#
# 1 113.0074 36.2753 39.1978 0.0000 0.0000 0.0000
# 2 36.2753 53.3171 10.6003 0.0000 0.0000 0.0000
# 3 39.1978 10.6003 45.0911 0.0000 0.0000 0.0000
# 4 0.0000 0.0000 0.0000 25.9623 0.0000 0.0000
# 5 0.0000 0.0000 0.0000 0.0000 19.1466 0.0000
# 6 0.0000 0.0000 0.0000 0.0000 0.0000 -291.7811
#
#
#
# Elastic Compliance Matrix: (Units=1/GPa)
#
#
# Indices 1 2 3 4 5 6 
#
# 1 0.015498 -0.008251 -0.011533 0.000000 0.000000 0.000000
# 2 -0.008251 0.024069 0.001515 0.000000 0.000000 0.000000
# 3 -0.011533 0.001515 0.031847 0.000000 0.000000 0.000000
# 4 0.000000 0.000000 0.000000 0.038517 0.000000 0.000000
# 5 0.000000 0.000000 0.000000 0.000000 0.052229 0.000000
# 6 0.000000 0.000000 0.000000 0.000000 0.000000 -0.003427
#
#
# Mechanical properties :
#
#
# Convention : Reuss Voigt Hill
#
# Bulk Modulus (GPa) = 28.67418 42.61804 35.64611
# Shear Modulus (GPa) = 24.16687 -40.97828 -8.40570
#
# Velocity S-wave (km/s) = 3.58085 -4.66287 -2.11185
# Velocity P-wave (km/s) = 5.68425 2.52536 3.60092
#
# Compressibility (1/GPa) = 0.03487458
#
# Stress axis : x y z
#
# Youngs Moduli (GPa) = 64.52506 41.54802 31.40062
#
# Poissons Ratio (x) = 0.34283 0.36213
# Poissons Ratio (y) = 0.53242 -0.04757
# Poissons Ratio (z) = 0.74414 -0.06294
#
# Static dielectric constant tensor:
#      x y z
#    x 1.648470 0.000000 0.000000 
#    y 0.000000 1.740100 0.000000 
#    z 0.000000 0.000000 1.677580 
# 
# From -- ./inp_files/28297.got.cif
#   From: 2010.05.17/outbox.cif.g08.bks.cpg/sg53_15_cif.got.tgz:28297.got - 2010.06.03 12:45:16.
