data_PCOD9417021
_publ_section_title
;
Structure prediction by ZEFSAII (Michael W. Deem and Ramdas Pophale) SiO2 
 PCOD9417021
Probable space group: P M N A
;
_chemical_formula_sum "Si O2"
_cell_formula_units_Z 64
_cell_length_a 8.944314
_cell_length_b 17.730592
_cell_length_c 20.330452
_cell_angle_alpha 90.000000
_cell_angle_beta 90.000000
_cell_angle_gamma 90.000000
_cell_volume 3224.165361
_symmetry_space_group_name_H-M "P M N A"
_symmetry_group_IT_number 53
_symmetry_cell_setting 'orthorhombic'
loop_
_space_group_symop_operation_xyz
x,y,z
1/2-x,-y,1/2+z
x,-y,-z
1/2-x,y,1/2-z
-x,-y,-z
1/2+x,y,1/2-z
-x,y,z
1/2+x,-y,1/2+z
loop_
_atom_site_type_symbol
_atom_site_label
_atom_site_fract_x
_atom_site_fract_y
_atom_site_fract_z
Si Si1 0.822943 0.714082 0.178870
Si Si2 0.820265 0.071549 0.544437
Si Si3 0.678037 0.737193 0.816275
Si Si4 0.677116 0.888567 0.322136
Si Si5 0.329872 0.619943 0.500470
Si Si6 0.176147 0.568330 0.379925
Si Si7 0.819965 0.223628 0.464930
Si Si8 0.169868 0.579275 0.846303
O O1 0.750000 0.709560 0.250000
O O2 0.799110 0.800517 0.158208
O O3 0.739174 0.649832 0.139502
O O4 0.000000 0.699761 0.180550
O O5 0.747295 0.067544 0.616493
O O6 0.780593 0.147588 0.503922
O O7 0.000000 0.072226 0.552689
O O8 0.779255 0.000000 0.500000
O O9 0.750000 0.770737 0.750000
O O10 0.500000 0.736934 0.809778
O O11 0.715513 0.776643 0.886364
O O12 0.738079 0.651245 0.821593
O O13 0.750000 0.901007 0.250000
O O14 0.500000 0.901446 0.316664
O O15 0.500000 0.619470 0.474175
O O16 0.226537 0.567955 0.455691
O O17 0.264902 0.704575 0.504877
O O18 0.335615 0.591565 0.575072
O O19 0.253041 0.501647 0.338423
O O20 0.000000 0.563322 0.372534
O O21 0.000000 0.235272 0.470303
O O22 0.000000 0.580255 0.820606
#
# Coordination Sequence:
#
# PCOD9417021 Si02
#       8
#     8   8   8   8   8   8   8   8
#     4  10  21  37  55  77 105 138 180 226 272 323
#     4  10  21  38  61  90 125 160 192 231 281 336
#     4  10  20  36  57  80 106 141 189 239 290 346
#     4  10  21  38  62  89 118 155 196 237 281 336
#     4  10  20  34  53  76 102 135 178 228 280 334
#     4  12  23  33  49  74 105 141 180 225 279 336
#     4   9  19  36  58  83 112 148 189 234 285 343
#     4  10  21  36  52  72 101 137 179 229 284 337
#
# _framework density 19.850099
#
# number of rings (size 3 to 8) (size 9 to 14) (size 15 to 20)
#    0.000    1.875    0.000    4.125    0.000    8.250 
#    0.000    3.125    0.000    1.500    0.000    0.000 
#    0.000    0.000    0.000    0.000    0.000    0.000 
#
# Total GULP energy -357391.366102 kJ/mol
# GULP energy per Si atom -5584.240095 kJ/mol
# Density = 1.980492 g / cm^3
# Si number density = 19.850099 Si / 1000 Ang^3
#
#
#
# Elastic Constant Matrix: (Units=GPa)
#
#
# Indices 1 2 3 4 5 6 
#
# 1 78.7304 41.0654 38.2658 0.0000 0.0000 0.0000
# 2 41.0654 74.0623 49.3529 0.0000 0.0000 0.0000
# 3 38.2658 49.3529 103.7681 0.0000 0.0000 0.0000
# 4 0.0000 0.0000 0.0000 24.1699 0.0000 0.0000
# 5 0.0000 0.0000 0.0000 0.0000 33.0197 0.0000
# 6 0.0000 0.0000 0.0000 0.0000 0.0000 -23.1205
#
#
#
# Elastic Compliance Matrix: (Units=1/GPa)
#
#
# Indices 1 2 3 4 5 6 
#
# 1 0.018422 -0.008326 -0.002833 0.000000 0.000000 0.000000
# 2 -0.008326 0.023530 -0.008121 0.000000 0.000000 0.000000
# 3 -0.002833 -0.008121 0.014544 0.000000 0.000000 0.000000
# 4 0.000000 0.000000 0.000000 0.041374 0.000000 0.000000
# 5 0.000000 0.000000 0.000000 0.000000 0.030285 0.000000
# 6 0.000000 0.000000 0.000000 0.000000 0.000000 -0.043252
#
#
# Mechanical properties :
#
#
# Convention : Reuss Voigt Hill
#
# Bulk Modulus (GPa) = 55.75575 57.10323 56.42949
# Shear Modulus (GPa) = 38.62751 15.33895 26.98323
#
# Velocity S-wave (km/s) = 4.41609 2.78283 3.69094
# Velocity P-wave (km/s) = 7.35879 6.25741 6.83034
#
# Compressibility (1/GPa) = 0.01793537
#
# Stress axis : x y z
#
# Youngs Moduli (GPa) = 54.28436 42.49847 68.75729
#
# Poissons Ratio (x) = 0.35385 0.19480
# Poissons Ratio (y) = 0.45199 0.55836
# Poissons Ratio (z) = 0.15379 0.34512
#
# Static dielectric constant tensor:
#      x y z
#    x 1.674250 0.000000 0.000000 
#    y 0.000000 1.709470 0.000000 
#    z 0.000000 0.000000 1.745460 
# 
# From -- ./inp_files/31231.got.cif
#   From: 2010.05.17/outbox.cif.g08.bks.cpg/sg53_16_cif.got.tgz:31231.got - 2010.06.03 12:45:16.
