data_PCOD9417087
_publ_section_title
;
Structure prediction by ZEFSAII (Michael W. Deem and Ramdas Pophale) SiO2 
 PCOD9417087
Probable space group: P M N A
;
_chemical_formula_sum "Si O2"
_cell_formula_units_Z 48
_cell_length_a 8.613945
_cell_length_b 21.429704
_cell_length_c 14.189561
_cell_angle_alpha 90.000000
_cell_angle_beta 90.000000
_cell_angle_gamma 90.000000
_cell_volume 2619.311961
_symmetry_space_group_name_H-M "P M N A"
_symmetry_group_IT_number 53
_symmetry_cell_setting 'orthorhombic'
loop_
_space_group_symop_operation_xyz
x,y,z
1/2-x,-y,1/2+z
x,-y,-z
1/2-x,y,1/2-z
-x,-y,-z
1/2+x,y,1/2-z
-x,y,z
1/2+x,-y,1/2+z
loop_
_atom_site_type_symbol
_atom_site_label
_atom_site_fract_x
_atom_site_fract_y
_atom_site_fract_z
Si Si1 0.312610 0.034987 0.146419
Si Si2 0.686355 0.464981 0.644717
Si Si3 0.188742 0.093625 0.547858
Si Si4 0.313183 0.777559 0.143864
Si Si5 0.815222 0.400992 0.355069
Si Si6 0.686031 0.340478 0.530728
O O1 0.250000 0.049371 0.250000
O O2 0.500000 0.036008 0.150008
O O3 0.264201 0.965467 0.112146
O O4 0.263007 0.080070 0.060116
O O5 0.750000 0.456016 0.750000
O O6 0.500000 0.470578 0.645742
O O7 0.754566 0.530991 0.611401
O O8 0.729396 0.404273 0.585352
O O9 0.239675 0.158738 0.592298
O O10 0.000000 0.093489 0.547357
O O11 0.250000 0.775597 0.250000
O O12 0.500000 0.776901 0.146560
O O13 0.253874 0.718227 0.085751
O O14 0.750000 0.392281 0.250000
O O15 0.752622 0.349176 0.426314
O O16 0.000000 0.401587 0.352820
O O17 0.500000 0.336532 0.528240
#
# Coordination Sequence:
#
# PCOD9417087 Si02
#       6
#     8   8   8   8   8   8
#     4   9  16  31  54  80 108 140 177 219 265 313
#     4  10  20  34  54  79 108 139 174 219 269 321
#     4   8  17  33  53  76 108 146 179 213 263 322
#     4  11  22  37  56  79 107 142 180 219 267 321
#     4  11  22  37  58  81 106 137 175 221 272 324
#     4  11  23  38  55  78 108 142 181 223 266 317
#
# _framework density 18.325423000000001
#
# number of rings (size 3 to 8) (size 9 to 14) (size 15 to 20)
#    0.000    2.000    0.000    6.500    0.000    6.000 
#    0.000    5.000    0.000    2.000    0.000    0.000 
#    0.000    0.000    0.000    0.000    0.000    0.000 
#
# Total GULP energy -268041.555050 kJ/mol
# GULP energy per Si atom -5584.199064 kJ/mol
# Density = 1.828371 g / cm^3
# Si number density = 18.325423 Si / 1000 Ang^3
#
#
#
# Elastic Constant Matrix: (Units=GPa)
#
#
# Indices 1 2 3 4 5 6 
#
# 1 50.4301 42.3607 37.4547 0.0000 0.0000 0.0000
# 2 42.3607 131.4483 99.5166 0.0000 0.0000 0.0000
# 3 37.4547 99.5166 145.7758 0.0000 0.0000 0.0000
# 4 0.0000 0.0000 0.0000 29.0296 0.0000 0.0000
# 5 0.0000 0.0000 0.0000 0.0000 29.6052 0.0000
# 6 0.0000 0.0000 0.0000 0.0000 0.0000 20.9471
#
#
#
# Elastic Compliance Matrix: (Units=1/GPa)
#
#
# Indices 1 2 3 4 5 6 
#
# 1 0.027497 -0.007270 -0.002102 0.000000 0.000000 0.000000
# 2 -0.007270 0.017667 -0.010193 0.000000 0.000000 0.000000
# 3 -0.002102 -0.010193 0.014358 0.000000 0.000000 0.000000
# 4 0.000000 0.000000 0.000000 0.034448 0.000000 0.000000
# 5 0.000000 0.000000 0.000000 0.000000 0.033778 0.000000
# 6 0.000000 0.000000 0.000000 0.000000 0.000000 0.047739
#
#
# Mechanical properties :
#
#
# Convention : Reuss Voigt Hill
#
# Bulk Modulus (GPa) = 49.03639 76.25757 62.64698
# Shear Modulus (GPa) = 22.58201 25.80453 24.19327
#
# Velocity S-wave (km/s) = 3.51419 3.75657 3.63740
# Velocity P-wave (km/s) = 6.57897 7.77940 7.20423
#
# Compressibility (1/GPa) = 0.02039302
#
# Stress axis : x y z
#
# Youngs Moduli (GPa) = 36.36725 56.60182 69.64575
#
# Poissons Ratio (x) = 0.41149 0.14640
# Poissons Ratio (y) = 0.26439 0.70990
# Poissons Ratio (z) = 0.07644 0.57694
#
# Static dielectric constant tensor:
#      x y z
#    x 1.618790 0.000000 0.000000 
#    y 0.000000 1.618640 0.000000 
#    z 0.000000 0.000000 1.634090 
# 
# From -- ./inp_files/20346.got.cif
#   From: 2010.05.17/outbox.cif.g08.bks.cpg/sg53_11_cif.got.tgz:20346.got - 2010.06.03 12:45:16.
