data_PCOD9417315
_publ_section_title
;
Structure prediction by ZEFSAII (Michael W. Deem and Ramdas Pophale) SiO2 
 PCOD9417315
Probable space group: P M N A
;
_chemical_formula_sum "Si O2"
_cell_formula_units_Z 40
_cell_length_a 8.838676
_cell_length_b 25.907692
_cell_length_c 9.747404
_cell_angle_alpha 90.000000
_cell_angle_beta 90.000000
_cell_angle_gamma 90.000000
_cell_volume 2232.055074
_symmetry_space_group_name_H-M "P M N A"
_symmetry_group_IT_number 53
_symmetry_cell_setting 'orthorhombic'
loop_
_space_group_symop_operation_xyz
x,y,z
1/2-x,-y,1/2+z
x,-y,-z
1/2-x,y,1/2-z
-x,-y,-z
1/2+x,y,1/2-z
-x,y,z
1/2+x,-y,1/2+z
loop_
_atom_site_type_symbol
_atom_site_label
_atom_site_fract_x
_atom_site_fract_y
_atom_site_fract_z
Si Si1 0.818925 0.633636 0.900375
Si Si2 0.817845 0.045738 0.598925
Si Si3 0.318798 0.161707 0.901434
Si Si4 0.180442 0.754191 0.898564
Si Si5 0.318736 0.548872 0.097826
O O1 0.750000 0.621255 0.750000
O O2 0.786271 0.693984 0.929567
O O3 0.000000 0.626633 0.894784
O O4 0.748250 0.597982 0.017515
O O5 0.750000 0.039713 0.750000
O O6 0.779826 0.103611 0.548077
O O7 0.000000 0.043039 0.608782
O O8 0.765261 0.000000 0.500000
O O9 0.250000 0.166196 0.750000
O O10 0.500000 0.165935 0.895731
O O11 0.251372 0.206354 0.994706
O O12 0.250000 0.765078 0.750000
O O13 0.000000 0.760048 0.894954
O O14 0.250000 0.543239 0.250000
O O15 0.500000 0.553152 0.109047
O O16 0.283573 0.500000 0.000000
#
# Coordination Sequence:
#
# PCOD9417315 Si02
#       5
#     8   8   8   8   8
#     4  10  21  38  60  84 112 146 183 225 272 322
#     4   9  19  35  53  76 105 137 176 220 267 320
#     4  10  20  35  55  78 107 143 181 223 271 323
#     4  10  21  37  57  82 111 144 182 224 271 322
#     4  11  24  40  60  86 115 148 185 226 272 322
#
# _framework density 17.920705000000002
#
# number of rings (size 3 to 8) (size 9 to 14) (size 15 to 20)
#    0.000    2.000    0.000    3.000    0.000    8.400 
#    0.000    2.000    0.000    0.000    0.000    0.000 
#    0.000    0.000    0.000    0.000    0.000    0.000 
#
# Total GULP energy -223362.814028 kJ/mol
# GULP energy per Si atom -5584.070351 kJ/mol
# Density = 1.787992 g / cm^3
# Si number density = 17.920705 Si / 1000 Ang^3
#
#
#
# Elastic Constant Matrix: (Units=GPa)
#
#
# Indices 1 2 3 4 5 6 
#
# 1 64.1728 69.6683 63.4329 0.0000 0.0000 0.0000
# 2 69.6683 133.8177 111.0942 0.0000 0.0000 0.0000
# 3 63.4329 111.0942 138.2821 0.0000 0.0000 0.0000
# 4 0.0000 0.0000 0.0000 42.9512 0.0000 0.0000
# 5 0.0000 0.0000 0.0000 0.0000 38.5145 0.0000
# 6 0.0000 0.0000 0.0000 0.0000 0.0000 36.5894
#
#
#
# Elastic Compliance Matrix: (Units=1/GPa)
#
#
# Indices 1 2 3 4 5 6 
#
# 1 0.036735 -0.015420 -0.004463 0.000000 0.000000 0.000000
# 2 -0.015420 0.028911 -0.016154 0.000000 0.000000 0.000000
# 3 -0.004463 -0.016154 0.022256 0.000000 0.000000 0.000000
# 4 0.000000 0.000000 0.000000 0.023282 0.000000 0.000000
# 5 0.000000 0.000000 0.000000 0.000000 0.025964 0.000000
# 6 0.000000 0.000000 0.000000 0.000000 0.000000 0.027330
#
#
# Mechanical properties :
#
#
# Convention : Reuss Voigt Hill
#
# Bulk Modulus (GPa) = 63.17199 91.62926 77.40062
# Shear Modulus (GPa) = 20.67584 29.74950 25.21267
#
# Velocity S-wave (km/s) = 3.40036 4.07881 3.75494
# Velocity P-wave (km/s) = 7.12348 8.56876 7.87933
#
# Compressibility (1/GPa) = 0.01582980
#
# Stress axis : x y z
#
# Youngs Moduli (GPa) = 27.22234 34.58856 44.93082
#
# Poissons Ratio (x) = 0.53335 0.20052
# Poissons Ratio (y) = 0.41976 0.72580
# Poissons Ratio (z) = 0.12149 0.55873
#
# Static dielectric constant tensor:
#      x y z
#    x 1.599330 0.000000 0.000000 
#    y 0.000000 1.621050 0.000000 
#    z 0.000000 0.000000 1.560820 
# 
# From -- ./inp_files/6246.got.cif
#   From: 2010.05.17/outbox.cif.g08.bks.cpg/sg53_4_cif.got.tgz:6246.got - 2010.06.03 12:45:16.
