data_PCOD9417011
_publ_section_title
;
Structure prediction by ZEFSAII (Michael W. Deem and Ramdas Pophale) SiO2 
 PCOD9417011
Probable space group: P M N A
;
_chemical_formula_sum "Si O2"
_cell_formula_units_Z 56
_cell_length_a 8.061002
_cell_length_b 15.318978
_cell_length_c 23.149121
_cell_angle_alpha 90.000000
_cell_angle_beta 90.000000
_cell_angle_gamma 90.000000
_cell_volume 2858.599585
_symmetry_space_group_name_H-M "P M N A"
_symmetry_group_IT_number 53
_symmetry_cell_setting 'orthorhombic'
loop_
_space_group_symop_operation_xyz
x,y,z
1/2-x,-y,1/2+z
x,-y,-z
1/2-x,y,1/2-z
-x,-y,-z
1/2+x,y,1/2-z
-x,y,z
1/2+x,-y,1/2+z
loop_
_atom_site_type_symbol
_atom_site_label
_atom_site_fract_x
_atom_site_fract_y
_atom_site_fract_z
Si Si1 0.799604 0.096859 0.023470
Si Si2 0.800869 0.611120 0.447301
Si Si3 0.297293 0.584125 0.922761
Si Si4 0.197394 0.077019 0.687058
Si Si5 0.303669 0.887133 0.845674
Si Si6 0.200585 0.302676 0.313170
Si Si7 0.803005 0.795083 0.085034
O O1 0.738481 0.164350 0.975143
O O2 0.000000 0.102503 0.029383
O O3 0.721627 0.113275 0.085541
O O4 0.761360 0.000000 0.000000
O O5 0.743336 0.619552 0.514230
O O6 0.745426 0.517558 0.422555
O O7 0.750137 0.695086 0.411164
O O8 0.000000 0.607800 0.449256
O O9 0.500000 0.586173 0.922291
O O10 0.240726 0.639547 0.867624
O O11 0.250000 0.108256 0.750000
O O12 0.250724 0.142722 0.637091
O O13 0.000000 0.071072 0.684637
O O14 0.267791 0.978962 0.677007
O O15 0.500000 0.887443 0.833145
O O16 0.235089 0.796872 0.820277
O O17 0.250000 0.336194 0.250000
O O18 0.000000 0.300821 0.316161
O O19 0.000000 0.798529 0.081851
#
# Coordination Sequence:
#
# PCOD9417011 Si02
#       7
#     8   8   8   8   8   8   8
#     4  10  20  34  52  77 110 145 176 216 270 319
#     4   9  17  34  60  84 105 138 179 224 277 328
#     4   8  16  33  58  83 108 138 177 223 273 327
#     4  11  23  38  55  76 104 143 185 225 265 313
#     4  10  21  35  55  81 108 140 182 225 265 315
#     4  10  20  35  53  79 111 143 180 221 266 323
#     4  11  22  36  54  80 112 144 178 221 269 320
#
# _framework density 19.590012000000002
#
# number of rings (size 3 to 8) (size 9 to 14) (size 15 to 20)
#    0.000    2.143    1.429    3.000    0.000    3.714 
#    0.000    3.571    0.000    1.714    0.000    0.000 
#    0.000    0.000    0.000    0.000    0.000    0.000 
#
# Total GULP energy -312645.990747 kJ/mol
# GULP energy per Si atom -5582.964120 kJ/mol
# Density = 1.954542 g / cm^3
# Si number density = 19.590012 Si / 1000 Ang^3
#
#
#
# Elastic Constant Matrix: (Units=GPa)
#
#
# Indices 1 2 3 4 5 6 
#
# 1 9.6579 12.9123 -4.7057 0.0000 0.0000 0.0000
# 2 12.9123 120.7969 49.7750 0.0000 0.0000 0.0000
# 3 -4.7057 49.7750 92.4012 0.0000 0.0000 0.0000
# 4 0.0000 0.0000 0.0000 14.9001 0.0000 0.0000
# 5 0.0000 0.0000 0.0000 0.0000 26.0231 0.0000
# 6 0.0000 0.0000 0.0000 0.0000 0.0000 14.4480
#
#
#
# Elastic Compliance Matrix: (Units=1/GPa)
#
#
# Indices 1 2 3 4 5 6 
#
# 1 0.145361 -0.023892 0.020273 0.000000 0.000000 0.000000
# 2 -0.023892 0.014567 -0.009064 0.000000 0.000000 0.000000
# 3 0.020273 -0.009064 0.016737 0.000000 0.000000 0.000000
# 4 0.000000 0.000000 0.000000 0.067114 0.000000 0.000000
# 5 0.000000 0.000000 0.000000 0.000000 0.038427 0.000000
# 6 0.000000 0.000000 0.000000 0.000000 0.000000 0.069214
#
#
# Mechanical properties :
#
#
# Convention : Reuss Voigt Hill
#
# Bulk Modulus (GPa) = 6.60936 37.64658 22.12797
# Shear Modulus (GPa) = 11.70361 22.06589 16.88475
#
# Velocity S-wave (km/s) = 2.44688 3.35981 2.93901
# Velocity P-wave (km/s) = 3.37108 5.85748 4.77882
#
# Compressibility (1/GPa) = 0.15130050
#
# Stress axis : x y z
#
# Youngs Moduli (GPa) = 6.87941 68.64870 59.74706
#
# Poissons Ratio (x) = 1.64012 -1.21124
# Poissons Ratio (y) = 0.16436 0.54153
# Poissons Ratio (z) = -0.13946 0.62221
#
# Static dielectric constant tensor:
#      x y z
#    x 1.689090 0.000000 0.000000 
#    y 0.000000 1.715410 0.000000 
#    z 0.000000 0.000000 1.661710 
# 
# From -- ./inp_files/30733.got.cif
#   From: 2010.05.17/outbox.cif.g08.bks.cpg/sg53_16_cif.got.tgz:30733.got - 2010.06.03 12:45:16.
