data_PCOD9417409
_publ_section_title
;
Structure prediction by ZEFSAII (Michael W. Deem and Ramdas Pophale) SiO2 
 PCOD9417409
Probable space group: P M N A
;
_chemical_formula_sum "Si O2"
_cell_formula_units_Z 48
_cell_length_a 8.693322
_cell_length_b 31.311531
_cell_length_c 9.660431
_cell_angle_alpha 90.000000
_cell_angle_beta 90.000000
_cell_angle_gamma 90.000000
_cell_volume 2629.581116
_symmetry_space_group_name_H-M "P M N A"
_symmetry_group_IT_number 53
_symmetry_cell_setting 'orthorhombic'
loop_
_space_group_symop_operation_xyz
x,y,z
1/2-x,-y,1/2+z
x,-y,-z
1/2-x,y,1/2-z
-x,-y,-z
1/2+x,y,1/2-z
-x,y,z
1/2+x,-y,1/2+z
loop_
_atom_site_type_symbol
_atom_site_label
_atom_site_fract_x
_atom_site_fract_y
_atom_site_fract_z
Si Si1 0.814650 0.538289 0.097125
Si Si2 0.184739 0.635029 0.095320
Si Si3 0.685597 0.039822 0.404550
Si Si4 0.684400 0.290580 0.095878
Si Si5 0.815404 0.788196 0.400997
Si Si6 0.315106 0.881826 0.401641
O O1 0.750000 0.532214 0.250000
O O2 0.772486 0.586473 0.052288
O O3 0.000000 0.536766 0.102040
O O4 0.759657 0.500000 0.000000
O O5 0.250000 0.642006 0.250000
O O6 0.000000 0.638232 0.099878
O O7 0.251475 0.669573 0.990759
O O8 0.750000 0.037458 0.250000
O O9 0.500000 0.038742 0.396720
O O10 0.730095 0.083203 0.484555
O O11 0.735311 0.000000 0.500000
O O12 0.750000 0.290184 0.250000
O O13 0.500000 0.293033 0.100424
O O14 0.727089 0.247471 0.012853
O O15 0.750000 0.776110 0.250000
O O16 0.748557 0.834818 0.435087
O O17 0.000000 0.790916 0.392032
O O18 0.250000 0.893622 0.250000
O O19 0.500000 0.880271 0.393200
#
# Coordination Sequence:
#
# PCOD9417409 Si02
#       6
#     8   8   8   8   8   8
#     4   9  19  35  54  79 109 141 178 219 265 317
#     4  10  20  36  58  81 108 143 183 225 268 321
#     4  10  22  38  56  81 111 144 182 222 267 318
#     4  11  24  39  56  80 110 144 181 225 276 325
#     4  10  21  37  58  82 108 142 181 220 267 322
#     4  10  20  35  57  83 110 141 179 222 266 316
#
# _framework density 18.253855999999999
#
# number of rings (size 3 to 8) (size 9 to 14) (size 15 to 20)
#    0.000    2.000    0.000    4.000    0.000    8.000 
#    0.000    5.000    0.000    0.000    0.000    0.000 
#    0.000    0.000    0.000    0.000    0.000    0.000 
#
# Total GULP energy -268091.152632 kJ/mol
# GULP energy per Si atom -5585.232346 kJ/mol
# Density = 1.821231 g / cm^3
# Si number density = 18.253856 Si / 1000 Ang^3
#
#
#
# Elastic Constant Matrix: (Units=GPa)
#
#
# Indices 1 2 3 4 5 6 
#
# 1 43.4652 52.5861 49.1547 0.0000 0.0000 0.0000
# 2 52.5861 156.9745 138.5957 0.0000 0.0000 0.0000
# 3 49.1547 138.5957 166.0733 0.0000 0.0000 0.0000
# 4 0.0000 0.0000 0.0000 37.5418 0.0000 0.0000
# 5 0.0000 0.0000 0.0000 0.0000 34.5634 0.0000
# 6 0.0000 0.0000 0.0000 0.0000 0.0000 25.3517
#
#
#
# Elastic Compliance Matrix: (Units=1/GPa)
#
#
# Indices 1 2 3 4 5 6 
#
# 1 0.038942 -0.010901 -0.002428 0.000000 0.000000 0.000000
# 2 -0.010901 0.027259 -0.019522 0.000000 0.000000 0.000000
# 3 -0.002428 -0.019522 0.023032 0.000000 0.000000 0.000000
# 4 0.000000 0.000000 0.000000 0.026637 0.000000 0.000000
# 5 0.000000 0.000000 0.000000 0.000000 0.028932 0.000000
# 6 0.000000 0.000000 0.000000 0.000000 0.000000 0.039445
#
#
# Mechanical properties :
#
#
# Convention : Reuss Voigt Hill
#
# Bulk Modulus (GPa) = 42.50004 94.13178 68.31591
# Shear Modulus (GPa) = 19.39525 27.90317 23.64921
#
# Velocity S-wave (km/s) = 3.26318 3.91400 3.60331
# Velocity P-wave (km/s) = 6.12627 8.49152 7.40395
#
# Compressibility (1/GPa) = 0.02352939
#
# Stress axis : x y z
#
# Youngs Moduli (GPa) = 25.67905 36.68522 43.41717
#
# Poissons Ratio (x) = 0.39992 0.10544
# Poissons Ratio (y) = 0.27994 0.84760
# Poissons Ratio (z) = 0.06236 0.71618
#
# Static dielectric constant tensor:
#      x y z
#    x 1.616540 0.000000 0.000000 
#    y 0.000000 1.632580 0.000000 
#    z 0.000000 0.000000 1.582910 
# 
# From -- ./inp_files/6663.got.cif
#   From: 2010.05.17/outbox.cif.g08.bks.cpg/sg53_4_cif.got.tgz:6663.got - 2010.06.03 12:45:16.
