data_PCOD9417319
_publ_section_title
;
Structure prediction by ZEFSAII (Michael W. Deem and Ramdas Pophale) SiO2 
 PCOD9417319
Probable space group: P M N A
;
_chemical_formula_sum "Si O2"
_cell_formula_units_Z 48
_cell_length_a 8.471345
_cell_length_b 31.909636
_cell_length_c 9.313358
_cell_angle_alpha 90.000000
_cell_angle_beta 90.000000
_cell_angle_gamma 90.000000
_cell_volume 2517.563981
_symmetry_space_group_name_H-M "P M N A"
_symmetry_group_IT_number 53
_symmetry_cell_setting 'orthorhombic'
loop_
_space_group_symop_operation_xyz
x,y,z
1/2-x,-y,1/2+z
x,-y,-z
1/2-x,y,1/2-z
-x,-y,-z
1/2+x,y,1/2-z
-x,y,z
1/2+x,-y,1/2+z
loop_
_atom_site_type_symbol
_atom_site_label
_atom_site_fract_x
_atom_site_fract_y
_atom_site_fract_z
Si Si1 0.690823 0.123636 0.912644
Si Si2 0.810599 0.712900 0.412474
Si Si3 0.809178 0.958766 0.587142
Si Si4 0.690772 0.205685 0.087980
Si Si5 0.190746 0.540837 0.911690
Si Si6 0.689404 0.622199 0.412267
O O1 0.750000 0.122207 0.750000
O O2 0.500000 0.123592 0.910068
O O3 0.742907 0.082920 0.002590
O O4 0.743332 0.165876 0.993614
O O5 0.750000 0.719246 0.250000
O O6 0.757374 0.751134 0.512551
O O7 0.750269 0.667511 0.462433
O O8 0.000000 0.712161 0.408961
O O9 0.750000 0.959171 0.750000
O O10 0.000000 0.958797 0.589951
O O11 0.757053 0.000000 0.500000
O O12 0.750000 0.202482 0.250000
O O13 0.500000 0.205499 0.089528
O O14 0.250000 0.538988 0.750000
O O15 0.000000 0.540719 0.911301
O O16 0.244164 0.500000 0.000000
O O17 0.242869 0.583544 0.989875
O O18 0.750000 0.616095 0.250000
O O19 0.500000 0.623101 0.409455
#
# Coordination Sequence:
#
# PCOD9417319 Si02
#       6
#     8   8   8   8   8   8
#     4  10  21  37  56  80 108 139 179 222 266 318
#     4  10  20  35  55  79 106 138 177 217 261 313
#     4  10  21  36  55  81 111 142 179 221 265 317
#     4  10  22  37  54  78 107 140 178 220 265 315
#     4  10  22  38  56  80 108 139 176 216 260 311
#     4  10  20  35  56  81 108 139 176 216 261 312
#
# _framework density 19.066047999999999
#
# number of rings (size 3 to 8) (size 9 to 14) (size 15 to 20)
#    0.000    2.000    0.000    4.000    0.000    5.333 
#    0.000    3.333    0.000    0.000    0.000    0.000 
#    0.000    0.000    0.000    0.000    0.000    0.000 
#
# Total GULP energy -268174.930261 kJ/mol
# GULP energy per Si atom -5586.977714 kJ/mol
# Density = 1.902265 g / cm^3
# Si number density = 19.066048 Si / 1000 Ang^3
#
#
#
# Elastic Constant Matrix: (Units=GPa)
#
#
# Indices 1 2 3 4 5 6 
#
# 1 18.7171 32.6966 20.9929 0.0000 0.0000 0.0000
# 2 32.6966 223.3302 139.2590 0.0000 0.0000 0.0000
# 3 20.9929 139.2590 176.0790 0.0000 0.0000 0.0000
# 4 0.0000 0.0000 0.0000 43.8439 0.0000 0.0000
# 5 0.0000 0.0000 0.0000 0.0000 35.9508 0.0000
# 6 0.0000 0.0000 0.0000 0.0000 0.0000 193.7455
#
#
#
# Elastic Compliance Matrix: (Units=1/GPa)
#
#
# Indices 1 2 3 4 5 6 
#
# 1 0.071808 -0.010210 -0.000487 0.000000 0.000000 0.000000
# 2 -0.010210 0.010286 -0.006918 0.000000 0.000000 0.000000
# 3 -0.000487 -0.006918 0.011209 0.000000 0.000000 0.000000
# 4 0.000000 0.000000 0.000000 0.022808 0.000000 0.000000
# 5 0.000000 0.000000 0.000000 0.000000 0.027816 0.000000
# 6 0.000000 0.000000 0.000000 0.000000 0.000000 0.005161
#
#
# Mechanical properties :
#
#
# Convention : Reuss Voigt Hill
#
# Bulk Modulus (GPa) = 17.21937 89.33593 53.27765
# Shear Modulus (GPa) = 24.54903 69.71991 47.13447
#
# Velocity S-wave (km/s) = 3.59218 6.05367 4.97748
# Velocity P-wave (km/s) = 5.12406 9.78879 7.81269
#
# Compressibility (1/GPa) = 0.05807412
#
# Stress axis : x y z
#
# Youngs Moduli (GPa) = 13.92611 97.21817 89.21696
#
# Poissons Ratio (x) = 0.99255 0.04341
# Poissons Ratio (y) = 0.14218 0.61720
# Poissons Ratio (z) = 0.00678 0.67255
#
# Static dielectric constant tensor:
#      x y z
#    x 1.659470 0.000000 0.000000 
#    y 0.000000 1.670010 0.000000 
#    z 0.000000 0.000000 1.606470 
# 
# From -- ./inp_files/6643.got.cif
#   From: 2010.05.17/outbox.cif.g08.bks.cpg/sg53_4_cif.got.tgz:6643.got - 2010.06.03 12:45:16.
