data_PCOD9417207
_publ_section_title
;
Structure prediction by ZEFSAII (Michael W. Deem and Ramdas Pophale) SiO2 
 PCOD9417207
Probable space group: P M N A
;
_chemical_formula_sum "Si O2"
_cell_formula_units_Z 56
_cell_length_a 14.679118
_cell_length_b 14.138848
_cell_length_c 13.332699
_cell_angle_alpha 90.000000
_cell_angle_beta 90.000000
_cell_angle_gamma 90.000000
_cell_volume 2767.145922
_symmetry_space_group_name_H-M "P M N A"
_symmetry_group_IT_number 53
_symmetry_cell_setting 'orthorhombic'
loop_
_space_group_symop_operation_xyz
x,y,z
1/2-x,-y,1/2+z
x,-y,-z
1/2-x,y,1/2-z
-x,-y,-z
1/2+x,y,1/2-z
-x,y,z
1/2+x,-y,1/2+z
loop_
_atom_site_type_symbol
_atom_site_label
_atom_site_fract_x
_atom_site_fract_y
_atom_site_fract_z
Si Si1 0.305391 0.388766 0.519048
Si Si2 0.606339 0.854401 0.350346
Si Si3 0.605090 0.933481 0.704919
Si Si4 0.903357 0.598934 0.439761
Si Si5 0.395599 0.098603 0.057195
Si Si6 0.857078 0.339232 0.768413
Si Si7 0.709748 0.199712 0.446636
O O1 0.311759 0.500000 0.500000
O O2 0.198502 0.365124 0.539953
O O3 0.368283 0.370229 0.616264
O O4 0.321612 0.309398 0.434445
O O5 0.500000 0.856151 0.377854
O O6 0.618022 0.771702 0.267772
O O7 0.664702 0.830145 0.447878
O O8 0.632413 0.957978 0.313194
O O9 0.500000 0.921308 0.669811
O O10 0.605773 0.917346 0.823371
O O11 0.669158 0.863952 0.642271
O O12 0.904634 0.500000 0.500000
O O13 0.903252 0.599479 0.318161
O O14 0.000000 0.646807 0.468948
O O15 0.500000 0.123788 0.027981
O O16 0.316507 0.175170 0.041069
O O17 0.373550 0.000000 0.000000
O O18 0.750000 0.347839 0.750000
#
# Coordination Sequence:
#
# PCOD9417207 Si02
#       7
#     8   8   8   8   8   8   8
#     4   9  20  37  55  77 106 144 189 236 287 338
#     4  10  20  34  57  86 114 146 185 234 287 339
#     4  10  21  37  57  83 115 149 186 230 282 342
#     4   9  17  32  55  81 110 143 181 229 282 336
#     4  10  22  38  55  82 120 156 189 227 277 341
#     4   9  18  32  53  82 113 146 187 234 283 340
#     4  11  21  35  59  83 109 147 190 238 287 340
#
# _framework density 20.237459000000001
#
# number of rings (size 3 to 8) (size 9 to 14) (size 15 to 20)
#    0.000    2.286    0.000    2.571    0.000    6.286 
#    0.000    8.571    0.000   18.857    0.000    0.000 
#    0.000    0.000    0.000    0.000    0.000    0.000 
#
# Total GULP energy -311789.301187 kJ/mol
# GULP energy per Si atom -5567.666093 kJ/mol
# Density = 2.019140 g / cm^3
# Si number density = 20.237459 Si / 1000 Ang^3
#
#
#
# Elastic Constant Matrix: (Units=GPa)
#
#
# Indices 1 2 3 4 5 6 
#
# 1 57.9255 30.5308 20.2499 0.0000 0.0000 0.0000
# 2 30.5308 145.5639 53.9555 0.0000 0.0000 0.0000
# 3 20.2499 53.9555 71.7772 0.0000 0.0000 0.0000
# 4 0.0000 0.0000 0.0000 23.4177 0.0000 0.0000
# 5 0.0000 0.0000 0.0000 0.0000 -238.7215 0.0000
# 6 0.0000 0.0000 0.0000 0.0000 0.0000 15.2220
#
#
#
# Elastic Compliance Matrix: (Units=1/GPa)
#
#
# Indices 1 2 3 4 5 6 
#
# 1 0.020008 -0.002917 -0.003452 0.000000 0.000000 0.000000
# 2 -0.002917 0.009949 -0.006656 0.000000 0.000000 0.000000
# 3 -0.003452 -0.006656 0.019909 0.000000 0.000000 0.000000
# 4 0.000000 0.000000 0.000000 0.042703 0.000000 0.000000
# 5 0.000000 0.000000 0.000000 0.000000 -0.004189 0.000000
# 6 0.000000 0.000000 0.000000 0.000000 0.000000 0.065694
#
#
# Mechanical properties :
#
#
# Convention : Reuss Voigt Hill
#
# Bulk Modulus (GPa) = 41.98782 53.85990 47.92386
# Shear Modulus (GPa) = 26.58712 -28.64766 -1.03027
#
# Velocity S-wave (km/s) = 3.62851 -3.76650 -0.71428
# Velocity P-wave (km/s) = 6.19253 2.78503 4.80124
#
# Compressibility (1/GPa) = 0.02381643
#
# Stress axis : x y z
#
# Youngs Moduli (GPa) = 49.98070 100.51665 50.22891
#
# Poissons Ratio (x) = 0.29320 0.17339
# Poissons Ratio (y) = 0.14579 0.33430
# Poissons Ratio (z) = 0.17253 0.66899
#
# Static dielectric constant tensor:
#      x y z
#    x 1.755050 0.000000 0.000000 
#    y 0.000000 1.733590 0.000000 
#    z 0.000000 0.000000 1.714020 
# 
# From -- ./inp_files/16019.got.cif
#   From: 2010.05.17/outbox.cif.g08.bks.cpg/sg53_9_cif.got.tgz:16019.got - 2010.06.03 12:45:16.
