data_PCOD9417378
_publ_section_title
;
Structure prediction by ZEFSAII (Michael W. Deem and Ramdas Pophale) SiO2 
 PCOD9417378
Probable space group: P M N A
;
_chemical_formula_sum "Si O2"
_cell_formula_units_Z 64
_cell_length_a 9.343261
_cell_length_b 24.089544
_cell_length_c 14.852215
_cell_angle_alpha 90.000000
_cell_angle_beta 90.000000
_cell_angle_gamma 90.000000
_cell_volume 3342.860761
_symmetry_space_group_name_H-M "P M N A"
_symmetry_group_IT_number 53
_symmetry_cell_setting 'orthorhombic'
loop_
_space_group_symop_operation_xyz
x,y,z
1/2-x,-y,1/2+z
x,-y,-z
1/2-x,y,1/2-z
-x,-y,-z
1/2+x,y,1/2-z
-x,y,z
1/2+x,-y,1/2+z
loop_
_atom_site_type_symbol
_atom_site_label
_atom_site_fract_x
_atom_site_fract_y
_atom_site_fract_z
Si Si1 0.836408 0.903046 0.835914
Si Si2 0.830540 0.866670 0.339568
Si Si3 0.333754 0.830904 0.967132
Si Si4 0.328401 0.629464 0.539671
Si Si5 0.670013 0.722201 0.844938
Si Si6 0.330164 0.526814 0.660401
Si Si7 0.671770 0.603078 0.340917
Si Si8 0.666183 0.024287 0.597684
O O1 0.750000 0.882475 0.750000
O O2 0.766470 0.877586 0.924550
O O3 0.000000 0.885551 0.829386
O O4 0.830587 0.969656 0.840437
O O5 0.750000 0.847840 0.250000
O O6 0.807143 0.827494 0.426331
O O7 0.765520 0.926621 0.367384
O O8 0.000000 0.871667 0.323242
O O9 0.500000 0.847861 0.956272
O O10 0.311573 0.775418 0.909946
O O11 0.500000 0.639415 0.547803
O O12 0.241104 0.671095 0.602188
O O13 0.301145 0.567382 0.577271
O O14 0.289531 0.632983 0.434315
O O15 0.750000 0.730135 0.750000
O O16 0.500000 0.713877 0.830336
O O17 0.250000 0.546856 0.750000
O O18 0.500000 0.528739 0.676877
O O19 0.291909 0.462392 0.645983
O O20 0.750000 0.622119 0.250000
O O21 0.500000 0.606929 0.329763
O O22 0.500000 0.043579 0.591797
O O23 0.707372 0.000000 0.500000
#
# Coordination Sequence:
#
# PCOD9417378 Si02
#       8
#     8   8   8   8   8   8   8   8
#     4  11  22  35  56  83 114 147 182 223 270 327
#     4  11  23  39  61  86 114 149 189 232 279 331
#     4  10  23  42  61  82 109 143 186 232 279 329
#     4  10  20  35  56  82 112 149 191 232 280 335
#     4  11  24  42  62  85 113 143 181 230 283 336
#     4   9  17  30  50  78 113 150 187 229 276 331
#     4   9  18  33  53  79 113 152 191 231 277 328
#     4  10  20  36  56  84 118 151 185 223 271 328
#
# _framework density 19.145278000000001
#
# number of rings (size 3 to 8) (size 9 to 14) (size 15 to 20)
#    0.000    1.875    1.250    2.625    0.000    8.250 
#    0.000    0.625    0.000    6.750    0.000    0.000 
#    0.000    0.000    0.000    0.000    0.000    0.000 
#
# Total GULP energy -357337.893203 kJ/mol
# GULP energy per Si atom -5583.404581 kJ/mol
# Density = 1.910170 g / cm^3
# Si number density = 19.145278 Si / 1000 Ang^3
#
#
#
# Elastic Constant Matrix: (Units=GPa)
#
#
# Indices 1 2 3 4 5 6 
#
# 1 74.7314 36.2368 78.7294 0.0000 0.0000 0.0000
# 2 36.2368 40.2622 31.8867 0.0000 0.0000 0.0000
# 3 78.7294 31.8867 162.0817 0.0000 0.0000 0.0000
# 4 0.0000 0.0000 0.0000 18.2879 0.0000 0.0000
# 5 0.0000 0.0000 0.0000 0.0000 34.6650 0.0000
# 6 0.0000 0.0000 0.0000 0.0000 0.0000 4.4476
#
#
#
# Elastic Compliance Matrix: (Units=1/GPa)
#
#
# Indices 1 2 3 4 5 6 
#
# 1 0.041974 -0.025623 -0.015348 0.000000 0.000000 0.000000
# 2 -0.025623 0.045062 0.003581 0.000000 0.000000 0.000000
# 3 -0.015348 0.003581 0.012920 0.000000 0.000000 0.000000
# 4 0.000000 0.000000 0.000000 0.054681 0.000000 0.000000
# 5 0.000000 0.000000 0.000000 0.000000 0.028848 0.000000
# 6 0.000000 0.000000 0.000000 0.000000 0.000000 0.224841
#
#
# Mechanical properties :
#
#
# Convention : Reuss Voigt Hill
#
# Bulk Modulus (GPa) = 39.71804 63.42012 51.56908
# Shear Modulus (GPa) = 10.17297 20.16159 15.16728
#
# Velocity S-wave (km/s) = 2.30762 3.24865 2.81769
# Velocity P-wave (km/s) = 5.28117 6.87526 6.13025
#
# Compressibility (1/GPa) = 0.02517747
#
# Stress axis : x y z
#
# Youngs Moduli (GPa) = 23.82402 22.19146 77.39766
#
# Poissons Ratio (x) = 0.56861 1.18788
# Poissons Ratio (y) = 0.61044 -0.27714
# Poissons Ratio (z) = 0.36565 -0.07946
#
# Static dielectric constant tensor:
#      x y z
#    x 1.641650 0.000000 0.000000 
#    y 0.000000 1.663740 0.000000 
#    z 0.000000 0.000000 1.684480 
# 
# From -- ./inp_files/20809.got.cif
#   From: 2010.05.17/outbox.cif.g08.bks.cpg/sg53_11_cif.got.tgz:20809.got - 2010.06.03 12:45:16.
