data_PCOD9417919
_publ_section_title
;
Structure prediction by ZEFSAII (Michael W. Deem and Ramdas Pophale) SiO2 
 PCOD9417919
Probable space group: P M N A
;
_chemical_formula_sum "Si O2"
_cell_formula_units_Z 64
_cell_length_a 17.669609
_cell_length_b 15.171683
_cell_length_c 12.028203
_cell_angle_alpha 90.000000
_cell_angle_beta 90.000000
_cell_angle_gamma 90.000000
_cell_volume 3224.493073
_symmetry_space_group_name_H-M "P M N A"
_symmetry_group_IT_number 53
_symmetry_cell_setting 'orthorhombic'
loop_
_space_group_symop_operation_xyz
x,y,z
1/2-x,-y,1/2+z
x,-y,-z
1/2-x,y,1/2-z
-x,-y,-z
1/2+x,y,1/2-z
-x,y,z
1/2+x,-y,1/2+z
loop_
_atom_site_type_symbol
_atom_site_label
_atom_site_fract_x
_atom_site_fract_y
_atom_site_fract_z
Si Si1 0.587579 0.338454 0.672605
Si Si2 0.409191 0.723373 0.083465
Si Si3 0.811833 0.590887 0.561912
Si Si4 0.085145 0.544640 0.769382
Si Si5 0.907630 0.920842 0.419997
Si Si6 0.153515 0.678652 0.934635
Si Si7 0.408622 0.863041 0.558460
Si Si8 0.908416 0.950598 0.168570
O O1 0.500000 0.316035 0.644900
O O2 0.607682 0.287083 0.785181
O O3 0.591556 0.442323 0.699152
O O4 0.638332 0.321479 0.566303
O O5 0.500000 0.712482 0.072229
O O6 0.387615 0.821551 0.043930
O O7 0.366449 0.647829 0.016917
O O8 0.790053 0.500000 0.500000
O O9 0.855659 0.567332 0.673986
O O10 0.738262 0.648216 0.587266
O O11 0.100788 0.606575 0.874797
O O12 0.000000 0.559912 0.727602
O O13 0.881061 0.933269 0.292913
O O14 0.000000 0.923733 0.418624
O O15 0.881962 0.000000 0.500000
O O16 0.131315 0.776209 0.896373
O O17 0.500000 0.850944 0.560656
O O18 0.385393 0.885018 0.430859
O O19 0.390808 0.950504 0.628562
O O20 0.000000 0.944276 0.171434
#
# Coordination Sequence:
#
# PCOD9417919 Si02
#       8
#     8   8   8   8   8   8   8   8
#     4  10  20  37  61  86 115 151 201 256 298 345
#     4  10  21  38  63  90 115 158 214 255 295 352
#     4  12  25  42  60  82 122 165 203 247 300 372
#     4  11  23  40  62  84 112 154 203 256 305 354
#     4   9  17  30  52  85 119 146 186 247 300 342
#     4  12  24  36  57  91 126 155 194 246 314 368
#     4   9  17  32  56  86 116 152 195 243 296 360
#     4   8  15  30  55  84 117 152 192 245 303 348
#
# _framework density 19.848081000000001
#
# number of rings (size 3 to 8) (size 9 to 14) (size 15 to 20)
#    0.000    1.875    1.250    4.500    0.000    5.000 
#    0.000    2.500    2.750    0.000    0.000    0.000 
#    0.000    0.000    0.000    0.000    0.000    0.000 
#
# Total GULP energy -357535.757506 kJ/mol
# GULP energy per Si atom -5586.496211 kJ/mol
# Density = 1.980291 g / cm^3
# Si number density = 19.848081 Si / 1000 Ang^3
#
#
#
# Elastic Constant Matrix: (Units=GPa)
#
#
# Indices 1 2 3 4 5 6 
#
# 1 42.0950 22.3548 0.1087 0.0000 0.0000 0.0000
# 2 22.3548 119.1467 12.1437 0.0000 0.0000 0.0000
# 3 0.1087 12.1437 27.1798 0.0000 0.0000 0.0000
# 4 0.0000 0.0000 0.0000 25.1955 0.0000 0.0000
# 5 0.0000 0.0000 0.0000 0.0000 55.9080 0.0000
# 6 0.0000 0.0000 0.0000 0.0000 0.0000 31.1378
#
#
#
# Elastic Compliance Matrix: (Units=1/GPa)
#
#
# Indices 1 2 3 4 5 6 
#
# 1 0.026512 -0.005200 0.002217 0.000000 0.000000 0.000000
# 2 -0.005200 0.009813 -0.004364 0.000000 0.000000 0.000000
# 3 0.002217 -0.004364 0.038733 0.000000 0.000000 0.000000
# 4 0.000000 0.000000 0.000000 0.039690 0.000000 0.000000
# 5 0.000000 0.000000 0.000000 0.000000 0.017887 0.000000
# 6 0.000000 0.000000 0.000000 0.000000 0.000000 0.032115
#
#
# Mechanical properties :
#
#
# Convention : Reuss Voigt Hill
#
# Bulk Modulus (GPa) = 16.56596 28.62623 22.59609
# Shear Modulus (GPa) = 25.05458 32.70255 28.87856
#
# Velocity S-wave (km/s) = 3.55677 4.06352 3.81856
# Velocity P-wave (km/s) = 5.02314 6.03906 5.55438
#
# Compressibility (1/GPa) = 0.06036475
#
# Stress axis : x y z
#
# Youngs Moduli (GPa) = 37.71924 101.90078 25.81786
#
# Poissons Ratio (x) = 0.52991 -0.05725
# Poissons Ratio (y) = 0.19615 0.11266
# Poissons Ratio (z) = -0.08364 0.44467
#
# Static dielectric constant tensor:
#      x y z
#    x 1.686500 0.000000 0.000000 
#    y 0.000000 1.700040 0.000000 
#    z 0.000000 0.000000 1.692830 
# 
# From -- ./inp_files/17142.got.cif
#   From: 2010.05.17/outbox.cif.g08.bks.cpg/sg53_9_cif.got.tgz:17142.got - 2010.06.03 12:45:16.
