data_PCOD9417421
_publ_section_title
;
Structure prediction by ZEFSAII (Michael W. Deem and Ramdas Pophale) SiO2 
 PCOD9417421
Probable space group: P M N A
;
_chemical_formula_sum "Si O2"
_cell_formula_units_Z 48
_cell_length_a 8.742904
_cell_length_b 12.031409
_cell_length_c 25.560656
_cell_angle_alpha 90.000000
_cell_angle_beta 90.000000
_cell_angle_gamma 90.000000
_cell_volume 2688.711445
_symmetry_space_group_name_H-M "P M N A"
_symmetry_group_IT_number 53
_symmetry_cell_setting 'orthorhombic'
loop_
_space_group_symop_operation_xyz
x,y,z
1/2-x,-y,1/2+z
x,-y,-z
1/2-x,y,1/2-z
-x,-y,-z
1/2+x,y,1/2-z
-x,y,z
1/2+x,-y,1/2+z
loop_
_atom_site_type_symbol
_atom_site_label
_atom_site_fract_x
_atom_site_fract_y
_atom_site_fract_z
Si Si1 0.182822 0.369531 0.004230
Si Si2 0.184021 0.007957 0.061446
Si Si3 0.683116 0.763830 0.398016
Si Si4 0.682096 0.380861 0.807459
Si Si5 0.317480 0.379722 0.307624
Si Si6 0.180940 0.236701 0.399060
O O1 0.218021 0.307904 0.949897
O O2 0.000000 0.356611 0.013816
O O3 0.216398 0.500000 0.000000
O O4 0.271150 0.311877 0.051401
O O5 0.263945 0.112554 0.087923
O O6 0.000000 0.023874 0.063413
O O7 0.220841 0.891523 0.089269
O O8 0.225795 0.000000 0.000000
O O9 0.500000 0.756105 0.389234
O O10 0.768972 0.711798 0.348899
O O11 0.750000 0.357222 0.750000
O O12 0.500000 0.390934 0.804021
O O13 0.752489 0.499691 0.824478
O O14 0.250000 0.358191 0.250000
O O15 0.500000 0.385683 0.305147
O O16 0.263867 0.287920 0.348655
O O17 0.000000 0.240247 0.391348
#
# Coordination Sequence:
#
# PCOD9417421 Si02
#       6
#     8   8   8   8   8   8
#     4  10  20  35  57  84 115 153 193 238 292 352
#     4  10  20  39  62  83 113 159 205 242 290 350
#     4  10  20  36  59  86 117 154 199 243 289 346
#     4  11  22  38  61  89 122 155 194 239 293 350
#     4  11  22  40  64  88 118 154 196 240 293 351
#     4  12  24  37  57  87 121 153 194 243 295 350
#
# _framework density 17.852418
#
# number of rings (size 3 to 8) (size 9 to 14) (size 15 to 20)
#    0.000    1.333    1.667    6.500    0.000    3.333 
#    0.000    0.833    0.000    4.000    0.000    0.000 
#    0.000    0.000    0.000    0.000    0.000    0.000 
#
# Total GULP energy -268380.776442 kJ/mol
# GULP energy per Si atom -5591.266176 kJ/mol
# Density = 1.781178 g / cm^3
# Si number density = 17.852418 Si / 1000 Ang^3
#
#
#
# Elastic Constant Matrix: (Units=GPa)
#
#
# Indices 1 2 3 4 5 6 
#
# 1 120.7122 75.8211 63.9705 0.0000 0.0000 0.0000
# 2 75.8211 134.7604 73.8969 0.0000 0.0000 0.0000
# 3 63.9705 73.8969 89.4228 0.0000 0.0000 0.0000
# 4 0.0000 0.0000 0.0000 11.1683 0.0000 0.0000
# 5 0.0000 0.0000 0.0000 0.0000 31.3092 0.0000
# 6 0.0000 0.0000 0.0000 0.0000 0.0000 36.3054
#
#
#
# Elastic Compliance Matrix: (Units=1/GPa)
#
#
# Indices 1 2 3 4 5 6 
#
# 1 0.014750 -0.004595 -0.006754 0.000000 0.000000 0.000000
# 2 -0.004595 0.015001 -0.009109 0.000000 0.000000 0.000000
# 3 -0.006754 -0.009109 0.023543 0.000000 0.000000 0.000000
# 4 0.000000 0.000000 0.000000 0.089539 0.000000 0.000000
# 5 0.000000 0.000000 0.000000 0.000000 0.031940 0.000000
# 6 0.000000 0.000000 0.000000 0.000000 0.000000 0.027544
#
#
# Mechanical properties :
#
#
# Convention : Reuss Voigt Hill
#
# Bulk Modulus (GPa) = 80.80269 85.80802 83.30536
# Shear Modulus (GPa) = 20.21355 24.50371 22.35863
#
# Velocity S-wave (km/s) = 3.36856 3.70884 3.54279
# Velocity P-wave (km/s) = 7.77749 8.15538 7.96867
#
# Compressibility (1/GPa) = 0.01237583
#
# Stress axis : x y z
#
# Youngs Moduli (GPa) = 67.79775 66.66184 42.47623
#
# Poissons Ratio (x) = 0.30631 0.28690
# Poissons Ratio (y) = 0.31152 0.38694
# Poissons Ratio (z) = 0.45793 0.60725
#
# Static dielectric constant tensor:
#      x y z
#    x 1.601840 0.000000 0.000000 
#    y 0.000000 1.589630 0.000000 
#    z 0.000000 0.000000 1.583800 
# 
# From -- ./inp_files/33855.got.cif
#   From: 2010.05.17/outbox.cif.g08.bks.cpg/sg53_17_cif.got.tgz:33855.got - 2010.06.03 12:45:16.
