data_PCOD9417797
_publ_section_title
;
Structure prediction by ZEFSAII (Michael W. Deem and Ramdas Pophale) SiO2 
 PCOD9417797
Probable space group: P M N A
;
_chemical_formula_sum "Si O2"
_cell_formula_units_Z 48
_cell_length_a 14.308755
_cell_length_b 9.232189
_cell_length_c 16.621368
_cell_angle_alpha 90.000000
_cell_angle_beta 90.000000
_cell_angle_gamma 90.000000
_cell_volume 2195.701504
_symmetry_space_group_name_H-M "P M N A"
_symmetry_group_IT_number 53
_symmetry_cell_setting 'orthorhombic'
loop_
_space_group_symop_operation_xyz
x,y,z
1/2-x,-y,1/2+z
x,-y,-z
1/2-x,y,1/2-z
-x,-y,-z
1/2+x,y,1/2-z
-x,y,z
1/2+x,-y,1/2+z
loop_
_atom_site_type_symbol
_atom_site_label
_atom_site_fract_x
_atom_site_fract_y
_atom_site_fract_z
Si Si1 0.775555 0.768467 0.871773
Si Si2 0.341305 0.773332 0.197704
Si Si3 0.269878 0.458272 0.907185
Si Si4 0.101488 0.988666 0.170927
Si Si5 0.610817 0.240786 0.537088
Si Si6 0.107080 0.963362 0.593250
O O1 0.761114 0.599098 0.856912
O O2 0.672795 0.826971 0.892906
O O3 0.824647 0.884194 0.812598
O O4 0.844002 0.773960 0.949379
O O5 0.250000 0.744776 0.250000
O O6 0.348855 0.631112 0.141903
O O7 0.401485 0.855478 0.265793
O O8 0.339370 0.902463 0.133486
O O9 0.177549 0.358168 0.919236
O O10 0.297292 0.500000 0.000000
O O11 0.119720 0.907743 0.086884
O O12 0.000000 0.058138 0.168482
O O13 0.500000 0.278148 0.534755
O O14 0.000000 0.949199 0.623486
O O15 0.101791 0.000000 0.500000
#
# Coordination Sequence:
#
# PCOD9417797 Si02
#       6
#     8   8   8   8   8   8
#     4  11  21  38  63  97 136 172 222 273 333 407
#     4  12  22  44  67  91 129 178 220 283 341 407
#     4  10  22  39  65  95 134 182 218 267 341 419
#     4  11  22  38  65  97 130 172 218 273 336 399
#     4  10  20  36  62  99 141 181 216 263 332 419
#     4  11  23  41  67  95 129 176 231 281 324 390
#
# _framework density 21.860896
#
# number of rings (size 3 to 8) (size 9 to 14) (size 15 to 20)
#    0.000    1.167    3.333    4.500    0.000    5.000 
#    3.000    1.667    0.000    8.500    0.000    0.000 
#    0.000    0.000    0.000    0.000    0.000    0.000 
#
# Total GULP energy -267541.171852 kJ/mol
# GULP energy per Si atom -5573.774414 kJ/mol
# Density = 2.181114 g / cm^3
# Si number density = 21.860896 Si / 1000 Ang^3
#
#
#
# Elastic Constant Matrix: (Units=GPa)
#
#
# Indices 1 2 3 4 5 6 
#
# 1 83.2302 39.3961 12.6140 0.0000 0.0000 0.0000
# 2 39.3961 130.8707 18.5962 0.0000 0.0000 0.0000
# 3 12.6140 18.5962 77.9070 0.0000 0.0000 0.0000
# 4 0.0000 0.0000 0.0000 35.6007 0.0000 0.0000
# 5 0.0000 0.0000 0.0000 0.0000 9.4717 0.0000
# 6 0.0000 0.0000 0.0000 0.0000 0.0000 19.8281
#
#
#
# Elastic Compliance Matrix: (Units=1/GPa)
#
#
# Indices 1 2 3 4 5 6 
#
# 1 0.014141 -0.004070 -0.001318 0.000000 0.000000 0.000000
# 2 -0.004070 0.009081 -0.001509 0.000000 0.000000 0.000000
# 3 -0.001318 -0.001509 0.013409 0.000000 0.000000 0.000000
# 4 0.000000 0.000000 0.000000 0.028089 0.000000 0.000000
# 5 0.000000 0.000000 0.000000 0.000000 0.105577 0.000000
# 6 0.000000 0.000000 0.000000 0.000000 0.000000 0.050433
#
#
# Mechanical properties :
#
#
# Convention : Reuss Voigt Hill
#
# Bulk Modulus (GPa) = 43.78634 48.13560 45.96097
# Shear Modulus (GPa) = 20.64953 27.74022 24.19487
#
# Velocity S-wave (km/s) = 3.07675 3.56609 3.33042
# Velocity P-wave (km/s) = 5.71794 6.24682 5.98822
#
# Compressibility (1/GPa) = 0.02283817
#
# Stress axis : x y z
#
# Youngs Moduli (GPa) = 70.71676 110.12553 74.57483
#
# Poissons Ratio (x) = 0.44816 0.09830
# Poissons Ratio (y) = 0.28778 0.11250
# Poissons Ratio (z) = 0.09322 0.16613
#
# Static dielectric constant tensor:
#      x y z
#    x 1.786250 0.000000 0.000000 
#    y 0.000000 1.805370 0.000000 
#    z 0.000000 0.000000 1.930700 
# 
# From -- ./inp_files/28247.got.cif
#   From: 2010.05.17/outbox.cif.g08.bks.cpg/sg53_15_cif.got.tgz:28247.got - 2010.06.03 12:45:16.
