data_PCOD9417490
_publ_section_title
;
Structure prediction by ZEFSAII (Michael W. Deem and Ramdas Pophale) SiO2 
 PCOD9417490
Probable space group: P M N A
;
_chemical_formula_sum "Si O2"
_cell_formula_units_Z 56
_cell_length_a 15.149848
_cell_length_b 11.688507
_cell_length_c 15.422792
_cell_angle_alpha 90.000000
_cell_angle_beta 90.000000
_cell_angle_gamma 90.000000
_cell_volume 2731.054195
_symmetry_space_group_name_H-M "P M N A"
_symmetry_group_IT_number 53
_symmetry_cell_setting 'orthorhombic'
loop_
_space_group_symop_operation_xyz
x,y,z
1/2-x,-y,1/2+z
x,-y,-z
1/2-x,y,1/2-z
-x,-y,-z
1/2+x,y,1/2-z
-x,y,z
1/2+x,-y,1/2+z
loop_
_atom_site_type_symbol
_atom_site_label
_atom_site_fract_x
_atom_site_fract_y
_atom_site_fract_z
Si Si1 0.285101 0.239826 0.664640
Si Si2 0.399512 0.159005 0.428051
Si Si3 0.899483 0.177054 0.354197
Si Si4 0.600886 0.975530 0.275537
Si Si5 0.348805 0.349272 0.288430
Si Si6 0.216765 0.868837 0.489648
Si Si7 0.896044 0.443696 0.907574
O O1 0.250000 0.302627 0.750000
O O2 0.340164 0.133006 0.702935
O O3 0.207985 0.188319 0.603813
O O4 0.342698 0.328655 0.610283
O O5 0.500000 0.177313 0.460184
O O6 0.366415 0.265092 0.370017
O O7 0.322284 0.134666 0.495216
O O8 0.401697 0.052921 0.361915
O O9 0.899485 0.284772 0.289284
O O10 0.834702 0.195610 0.434302
O O11 0.000000 0.155286 0.382447
O O12 0.868033 0.065439 0.298695
O O13 0.500000 0.942227 0.254668
O O14 0.250000 0.354087 0.250000
O O15 0.379017 0.469656 0.327585
O O16 0.187694 0.000000 0.500000
O O17 0.000000 0.420114 0.912959
O O18 0.869477 0.500000 0.000000
#
# Coordination Sequence:
#
# PCOD9417490 Si02
#       7
#     8   8   8   8   8   8   8
#     4  12  25  41  60  90 127 167 206 253 319 386
#     4  10  20  35  59  97 131 160 205 257 315 368
#     4  10  22  40  65  97 128 168 218 260 305 370
#     4   9  19  36  60  91 131 167 199 251 311 374
#     4  11  20  38  68  95 125 160 208 263 312 373
#     4  12  23  38  62  94 131 172 213 261 313 374
#     4  11  25  44  66  92 123 160 206 265 324 379
#
# _framework density 20.504902000000001
#
# number of rings (size 3 to 8) (size 9 to 14) (size 15 to 20)
#    0.000    1.286    2.857    4.714    0.000    2.857 
#    0.000    1.429    0.000    0.000    0.000    3.000 
#    0.000    0.000    0.000    0.000    0.000    0.000 
#
# Total GULP energy -312779.459684 kJ/mol
# GULP energy per Si atom -5585.347494 kJ/mol
# Density = 2.045823 g / cm^3
# Si number density = 20.504902 Si / 1000 Ang^3
#
#
#
# Elastic Constant Matrix: (Units=GPa)
#
#
# Indices 1 2 3 4 5 6 
#
# 1 63.9051 22.1791 30.7370 0.0000 0.0000 0.0000
# 2 22.1791 99.5201 35.9505 0.0000 0.0000 0.0000
# 3 30.7370 35.9505 108.6455 0.0000 0.0000 0.0000
# 4 0.0000 0.0000 0.0000 25.3494 0.0000 0.0000
# 5 0.0000 0.0000 0.0000 0.0000 5.6530 0.0000
# 6 0.0000 0.0000 0.0000 0.0000 0.0000 21.5152
#
#
#
# Elastic Compliance Matrix: (Units=1/GPa)
#
#
# Indices 1 2 3 4 5 6 
#
# 1 0.018669 -0.002559 -0.004435 0.000000 0.000000 0.000000
# 2 -0.002559 0.011763 -0.003169 0.000000 0.000000 0.000000
# 3 -0.004435 -0.003169 0.011507 0.000000 0.000000 0.000000
# 4 0.000000 0.000000 0.000000 0.039449 0.000000 0.000000
# 5 0.000000 0.000000 0.000000 0.000000 0.176897 0.000000
# 6 0.000000 0.000000 0.000000 0.000000 0.000000 0.046479
#
#
# Mechanical properties :
#
#
# Convention : Reuss Voigt Hill
#
# Bulk Modulus (GPa) = 46.26317 49.97818 48.12068
# Shear Modulus (GPa) = 15.04691 22.71714 18.88203
#
# Velocity S-wave (km/s) = 2.71185 3.33211 3.03785
# Velocity P-wave (km/s) = 5.69355 6.26343 5.98528
#
# Compressibility (1/GPa) = 0.02161547
#
# Stress axis : x y z
#
# Youngs Moduli (GPa) = 53.56361 85.01229 86.90023
#
# Poissons Ratio (x) = 0.21751 0.38542
# Poissons Ratio (y) = 0.13704 0.27534
# Poissons Ratio (z) = 0.23756 0.26936
#
# Static dielectric constant tensor:
#      x y z
#    x 1.737300 0.000000 0.000000 
#    y 0.000000 1.736080 0.000000 
#    z 0.000000 0.000000 1.751100 
# 
# From -- ./inp_files/22857.got.cif
#   From: 2010.05.17/outbox.cif.g08.bks.cpg/sg53_12_cif.got.tgz:22857.got - 2010.06.03 12:45:16.
