data_PCOD9417951
_publ_section_title
;
Structure prediction by ZEFSAII (Michael W. Deem and Ramdas Pophale) SiO2 
 PCOD9417951
Probable space group: P M N A
;
_chemical_formula_sum "Si O2"
_cell_formula_units_Z 64
_cell_length_a 8.975279
_cell_length_b 14.200096
_cell_length_c 24.595535
_cell_angle_alpha 90.000000
_cell_angle_beta 90.000000
_cell_angle_gamma 90.000000
_cell_volume 3134.696593
_symmetry_space_group_name_H-M "P M N A"
_symmetry_group_IT_number 53
_symmetry_cell_setting 'orthorhombic'
loop_
_space_group_symop_operation_xyz
x,y,z
1/2-x,-y,1/2+z
x,-y,-z
1/2-x,y,1/2-z
-x,-y,-z
1/2+x,y,1/2-z
-x,y,z
1/2+x,-y,1/2+z
loop_
_atom_site_type_symbol
_atom_site_label
_atom_site_fract_x
_atom_site_fract_y
_atom_site_fract_z
Si Si1 0.175443 0.967395 0.805810
Si Si2 0.825669 0.139734 0.646506
Si Si3 0.175752 0.859879 0.594698
Si Si4 0.176372 0.531237 0.804396
Si Si5 0.824059 0.841529 0.475612
Si Si6 0.821464 0.655333 0.910101
Si Si7 0.823867 0.637634 0.358567
Si Si8 0.174878 0.640230 0.029191
O O1 0.250000 0.933656 0.750000
O O2 0.236038 0.911719 0.858057
O O3 0.000000 0.958428 0.801834
O O4 0.224281 0.075168 0.816392
O O5 0.805801 0.110807 0.582950
O O6 0.793431 0.251111 0.649276
O O7 0.000000 0.124938 0.660126
O O8 0.201403 0.894302 0.532394
O O9 0.227945 0.751115 0.593750
O O10 0.000000 0.867983 0.605570
O O11 0.250000 0.570770 0.750000
O O12 0.210693 0.592447 0.857808
O O13 0.240064 0.427728 0.816102
O O14 0.000000 0.527696 0.797826
O O15 0.715316 0.751536 0.475126
O O16 0.000000 0.809927 0.476695
O O17 0.000000 0.676584 0.910748
O O18 0.790516 0.605185 0.968202
O O19 0.768397 0.609057 0.418833
O O20 0.000000 0.623932 0.354397
O O21 0.000000 0.625034 0.040141
#
# Coordination Sequence:
#
# PCOD9417951 Si02
#       8
#     8   8   8   8   8   8   8   8
#     4  12  26  42  59  81 111 148 194 241 283 335
#     4   9  19  38  61  85 115 149 185 228 279 335
#     4  10  20  37  62  89 118 152 188 230 281 336
#     4  11  24  41  59  81 112 150 195 241 283 334
#     4   8  16  32  56  86 118 150 183 222 276 341
#     4   9  20  38  59  85 118 154 190 233 285 338
#     4  10  21  38  60  86 117 151 187 231 284 342
#     4   9  16  30  55  85 116 148 185 230 281 337
#
# _framework density 20.416649
#
# number of rings (size 3 to 8) (size 9 to 14) (size 15 to 20)
#    0.000    2.250    0.000    3.375    0.000    6.500 
#    0.000    6.250    0.000    0.000    0.000    0.000 
#    0.000    0.000    0.000    0.000    0.000    0.000 
#
# Total GULP energy -357376.172785 kJ/mol
# GULP energy per Si atom -5584.002700 kJ/mol
# Density = 2.037018 g / cm^3
# Si number density = 20.416649 Si / 1000 Ang^3
#
#
#
# Elastic Constant Matrix: (Units=GPa)
#
#
# Indices 1 2 3 4 5 6 
#
# 1 59.0917 19.8927 35.6199 0.0000 0.0000 0.0000
# 2 19.8927 34.6314 8.9418 0.0000 0.0000 0.0000
# 3 35.6199 8.9418 89.4716 0.0000 0.0000 0.0000
# 4 0.0000 0.0000 0.0000 22.0987 0.0000 0.0000
# 5 0.0000 0.0000 0.0000 0.0000 38.7178 0.0000
# 6 0.0000 0.0000 0.0000 0.0000 0.0000 15.9744
#
#
#
# Elastic Compliance Matrix: (Units=1/GPa)
#
#
# Indices 1 2 3 4 5 6 
#
# 1 0.027024 -0.013083 -0.009451 0.000000 0.000000 0.000000
# 2 -0.013083 0.035974 0.001613 0.000000 0.000000 0.000000
# 3 -0.009451 0.001613 0.014778 0.000000 0.000000 0.000000
# 4 0.000000 0.000000 0.000000 0.045252 0.000000 0.000000
# 5 0.000000 0.000000 0.000000 0.000000 0.025828 0.000000
# 6 0.000000 0.000000 0.000000 0.000000 0.000000 0.062600
#
#
# Mechanical properties :
#
#
# Convention : Reuss Voigt Hill
#
# Bulk Modulus (GPa) = 27.82824 34.67814 31.25319
# Shear Modulus (GPa) = 18.84834 23.27420 21.06127
#
# Velocity S-wave (km/s) = 3.04169 3.38000 3.21530
# Velocity P-wave (km/s) = 5.09859 5.67931 5.39677
#
# Compressibility (1/GPa) = 0.03593472
#
# Stress axis : x y z
#
# Youngs Moduli (GPa) = 37.00398 27.79800 67.66739
#
# Poissons Ratio (x) = 0.36367 0.63954
# Poissons Ratio (y) = 0.48411 -0.10916
# Poissons Ratio (z) = 0.34973 -0.04484
#
# Static dielectric constant tensor:
#      x y z
#    x 1.673890 0.000000 0.000000 
#    y 0.000000 1.741410 0.000000 
#    z 0.000000 0.000000 1.751850 
# 
# From -- ./inp_files/34199.got.cif
#   From: 2010.05.17/outbox.cif.g08.bks.cpg/sg53_18_cif.got.tgz:34199.got - 2010.06.03 12:45:16.
