data_PCOD9417262
_publ_section_title
;
Structure prediction by ZEFSAII (Michael W. Deem and Ramdas Pophale) SiO2 
 PCOD9417262
Probable space group: P M N A
;
_chemical_formula_sum "Si O2"
_cell_formula_units_Z 64
_cell_length_a 8.392957
_cell_length_b 17.348307
_cell_length_c 24.746613
_cell_angle_alpha 90.000000
_cell_angle_beta 90.000000
_cell_angle_gamma 90.000000
_cell_volume 3603.195809
_symmetry_space_group_name_H-M "P M N A"
_symmetry_group_IT_number 53
_symmetry_cell_setting 'orthorhombic'
loop_
_space_group_symop_operation_xyz
x,y,z
1/2-x,-y,1/2+z
x,-y,-z
1/2-x,y,1/2-z
-x,-y,-z
1/2+x,y,1/2-z
-x,y,z
1/2+x,-y,1/2+z
loop_
_atom_site_type_symbol
_atom_site_label
_atom_site_fract_x
_atom_site_fract_y
_atom_site_fract_z
Si Si1 0.188593 0.313900 0.975619
Si Si2 0.192789 0.535161 0.414433
Si Si3 0.692823 0.265439 0.188395
Si Si4 0.307743 0.360684 0.086281
Si Si5 0.191909 0.904770 0.688273
Si Si6 0.192703 0.224916 0.626099
Si Si7 0.690856 0.624526 0.190330
Si Si8 0.806883 0.073281 0.687914
O O1 0.242192 0.397465 0.952468
O O2 0.251705 0.250615 0.933164
O O3 0.000000 0.310516 0.976727
O O4 0.255729 0.308685 0.035983
O O5 0.248202 0.448304 0.423975
O O6 0.236392 0.560578 0.353614
O O7 0.000000 0.537192 0.419737
O O8 0.750000 0.277575 0.250000
O O9 0.500000 0.266786 0.189928
O O10 0.746658 0.327224 0.143931
O O11 0.744089 0.179557 0.168377
O O12 0.500000 0.362897 0.087428
O O13 0.250000 0.905797 0.750000
O O14 0.000000 0.904731 0.686446
O O15 0.244655 0.988437 0.666749
O O16 0.246828 0.293222 0.666630
O O17 0.247374 0.143363 0.650011
O O18 0.000000 0.225164 0.625603
O O19 0.750000 0.609923 0.250000
O O20 0.500000 0.627103 0.191408
O O21 0.750000 0.083234 0.750000
O O22 0.000000 0.074731 0.689143
#
# Coordination Sequence:
#
# PCOD9417262 Si02
#       8
#     8   8   8   8   8   8   8   8
#     4  11  22  34  50  72  94 117 153 202 246 279
#     4   9  19  35  51  67  91 125 161 194 233 283
#     4   9  18  32  51  75 102 129 156 189 232 280
#     4  10  20  35  54  71  91 125 161 191 231 284
#     4   8  14  26  44  69  99 127 156 190 228 271
#     4   9  18  32  47  65  93 129 163 192 228 278
#     4   9  17  28  42  62  90 122 153 185 224 271
#     4   9  16  26  45  72 100 129 160 194 231 274
#
# _framework density 17.762008999999999
#
# number of rings (size 3 to 8) (size 9 to 14) (size 15 to 20)
#    0.000    2.750    0.000    2.625    0.000    5.500 
#    0.000    0.000    0.000    0.750    0.000    5.250 
#    0.000    0.000    0.000    0.000    0.000    0.000 
#
# Total GULP energy -356503.158504 kJ/mol
# GULP energy per Si atom -5570.361852 kJ/mol
# Density = 1.772158 g / cm^3
# Si number density = 17.762009 Si / 1000 Ang^3
#
#
#
# Elastic Constant Matrix: (Units=GPa)
#
#
# Indices 1 2 3 4 5 6 
#
# 1 6.0032 11.4656 7.5411 0.0000 0.0000 0.0000
# 2 11.4656 63.1379 20.0001 0.0000 0.0000 0.0000
# 3 7.5411 20.0001 89.8976 0.0000 0.0000 0.0000
# 4 0.0000 0.0000 0.0000 16.7914 0.0000 0.0000
# 5 0.0000 0.0000 0.0000 0.0000 23.4364 0.0000
# 6 0.0000 0.0000 0.0000 0.0000 0.0000 10.1916
#
#
#
# Elastic Compliance Matrix: (Units=1/GPa)
#
#
# Indices 1 2 3 4 5 6 
#
# 1 0.267509 -0.044615 -0.012514 0.000000 0.000000 0.000000
# 2 -0.044615 0.024480 -0.001704 0.000000 0.000000 0.000000
# 3 -0.012514 -0.001704 0.012553 0.000000 0.000000 0.000000
# 4 0.000000 0.000000 0.000000 0.059554 0.000000 0.000000
# 5 0.000000 0.000000 0.000000 0.000000 0.042669 0.000000
# 6 0.000000 0.000000 0.000000 0.000000 0.000000 0.098120
#
#
# Mechanical properties :
#
#
# Convention : Reuss Voigt Hill
#
# Bulk Modulus (GPa) = 5.35113 26.33915 15.84514
# Shear Modulus (GPa) = 7.30096 18.08601 12.69348
#
# Velocity S-wave (km/s) = 2.02962 3.19445 2.67618
# Velocity P-wave (km/s) = 2.91748 5.33546 4.29993
#
# Compressibility (1/GPa) = 0.18687636
#
# Stress axis : x y z
#
# Youngs Moduli (GPa) = 3.73819 40.84988 79.66494
#
# Poissons Ratio (x) = 1.82250 0.99696
# Poissons Ratio (y) = 0.16678 0.13572
# Poissons Ratio (z) = 0.04678 0.06960
#
# Static dielectric constant tensor:
#      x y z
#    x 1.609840 0.000000 0.000000 
#    y 0.000000 1.649390 0.000000 
#    z 0.000000 0.000000 1.583140 
# 
# From -- ./inp_files/34457.got.cif
#   From: 2010.05.17/outbox.cif.g08.bks.cpg/sg53_18_cif.got.tgz:34457.got - 2010.06.03 12:45:16.
