data_PCOD9417630
_publ_section_title
;
Structure prediction by ZEFSAII (Michael W. Deem and Ramdas Pophale) SiO2 
 PCOD9417630
Probable space group: P M N A
;
_chemical_formula_sum "Si O2"
_cell_formula_units_Z 64
_cell_length_a 18.815646
_cell_length_b 5.035176
_cell_length_c 29.950934
_cell_angle_alpha 90.000000
_cell_angle_beta 90.000000
_cell_angle_gamma 90.000000
_cell_volume 2837.554158
_symmetry_space_group_name_H-M "P M N A"
_symmetry_group_IT_number 53
_symmetry_cell_setting 'orthorhombic'
loop_
_space_group_symop_operation_xyz
x,y,z
1/2-x,-y,1/2+z
x,-y,-z
1/2-x,y,1/2-z
-x,-y,-z
1/2+x,y,1/2-z
-x,y,z
1/2+x,-y,1/2+z
loop_
_atom_site_type_symbol
_atom_site_label
_atom_site_fract_x
_atom_site_fract_y
_atom_site_fract_z
Si Si1 0.311036 0.457015 0.775904
Si Si2 0.418339 0.113797 0.824067
Si Si3 0.722379 0.526890 0.646772
Si Si4 0.579451 0.163116 0.546808
Si Si5 0.234275 0.739087 0.029501
Si Si6 0.421735 0.791198 0.731375
Si Si7 0.420469 0.797188 0.634527
Si Si8 0.206314 0.014689 0.614534
O O1 0.250000 0.285910 0.750000
O O2 0.370925 0.364108 0.810579
O O3 0.261258 0.634346 0.808025
O O4 0.359745 0.582408 0.738021
O O5 0.500000 0.161342 0.836023
O O6 0.417214 0.961889 0.776492
O O7 0.371094 0.988387 0.863381
O O8 0.744692 0.218358 0.644132
O O9 0.639806 0.576314 0.639482
O O10 0.758201 0.726421 0.610937
O O11 0.500000 0.291694 0.549999
O O12 0.653021 0.328734 0.545512
O O13 0.588102 0.976059 0.590577
O O14 0.577055 0.000000 0.500000
O O15 0.287197 0.829565 0.068330
O O16 0.261544 0.500000 0.000000
O O17 0.225284 0.000000 0.000000
O O18 0.500000 0.662576 0.731862
O O19 0.415573 0.937702 0.683660
O O20 0.500000 0.684907 0.632081
#
# Coordination Sequence:
#
# PCOD9417630 Si02
#       8
#     8   8   8   8   8   8   8   8
#     4  11  21  35  57  87 125 168 213 264 313 372
#     4  10  23  41  63  91 127 173 217 264 320 389
#     4  11  22  39  61  92 124 166 215 265 310 385
#     4   9  19  36  58  83 119 167 216 265 321 381
#     4  11  23  40  66  92 125 162 207 271 327 385
#     4  10  20  36  57  83 122 163 215 264 317 376
#     4  10  20  37  58  87 127 172 216 272 324 374
#     4  11  23  41  67  96 126 162 215 265 322 388
#
# _framework density 22.554637
#
# number of rings (size 3 to 8) (size 9 to 14) (size 15 to 20)
#    0.000    1.625    3.750    1.125    1.750    2.750 
#    0.000    1.250    0.000    0.750    0.000    0.000 
#    0.000    0.000    0.000    0.000    0.000    0.000 
#
# Total GULP energy -356574.377584 kJ/mol
# GULP energy per Si atom -5571.474650 kJ/mol
# Density = 2.250330 g / cm^3
# Si number density = 22.554637 Si / 1000 Ang^3
#
#
#
# Elastic Constant Matrix: (Units=GPa)
#
#
# Indices 1 2 3 4 5 6 
#
# 1 152.2939 19.5287 34.6871 0.0000 0.0000 0.0000
# 2 19.5287 47.0114 6.1779 0.0000 0.0000 0.0000
# 3 34.6871 6.1779 119.4357 0.0000 0.0000 0.0000
# 4 0.0000 0.0000 0.0000 26.3999 0.0000 0.0000
# 5 0.0000 0.0000 0.0000 0.0000 23.1960 0.0000
# 6 0.0000 0.0000 0.0000 0.0000 0.0000 12.7595
#
#
#
# Elastic Compliance Matrix: (Units=1/GPa)
#
#
# Indices 1 2 3 4 5 6 
#
# 1 0.007381 -0.002803 -0.001999 0.000000 0.000000 0.000000
# 2 -0.002803 0.022482 -0.000349 0.000000 0.000000 0.000000
# 3 -0.001999 -0.000349 0.008971 0.000000 0.000000 0.000000
# 4 0.000000 0.000000 0.000000 0.037879 0.000000 0.000000
# 5 0.000000 0.000000 0.000000 0.000000 0.043111 0.000000
# 6 0.000000 0.000000 0.000000 0.000000 0.000000 0.078373
#
#
# Mechanical properties :
#
#
# Convention : Reuss Voigt Hill
#
# Bulk Modulus (GPa) = 35.04780 48.83649 41.94215
# Shear Modulus (GPa) = 22.93485 29.69423 26.31454
#
# Velocity S-wave (km/s) = 3.19228 3.63236 3.41941
# Velocity P-wave (km/s) = 5.40003 6.26830 5.85030
#
# Compressibility (1/GPa) = 0.02853246
#
# Stress axis : x y z
#
# Youngs Moduli (GPa) = 135.48405 44.48045 111.46799
#
# Poissons Ratio (x) = 0.12470 0.22278
# Poissons Ratio (y) = 0.37982 0.03887
# Poissons Ratio (z) = 0.27078 0.01551
#
# Static dielectric constant tensor:
#      x y z
#    x 1.833910 0.000000 0.000000 
#    y 0.000000 1.924780 0.000000 
#    z 0.000000 0.000000 1.982930 
# 
# From -- ./inp_files/39050.got.cif
#   From: 2010.05.17/outbox.cif.g08.bks.cpg/sg53_20_cif.got.tgz:39050.got - 2010.06.03 12:45:16.
