data_PCOD9417908
_publ_section_title
;
Structure prediction by ZEFSAII (Michael W. Deem and Ramdas Pophale) SiO2 
 PCOD9417908
Probable space group: P M N A
;
_chemical_formula_sum "Si O2"
_cell_formula_units_Z 64
_cell_length_a 8.420212
_cell_length_b 12.259483
_cell_length_c 31.853571
_cell_angle_alpha 90.000000
_cell_angle_beta 90.000000
_cell_angle_gamma 90.000000
_cell_volume 3288.162776
_symmetry_space_group_name_H-M "P M N A"
_symmetry_group_IT_number 53
_symmetry_cell_setting 'orthorhombic'
loop_
_space_group_symop_operation_xyz
x,y,z
1/2-x,-y,1/2+z
x,-y,-z
1/2-x,y,1/2-z
-x,-y,-z
1/2+x,y,1/2-z
-x,y,z
1/2+x,-y,1/2+z
loop_
_atom_site_type_symbol
_atom_site_label
_atom_site_fract_x
_atom_site_fract_y
_atom_site_fract_z
Si Si1 0.307929 0.521477 0.047530
Si Si2 0.808792 0.245252 0.583158
Si Si3 0.190728 0.019393 0.952939
Si Si4 0.310978 0.513283 0.294669
Si Si5 0.192029 0.622601 0.875796
Si Si6 0.807702 0.125751 0.125164
Si Si7 0.191118 0.749151 0.318387
Si Si8 0.690289 0.009541 0.794720
O O1 0.500000 0.518314 0.048203
O O2 0.257455 0.641952 0.062043
O O3 0.247501 0.435290 0.081617
O O4 0.254661 0.500000 0.000000
O O5 0.768389 0.248644 0.632302
O O6 0.000000 0.236883 0.579998
O O7 0.733899 0.140128 0.561933
O O8 0.248501 0.935076 0.917266
O O9 0.000000 0.008481 0.954234
O O10 0.252579 0.000000 0.000000
O O11 0.250000 0.470726 0.250000
O O12 0.500000 0.506832 0.294697
O O13 0.250929 0.446110 0.335201
O O14 0.261757 0.639596 0.299204
O O15 0.244205 0.748367 0.873733
O O16 0.000000 0.621255 0.875274
O O17 0.750424 0.059726 0.165829
O O18 0.000000 0.124128 0.125235
O O19 0.000000 0.743172 0.314279
O O20 0.246014 0.864471 0.299583
O O21 0.750000 0.966620 0.750000
O O22 0.500000 0.009848 0.795481
#
# Coordination Sequence:
#
# PCOD9417908 Si02
#       8
#     8   8   8   8   8   8   8   8
#     4  10  22  39  60  88 120 155 195 240 291 344
#     4  10  20  37  60  87 120 153 190 240 290 341
#     4  10  22  38  59  88 119 155 197 241 291 345
#     4  11  23  38  59  86 115 149 192 235 287 346
#     4  10  23  41  60  85 116 154 196 240 289 342
#     4  10  22  41  60  82 118 155 194 243 288 340
#     4  10  20  37  60  87 119 152 189 237 290 342
#     4  11  23  39  60  87 116 149 192 236 289 348
#
# _framework density 19.463757000000001
#
# number of rings (size 3 to 8) (size 9 to 14) (size 15 to 20)
#    0.000    1.750    2.500    1.125    1.750    5.000 
#    0.000    1.250    0.000    0.000    0.000    0.000 
#    0.000    0.000    0.000    0.000    0.000    0.000 
#
# Total GULP energy -357571.384399 kJ/mol
# GULP energy per Si atom -5587.052881 kJ/mol
# Density = 1.941946 g / cm^3
# Si number density = 19.463757 Si / 1000 Ang^3
#
#
#
# Elastic Constant Matrix: (Units=GPa)
#
#
# Indices 1 2 3 4 5 6 
#
# 1 8.3586 18.0854 24.7624 0.0000 0.0000 0.0000
# 2 18.0854 149.8592 86.3737 0.0000 0.0000 0.0000
# 3 24.7624 86.3737 193.3248 0.0000 0.0000 0.0000
# 4 0.0000 0.0000 0.0000 55.2369 0.0000 0.0000
# 5 0.0000 0.0000 0.0000 0.0000 39.4460 0.0000
# 6 0.0000 0.0000 0.0000 0.0000 0.0000 24.2078
#
#
#
# Elastic Compliance Matrix: (Units=1/GPa)
#
#
# Indices 1 2 3 4 5 6 
#
# 1 0.210804 -0.013303 -0.021057 0.000000 0.000000 0.000000
# 2 -0.013303 0.009827 -0.002686 0.000000 0.000000 0.000000
# 3 -0.021057 -0.002686 0.009070 0.000000 0.000000 0.000000
# 4 0.000000 0.000000 0.000000 0.018104 0.000000 0.000000
# 5 0.000000 0.000000 0.000000 0.000000 0.025351 0.000000
# 6 0.000000 0.000000 0.000000 0.000000 0.000000 0.041309
#
#
# Mechanical properties :
#
#
# Convention : Reuss Voigt Hill
#
# Bulk Modulus (GPa) = 6.42650 67.77618 37.10134
# Shear Modulus (GPa) = 11.35260 38.59953 24.97607
#
# Velocity S-wave (km/s) = 2.41772 4.45809 3.58608
# Velocity P-wave (km/s) = 3.33208 7.83561 6.02078
#
# Compressibility (1/GPa) = 0.15560569
#
# Stress axis : x y z
#
# Youngs Moduli (GPa) = 4.74375 101.76280 110.25276
#
# Poissons Ratio (x) = 1.35380 2.32165
# Poissons Ratio (y) = 0.06311 0.29618
# Poissons Ratio (z) = 0.09989 0.27338
#
# Static dielectric constant tensor:
#      x y z
#    x 1.670270 0.000000 0.000000 
#    y 0.000000 1.654980 0.000000 
#    z 0.000000 0.000000 1.670360 
# 
# From -- ./inp_files/38251.got.cif
#   From: 2010.05.17/outbox.cif.g08.bks.cpg/sg53_20_cif.got.tgz:38251.got - 2010.06.03 12:45:16.
