data_PCOD9417455
_publ_section_title
;
Structure prediction by ZEFSAII (Michael W. Deem and Ramdas Pophale) SiO2 
 PCOD9417455
Probable space group: P M N A
;
_chemical_formula_sum "Si O2"
_cell_formula_units_Z 48
_cell_length_a 13.946763
_cell_length_b 14.954071
_cell_length_c 12.542527
_cell_angle_alpha 90.000000
_cell_angle_beta 90.000000
_cell_angle_gamma 90.000000
_cell_volume 2615.880520
_symmetry_space_group_name_H-M "P M N A"
_symmetry_group_IT_number 53
_symmetry_cell_setting 'orthorhombic'
loop_
_space_group_symop_operation_xyz
x,y,z
1/2-x,-y,1/2+z
x,-y,-z
1/2-x,y,1/2-z
-x,-y,-z
1/2+x,y,1/2-z
-x,y,z
1/2+x,-y,1/2+z
loop_
_atom_site_type_symbol
_atom_site_label
_atom_site_fract_x
_atom_site_fract_y
_atom_site_fract_z
Si Si1 0.607201 0.891567 0.813268
Si Si2 0.390961 0.267727 0.484762
Si Si3 0.689629 0.435246 0.594475
Si Si4 0.606799 0.490441 0.821815
Si Si5 0.692356 0.079516 0.419143
Si Si6 0.635964 0.688444 0.757019
O O1 0.500000 0.921676 0.841646
O O2 0.695035 0.920044 0.888219
O O3 0.635018 0.923369 0.693319
O O4 0.607416 0.782962 0.807838
O O5 0.500000 0.255346 0.522696
O O6 0.333279 0.335109 0.559270
O O7 0.337887 0.173650 0.470886
O O8 0.396387 0.309979 0.365827
O O9 0.656338 0.500000 0.500000
O O10 0.632857 0.460286 0.701478
O O11 0.802767 0.453655 0.612358
O O12 0.500000 0.460542 0.853400
O O13 0.607754 0.598666 0.818082
O O14 0.670007 0.000000 0.500000
O O15 0.750000 0.687892 0.750000
#
# Coordination Sequence:
#
# PCOD9417455 Si02
#       6
#     8   8   8   8   8   8
#     4  10  20  35  58  86 118 146 182 237 294 341
#     4  11  21  35  58  83 110 146 189 234 283 336
#     4  11  22  36  54  81 115 149 190 233 275 337
#     4  11  22  35  54  80 117 157 194 233 281 334
#     4  10  21  38  60  87 115 144 189 239 287 339
#     4  11  16  33  55  83 112 142 183 238 288 323
#
# _framework density 18.349463
#
# number of rings (size 3 to 8) (size 9 to 14) (size 15 to 20)
#    0.000    1.333    6.667    3.500    0.000    2.667 
#    0.000    4.167    0.000    2.000    0.000    0.000 
#    0.000    0.000    0.000    0.000    0.000    0.000 
#
# Total GULP energy -267921.945177 kJ/mol
# GULP energy per Si atom -5581.707191 kJ/mol
# Density = 1.830770 g / cm^3
# Si number density = 18.349463 Si / 1000 Ang^3
#
#
#
# Elastic Constant Matrix: (Units=GPa)
#
#
# Indices 1 2 3 4 5 6 
#
# 1 134.3053 32.6336 8.8139 0.0000 0.0000 0.0000
# 2 32.6336 94.5906 39.1138 0.0000 0.0000 0.0000
# 3 8.8139 39.1138 47.6608 0.0000 0.0000 0.0000
# 4 0.0000 0.0000 0.0000 27.4133 0.0000 0.0000
# 5 0.0000 0.0000 0.0000 0.0000 -18.1191 0.0000
# 6 0.0000 0.0000 0.0000 0.0000 0.0000 8.6733
#
#
#
# Elastic Compliance Matrix: (Units=1/GPa)
#
#
# Indices 1 2 3 4 5 6 
#
# 1 0.008173 -0.003322 0.001215 0.000000 0.000000 0.000000
# 2 -0.003322 0.017353 -0.013626 0.000000 0.000000 0.000000
# 3 0.001215 -0.013626 0.031940 0.000000 0.000000 0.000000
# 4 0.000000 0.000000 0.000000 0.036479 0.000000 0.000000
# 5 0.000000 0.000000 0.000000 0.000000 -0.055190 0.000000
# 6 0.000000 0.000000 0.000000 0.000000 0.000000 0.115296
#
#
# Mechanical properties :
#
#
# Convention : Reuss Voigt Hill
#
# Bulk Modulus (GPa) = 38.46410 48.63104 43.54757
# Shear Modulus (GPa) = 25.74884 16.65986 21.20435
#
# Velocity S-wave (km/s) = 3.75006 3.01644 3.40308
# Velocity P-wave (km/s) = 6.30540 6.22030 6.26299
#
# Compressibility (1/GPa) = 0.02599827
#
# Stress axis : x y z
#
# Youngs Moduli (GPa) = 122.35105 57.62827 31.30899
#
# Poissons Ratio (x) = 0.19145 -0.03804
# Poissons Ratio (y) = 0.40646 0.42663
# Poissons Ratio (z) = -0.14864 0.78527
#
# Static dielectric constant tensor:
#      x y z
#    x 2.298710 0.000000 0.000000 
#    y 0.000000 1.614650 0.000000 
#    z 0.000000 0.000000 1.633360 
# 
# From -- ./inp_files/15942.got.cif
#   From: 2010.05.17/outbox.cif.g08.bks.cpg/sg53_8_cif.got.tgz:15942.got - 2010.06.03 12:45:16.
