data_PCOD9417617
_publ_section_title
;
Structure prediction by ZEFSAII (Michael W. Deem and Ramdas Pophale) SiO2 
 PCOD9417617
Probable space group: P M N A
;
_chemical_formula_sum "Si O2"
_cell_formula_units_Z 48
_cell_length_a 15.392836
_cell_length_b 16.749417
_cell_length_c 7.115202
_cell_angle_alpha 90.000000
_cell_angle_beta 90.000000
_cell_angle_gamma 90.000000
_cell_volume 1834.448701
_symmetry_space_group_name_H-M "P M N A"
_symmetry_group_IT_number 53
_symmetry_cell_setting 'orthorhombic'
loop_
_space_group_symop_operation_xyz
x,y,z
1/2-x,-y,1/2+z
x,-y,-z
1/2-x,y,1/2-z
-x,-y,-z
1/2+x,y,1/2-z
-x,y,z
1/2+x,-y,1/2+z
loop_
_atom_site_type_symbol
_atom_site_label
_atom_site_fract_x
_atom_site_fract_y
_atom_site_fract_z
Si Si1 0.158846 0.727394 0.353873
Si Si2 0.146219 0.933413 0.736398
Si Si3 0.598541 0.436192 0.730155
Si Si4 0.597895 0.231923 0.239470
Si Si5 0.145528 0.895752 0.295091
Si Si6 0.343264 0.601991 0.661889
O O1 0.250000 0.718124 0.250000
O O2 0.113216 0.641308 0.357671
O O3 0.166156 0.755562 0.569402
O O4 0.113202 0.805458 0.261186
O O5 0.250000 0.936941 0.750000
O O6 0.115493 0.852719 0.837731
O O7 0.127931 0.915103 0.516112
O O8 0.113457 0.021073 0.794637
O O9 0.500000 0.431488 0.659879
O O10 0.662525 0.423003 0.555097
O O11 0.613080 0.529126 0.779015
O O12 0.500000 0.228415 0.161668
O O13 0.606721 0.314295 0.349148
O O14 0.250000 0.891919 0.250000
O O15 0.250000 0.612961 0.750000
#
# Coordination Sequence:
#
# PCOD9417617 Si02
#       6
#     8   8   8   8   8   8
#     4  10  20  36  57  82 111 147 189 228 267 322
#     4   9  17  32  53  78 107 144 184 224 270 322
#     4  11  23  41  60  83 113 146 179 224 279 329
#     4  11  22  36  54  84 116 144 179 228 278 322
#     4   8  16  31  52  79 107 139 184 230 266 313
#     4  11  23  40  61  82 107 144 185 224 267 328
#
# _framework density 26.165901000000002
#
# number of rings (size 3 to 8) (size 9 to 14) (size 15 to 20)
#    0.000    2.000    0.000    4.500    0.000    4.667 
#    0.000    9.167    0.000    0.000    0.000   11.667 
#    0.000    0.000    0.000    0.000    0.000    0.000 
#
# Total GULP energy -267944.853311 kJ/mol
# GULP energy per Si atom -5582.184444 kJ/mol
# Density = 2.610635 g / cm^3
# Si number density = 26.165901 Si / 1000 Ang^3
#
#
#
# Elastic Constant Matrix: (Units=GPa)
#
#
# Indices 1 2 3 4 5 6 
#
# 1 75.6356 21.6307 -9.3233 0.0000 0.0000 0.0000
# 2 21.6307 326.1353 24.2094 0.0000 0.0000 0.0000
# 3 -9.3233 24.2094 39.1580 0.0000 0.0000 0.0000
# 4 0.0000 0.0000 0.0000 30.0679 0.0000 0.0000
# 5 0.0000 0.0000 0.0000 0.0000 10.3297 0.0000
# 6 0.0000 0.0000 0.0000 0.0000 0.0000 49.6561
#
#
#
# Elastic Compliance Matrix: (Units=1/GPa)
#
#
# Indices 1 2 3 4 5 6 
#
# 1 0.014084 -0.001240 0.004120 0.000000 0.000000 0.000000
# 2 -0.001240 0.003323 -0.002350 0.000000 0.000000 0.000000
# 3 0.004120 -0.002350 0.027971 0.000000 0.000000 0.000000
# 4 0.000000 0.000000 0.000000 0.033258 0.000000 0.000000
# 5 0.000000 0.000000 0.000000 0.000000 0.096808 0.000000
# 6 0.000000 0.000000 0.000000 0.000000 0.000000 0.020139
#
#
# Mechanical properties :
#
#
# Convention : Reuss Voigt Hill
#
# Bulk Modulus (GPa) = 21.53394 57.10696 39.32045
# Shear Modulus (GPa) = 23.80939 44.97155 34.39047
#
# Velocity S-wave (km/s) = 3.01979 4.15023 3.62929
# Velocity P-wave (km/s) = 4.51736 6.69613 5.71160
#
# Compressibility (1/GPa) = 0.04643832
#
# Stress axis : x y z
#
# Youngs Moduli (GPa) = 71.00402 300.94566 35.75120
#
# Poissons Ratio (x) = 0.37315 -0.14729
# Poissons Ratio (y) = 0.08804 0.08400
# Poissons Ratio (z) = -0.29252 0.70709
#
# Static dielectric constant tensor:
#      x y z
#    x 2.000350 0.000000 0.000000 
#    y 0.000000 2.192550 0.000000 
#    z 0.000000 0.000000 2.182010 
# 
# From -- ./inp_files/9942.got.cif
#   From: 2010.05.17/outbox.cif.g08.bks.cpg/sg53_5_cif.got.tgz:9942.got - 2010.06.03 12:45:16.
