data_PCOD9417412
_publ_section_title
;
Structure prediction by ZEFSAII (Michael W. Deem and Ramdas Pophale) SiO2 
 PCOD9417412
Probable space group: P M N A
;
_chemical_formula_sum "Si O2"
_cell_formula_units_Z 40
_cell_length_a 8.727573
_cell_length_b 26.310934
_cell_length_c 9.314639
_cell_angle_alpha 90.000000
_cell_angle_beta 90.000000
_cell_angle_gamma 90.000000
_cell_volume 2138.926116
_symmetry_space_group_name_H-M "P M N A"
_symmetry_group_IT_number 53
_symmetry_cell_setting 'orthorhombic'
loop_
_space_group_symop_operation_xyz
x,y,z
1/2-x,-y,1/2+z
x,-y,-z
1/2-x,y,1/2-z
-x,-y,-z
1/2+x,y,1/2-z
-x,y,z
1/2+x,-y,1/2+z
loop_
_atom_site_type_symbol
_atom_site_label
_atom_site_fract_x
_atom_site_fract_y
_atom_site_fract_z
Si Si1 0.316260 0.256044 0.090694
Si Si2 0.816240 0.355675 0.590126
Si Si3 0.183703 0.449388 0.089885
Si Si4 0.184173 0.147613 0.090575
Si Si5 0.315169 0.950902 0.409016
O O1 0.250000 0.265952 0.250000
O O2 0.500000 0.252199 0.100820
O O3 0.248485 0.202065 0.041314
O O4 0.276465 0.302151 0.985361
O O5 0.750000 0.358532 0.750000
O O6 0.750210 0.400969 0.493411
O O7 0.000000 0.359822 0.595340
O O8 0.250000 0.452307 0.250000
O O9 0.000000 0.445427 0.097236
O O10 0.223126 0.500000 0.000000
O O11 0.250000 0.138950 0.250000
O O12 0.000000 0.149978 0.097975
O O13 0.230077 0.101028 0.989175
O O14 0.250000 0.952957 0.250000
O O15 0.500000 0.951825 0.402550
O O16 0.264799 0.000000 0.500000
#
# Coordination Sequence:
#
# PCOD9417412 Si02
#       5
#     8   8   8   8   8
#     4  10  21  37  58  84 113 148 189 232 281 335
#     4  11  24  40  60  86 117 154 194 238 287 338
#     4  11  24  41  63  90 120 154 192 236 285 339
#     4  10  20  35  57  83 111 145 185 229 278 333
#     4  10  22  38  56  81 111 144 184 228 276 331
#
# _framework density 18.700973000000001
#
# number of rings (size 3 to 8) (size 9 to 14) (size 15 to 20)
#    0.000    1.600    0.000    5.400    0.000   10.800 
#    0.000    4.000    0.000    0.000    0.000    0.000 
#    0.000    0.000    0.000    0.000    0.000    0.000 
#
# Total GULP energy -223630.699925 kJ/mol
# GULP energy per Si atom -5590.767498 kJ/mol
# Density = 1.865841 g / cm^3
# Si number density = 18.700973 Si / 1000 Ang^3
#
#
#
# Elastic Constant Matrix: (Units=GPa)
#
#
# Indices 1 2 3 4 5 6 
#
# 1 54.1591 69.9546 57.2358 0.0000 0.0000 0.0000
# 2 69.9546 203.0318 139.5176 0.0000 0.0000 0.0000
# 3 57.2358 139.5176 172.5009 0.0000 0.0000 0.0000
# 4 0.0000 0.0000 0.0000 39.2401 0.0000 0.0000
# 5 0.0000 0.0000 0.0000 0.0000 33.3035 0.0000
# 6 0.0000 0.0000 0.0000 0.0000 0.0000 201.9354
#
#
#
# Elastic Compliance Matrix: (Units=1/GPa)
#
#
# Indices 1 2 3 4 5 6 
#
# 1 0.034530 -0.009059 -0.004130 0.000000 0.000000 0.000000
# 2 -0.009059 0.013464 -0.007884 0.000000 0.000000 0.000000
# 3 -0.004130 -0.007884 0.013544 0.000000 0.000000 0.000000
# 4 0.000000 0.000000 0.000000 0.025484 0.000000 0.000000
# 5 0.000000 0.000000 0.000000 0.000000 0.030027 0.000000
# 6 0.000000 0.000000 0.000000 0.000000 0.000000 0.004952
#
#
# Mechanical properties :
#
#
# Convention : Reuss Voigt Hill
#
# Bulk Modulus (GPa) = 51.56807 107.01198 79.29003
# Shear Modulus (GPa) = 29.30619 65.76140 47.53379
#
# Velocity S-wave (km/s) = 3.96295 5.93642 5.04708
# Velocity P-wave (km/s) = 6.96957 10.21445 8.74385
#
# Compressibility (1/GPa) = 0.01939184
#
# Stress axis : x y z
#
# Youngs Moduli (GPa) = 28.96011 74.26973 73.83371
#
# Poissons Ratio (x) = 0.67284 0.30493
# Poissons Ratio (y) = 0.26236 0.58211
# Poissons Ratio (z) = 0.11960 0.58555
#
# Static dielectric constant tensor:
#      x y z
#    x 1.630610 0.000000 0.000000 
#    y 0.000000 1.639460 0.000000 
#    z 0.000000 0.000000 1.600190 
# 
# From -- ./inp_files/6305.got.cif
#   From: 2010.05.17/outbox.cif.g08.bks.cpg/sg53_4_cif.got.tgz:6305.got - 2010.06.03 12:45:16.
