data_PCOD9417009
_publ_section_title
;
Structure prediction by ZEFSAII (Michael W. Deem and Ramdas Pophale) SiO2 
 PCOD9417009
Probable space group: P M N A
;
_chemical_formula_sum "Si O2"
_cell_formula_units_Z 64
_cell_length_a 8.658333
_cell_length_b 28.002501
_cell_length_c 15.240426
_cell_angle_alpha 90.000000
_cell_angle_beta 90.000000
_cell_angle_gamma 90.000000
_cell_volume 3695.117158
_symmetry_space_group_name_H-M "P M N A"
_symmetry_group_IT_number 53
_symmetry_cell_setting 'orthorhombic'
loop_
_space_group_symop_operation_xyz
x,y,z
1/2-x,-y,1/2+z
x,-y,-z
1/2-x,y,1/2-z
-x,-y,-z
1/2+x,y,1/2-z
-x,y,z
1/2+x,-y,1/2+z
loop_
_atom_site_type_symbol
_atom_site_label
_atom_site_fract_x
_atom_site_fract_y
_atom_site_fract_z
Si Si1 0.815066 0.967785 0.154718
Si Si2 0.188542 0.616344 0.026714
Si Si3 0.185411 0.189975 0.845752
Si Si4 0.686136 0.699303 0.345044
Si Si5 0.316165 0.110870 0.974039
Si Si6 0.813700 0.421570 0.155270
Si Si7 0.184578 0.919840 0.844928
Si Si8 0.313788 0.468165 0.654807
O O1 0.750000 0.953159 0.250000
O O2 0.744123 0.935452 0.078928
O O3 0.000000 0.962514 0.154222
O O4 0.776988 0.023760 0.142804
O O5 0.239246 0.663195 0.079383
O O6 0.236186 0.569479 0.081598
O O7 0.000000 0.616704 0.026028
O O8 0.238888 0.610376 0.926421
O O9 0.250000 0.175987 0.750000
O O10 0.229715 0.245471 0.860368
O O11 0.252124 0.155944 0.920253
O O12 0.000000 0.186323 0.844387
O O13 0.750000 0.684662 0.250000
O O14 0.500000 0.697338 0.341195
O O15 0.500000 0.111271 0.973845
O O16 0.254149 0.108140 0.073018
O O17 0.750000 0.407570 0.250000
O O18 0.767355 0.476918 0.137931
O O19 0.000000 0.420673 0.158672
O O20 0.250000 0.905465 0.750000
O O21 0.000000 0.915578 0.844772
O O22 0.250000 0.454283 0.750000
O O23 0.500000 0.467186 0.657550
#
# Coordination Sequence:
#
# PCOD9417009 Si02
#       8
#     8   8   8   8   8   8   8   8
#     4  10  20  34  52  76 107 139 170 205 245 291
#     4   9  16  28  47  68  90 121 160 193 231 286
#     4  10  20  35  53  74 100 127 158 198 248 301
#     4   9  18  32  51  73  96 123 153 192 241 291
#     4  12  23  34  52  76 102 134 171 208 247 292
#     4   9  17  29  44  63  91 125 159 194 230 273
#     4  10  21  37  55  76 104 137 171 207 246 288
#     4   9  16  26  42  65  93 124 155 189 230 278
#
# _framework density 17.320156000000001
#
# number of rings (size 3 to 8) (size 9 to 14) (size 15 to 20)
#    0.000    2.250    0.000    3.750    0.000    5.000 
#    0.000    1.250    0.000    3.750    0.000    1.750 
#    0.000    0.000    0.000    0.000    0.000    0.000 
#
# Total GULP energy -357246.262195 kJ/mol
# GULP energy per Si atom -5581.972847 kJ/mol
# Density = 1.728073 g / cm^3
# Si number density = 17.320156 Si / 1000 Ang^3
#
#
#
# Elastic Constant Matrix: (Units=GPa)
#
#
# Indices 1 2 3 4 5 6 
#
# 1 33.1061 28.0020 41.5874 0.0000 0.0000 0.0000
# 2 28.0020 74.5763 86.4528 0.0000 0.0000 0.0000
# 3 41.5874 86.4528 179.3177 0.0000 0.0000 0.0000
# 4 0.0000 0.0000 0.0000 28.5258 0.0000 0.0000
# 5 0.0000 0.0000 0.0000 0.0000 31.0860 0.0000
# 6 0.0000 0.0000 0.0000 0.0000 0.0000 13.8593
#
#
#
# Elastic Compliance Matrix: (Units=1/GPa)
#
#
# Indices 1 2 3 4 5 6 
#
# 1 0.046428 -0.011223 -0.005357 0.000000 0.000000 0.000000
# 2 -0.011223 0.033112 -0.013361 0.000000 0.000000 0.000000
# 3 -0.005357 -0.013361 0.013261 0.000000 0.000000 0.000000
# 4 0.000000 0.000000 0.000000 0.035056 0.000000 0.000000
# 5 0.000000 0.000000 0.000000 0.000000 0.032169 0.000000
# 6 0.000000 0.000000 0.000000 0.000000 0.000000 0.072154
#
#
# Mechanical properties :
#
#
# Convention : Reuss Voigt Hill
#
# Bulk Modulus (GPa) = 30.37784 66.56495 48.47140
# Shear Modulus (GPa) = 16.49982 23.42475 19.96228
#
# Velocity S-wave (km/s) = 3.08983 3.68156 3.39860
# Velocity P-wave (km/s) = 5.50513 7.52246 6.59143
#
# Compressibility (1/GPa) = 0.03291873
#
# Stress axis : x y z
#
# Youngs Moduli (GPa) = 21.53893 30.20043 75.41069
#
# Poissons Ratio (x) = 0.33894 0.40395
# Poissons Ratio (y) = 0.24173 1.00758
# Poissons Ratio (z) = 0.11538 0.40351
#
# Static dielectric constant tensor:
#      x y z
#    x 1.584910 0.000000 0.000000 
#    y 0.000000 1.589750 0.000000 
#    z 0.000000 0.000000 1.573990 
# 
# From -- ./inp_files/20941.got.cif
#   From: 2010.05.17/outbox.cif.g08.bks.cpg/sg53_11_cif.got.tgz:20941.got - 2010.06.03 12:45:16.
