data_PCOD9417948
_publ_section_title
;
Structure prediction by ZEFSAII (Michael W. Deem and Ramdas Pophale) SiO2 
 PCOD9417948
Probable space group: P M N A
;
_chemical_formula_sum "Si O2"
_cell_formula_units_Z 56
_cell_length_a 8.147950
_cell_length_b 15.166989
_cell_length_c 22.821045
_cell_angle_alpha 90.000000
_cell_angle_beta 90.000000
_cell_angle_gamma 90.000000
_cell_volume 2820.221729
_symmetry_space_group_name_H-M "P M N A"
_symmetry_group_IT_number 53
_symmetry_cell_setting 'orthorhombic'
loop_
_space_group_symop_operation_xyz
x,y,z
1/2-x,-y,1/2+z
x,-y,-z
1/2-x,y,1/2-z
-x,-y,-z
1/2+x,y,1/2-z
-x,y,z
1/2+x,-y,1/2+z
loop_
_atom_site_type_symbol
_atom_site_label
_atom_site_fract_x
_atom_site_fract_y
_atom_site_fract_z
Si Si1 0.303252 0.192687 0.186575
Si Si2 0.808296 0.102904 0.557532
Si Si3 0.801996 0.421578 0.686758
Si Si4 0.192763 0.614771 0.657218
Si Si5 0.689009 0.910114 0.571302
Si Si6 0.199138 0.704609 0.418626
Si Si7 0.805998 0.406093 0.027320
O O1 0.250000 0.157259 0.250000
O O2 0.500000 0.194891 0.184129
O O3 0.236894 0.293384 0.180785
O O4 0.243790 0.137677 0.130529
O O5 0.788138 0.115554 0.487317
O O6 0.754512 0.193331 0.587944
O O7 0.000000 0.086979 0.569928
O O8 0.711551 0.015636 0.575716
O O9 0.750000 0.387636 0.750000
O O10 0.736523 0.521698 0.679353
O O11 0.746167 0.358800 0.634066
O O12 0.000000 0.424748 0.683443
O O13 0.213405 0.613535 0.587255
O O14 0.000000 0.614425 0.672100
O O15 0.500000 0.888619 0.559831
O O16 0.270442 0.666648 0.478646
O O17 0.000000 0.701292 0.422291
O O18 0.000000 0.410810 0.039935
O O19 0.753356 0.500000 0.000000
#
# Coordination Sequence:
#
# PCOD9417948 Si02
#       7
#     8   8   8   8   8   8   8
#     4  11  23  39  59  86 116 153 195 238 287 342
#     4  10  20  37  62  89 114 146 188 237 287 344
#     4  10  21  37  55  77 106 145 188 227 268 322
#     4  10  21  37  58  80 111 152 190 228 279 337
#     4  11  22  38  60  87 117 150 184 232 291 348
#     4  10  21  37  58  81 111 149 187 227 279 335
#     4  11  22  33  51  83 116 147 186 234 282 325
#
# _framework density 19.856596
#
# number of rings (size 3 to 8) (size 9 to 14) (size 15 to 20)
#    0.000    1.571    1.429    4.714    0.000    7.429 
#    0.000    0.714    0.000    1.714    0.000    0.000 
#    0.000    0.000    0.000    0.000    0.000    0.000 
#
# Total GULP energy -312920.410182 kJ/mol
# GULP energy per Si atom -5587.864468 kJ/mol
# Density = 1.981140 g / cm^3
# Si number density = 19.856596 Si / 1000 Ang^3
#
#
#
# Elastic Constant Matrix: (Units=GPa)
#
#
# Indices 1 2 3 4 5 6 
#
# 1 19.3049 3.7468 -12.7207 0.0000 0.0000 0.0000
# 2 3.7468 93.4044 31.5691 0.0000 0.0000 0.0000
# 3 -12.7207 31.5691 78.5393 0.0000 0.0000 0.0000
# 4 0.0000 0.0000 0.0000 10.5708 0.0000 0.0000
# 5 0.0000 0.0000 0.0000 0.0000 25.5911 0.0000
# 6 0.0000 0.0000 0.0000 0.0000 0.0000 -18.7871
#
#
#
# Elastic Compliance Matrix: (Units=1/GPa)
#
#
# Indices 1 2 3 4 5 6 
#
# 1 0.061455 -0.006746 0.012665 0.000000 0.000000 0.000000
# 2 -0.006746 0.013130 -0.006370 0.000000 0.000000 0.000000
# 3 0.012665 -0.006370 0.017344 0.000000 0.000000 0.000000
# 4 0.000000 0.000000 0.000000 0.094600 0.000000 0.000000
# 5 0.000000 0.000000 0.000000 0.000000 0.039076 0.000000
# 6 0.000000 0.000000 0.000000 0.000000 0.000000 -0.053228
#
#
# Mechanical properties :
#
#
# Convention : Reuss Voigt Hill
#
# Bulk Modulus (GPa) = 10.98571 26.27102 18.62836
# Shear Modulus (GPa) = 24.55535 14.71852 19.63693
#
# Velocity S-wave (km/s) = 3.52040 2.72553 3.14815
# Velocity P-wave (km/s) = 4.69774 4.81287 4.75566
#
# Compressibility (1/GPa) = 0.09102737
#
# Stress axis : x y z
#
# Youngs Moduli (GPa) = 16.27207 76.16301 57.65589
#
# Poissons Ratio (x) = 0.51378 -0.73022
# Poissons Ratio (y) = 0.10977 0.36728
# Poissons Ratio (z) = -0.20609 0.48517
#
# Static dielectric constant tensor:
#      x y z
#    x 1.684240 0.000000 0.000000 
#    y 0.000000 1.722830 0.000000 
#    z 0.000000 0.000000 1.661940 
# 
# From -- ./inp_files/30818.got.cif
#   From: 2010.05.17/outbox.cif.g08.bks.cpg/sg53_16_cif.got.tgz:30818.got - 2010.06.03 12:45:16.
