data_PCOD9417202
_publ_section_title
;
Structure prediction by ZEFSAII (Michael W. Deem and Ramdas Pophale) SiO2 
 PCOD9417202
Probable space group: P M N A
;
_chemical_formula_sum "Si O2"
_cell_formula_units_Z 64
_cell_length_a 19.928663
_cell_length_b 11.620434
_cell_length_c 14.388673
_cell_angle_alpha 90.000000
_cell_angle_beta 90.000000
_cell_angle_gamma 90.000000
_cell_volume 3332.124765
_symmetry_space_group_name_H-M "P M N A"
_symmetry_group_IT_number 53
_symmetry_cell_setting 'orthorhombic'
loop_
_space_group_symop_operation_xyz
x,y,z
1/2-x,-y,1/2+z
x,-y,-z
1/2-x,y,1/2-z
-x,-y,-z
1/2+x,y,1/2-z
-x,y,z
1/2+x,-y,1/2+z
loop_
_atom_site_type_symbol
_atom_site_label
_atom_site_fract_x
_atom_site_fract_y
_atom_site_fract_z
Si Si1 0.788289 0.225165 0.152682
Si Si2 0.577437 0.573665 0.234764
Si Si3 0.847062 0.452210 0.106108
Si Si4 0.793856 0.045492 0.843400
Si Si5 0.703331 0.455812 0.894947
Si Si6 0.426217 0.112238 0.936224
Si Si7 0.575892 0.846614 0.271754
Si Si8 0.788200 0.212708 0.534254
O O1 0.750000 0.246111 0.250000
O O2 0.847062 0.315205 0.126243
O O3 0.807890 0.090422 0.150222
O O4 0.736595 0.238946 0.068112
O O5 0.500000 0.547942 0.208989
O O6 0.597840 0.515016 0.331884
O O7 0.635530 0.533540 0.163800
O O8 0.582773 0.711742 0.247199
O O9 0.771217 0.483582 0.139343
O O10 0.851297 0.500000 0.000000
O O11 0.750000 0.063997 0.750000
O O12 0.863941 0.112643 0.836194
O O13 0.749209 0.101495 0.924580
O O14 0.724442 0.321843 0.900687
O O15 0.691104 0.500000 0.000000
O O16 0.500000 0.165098 0.945094
O O17 0.416702 0.086813 0.826912
O O18 0.367134 0.193932 0.966511
O O19 0.423192 0.000000 0.000000
O O20 0.500000 0.865411 0.306803
#
# Coordination Sequence:
#
# PCOD9417202 Si02
#       8
#     8   8   8   8   8   8   8   8
#     4  11  24  39  61  90 126 156 201 260 314 362
#     4  11  23  40  64  91 125 165 210 261 303 370
#     4  11  23  43  65  89 119 164 210 257 313 367
#     4  11  21  36  62  96 122 161 204 260 303 365
#     4  11  21  37  64  92 122 161 205 256 314 361
#     4  10  20  34  56  89 130 165 198 245 305 376
#     4  10  21  38  58  89 126 162 203 251 311 367
#     4  12  21  38  63  92 124 161 206 252 306 368
#
# _framework density 19.206963999999999
#
# number of rings (size 3 to 8) (size 9 to 14) (size 15 to 20)
#    0.000    1.125    5.000    3.000    1.750    0.500 
#    0.000    0.625    0.000    1.500    0.000    0.000 
#    0.000    0.000    0.000    0.000    0.000    0.000 
#
# Total GULP energy -357165.929217 kJ/mol
# GULP energy per Si atom -5580.717644 kJ/mol
# Density = 1.916325 g / cm^3
# Si number density = 19.206964 Si / 1000 Ang^3
#
#
#
# Elastic Constant Matrix: (Units=GPa)
#
#
# Indices 1 2 3 4 5 6 
#
# 1 86.1125 9.1179 7.1781 0.0000 0.0000 0.0000
# 2 9.1179 77.1631 13.1074 0.0000 0.0000 0.0000
# 3 7.1781 13.1074 64.8780 0.0000 0.0000 0.0000
# 4 0.0000 0.0000 0.0000 26.6520 0.0000 0.0000
# 5 0.0000 0.0000 0.0000 0.0000 22.1368 0.0000
# 6 0.0000 0.0000 0.0000 0.0000 0.0000 -43.6853
#
#
#
# Elastic Compliance Matrix: (Units=1/GPa)
#
#
# Indices 1 2 3 4 5 6 
#
# 1 0.011830 -0.001217 -0.001063 0.000000 0.000000 0.000000
# 2 -0.001217 0.013545 -0.002602 0.000000 0.000000 0.000000
# 3 -0.001063 -0.002602 0.016057 0.000000 0.000000 0.000000
# 4 0.000000 0.000000 0.000000 0.037521 0.000000 0.000000
# 5 0.000000 0.000000 0.000000 0.000000 0.045174 0.000000
# 6 0.000000 0.000000 0.000000 0.000000 0.000000 -0.022891
#
#
# Mechanical properties :
#
#
# Convention : Reuss Voigt Hill
#
# Bulk Modulus (GPa) = 31.57762 31.88449 31.73105
# Shear Modulus (GPa) = 41.13325 14.27071 27.70198
#
# Velocity S-wave (km/s) = 4.63274 2.72875 3.80187
# Velocity P-wave (km/s) = 6.71512 5.15409 5.98571
#
# Compressibility (1/GPa) = 0.03166800
#
# Stress axis : x y z
#
# Youngs Moduli (GPa) = 84.52927 73.82592 62.27888
#
# Poissons Ratio (x) = 0.08987 0.06620
# Poissons Ratio (y) = 0.10290 0.16204
# Poissons Ratio (z) = 0.08985 0.19209
#
# Static dielectric constant tensor:
#      x y z
#    x 1.649010 0.000000 0.000000 
#    y 0.000000 1.733470 0.000000 
#    z 0.000000 0.000000 1.695730 
# 
# From -- ./inp_files/23898.got.cif
#   From: 2010.05.17/outbox.cif.g08.bks.cpg/sg53_12_cif.got.tgz:23898.got - 2010.06.03 12:45:16.
