data_PCOD9417305
_publ_section_title
;
Structure prediction by ZEFSAII (Michael W. Deem and Ramdas Pophale) SiO2 
 PCOD9417305
Probable space group: P M N A
;
_chemical_formula_sum "Si O2"
_cell_formula_units_Z 64
_cell_length_a 8.285820
_cell_length_b 15.611154
_cell_length_c 25.268564
_cell_angle_alpha 90.000000
_cell_angle_beta 90.000000
_cell_angle_gamma 90.000000
_cell_volume 3268.519380
_symmetry_space_group_name_H-M "P M N A"
_symmetry_group_IT_number 53
_symmetry_cell_setting 'orthorhombic'
loop_
_space_group_symop_operation_xyz
x,y,z
1/2-x,-y,1/2+z
x,-y,-z
1/2-x,y,1/2-z
-x,-y,-z
1/2+x,y,1/2-z
-x,y,z
1/2+x,-y,1/2+z
loop_
_atom_site_type_symbol
_atom_site_label
_atom_site_fract_x
_atom_site_fract_y
_atom_site_fract_z
Si Si1 0.309506 0.288564 0.112618
Si Si2 0.308419 0.226658 0.490171
Si Si3 0.306031 0.141348 0.307378
Si Si4 0.821243 0.051795 0.446100
Si Si5 0.302260 0.219343 0.612783
Si Si6 0.805958 0.564817 0.809415
Si Si7 0.305542 0.368636 0.691030
Si Si8 0.815623 0.034891 0.850058
O O1 0.500000 0.281957 0.105795
O O2 0.229511 0.297265 0.054447
O O3 0.251498 0.205118 0.146344
O O4 0.265402 0.369376 0.148822
O O5 0.500000 0.212362 0.491256
O O6 0.221141 0.146225 0.463765
O O7 0.254298 0.232516 0.551337
O O8 0.250000 0.172965 0.250000
O O9 0.500000 0.139391 0.309624
O O10 0.244530 0.042914 0.315078
O O11 0.000000 0.047014 0.421269
O O12 0.823811 0.000000 0.500000
O O13 0.692350 0.009915 0.407478
O O14 0.500000 0.215721 0.612837
O O15 0.249862 0.299171 0.648436
O O16 0.244756 0.129423 0.639047
O O17 0.750000 0.586723 0.750000
O O18 0.753467 0.466443 0.819686
O O19 0.000000 0.569202 0.811470
O O20 0.250000 0.345352 0.750000
O O21 0.500000 0.368462 0.690302
O O22 0.000000 0.047920 0.832264
#
# Coordination Sequence:
#
# PCOD9417305 Si02
#       8
#     8   8   8   8   8   8   8   8
#     4  12  24  38  57  82 115 148 184 236 289 343
#     4  11  21  35  57  82 112 152 194 232 278 337
#     4  11  23  37  54  78 112 152 193 235 283 340
#     4  11  21  32  50  78 111 145 188 237 279 322
#     4   9  19  36  59  86 114 149 193 234 275 331
#     4  10  20  37  62  88 113 144 186 234 283 339
#     4   9  19  38  63  89 115 144 184 234 283 333
#     4  10  20  35  55  77 106 149 194 232 273 329
#
# _framework density 19.580731
#
# number of rings (size 3 to 8) (size 9 to 14) (size 15 to 20)
#    0.000    1.625    2.500    3.000    0.000    2.000 
#    0.000    2.500    0.000    3.750    0.000    0.000 
#    0.000    0.000    0.000    0.000    0.000    0.000 
#
# Total GULP energy -356993.778376 kJ/mol
# GULP energy per Si atom -5578.027787 kJ/mol
# Density = 1.953616 g / cm^3
# Si number density = 19.580731 Si / 1000 Ang^3
#
#
#
# Elastic Constant Matrix: (Units=GPa)
#
#
# Indices 1 2 3 4 5 6 
#
# 1 34.5387 -0.2400 2.7786 0.0000 0.0000 0.0000
# 2 -0.2400 99.8187 57.5294 0.0000 0.0000 0.0000
# 3 2.7786 57.5294 91.6469 0.0000 0.0000 0.0000
# 4 0.0000 0.0000 0.0000 33.5123 0.0000 0.0000
# 5 0.0000 0.0000 0.0000 0.0000 15.7220 0.0000
# 6 0.0000 0.0000 0.0000 0.0000 0.0000 4.3570
#
#
#
# Elastic Compliance Matrix: (Units=1/GPa)
#
#
# Indices 1 2 3 4 5 6 
#
# 1 0.029076 0.000906 -0.001450 0.000000 0.000000 0.000000
# 2 0.000906 0.015725 -0.009899 0.000000 0.000000 0.000000
# 3 -0.001450 -0.009899 0.017169 0.000000 0.000000 0.000000
# 4 0.000000 0.000000 0.000000 0.029840 0.000000 0.000000
# 5 0.000000 0.000000 0.000000 0.000000 0.063605 0.000000
# 6 0.000000 0.000000 0.000000 0.000000 0.000000 0.229518
#
#
# Mechanical properties :
#
#
# Convention : Reuss Voigt Hill
#
# Bulk Modulus (GPa) = 24.34027 38.46004 31.40016
# Shear Modulus (GPa) = 11.91854 21.78066 16.84960
#
# Velocity S-wave (km/s) = 2.46983 3.33881 2.93664
# Velocity P-wave (km/s) = 4.53775 5.87775 5.25067
#
# Compressibility (1/GPa) = 0.04108418
#
# Stress axis : x y z
#
# Youngs Moduli (GPa) = 34.39268 63.59152 58.24407
#
# Poissons Ratio (x) = -0.05759 0.08446
# Poissons Ratio (y) = -0.03115 0.57654
# Poissons Ratio (z) = 0.04987 0.62948
#
# Static dielectric constant tensor:
#      x y z
#    x 1.702190 0.000000 0.000000 
#    y 0.000000 1.723720 0.000000 
#    z 0.000000 0.000000 1.732980 
# 
# From -- ./inp_files/34289.got.cif
#   From: 2010.05.17/outbox.cif.g08.bks.cpg/sg53_18_cif.got.tgz:34289.got - 2010.06.03 12:45:16.
