data_PCOD9417829
_publ_section_title
;
Structure prediction by ZEFSAII (Michael W. Deem and Ramdas Pophale) SiO2 
 PCOD9417829
Probable space group: P M N A
;
_chemical_formula_sum "Si O2"
_cell_formula_units_Z 48
_cell_length_a 8.533101
_cell_length_b 31.951471
_cell_length_c 9.470991
_cell_angle_alpha 90.000000
_cell_angle_beta 90.000000
_cell_angle_gamma 90.000000
_cell_volume 2582.219564
_symmetry_space_group_name_H-M "P M N A"
_symmetry_group_IT_number 53
_symmetry_cell_setting 'orthorhombic'
loop_
_space_group_symop_operation_xyz
x,y,z
1/2-x,-y,1/2+z
x,-y,-z
1/2-x,y,1/2-z
-x,-y,-z
1/2+x,y,1/2-z
-x,y,z
1/2+x,-y,1/2+z
loop_
_atom_site_type_symbol
_atom_site_label
_atom_site_fract_x
_atom_site_fract_y
_atom_site_fract_z
Si Si1 0.188547 0.804357 0.590254
Si Si2 0.810985 0.709701 0.592425
Si Si3 0.686850 0.119086 0.590534
Si Si4 0.311802 0.041037 0.089807
Si Si5 0.810685 0.631691 0.408947
Si Si6 0.189388 0.539311 0.409263
O O1 0.250000 0.811721 0.750000
O O2 0.234855 0.756843 0.548376
O O3 0.256332 0.838210 0.483204
O O4 0.000000 0.807288 0.591928
O O5 0.750000 0.703650 0.750000
O O6 0.753672 0.671538 0.496683
O O7 0.000000 0.708789 0.593421
O O8 0.750000 0.115428 0.750000
O O9 0.500000 0.117899 0.594027
O O10 0.748783 0.081305 0.493325
O O11 0.250000 0.039286 0.250000
O O12 0.500000 0.042942 0.094279
O O13 0.265389 0.000000 0.000000
O O14 0.750000 0.634710 0.250000
O O15 0.763438 0.585530 0.464386
O O16 0.000000 0.632763 0.407714
O O17 0.246066 0.500000 0.500000
O O18 0.250000 0.535804 0.250000
O O19 0.000000 0.538222 0.407198
#
# Coordination Sequence:
#
# PCOD9417829 Si02
#       6
#     8   8   8   8   8   8
#     4  10  20  37  58  81 110 144 183 225 273 325
#     4   9  19  34  53  77 105 137 174 218 264 315
#     4  12  25  41  61  86 117 151 189 232 278 328
#     4  11  24  42  65  92 122 156 193 233 278 327
#     4   9  18  33  50  71 100 133 170 211 259 313
#     4   9  18  32  49  70  98 131 167 210 258 310
#
# _framework density 18.588657999999999
#
# number of rings (size 3 to 8) (size 9 to 14) (size 15 to 20)
#    0.000    2.000    0.000    3.500    0.000    5.667 
#    0.000    1.667    0.000    0.000    0.000    0.000 
#    0.000    0.000    0.000    0.000    0.000    0.000 
#
# Total GULP energy -267977.685240 kJ/mol
# GULP energy per Si atom -5582.868442 kJ/mol
# Density = 1.854635 g / cm^3
# Si number density = 18.588658 Si / 1000 Ang^3
#
#
#
# Elastic Constant Matrix: (Units=GPa)
#
#
# Indices 1 2 3 4 5 6 
#
# 1 41.6498 46.3634 35.1704 0.0000 0.0000 0.0000
# 2 46.3634 203.7586 118.5298 0.0000 0.0000 0.0000
# 3 35.1704 118.5298 129.5991 0.0000 0.0000 0.0000
# 4 0.0000 0.0000 0.0000 42.8369 0.0000 0.0000
# 5 0.0000 0.0000 0.0000 0.0000 34.7579 0.0000
# 6 0.0000 0.0000 0.0000 0.0000 0.0000 -87.5112
#
#
#
# Elastic Compliance Matrix: (Units=1/GPa)
#
#
# Indices 1 2 3 4 5 6 
#
# 1 0.033343 -0.004964 -0.004508 0.000000 0.000000 0.000000
# 2 -0.004964 0.011227 -0.008920 0.000000 0.000000 0.000000
# 3 -0.004508 -0.008920 0.017098 0.000000 0.000000 0.000000
# 4 0.000000 0.000000 0.000000 0.023344 0.000000 0.000000
# 5 0.000000 0.000000 0.000000 0.000000 0.028770 0.000000
# 6 0.000000 0.000000 0.000000 0.000000 0.000000 -0.011427
#
#
# Mechanical properties :
#
#
# Convention : Reuss Voigt Hill
#
# Bulk Modulus (GPa) = 40.19064 86.12607 63.15836
# Shear Modulus (GPa) = 33.91332 9.67965 21.79649
#
# Velocity S-wave (km/s) = 4.27594 2.28442 3.42799
# Velocity P-wave (km/s) = 6.78574 7.30694 7.05115
#
# Compressibility (1/GPa) = 0.02488141
#
# Stress axis : x y z
#
# Youngs Moduli (GPa) = 29.99153 89.07478 58.48623
#
# Poissons Ratio (x) = 0.44220 0.26367
# Poissons Ratio (y) = 0.14889 0.52172
# Poissons Ratio (z) = 0.13521 0.79459
#
# Static dielectric constant tensor:
#      x y z
#    x 1.625660 0.000000 0.000000 
#    y 0.000000 1.669740 0.000000 
#    z 0.000000 0.000000 1.592230 
# 
# From -- ./inp_files/6670.got.cif
#   From: 2010.05.17/outbox.cif.g08.bks.cpg/sg53_4_cif.got.tgz:6670.got - 2010.06.03 12:45:16.
