data_PCOD9417865
_publ_section_title
;
Structure prediction by ZEFSAII (Michael W. Deem and Ramdas Pophale) SiO2 
 PCOD9417865
Probable space group: P M N A
;
_chemical_formula_sum "Si O2"
_cell_formula_units_Z 64
_cell_length_a 8.873447
_cell_length_b 15.162921
_cell_length_c 24.144728
_cell_angle_alpha 90.000000
_cell_angle_beta 90.000000
_cell_angle_gamma 90.000000
_cell_volume 3248.609793
_symmetry_space_group_name_H-M "P M N A"
_symmetry_group_IT_number 53
_symmetry_cell_setting 'orthorhombic'
loop_
_space_group_symop_operation_xyz
x,y,z
1/2-x,-y,1/2+z
x,-y,-z
1/2-x,y,1/2-z
-x,-y,-z
1/2+x,y,1/2-z
-x,y,z
1/2+x,-y,1/2+z
loop_
_atom_site_type_symbol
_atom_site_label
_atom_site_fract_x
_atom_site_fract_y
_atom_site_fract_z
Si Si1 0.821293 0.701988 0.308280
Si Si2 0.321614 0.105300 0.005608
Si Si3 0.680499 0.644138 0.594235
Si Si4 0.829905 0.602589 0.481629
Si Si5 0.321289 0.552397 0.370540
Si Si6 0.818555 0.834128 0.878446
Si Si7 0.819603 0.002084 0.190874
Si Si8 0.680399 0.158318 0.608879
O O1 0.750000 0.729297 0.250000
O O2 0.768256 0.603232 0.323203
O O3 0.755084 0.764150 0.355993
O O4 0.000000 0.708219 0.306169
O O5 0.500000 0.122659 0.005242
O O6 0.244966 0.150882 0.952733
O O7 0.250554 0.136350 0.063160
O O8 0.298004 0.000000 0.000000
O O9 0.500000 0.641611 0.584644
O O10 0.761387 0.650954 0.534712
O O11 0.720419 0.550541 0.621919
O O12 0.717508 0.731030 0.629304
O O13 0.838155 0.500000 0.500000
O O14 0.724353 0.600188 0.428137
O O15 0.000000 0.632551 0.468331
O O16 0.500000 0.559378 0.361633
O O17 0.768337 0.902114 0.831170
O O18 0.000000 0.841891 0.882471
O O19 0.750000 0.979418 0.250000
O O20 0.000000 0.002519 0.196963
O O21 0.783550 0.931051 0.143213
O O22 0.500000 0.168956 0.607262
#
# Coordination Sequence:
#
# PCOD9417865 Si02
#       8
#     8   8   8   8   8   8   8   8
#     4  12  26  44  64  89 120 157 203 257 311 370
#     4  11  23  38  59  91 128 165 203 252 306 361
#     4   9  19  35  58  84 116 156 199 244 294 355
#     4   9  17  30  50  78 112 148 188 237 290 347
#     4  10  20  37  59  84 114 153 198 245 299 356
#     4  10  21  39  60  87 123 164 205 248 299 364
#     4  10  22  39  62  87 115 154 199 244 296 352
#     4  11  23  41  65  91 120 161 202 248 306 369
#
# _framework density 19.700735000000002
#
# number of rings (size 3 to 8) (size 9 to 14) (size 15 to 20)
#    0.000    1.750    1.250    3.000    1.750    5.500 
#    0.000    0.625    0.000    1.500    0.000    0.000 
#    0.000    0.000    0.000    0.000    0.000    0.000 
#
# Total GULP energy -357660.897081 kJ/mol
# GULP energy per Si atom -5588.451517 kJ/mol
# Density = 1.965590 g / cm^3
# Si number density = 19.700735 Si / 1000 Ang^3
#
#
#
# Elastic Constant Matrix: (Units=GPa)
#
#
# Indices 1 2 3 4 5 6 
#
# 1 48.1733 26.1543 14.3169 0.0000 0.0000 0.0000
# 2 26.1543 75.2650 3.8633 0.0000 0.0000 0.0000
# 3 14.3169 3.8633 61.3587 0.0000 0.0000 0.0000
# 4 0.0000 0.0000 0.0000 19.5690 0.0000 0.0000
# 5 0.0000 0.0000 0.0000 0.0000 29.8784 0.0000
# 6 0.0000 0.0000 0.0000 0.0000 0.0000 21.5875
#
#
#
# Elastic Compliance Matrix: (Units=1/GPa)
#
#
# Indices 1 2 3 4 5 6 
#
# 1 0.027524 -0.009265 -0.005839 0.000000 0.000000 0.000000
# 2 -0.009265 0.016448 0.001126 0.000000 0.000000 0.000000
# 3 -0.005839 0.001126 0.017589 0.000000 0.000000 0.000000
# 4 0.000000 0.000000 0.000000 0.051101 0.000000 0.000000
# 5 0.000000 0.000000 0.000000 0.000000 0.033469 0.000000
# 6 0.000000 0.000000 0.000000 0.000000 0.000000 0.046323
#
#
# Mechanical properties :
#
#
# Convention : Reuss Voigt Hill
#
# Bulk Modulus (GPa) = 29.75651 30.38510 30.07081
# Shear Modulus (GPa) = 21.58795 23.57116 22.57956
#
# Velocity S-wave (km/s) = 3.31387 3.46274 3.38912
# Velocity P-wave (km/s) = 5.45705 5.60752 5.53279
#
# Compressibility (1/GPa) = 0.03360609
#
# Stress axis : x y z
#
# Youngs Moduli (GPa) = 36.33242 60.79761 56.85349
#
# Poissons Ratio (x) = 0.56327 0.33196
# Poissons Ratio (y) = 0.33661 -0.06402
# Poissons Ratio (z) = 0.21214 -0.06847
#
# Static dielectric constant tensor:
#      x y z
#    x 1.660660 0.000000 0.000000 
#    y 0.000000 1.743530 0.000000 
#    z 0.000000 0.000000 1.652740 
# 
# From -- ./inp_files/34193.got.cif
#   From: 2010.05.17/outbox.cif.g08.bks.cpg/sg53_18_cif.got.tgz:34193.got - 2010.06.03 12:45:16.
