data_PCOD9417287
_publ_section_title
;
Structure prediction by ZEFSAII (Michael W. Deem and Ramdas Pophale) SiO2 
 PCOD9417287
Probable space group: P M N A
;
_chemical_formula_sum "Si O2"
_cell_formula_units_Z 64
_cell_length_a 8.595161
_cell_length_b 20.190294
_cell_length_c 21.278686
_cell_angle_alpha 90.000000
_cell_angle_beta 90.000000
_cell_angle_gamma 90.000000
_cell_volume 3692.678221
_symmetry_space_group_name_H-M "P M N A"
_symmetry_group_IT_number 53
_symmetry_cell_setting 'orthorhombic'
loop_
_space_group_symop_operation_xyz
x,y,z
1/2-x,-y,1/2+z
x,-y,-z
1/2-x,y,1/2-z
-x,-y,-z
1/2+x,y,1/2-z
-x,y,z
1/2+x,-y,1/2+z
loop_
_atom_site_type_symbol
_atom_site_label
_atom_site_fract_x
_atom_site_fract_y
_atom_site_fract_z
Si Si1 0.686529 0.542181 0.816781
Si Si2 0.813561 0.321911 0.132711
Si Si3 0.810690 0.960363 0.062365
Si Si4 0.312701 0.539893 0.061691
Si Si5 0.188476 0.822254 0.010065
Si Si6 0.813507 0.325603 0.984971
Si Si7 0.186688 0.043299 0.183146
Si Si8 0.314698 0.178688 0.131598
O O1 0.750000 0.518654 0.750000
O O2 0.500000 0.542633 0.815868
O O3 0.746221 0.616502 0.829469
O O4 0.740445 0.496591 0.875016
O O5 0.748090 0.250506 0.152348
O O6 0.000000 0.320764 0.137000
O O7 0.770556 0.332071 0.058907
O O8 0.765121 0.883926 0.053238
O O9 0.000000 0.962301 0.062861
O O10 0.758620 0.997135 0.125337
O O11 0.760236 0.000000 0.000000
O O12 0.500000 0.537595 0.061160
O O13 0.260387 0.615344 0.054122
O O14 0.256076 0.500000 0.000000
O O15 0.231652 0.749135 0.033980
O O16 0.000000 0.823408 0.002779
O O17 0.258865 0.830534 0.940600
O O18 0.000000 0.330952 0.981092
O O19 0.250000 0.020095 0.250000
O O20 0.245565 0.117623 0.170143
O O21 0.000000 0.043610 0.183699
O O22 0.500000 0.177948 0.134868
#
# Coordination Sequence:
#
# PCOD9417287 Si02
#       8
#     8   8   8   8   8   8   8   8
#     4  11  23  38  55  78 108 143 179 220 268 318
#     4  10  20  35  54  78 108 144 181 218 259 315
#     4   9  16  31  58  81 102 139 180 219 263 316
#     4  10  20  35  55  78 107 141 176 218 266 317
#     4   9  17  33  54  81 109 139 179 219 267 317
#     4   9  18  30  52  82 109 135 173 223 262 308
#     4  11  22  37  55  77 107 143 181 222 268 320
#     4  11  21  33  51  78 110 145 180 219 263 312
#
# _framework density 17.331593999999999
#
# number of rings (size 3 to 8) (size 9 to 14) (size 15 to 20)
#    0.000    2.000    2.500    3.000    0.000    3.750 
#    0.000    4.375    0.000    0.750    0.000    3.500 
#    0.000    0.000    0.000    0.000    0.000    0.000 
#
# Total GULP energy -357243.029702 kJ/mol
# GULP energy per Si atom -5581.922339 kJ/mol
# Density = 1.729215 g / cm^3
# Si number density = 17.331594 Si / 1000 Ang^3
#
#
#
# Elastic Constant Matrix: (Units=GPa)
#
#
# Indices 1 2 3 4 5 6 
#
# 1 39.0393 22.4587 27.1510 0.0000 0.0000 0.0000
# 2 22.4587 120.9060 72.4231 0.0000 0.0000 0.0000
# 3 27.1510 72.4231 121.1411 0.0000 0.0000 0.0000
# 4 0.0000 0.0000 0.0000 22.5886 0.0000 0.0000
# 5 0.0000 0.0000 0.0000 0.0000 17.7300 0.0000
# 6 0.0000 0.0000 0.0000 0.0000 0.0000 12.1963
#
#
#
# Elastic Compliance Matrix: (Units=1/GPa)
#
#
# Indices 1 2 3 4 5 6 
#
# 1 0.030812 -0.002472 -0.005428 0.000000 0.000000 0.000000
# 2 -0.002472 0.013084 -0.007268 0.000000 0.000000 0.000000
# 3 -0.005428 -0.007268 0.013816 0.000000 0.000000 0.000000
# 4 0.000000 0.000000 0.000000 0.044270 0.000000 0.000000
# 5 0.000000 0.000000 0.000000 0.000000 0.056402 0.000000
# 6 0.000000 0.000000 0.000000 0.000000 0.000000 0.081992
#
#
# Mechanical properties :
#
#
# Convention : Reuss Voigt Hill
#
# Bulk Modulus (GPa) = 36.52764 58.35021 47.43892
# Shear Modulus (GPa) = 17.86751 21.10654 19.48703
#
# Velocity S-wave (km/s) = 3.21428 3.49350 3.35679
# Velocity P-wave (km/s) = 5.90737 7.07197 6.51574
#
# Compressibility (1/GPa) = 0.02737653
#
# Stress axis : x y z
#
# Youngs Moduli (GPa) = 32.45448 76.43194 72.37796
#
# Poissons Ratio (x) = 0.18895 0.39286
# Poissons Ratio (y) = 0.08023 0.52603
# Poissons Ratio (z) = 0.17616 0.55549
#
# Static dielectric constant tensor:
#      x y z
#    x 1.585280 0.000000 0.000000 
#    y 0.000000 1.590310 0.000000 
#    z 0.000000 0.000000 1.586460 
# 
# From -- ./inp_files/31380.got.cif
#   From: 2010.05.17/outbox.cif.g08.bks.cpg/sg53_16_cif.got.tgz:31380.got - 2010.06.03 12:45:16.
