data_PCOD9417469
_publ_section_title
;
Structure prediction by ZEFSAII (Michael W. Deem and Ramdas Pophale) SiO2 
 PCOD9417469
Probable space group: P M N A
;
_chemical_formula_sum "Si O2"
_cell_formula_units_Z 44
_cell_length_a 17.159268
_cell_length_b 14.832387
_cell_length_c 8.782242
_cell_angle_alpha 90.000000
_cell_angle_beta 90.000000
_cell_angle_gamma 90.000000
_cell_volume 2235.193912
_symmetry_space_group_name_H-M "P M N A"
_symmetry_group_IT_number 53
_symmetry_cell_setting 'orthorhombic'
loop_
_space_group_symop_operation_xyz
x,y,z
1/2-x,-y,1/2+z
x,-y,-z
1/2-x,y,1/2-z
-x,-y,-z
1/2+x,y,1/2-z
-x,y,z
1/2+x,-y,1/2+z
loop_
_atom_site_type_symbol
_atom_site_label
_atom_site_fract_x
_atom_site_fract_y
_atom_site_fract_z
Si Si1 0.585306 0.044873 0.834784
Si Si2 0.250000 0.634814 0.750000
Si Si3 0.911748 0.404639 0.415813
Si Si4 0.634572 0.248331 0.849014
Si Si5 0.695838 0.932740 0.620441
Si Si6 0.692031 0.245029 0.528832
O O1 0.500000 0.022382 0.776550
O O2 0.593036 0.152102 0.849960
O O3 0.642938 0.999998 0.715975
O O4 0.593413 0.000000 0.000000
O O5 0.170153 0.590909 0.679871
O O6 0.289512 0.689830 0.611098
O O7 0.915132 0.500000 0.500000
O O8 0.899965 0.323104 0.537798
O O9 0.000000 0.391447 0.344821
O O10 0.643213 0.280479 0.673242
O O11 0.721641 0.225258 0.906856
O O12 0.750000 0.889853 0.750000
O O13 0.657915 0.849092 0.533246
O O14 0.736128 0.000000 0.500000
#
# Coordination Sequence:
#
# PCOD9417469 Si02
#       6
#     8   4   8   8   8   8
#     4  11  24  37  52  80 117 160 204 252 309 368
#     4  10  22  40  68  98 126 162 208 264 318 378
#     4  10  23  44  70  97 128 167 211 263 328 392
#     4  10  20  40  59  85 121 165 205 256 314 379
#     4  12  21  34  56  80 115 159 208 253 299 363
#     4  10  20  35  58  90 119 157 211 253 308 374
#
# _framework density 19.685092999999998
#
# number of rings (size 3 to 8) (size 9 to 14) (size 15 to 20)
#    0.000    1.455    2.727    3.273    2.545    3.273 
#    0.000    1.818    0.000    2.727    0.000    0.000 
#    0.000    0.000    0.000    0.000    0.000    0.000 
#
# Total GULP energy -244945.312446 kJ/mol
# GULP energy per Si atom -5566.938919 kJ/mol
# Density = 1.964029 g / cm^3
# Si number density = 19.685093 Si / 1000 Ang^3
#
#
#
# Elastic Constant Matrix: (Units=GPa)
#
#
# Indices 1 2 3 4 5 6 
#
# 1 94.7364 30.8602 30.3191 0.0000 0.0000 0.0000
# 2 30.8602 66.4201 19.4453 0.0000 0.0000 0.0000
# 3 30.3191 19.4453 78.7645 0.0000 0.0000 0.0000
# 4 0.0000 0.0000 0.0000 9.9248 0.0000 0.0000
# 5 0.0000 0.0000 0.0000 0.0000 22.6273 0.0000
# 6 0.0000 0.0000 0.0000 0.0000 0.0000 -2.8483
#
#
#
# Elastic Compliance Matrix: (Units=1/GPa)
#
#
# Indices 1 2 3 4 5 6 
#
# 1 0.013477 -0.005113 -0.003926 0.000000 0.000000 0.000000
# 2 -0.005113 0.018168 -0.002517 0.000000 0.000000 0.000000
# 3 -0.003926 -0.002517 0.014829 0.000000 0.000000 0.000000
# 4 0.000000 0.000000 0.000000 0.100758 0.000000 0.000000
# 5 0.000000 0.000000 0.000000 0.000000 0.044194 0.000000
# 6 0.000000 0.000000 0.000000 0.000000 0.000000 -0.351091
#
#
# Mechanical properties :
#
#
# Convention : Reuss Voigt Hill
#
# Bulk Modulus (GPa) = 42.80281 44.57444 43.68862
# Shear Modulus (GPa) = -38.83022 16.56054 -11.13484
#
# Velocity S-wave (km/s) = -4.44618 2.90362 -2.38092
# Velocity P-wave (km/s) = 2.13707 5.82531 3.83192
#
# Compressibility (1/GPa) = 0.02336295
#
# Stress axis : x y z
#
# Youngs Moduli (GPa) = 74.19838 55.04160 67.43692
#
# Poissons Ratio (x) = 0.28140 0.26474
# Poissons Ratio (y) = 0.37935 0.16976
# Poissons Ratio (z) = 0.29128 0.13856
#
# Static dielectric constant tensor:
#      x y z
#    x 1.721570 0.000000 0.000000 
#    y 0.000000 1.663690 0.000000 
#    z 0.000000 0.000000 1.742060 
# 
# From -- ./inp_files/9840.got.cif
#   From: 2010.05.17/outbox.cif.g08.bks.cpg/sg53_5_cif.got.tgz:9840.got - 2010.06.03 12:45:16.
