data_PCOD9417337
_publ_section_title
;
Structure prediction by ZEFSAII (Michael W. Deem and Ramdas Pophale) SiO2 
 PCOD9417337
Probable space group: P M N A
;
_chemical_formula_sum "Si O2"
_cell_formula_units_Z 48
_cell_length_a 8.884994
_cell_length_b 9.199877
_cell_length_c 31.971450
_cell_angle_alpha 90.000000
_cell_angle_beta 90.000000
_cell_angle_gamma 90.000000
_cell_volume 2613.373561
_symmetry_space_group_name_H-M "P M N A"
_symmetry_group_IT_number 53
_symmetry_cell_setting 'orthorhombic'
loop_
_space_group_symop_operation_xyz
x,y,z
1/2-x,-y,1/2+z
x,-y,-z
1/2-x,y,1/2-z
-x,-y,-z
1/2+x,y,1/2-z
-x,y,z
1/2+x,-y,1/2+z
loop_
_atom_site_type_symbol
_atom_site_label
_atom_site_fract_x
_atom_site_fract_y
_atom_site_fract_z
Si Si1 0.672187 0.073070 0.292159
Si Si2 0.182437 0.093437 0.116485
Si Si3 0.674355 0.427364 0.293274
Si Si4 0.179927 0.591245 0.042147
Si Si5 0.180285 0.584349 0.618882
Si Si6 0.178008 0.092499 0.542277
O O1 0.750000 0.021252 0.250000
O O2 0.500000 0.026969 0.290297
O O3 0.732639 0.033293 0.337933
O O4 0.676668 0.250066 0.291994
O O5 0.250729 0.254648 0.112051
O O6 0.000000 0.103537 0.116455
O O7 0.241853 0.992840 0.079769
O O8 0.750000 0.477560 0.250000
O O9 0.500000 0.471649 0.295675
O O10 0.762012 0.467796 0.335519
O O11 0.257406 0.515794 0.081896
O O12 0.246107 0.751488 0.036898
O O13 0.000000 0.595972 0.048442
O O14 0.210042 0.500000 0.000000
O O15 0.000000 0.591149 0.618364
O O16 0.000000 0.108057 0.550800
O O17 0.195377 0.000000 0.500000
#
# Coordination Sequence:
#
# PCOD9417337 Si02
#       6
#     8   8   8   8   8   8
#     4   8  15  26  44  72 105 140 178 221 264 310
#     4  10  20  35  55  81 113 148 187 228 273 327
#     4   9  16  28  47  75 110 146 186 229 274 324
#     4  11  24  41  61  83 109 144 184 226 276 335
#     4  11  21  34  55  83 115 149 186 231 281 329
#     4  11  24  40  59  84 112 142 179 225 277 332
#
# _framework density 18.367065
#
# number of rings (size 3 to 8) (size 9 to 14) (size 15 to 20)
#    0.000    2.000    0.000    5.500    0.000   10.000 
#    0.000    0.000    0.000    1.000    0.000    4.667 
#    0.000    0.000    0.000    0.000    0.000    0.000 
#
# Total GULP energy -267940.663542 kJ/mol
# GULP energy per Si atom -5582.097157 kJ/mol
# Density = 1.832526 g / cm^3
# Si number density = 18.367065 Si / 1000 Ang^3
#
#
#
# Elastic Constant Matrix: (Units=GPa)
#
#
# Indices 1 2 3 4 5 6 
#
# 1 134.0516 52.5140 96.7692 0.0000 0.0000 0.0000
# 2 52.5140 75.0879 63.0403 0.0000 0.0000 0.0000
# 3 96.7692 63.0403 165.4884 0.0000 0.0000 0.0000
# 4 0.0000 0.0000 0.0000 23.2297 0.0000 0.0000
# 5 0.0000 0.0000 0.0000 0.0000 31.1644 0.0000
# 6 0.0000 0.0000 0.0000 0.0000 0.0000 22.4896
#
#
#
# Elastic Compliance Matrix: (Units=1/GPa)
#
#
# Indices 1 2 3 4 5 6 
#
# 1 0.013761 -0.004217 -0.006440 0.000000 0.000000 0.000000
# 2 -0.004217 0.020872 -0.005485 0.000000 0.000000 0.000000
# 3 -0.006440 -0.005485 0.011898 0.000000 0.000000 0.000000
# 4 0.000000 0.000000 0.000000 0.043048 0.000000 0.000000
# 5 0.000000 0.000000 0.000000 0.000000 0.032088 0.000000
# 6 0.000000 0.000000 0.000000 0.000000 0.000000 0.044465
#
#
# Mechanical properties :
#
#
# Convention : Reuss Voigt Hill
#
# Bulk Modulus (GPa) = 70.19306 88.80833 79.50070
# Shear Modulus (GPa) = 24.61052 26.19704 25.40378
#
# Velocity S-wave (km/s) = 3.66447 3.78074 3.72306
# Velocity P-wave (km/s) = 7.49695 8.21679 7.86511
#
# Compressibility (1/GPa) = 0.01424642
#
# Stress axis : x y z
#
# Youngs Moduli (GPa) = 72.66963 47.91150 84.04724
#
# Poissons Ratio (x) = 0.20204 0.54129
# Poissons Ratio (y) = 0.30645 0.46099
# Poissons Ratio (z) = 0.46801 0.26279
#
# Static dielectric constant tensor:
#      x y z
#    x 1.618950 0.000000 0.000000 
#    y 0.000000 1.615770 0.000000 
#    z 0.000000 0.000000 1.638750 
# 
# From -- ./inp_files/37676.got.cif
#   From: 2010.05.17/outbox.cif.g08.bks.cpg/sg53_19_cif.got.tgz:37676.got - 2010.06.03 12:45:16.
