data_PCOD9417314
_publ_section_title
;
Structure prediction by ZEFSAII (Michael W. Deem and Ramdas Pophale) SiO2 
 PCOD9417314
Probable space group: P M N A
;
_chemical_formula_sum "Si O2"
_cell_formula_units_Z 48
_cell_length_a 8.774297
_cell_length_b 31.642849
_cell_length_c 9.497755
_cell_angle_alpha 90.000000
_cell_angle_beta 90.000000
_cell_angle_gamma 90.000000
_cell_volume 2636.992363
_symmetry_space_group_name_H-M "P M N A"
_symmetry_group_IT_number 53
_symmetry_cell_setting 'orthorhombic'
loop_
_space_group_symop_operation_xyz
x,y,z
1/2-x,-y,1/2+z
x,-y,-z
1/2-x,y,1/2-z
-x,-y,-z
1/2+x,y,1/2-z
-x,y,z
1/2+x,-y,1/2+z
loop_
_atom_site_type_symbol
_atom_site_label
_atom_site_fract_x
_atom_site_fract_y
_atom_site_fract_z
Si Si1 0.316794 0.877826 0.906583
Si Si2 0.316310 0.539105 0.906078
Si Si3 0.317205 0.196297 0.593412
Si Si4 0.682560 0.633042 0.906358
Si Si5 0.318024 0.293343 0.595231
Si Si6 0.683767 0.040479 0.907338
O O1 0.250000 0.882417 0.750000
O O2 0.500000 0.876124 0.898362
O O3 0.253458 0.836193 0.983135
O O4 0.273716 0.917568 0.005528
O O5 0.250000 0.535534 0.750000
O O6 0.500000 0.537278 0.897835
O O7 0.276452 0.585992 0.962407
O O8 0.262631 0.500000 0.000000
O O9 0.250000 0.188798 0.750000
O O10 0.500000 0.191470 0.598899
O O11 0.281589 0.244920 0.553083
O O12 0.750000 0.635450 0.750000
O O13 0.500000 0.636050 0.901434
O O14 0.749084 0.671198 0.995686
O O15 0.250000 0.299292 0.750000
O O16 0.500000 0.297255 0.599325
O O17 0.750000 0.040088 0.750000
O O18 0.500000 0.039453 0.896127
O O19 0.732093 0.000000 0.000000
#
# Coordination Sequence:
#
# PCOD9417314 Si02
#       6
#     8   8   8   8   8   8
#     4  11  23  38  58  84 114 148 187 230 275 325
#     4   9  19  35  53  76 105 137 175 217 263 316
#     4  10  21  38  59  82 110 144 182 225 273 325
#     4  10  20  35  55  78 107 142 179 221 268 320
#     4  10  21  37  57  81 109 142 180 223 271 323
#     4  10  22  39  59  85 115 148 186 227 274 326
#
# _framework density 18.202556999999999
#
# number of rings (size 3 to 8) (size 9 to 14) (size 15 to 20)
#    0.000    2.000    0.000    3.000    0.000    7.333 
#    0.000    1.667    0.000    0.000    0.000    0.000 
#    0.000    0.000    0.000    0.000    0.000    0.000 
#
# Total GULP energy -268026.008580 kJ/mol
# GULP energy per Si atom -5583.875179 kJ/mol
# Density = 1.816113 g / cm^3
# Si number density = 18.202557 Si / 1000 Ang^3
#
#
#
# Elastic Constant Matrix: (Units=GPa)
#
#
# Indices 1 2 3 4 5 6 
#
# 1 51.1959 65.7872 48.5922 0.0000 0.0000 0.0000
# 2 65.7872 184.3848 118.6449 0.0000 0.0000 0.0000
# 3 48.5922 118.6449 135.9373 0.0000 0.0000 0.0000
# 4 0.0000 0.0000 0.0000 42.4037 0.0000 0.0000
# 5 0.0000 0.0000 0.0000 0.0000 38.5028 0.0000
# 6 0.0000 0.0000 0.0000 0.0000 0.0000 48.0713
#
#
#
# Elastic Compliance Matrix: (Units=1/GPa)
#
#
# Indices 1 2 3 4 5 6 
#
# 1 0.036947 -0.010685 -0.003881 0.000000 0.000000 0.000000
# 2 -0.010685 0.015461 -0.009675 0.000000 0.000000 0.000000
# 3 -0.003881 -0.009675 0.017188 0.000000 0.000000 0.000000
# 4 0.000000 0.000000 0.000000 0.023583 0.000000 0.000000
# 5 0.000000 0.000000 0.000000 0.000000 0.025972 0.000000
# 6 0.000000 0.000000 0.000000 0.000000 0.000000 0.020802
#
#
# Mechanical properties :
#
#
# Convention : Reuss Voigt Hill
#
# Bulk Modulus (GPa) = 47.36265 93.06293 70.21279
# Shear Modulus (GPa) = 25.57880 35.02846 30.30363
#
# Velocity S-wave (km/s) = 3.75271 4.39152 4.08462
# Velocity P-wave (km/s) = 6.69726 8.77219 7.80399
#
# Compressibility (1/GPa) = 0.02111368
#
# Stress axis : x y z
#
# Youngs Moduli (GPa) = 27.06579 64.67775 58.17987
#
# Poissons Ratio (x) = 0.69107 0.22582
# Poissons Ratio (y) = 0.28919 0.56289
# Poissons Ratio (z) = 0.10505 0.62576
#
# Static dielectric constant tensor:
#      x y z
#    x 1.612360 0.000000 0.000000 
#    y 0.000000 1.638960 0.000000 
#    z 0.000000 0.000000 1.572330 
# 
# From -- ./inp_files/6582.got.cif
#   From: 2010.05.17/outbox.cif.g08.bks.cpg/sg53_4_cif.got.tgz:6582.got - 2010.06.03 12:45:16.
