data_PCOD9417898
_publ_section_title
;
Structure prediction by ZEFSAII (Michael W. Deem and Ramdas Pophale) SiO2 
 PCOD9417898
Probable space group: P M N A
;
_chemical_formula_sum "Si O2"
_cell_formula_units_Z 56
_cell_length_a 8.988621
_cell_length_b 21.393560
_cell_length_c 15.629521
_cell_angle_alpha 90.000000
_cell_angle_beta 90.000000
_cell_angle_gamma 90.000000
_cell_volume 3005.535049
_symmetry_space_group_name_H-M "P M N A"
_symmetry_group_IT_number 53
_symmetry_cell_setting 'orthorhombic'
loop_
_space_group_symop_operation_xyz
x,y,z
1/2-x,-y,1/2+z
x,-y,-z
1/2-x,y,1/2-z
-x,-y,-z
1/2+x,y,1/2-z
-x,y,z
1/2+x,-y,1/2+z
loop_
_atom_site_type_symbol
_atom_site_label
_atom_site_fract_x
_atom_site_fract_y
_atom_site_fract_z
Si Si1 0.821533 0.791932 0.503900
Si Si2 0.823830 0.004395 0.897996
Si Si3 0.821291 0.351965 0.492906
Si Si4 0.176251 0.591281 0.162230
Si Si5 0.821999 0.145470 0.840912
Si Si6 0.329970 0.527428 0.903061
Si Si7 0.322598 0.120789 0.162464
O O1 0.789354 0.719973 0.526052
O O2 0.741447 0.812307 0.417071
O O3 0.776477 0.837665 0.580994
O O4 0.000000 0.797961 0.492161
O O5 0.731713 0.949767 0.853810
O O6 0.000000 0.994119 0.882550
O O7 0.784861 0.073296 0.864606
O O8 0.798910 0.000000 0.000000
O O9 0.741112 0.372296 0.580316
O O10 0.781258 0.401169 0.418055
O O11 0.000000 0.359188 0.505346
O O12 0.250000 0.614109 0.250000
O O13 0.225275 0.518971 0.148672
O O14 0.000000 0.596874 0.165724
O O15 0.750000 0.161216 0.750000
O O16 0.000000 0.150845 0.836783
O O17 0.500000 0.524397 0.870156
O O18 0.332926 0.500000 0.000000
O O19 0.250000 0.143993 0.250000
O O20 0.500000 0.122638 0.169253
#
# Coordination Sequence:
#
# PCOD9417898 Si02
#       7
#     8   8   8   8   8   8   8
#     4  10  22  40  60  83 113 152 195 235 280 339
#     4  10  20  37  60  86 114 145 184 236 293 344
#     4   9  19  37  58  78 107 145 182 222 272 328
#     4  11  21  33  53  82 113 143 180 224 271 323
#     4  11  23  38  58  83 115 151 189 235 288 343
#     4   8  15  31  54  77 103 136 170 211 263 313
#     4  11  23  38  60  86 113 148 190 237 289 343
#
# _framework density 18.632290000000001
#
# number of rings (size 3 to 8) (size 9 to 14) (size 15 to 20)
#    0.000    2.000    1.429    3.429    0.000    6.857 
#    0.000    0.714    0.000    1.714    0.000    0.000 
#    0.000    0.000    0.000    0.000    0.000    0.000 
#
# Total GULP energy -312708.200321 kJ/mol
# GULP energy per Si atom -5584.075006 kJ/mol
# Density = 1.858988 g / cm^3
# Si number density = 18.632290 Si / 1000 Ang^3
#
#
#
# Elastic Constant Matrix: (Units=GPa)
#
#
# Indices 1 2 3 4 5 6 
#
# 1 35.3479 12.6491 14.1001 0.0000 0.0000 0.0000
# 2 12.6491 79.5255 -0.4136 0.0000 0.0000 0.0000
# 3 14.1001 -0.4136 54.3206 0.0000 0.0000 0.0000
# 4 0.0000 0.0000 0.0000 8.4967 0.0000 0.0000
# 5 0.0000 0.0000 0.0000 0.0000 28.0537 0.0000
# 6 0.0000 0.0000 0.0000 0.0000 0.0000 -11.4222
#
#
#
# Elastic Compliance Matrix: (Units=1/GPa)
#
#
# Indices 1 2 3 4 5 6 
#
# 1 0.033736 -0.005412 -0.008798 0.000000 0.000000 0.000000
# 2 -0.005412 0.013443 0.001507 0.000000 0.000000 0.000000
# 3 -0.008798 0.001507 0.020704 0.000000 0.000000 0.000000
# 4 0.000000 0.000000 0.000000 0.117692 0.000000 0.000000
# 5 0.000000 0.000000 0.000000 0.000000 0.035646 0.000000
# 6 0.000000 0.000000 0.000000 0.000000 0.000000 -0.087549
#
#
# Mechanical properties :
#
#
# Convention : Reuss Voigt Hill
#
# Bulk Modulus (GPa) = 23.54146 24.65171 24.09658
# Shear Modulus (GPa) = 28.86190 14.54953 21.70571
#
# Velocity S-wave (km/s) = 3.94004 2.79745 3.41684
# Velocity P-wave (km/s) = 5.77587 4.86761 5.34108
#
# Compressibility (1/GPa) = 0.04247824
#
# Stress axis : x y z
#
# Youngs Moduli (GPa) = 29.64164 74.38706 48.29881
#
# Poissons Ratio (x) = 0.40257 0.42494
# Poissons Ratio (y) = 0.16041 -0.07279
# Poissons Ratio (z) = 0.26079 -0.11211
#
# Static dielectric constant tensor:
#      x y z
#    x 1.619510 0.000000 0.000000 
#    y 0.000000 1.656640 0.000000 
#    z 0.000000 0.000000 1.629620 
# 
# From -- ./inp_files/20492.got.cif
#   From: 2010.05.17/outbox.cif.g08.bks.cpg/sg53_11_cif.got.tgz:20492.got - 2010.06.03 12:45:16.
