data_PCOD9417521
_publ_section_title
;
Structure prediction by ZEFSAII (Michael W. Deem and Ramdas Pophale) SiO2 
 PCOD9417521
Probable space group: P M N A
;
_chemical_formula_sum "Si O2"
_cell_formula_units_Z 36
_cell_length_a 22.365279
_cell_length_b 12.617909
_cell_length_c 6.215104
_cell_angle_alpha 90.000000
_cell_angle_beta 90.000000
_cell_angle_gamma 90.000000
_cell_volume 1753.921337
_symmetry_space_group_name_H-M "P M N A"
_symmetry_group_IT_number 53
_symmetry_cell_setting 'orthorhombic'
loop_
_space_group_symop_operation_xyz
x,y,z
1/2-x,-y,1/2+z
x,-y,-z
1/2-x,y,1/2-z
-x,-y,-z
1/2+x,y,1/2-z
-x,y,z
1/2+x,-y,1/2+z
loop_
_atom_site_type_symbol
_atom_site_label
_atom_site_fract_x
_atom_site_fract_y
_atom_site_fract_z
Si Si1 0.349474 0.265356 0.436894
Si Si2 0.432686 0.188548 0.810695
Si Si3 0.324068 0.883522 0.947878
Si Si4 0.068086 0.391066 0.384143
Si Si5 0.250000 0.727814 0.250000
O O1 0.397954 0.209104 0.589905
O O2 0.322980 0.170295 0.287342
O O3 0.384452 0.349307 0.289036
O O4 0.298159 0.320638 0.583356
O O5 0.500000 0.150162 0.778860
O O6 0.392253 0.117424 0.966315
O O7 0.434458 0.301019 0.933594
O O8 0.290632 0.800812 0.099760
O O9 0.299350 0.000000 0.000000
O O10 0.084985 0.500000 0.500000
O O11 0.000000 0.402115 0.294812
#
# Coordination Sequence:
#
# PCOD9417521 Si02
#       5
#     8   8   8   8   4
#     4  10  20  36  54  85 115 153 190 243 294 345
#     4   9  19  35  55  85 119 152 185 228 293 353
#     4  10  22  36  56  83 110 148 197 242 287 339
#     4   9  18  34  59  91 119 151 195 241 290 353
#     4  10  22  34  56  82 108 150 196 244 294 340
#
# _framework density 20.525435000000002
#
# number of rings (size 3 to 8) (size 9 to 14) (size 15 to 20)
#    0.000    2.444    0.000    1.333    3.111    4.889 
#    0.000    4.444    0.000    0.000  208.000    0.000 
#    0.000    0.000    0.000    0.000    0.000    0.000 
#
# Total GULP energy -200668.088099 kJ/mol
# GULP energy per Si atom -5574.113558 kJ/mol
# Density = 2.047872 g / cm^3
# Si number density = 20.525435 Si / 1000 Ang^3
#
#
#
# Elastic Constant Matrix: (Units=GPa)
#
#
# Indices 1 2 3 4 5 6 
#
# 1 102.5683 3.1859 51.2759 0.0000 0.0000 0.0000
# 2 3.1859 59.0439 17.6882 0.0000 0.0000 0.0000
# 3 51.2759 17.6882 109.2694 0.0000 0.0000 0.0000
# 4 0.0000 0.0000 0.0000 -7.4393 0.0000 0.0000
# 5 0.0000 0.0000 0.0000 0.0000 41.1118 0.0000
# 6 0.0000 0.0000 0.0000 0.0000 0.0000 -1.1072
#
#
#
# Elastic Compliance Matrix: (Units=1/GPa)
#
#
# Indices 1 2 3 4 5 6 
#
# 1 0.012814 0.001167 -0.006202 0.000000 0.000000 0.000000
# 2 0.001167 0.017906 -0.003446 0.000000 0.000000 0.000000
# 3 -0.006202 -0.003446 0.012620 0.000000 0.000000 0.000000
# 4 0.000000 0.000000 0.000000 -0.134422 0.000000 0.000000
# 5 0.000000 0.000000 0.000000 0.000000 0.024324 0.000000
# 6 0.000000 0.000000 0.000000 0.000000 0.000000 -0.903209
#
#
# Mechanical properties :
#
#
# Convention : Reuss Voigt Hill
#
# Bulk Modulus (GPa) = 37.91188 46.13128 42.02158
# Shear Modulus (GPa) = -5.29542 19.76186 7.23322
#
# Velocity S-wave (km/s) = -1.60796 3.10627 1.87928
# Velocity P-wave (km/s) = 3.88116 5.94888 5.02258
#
# Compressibility (1/GPa) = 0.02637696
#
# Stress axis : x y z
#
# Youngs Moduli (GPa) = 78.04098 55.84741 79.24060
#
# Poissons Ratio (x) = -0.06515 0.49144
# Poissons Ratio (y) = -0.09104 0.27306
# Poissons Ratio (z) = 0.48400 0.19245
#
# Static dielectric constant tensor:
#      x y z
#    x 1.814970 0.000000 0.000000 
#    y 0.000000 1.708860 0.000000 
#    z 0.000000 0.000000 1.779060 
# 
# From -- ./inp_files/2791.got.cif
#   From: 2010.05.17/outbox.cif.g08.bks.cpg/sg53_2_cif.got.tgz:2791.got - 2010.06.03 12:45:16.
