data_PCOD9417576
_publ_section_title
;
Structure prediction by ZEFSAII (Michael W. Deem and Ramdas Pophale) SiO2 
 PCOD9417576
Probable space group: P M N A
;
_chemical_formula_sum "Si O2"
_cell_formula_units_Z 58
_cell_length_a 14.459650
_cell_length_b 11.170930
_cell_length_c 18.210853
_cell_angle_alpha 90.000000
_cell_angle_beta 90.000000
_cell_angle_gamma 90.000000
_cell_volume 2941.557892
_symmetry_space_group_name_H-M "P M N A"
_symmetry_group_IT_number 53
_symmetry_cell_setting 'orthorhombic'
loop_
_space_group_symop_operation_xyz
x,y,z
1/2-x,-y,1/2+z
x,-y,-z
1/2-x,y,1/2-z
-x,-y,-z
1/2+x,y,1/2-z
-x,y,z
1/2+x,-y,1/2+z
loop_
_atom_site_type_symbol
_atom_site_label
_atom_site_fract_x
_atom_site_fract_y
_atom_site_fract_z
Si Si1 0.893518 0.326883 0.280777
Si Si2 0.110029 0.327531 0.534986
Si Si3 0.105527 0.940670 0.728161
Si Si4 0.000000 0.000000 0.000000
Si Si5 0.841476 0.958908 0.890187
Si Si6 0.358400 0.944017 0.075165
Si Si7 0.295032 0.563122 0.905021
Si Si8 0.893865 0.321292 0.106501
O O1 0.859412 0.190971 0.294015
O O2 0.823402 0.413120 0.321665
O O3 0.896211 0.343830 0.193714
O O4 0.000000 0.340895 0.307515
O O5 0.134932 0.197810 0.565117
O O6 0.141910 0.342698 0.450800
O O7 0.169445 0.432347 0.573103
O O8 0.000000 0.348719 0.542103
O O9 0.155346 0.983126 0.802298
O O10 0.000000 0.919344 0.753761
O O11 0.102893 0.019794 0.655186
O O12 0.919904 0.977046 0.062810
O O13 0.862824 0.817304 0.902317
O O14 0.743898 0.002087 0.919137
O O15 0.399518 0.000000 0.000000
O O16 0.188503 0.594083 0.922181
O O17 0.000000 0.334494 0.078306
#
# Coordination Sequence:
#
# PCOD9417576 Si02
#       8
#     8   8   8   2   8   8   8   8
#     4   9  17  32  59  90 117 152 198 249 305 358
#     4  11  25  42  59  85 118 152 203 256 303 362
#     4  10  20  36  56  87 128 159 195 254 312 356
#     4  12  20  36  68  88 126 168 208 244 302 376
#     4  11  21  38  60  93 125 163 203 253 303 364
#     4  12  24  37  62  91 122 159 205 248 309 379
#     4  11  21  38  62  82 114 160 202 247 308 362
#     4  10  20  36  60  93 124 151 199 258 297 345
#
# _framework density 19.717442999999999
#
# number of rings (size 3 to 8) (size 9 to 14) (size 15 to 20)
#    0.000    1.379    2.069    6.207    0.000    4.414 
#    0.000    4.138    1.517    1.655    0.000    0.000 
#    0.000    0.000    0.000    0.000    0.000    0.000 
#
# Total GULP energy -323135.109604 kJ/mol
# GULP energy per Si atom -5571.294993 kJ/mol
# Density = 1.967257 g / cm^3
# Si number density = 19.717443 Si / 1000 Ang^3
#
#
#
# Elastic Constant Matrix: (Units=GPa)
#
#
# Indices 1 2 3 4 5 6 
#
# 1 165.6986 45.3911 26.1431 0.0000 0.0000 0.0000
# 2 45.3911 70.8564 37.5061 0.0000 0.0000 0.0000
# 3 26.1431 37.5061 95.3650 0.0000 0.0000 0.0000
# 4 0.0000 0.0000 0.0000 17.8733 0.0000 0.0000
# 5 0.0000 0.0000 0.0000 0.0000 29.0186 0.0000
# 6 0.0000 0.0000 0.0000 0.0000 0.0000 12.1933
#
#
#
# Elastic Compliance Matrix: (Units=1/GPa)
#
#
# Indices 1 2 3 4 5 6 
#
# 1 0.007323 -0.004582 -0.000205 0.000000 0.000000 0.000000
# 2 -0.004582 0.020691 -0.006881 0.000000 0.000000 0.000000
# 3 -0.000205 -0.006881 0.013249 0.000000 0.000000 0.000000
# 4 0.000000 0.000000 0.000000 0.055949 0.000000 0.000000
# 5 0.000000 0.000000 0.000000 0.000000 0.034461 0.000000
# 6 0.000000 0.000000 0.000000 0.000000 0.000000 0.082013
#
#
# Mechanical properties :
#
#
# Convention : Reuss Voigt Hill
#
# Bulk Modulus (GPa) = 55.78963 61.11118 58.45040
# Shear Modulus (GPa) = 20.57633 26.67568 23.62601
#
# Velocity S-wave (km/s) = 3.23392 3.68217 3.46530
# Velocity P-wave (km/s) = 6.50387 7.00989 6.76161
#
# Compressibility (1/GPa) = 0.01792448
#
# Stress axis : x y z
#
# Youngs Moduli (GPa) = 136.56142 48.33013 75.47930
#
# Poissons Ratio (x) = 0.22147 0.01549
# Poissons Ratio (y) = 0.62577 0.51940
# Poissons Ratio (z) = 0.02803 0.33258
#
# Static dielectric constant tensor:
#      x y z
#    x 1.720540 0.000000 0.000000 
#    y 0.000000 1.669420 0.000000 
#    z 0.000000 0.000000 1.748330 
# 
# From -- ./inp_files/28472.got.cif
#   From: 2010.05.17/outbox.cif.g08.bks.cpg/sg53_15_cif.got.tgz:28472.got - 2010.06.03 12:45:16.
