data_PCOD9417402
_publ_section_title
;
Structure prediction by ZEFSAII (Michael W. Deem and Ramdas Pophale) SiO2 
 PCOD9417402
Probable space group: P M N A
;
_chemical_formula_sum "Si O2"
_cell_formula_units_Z 40
_cell_length_a 17.103015
_cell_length_b 10.189372
_cell_length_c 12.079498
_cell_angle_alpha 90.000000
_cell_angle_beta 90.000000
_cell_angle_gamma 90.000000
_cell_volume 2105.081821
_symmetry_space_group_name_H-M "P M N A"
_symmetry_group_IT_number 53
_symmetry_cell_setting 'orthorhombic'
loop_
_space_group_symop_operation_xyz
x,y,z
1/2-x,-y,1/2+z
x,-y,-z
1/2-x,y,1/2-z
-x,-y,-z
1/2+x,y,1/2-z
-x,y,z
1/2+x,-y,1/2+z
loop_
_atom_site_type_symbol
_atom_site_label
_atom_site_fract_x
_atom_site_fract_y
_atom_site_fract_z
Si Si1 0.912684 0.743926 0.280941
Si Si2 0.910709 0.001072 0.133791
Si Si3 0.877041 0.488162 0.873542
Si Si4 0.691850 0.250385 0.348887
Si Si5 0.784971 0.632124 0.445643
O O1 0.893508 0.864286 0.196991
O O2 0.917443 0.614216 0.205190
O O3 0.846132 0.713231 0.372071
O O4 0.000000 0.768895 0.328049
O O5 0.000000 0.036809 0.165393
O O6 0.847519 0.110124 0.161664
O O7 0.909724 0.000000 0.000000
O O8 0.873551 0.637453 0.836092
O O9 0.787601 0.432368 0.878761
O O10 0.905228 0.500000 0.000000
O O11 0.750000 0.271005 0.250000
O O12 0.740157 0.279625 0.462096
O O13 0.822736 0.500000 0.500000
#
# Coordination Sequence:
#
# PCOD9417402 Si02
#       5
#     8   8   8   8   8
#     4  11  22  36  57  85 119 155 190 237 298 359
#     4  10  22  38  53  77 113 147 185 235 287 341
#     4   9  18  34  56  81 109 142 188 240 283 335
#     4  10  20  35  57  82 107 142 188 238 288 342
#     4   9  19  37  59  83 113 148 195 247 291 346
#
# _framework density 19.001636999999999
#
# number of rings (size 3 to 8) (size 9 to 14) (size 15 to 20)
#    0.000    2.600    0.000    5.400    0.000    4.800 
#    0.000    1.000    0.000    3.000    0.000    0.000 
#    0.000    0.000    0.000    0.000    0.000    0.000 
#
# Total GULP energy -222814.669037 kJ/mol
# GULP energy per Si atom -5570.366726 kJ/mol
# Density = 1.895839 g / cm^3
# Si number density = 19.001637 Si / 1000 Ang^3
#
#
#
# Elastic Constant Matrix: (Units=GPa)
#
#
# Indices 1 2 3 4 5 6 
#
# 1 56.1897 32.3907 30.0950 0.0000 0.0000 0.0000
# 2 32.3907 87.7328 39.2453 0.0000 0.0000 0.0000
# 3 30.0950 39.2453 55.7913 0.0000 0.0000 0.0000
# 4 0.0000 0.0000 0.0000 35.2716 0.0000 0.0000
# 5 0.0000 0.0000 0.0000 0.0000 0.7839 0.0000
# 6 0.0000 0.0000 0.0000 0.0000 0.0000 72.1978
#
#
#
# Elastic Compliance Matrix: (Units=1/GPa)
#
#
# Indices 1 2 3 4 5 6 
#
# 1 0.026412 -0.004929 -0.010780 0.000000 0.000000 0.000000
# 2 -0.004929 0.017551 -0.009687 0.000000 0.000000 0.000000
# 3 -0.010780 -0.009687 0.030553 0.000000 0.000000 0.000000
# 4 0.000000 0.000000 0.000000 0.028351 0.000000 0.000000
# 5 0.000000 0.000000 0.000000 0.000000 1.275718 0.000000
# 6 0.000000 0.000000 0.000000 0.000000 0.000000 0.013851
#
#
# Mechanical properties :
#
#
# Convention : Reuss Voigt Hill
#
# Bulk Modulus (GPa) = 42.15151 44.79729 43.47440
# Shear Modulus (GPa) = 3.44557 28.18285 15.81421
#
# Velocity S-wave (km/s) = 1.34805 3.85539 2.88801
# Velocity P-wave (km/s) = 4.96530 6.59131 5.83522
#
# Compressibility (1/GPa) = 0.02372394
#
# Stress axis : x y z
#
# Youngs Moduli (GPa) = 37.86175 56.97525 32.72975
#
# Poissons Ratio (x) = 0.28083 0.35282
# Poissons Ratio (y) = 0.18662 0.31707
# Poissons Ratio (z) = 0.40814 0.55194
#
# Static dielectric constant tensor:
#      x y z
#    x 1.727440 0.000000 0.000000 
#    y 0.000000 1.657030 0.000000 
#    z 0.000000 0.000000 1.678220 
# 
# From -- ./inp_files/16668.got.cif
#   From: 2010.05.17/outbox.cif.g08.bks.cpg/sg53_9_cif.got.tgz:16668.got - 2010.06.03 12:45:16.
