data_PCOD9417978
_publ_section_title
;
Structure prediction by ZEFSAII (Michael W. Deem and Ramdas Pophale) SiO2 
 PCOD9417978
Probable space group: P M N A
;
_chemical_formula_sum "Si O2"
_cell_formula_units_Z 56
_cell_length_a 15.967733
_cell_length_b 18.265224
_cell_length_c 10.322493
_cell_angle_alpha 90.000000
_cell_angle_beta 90.000000
_cell_angle_gamma 90.000000
_cell_volume 3010.598645
_symmetry_space_group_name_H-M "P M N A"
_symmetry_group_IT_number 53
_symmetry_cell_setting 'orthorhombic'
loop_
_space_group_symop_operation_xyz
x,y,z
1/2-x,-y,1/2+z
x,-y,-z
1/2-x,y,1/2-z
-x,-y,-z
1/2+x,y,1/2-z
-x,y,z
1/2+x,-y,1/2+z
loop_
_atom_site_type_symbol
_atom_site_label
_atom_site_fract_x
_atom_site_fract_y
_atom_site_fract_z
Si Si1 0.096947 0.096352 0.748929
Si Si2 0.407380 0.673558 0.898219
Si Si3 0.750195 0.568964 0.904953
Si Si4 0.595052 0.323556 0.408894
Si Si5 0.859235 0.170357 0.478706
Si Si6 0.351179 0.928524 0.736481
Si Si7 0.161574 0.171726 0.997800
O O1 0.118687 0.126262 0.607316
O O2 0.150734 0.138221 0.856396
O O3 0.000000 0.111036 0.777116
O O4 0.113628 0.009914 0.757031
O O5 0.500000 0.641190 0.918896
O O6 0.331436 0.619411 0.929176
O O7 0.399424 0.692427 0.745317
O O8 0.399952 0.749928 0.973178
O O9 0.750000 0.550560 0.750000
O O10 0.833631 0.616342 0.933658
O O11 0.747900 0.500000 0.000000
O O12 0.500000 0.347969 0.436811
O O13 0.615380 0.248595 0.483004
O O14 0.882750 0.121535 0.354514
O O15 0.759435 0.183144 0.472520
O O16 0.250000 0.934104 0.750000
O O17 0.370584 0.887331 0.602650
#
# Coordination Sequence:
#
# PCOD9417978 Si02
#       7
#     8   8   8   8   8   8   8
#     4  12  26  38  50  84 128 163 204 262 319 361
#     4  10  20  37  65  94 122 161 206 247 292 360
#     4  10  22  42  66  94 125 157 198 240 299 363
#     4  10  20  37  65  94 122 161 206 247 292 360
#     4  11  21  39  63  86 117 160 212 257 305 366
#     4  10  22  38  62  84 112 157 214 261 308 368
#     4  11  21  39  63  86 117 160 212 257 305 366
#
# _framework density 18.600953000000001
#
# number of rings (size 3 to 8) (size 9 to 14) (size 15 to 20)
#    0.000    1.429    2.857    3.000    0.000    6.286 
#    2.571    0.000    0.000    0.000    0.000    0.000 
#    0.000    0.000    0.000    0.000    0.000    0.000 
#
# Total GULP energy -312919.312469 kJ/mol
# GULP energy per Si atom -5587.844866 kJ/mol
# Density = 1.855862 g / cm^3
# Si number density = 18.600953 Si / 1000 Ang^3
#
#
#
# Elastic Constant Matrix: (Units=GPa)
#
#
# Indices 1 2 3 4 5 6 
#
# 1 96.3582 41.9771 7.6214 0.0000 0.0000 0.0000
# 2 41.9771 114.6666 33.3939 0.0000 0.0000 0.0000
# 3 7.6214 33.3939 50.8217 0.0000 0.0000 0.0000
# 4 0.0000 0.0000 0.0000 -8.5761 0.0000 0.0000
# 5 0.0000 0.0000 0.0000 0.0000 14.2804 0.0000
# 6 0.0000 0.0000 0.0000 0.0000 0.0000 -1.9265
#
#
#
# Elastic Compliance Matrix: (Units=1/GPa)
#
#
# Indices 1 2 3 4 5 6 
#
# 1 0.012426 -0.004954 0.001392 0.000000 0.000000 0.000000
# 2 -0.004954 0.012760 -0.007641 0.000000 0.000000 0.000000
# 3 0.001392 -0.007641 0.024489 0.000000 0.000000 0.000000
# 4 0.000000 0.000000 0.000000 -0.116604 0.000000 0.000000
# 5 0.000000 0.000000 0.000000 0.000000 0.070026 0.000000
# 6 0.000000 0.000000 0.000000 0.000000 0.000000 -0.519075
#
#
# Mechanical properties :
#
#
# Convention : Reuss Voigt Hill
#
# Bulk Modulus (GPa) = 36.67373 47.53681 42.10527
# Shear Modulus (GPa) = -10.32032 12.67918 1.17943
#
# Velocity S-wave (km/s) = -2.35803 2.61366 0.79715
# Velocity P-wave (km/s) = 3.51356 5.89236 4.85103
#
# Compressibility (1/GPa) = 0.02726748
#
# Stress axis : x y z
#
# Youngs Moduli (GPa) = 80.47554 78.37004 40.83487
#
# Poissons Ratio (x) = 0.38827 -0.05684
# Poissons Ratio (y) = 0.39870 0.31203
# Poissons Ratio (z) = -0.11202 0.59885
#
# Static dielectric constant tensor:
#      x y z
#    x 1.672540 0.000000 0.000000 
#    y 0.000000 1.595910 0.000000 
#    z 0.000000 0.000000 1.618010 
# 
# From -- ./inp_files/8864.got.cif
#   From: 2010.05.17/outbox.cif.g08.bks.cpg/sg53_5_cif.got.tgz:8864.got - 2010.06.03 12:45:16.
