data_PCOD9417288
_publ_section_title
;
Structure prediction by ZEFSAII (Michael W. Deem and Ramdas Pophale) SiO2 
 PCOD9417288
Probable space group: P M N A
;
_chemical_formula_sum "Si O2"
_cell_formula_units_Z 64
_cell_length_a 11.381294
_cell_length_b 13.387083
_cell_length_c 18.685654
_cell_angle_alpha 90.000000
_cell_angle_beta 90.000000
_cell_angle_gamma 90.000000
_cell_volume 2846.989733
_symmetry_space_group_name_H-M "P M N A"
_symmetry_group_IT_number 53
_symmetry_cell_setting 'orthorhombic'
loop_
_space_group_symop_operation_xyz
x,y,z
1/2-x,-y,1/2+z
x,-y,-z
1/2-x,y,1/2-z
-x,-y,-z
1/2+x,y,1/2-z
-x,y,z
1/2+x,-y,1/2+z
loop_
_atom_site_type_symbol
_atom_site_label
_atom_site_fract_x
_atom_site_fract_y
_atom_site_fract_z
Si Si1 0.127094 0.272454 0.232912
Si Si2 0.627333 0.300655 0.558648
Si Si3 0.624217 0.455053 0.152954
Si Si4 0.628003 0.055881 0.077077
Si Si5 0.129342 0.109419 0.034927
Si Si6 0.371933 0.598338 0.594477
Si Si7 0.371937 0.897754 0.205483
Si Si8 0.680629 0.675525 0.176753
O O1 0.250000 0.218062 0.250000
O O2 0.130784 0.373661 0.282590
O O3 0.126954 0.310288 0.151208
O O4 0.000000 0.223347 0.247734
O O5 0.500000 0.310360 0.594560
O O6 0.637877 0.188651 0.528950
O O7 0.628861 0.366502 0.486993
O O8 0.730858 0.325459 0.610733
O O9 0.500000 0.432094 0.114192
O O10 0.746540 0.449878 0.110643
O O11 0.617432 0.569267 0.177860
O O12 0.500000 0.108778 0.082957
O O13 0.749399 0.117741 0.078935
O O14 0.634117 0.974369 0.139640
O O15 0.626924 0.000000 0.000000
O O16 0.000000 0.124591 0.069923
O O17 0.127328 0.000000 0.000000
O O18 0.500000 0.546536 0.606706
O O19 0.250000 0.907545 0.250000
O O20 0.500000 0.915202 0.243157
O O21 0.377334 0.784463 0.175827
O O22 0.750000 0.676530 0.250000
#
# Coordination Sequence:
#
# PCOD9417288 Si02
#       8
#     8   8   8   8   8   8   8   8
#     4   8  14  27  50  75  98 129 172 218 263 315
#     4  10  22  38  57  84 115 145 184 234 285 339
#     4  10  20  35  54  78 108 145 190 235 281 335
#     4   9  17  32  55  82 111 145 185 226 273 332
#     4   9  17  32  56  84 109 136 174 219 268 327
#     4   9  18  35  56  78 105 139 180 227 278 331
#     4  10  22  38  57  84 119 156 191 232 281 333
#     4  11  22  35  53  78 111 150 192 235 282 335
#
# _framework density 22.479883999999998
#
# number of rings (size 3 to 8) (size 9 to 14) (size 15 to 20)
#    0.000    2.500    0.000    3.000    0.000    4.000 
#    0.000    4.375    0.000    2.250    0.000    8.750 
#    0.000    0.000    0.000    0.000    0.000    0.000 
#
# Total GULP energy -356691.602045 kJ/mol
# GULP energy per Si atom -5573.306282 kJ/mol
# Density = 2.242872 g / cm^3
# Si number density = 22.479884 Si / 1000 Ang^3
#
#
#
# Elastic Constant Matrix: (Units=GPa)
#
#
# Indices 1 2 3 4 5 6 
#
# 1 241.4141 13.7480 51.7573 0.0000 0.0000 0.0000
# 2 13.7480 42.7724 8.5393 0.0000 0.0000 0.0000
# 3 51.7573 8.5393 64.9802 0.0000 0.0000 0.0000
# 4 0.0000 0.0000 0.0000 19.6923 0.0000 0.0000
# 5 0.0000 0.0000 0.0000 0.0000 12.1687 0.0000
# 6 0.0000 0.0000 0.0000 0.0000 0.0000 40.0318
#
#
#
# Elastic Compliance Matrix: (Units=1/GPa)
#
#
# Indices 1 2 3 4 5 6 
#
# 1 0.005024 -0.000838 -0.003892 0.000000 0.000000 0.000000
# 2 -0.000838 0.024149 -0.002506 0.000000 0.000000 0.000000
# 3 -0.003892 -0.002506 0.018819 0.000000 0.000000 0.000000
# 4 0.000000 0.000000 0.000000 0.050781 0.000000 0.000000
# 5 0.000000 0.000000 0.000000 0.000000 0.082178 0.000000
# 6 0.000000 0.000000 0.000000 0.000000 0.000000 0.024980
#
#
# Mechanical properties :
#
#
# Convention : Reuss Voigt Hill
#
# Bulk Modulus (GPa) = 29.83265 55.25066 42.54166
# Shear Modulus (GPa) = 21.59114 32.72003 27.15559
#
# Velocity S-wave (km/s) = 3.10250 3.81927 3.47939
# Velocity P-wave (km/s) = 5.11211 6.63930 5.92511
#
# Compressibility (1/GPa) = 0.03352032
#
# Stress axis : x y z
#
# Youngs Moduli (GPa) = 199.03037 41.40914 53.13915
#
# Poissons Ratio (x) = 0.03470 0.20681
# Poissons Ratio (y) = 0.16678 0.13317
# Poissons Ratio (z) = 0.77459 0.10378
#
# Static dielectric constant tensor:
#      x y z
#    x 1.957090 0.000000 0.000000 
#    y 0.000000 1.860730 0.000000 
#    z 0.000000 0.000000 1.761050 
# 
# From -- ./inp_files/27700.got.cif
#   From: 2010.05.17/outbox.cif.g08.bks.cpg/sg53_14_cif.got.tgz:27700.got - 2010.06.03 12:45:16.
