data_PCOD9417943
_publ_section_title
;
Structure prediction by ZEFSAII (Michael W. Deem and Ramdas Pophale) SiO2 
 PCOD9417943
Probable space group: P M N A
;
_chemical_formula_sum "Si O2"
_cell_formula_units_Z 40
_cell_length_a 8.667367
_cell_length_b 7.407450
_cell_length_c 31.262846
_cell_angle_alpha 90.000000
_cell_angle_beta 90.000000
_cell_angle_gamma 90.000000
_cell_volume 2007.171243
_symmetry_space_group_name_H-M "P M N A"
_symmetry_group_IT_number 53
_symmetry_cell_setting 'orthorhombic'
loop_
_space_group_symop_operation_xyz
x,y,z
1/2-x,-y,1/2+z
x,-y,-z
1/2-x,y,1/2-z
-x,-y,-z
1/2+x,y,1/2-z
-x,y,z
1/2+x,-y,1/2+z
loop_
_atom_site_type_symbol
_atom_site_label
_atom_site_fract_x
_atom_site_fract_y
_atom_site_fract_z
Si Si1 0.315299 0.493323 0.202434
Si Si2 0.314460 0.795349 0.638374
Si Si3 0.316203 0.803365 0.136553
Si Si4 0.681091 0.218619 0.547212
Si Si5 0.818806 0.220061 0.045316
O O1 0.250000 0.502260 0.250000
O O2 0.500000 0.484919 0.204017
O O3 0.252071 0.321890 0.176592
O O4 0.270435 0.667135 0.174079
O O5 0.500000 0.786090 0.637996
O O6 0.256279 0.724796 0.591648
O O7 0.263911 0.003072 0.642236
O O8 0.500000 0.827963 0.137150
O O9 0.267027 0.726514 0.090171
O O10 0.500000 0.267439 0.550614
O O11 0.744285 0.279523 0.500866
O O12 0.687736 0.999106 0.546218
O O13 0.000000 0.269009 0.044228
#
# Coordination Sequence:
#
# PCOD9417943 Si02
#       5
#     8   8   8   8   8
#     4  11  25  43  61  82 110 144 185 235 286 338
#     4  10  20  37  62  87 114 149 188 231 279 331
#     4  10  21  37  57  84 118 151 186 230 281 336
#     4   8  13  26  50  78 110 148 190 228 264 317
#     4   7  12  25  48  79 111 145 185 225 265 318
#
# _framework density 19.928543999999999
#
# number of rings (size 3 to 8) (size 9 to 14) (size 15 to 20)
#    0.000    2.800    0.000    4.200    0.000    4.000 
#    0.000   12.000    0.000    6.000    0.000    0.000 
#    0.000    0.000    0.000    0.000    0.000    0.000 
#
# Total GULP energy -223119.611101 kJ/mol
# GULP energy per Si atom -5577.990278 kJ/mol
# Density = 1.988319 g / cm^3
# Si number density = 19.928544 Si / 1000 Ang^3
#
#
#
# Elastic Constant Matrix: (Units=GPa)
#
#
# Indices 1 2 3 4 5 6 
#
# 1 35.8584 26.3122 51.7061 0.0000 0.0000 0.0000
# 2 26.3122 91.4971 74.1966 0.0000 0.0000 0.0000
# 3 51.7061 74.1966 241.8808 0.0000 0.0000 0.0000
# 4 0.0000 0.0000 0.0000 41.8922 0.0000 0.0000
# 5 0.0000 0.0000 0.0000 0.0000 32.5640 0.0000
# 6 0.0000 0.0000 0.0000 0.0000 0.0000 124.8930
#
#
#
# Elastic Compliance Matrix: (Units=1/GPa)
#
#
# Indices 1 2 3 4 5 6 
#
# 1 0.043073 -0.006549 -0.007199 0.000000 0.000000 0.000000
# 2 -0.006549 0.015544 -0.003368 0.000000 0.000000 0.000000
# 3 -0.007199 -0.003368 0.006706 0.000000 0.000000 0.000000
# 4 0.000000 0.000000 0.000000 0.023871 0.000000 0.000000
# 5 0.000000 0.000000 0.000000 0.000000 0.030709 0.000000
# 6 0.000000 0.000000 0.000000 0.000000 0.000000 0.008007
#
#
# Mechanical properties :
#
#
# Convention : Reuss Voigt Hill
#
# Bulk Modulus (GPa) = 32.16310 74.85179 53.50744
# Shear Modulus (GPa) = 28.98457 54.33794 41.66125
#
# Velocity S-wave (km/s) = 3.81783 5.22739 4.57719
# Velocity P-wave (km/s) = 5.96730 8.60673 7.40555
#
# Compressibility (1/GPa) = 0.03109153
#
# Stress axis : x y z
#
# Youngs Moduli (GPa) = 23.21626 64.33388 149.11446
#
# Poissons Ratio (x) = 0.42134 1.07343
# Poissons Ratio (y) = 0.15205 0.50223
# Poissons Ratio (z) = 0.16713 0.21668
#
# Static dielectric constant tensor:
#      x y z
#    x 1.668670 0.000000 0.000000 
#    y 0.000000 1.727660 0.000000 
#    z 0.000000 0.000000 1.724340 
# 
# From -- ./inp_files/37527.got.cif
#   From: 2010.05.17/outbox.cif.g08.bks.cpg/sg53_19_cif.got.tgz:37527.got - 2010.06.03 12:45:16.
