data_PCOD9417739
_publ_section_title
;
Structure prediction by ZEFSAII (Michael W. Deem and Ramdas Pophale) SiO2 
 PCOD9417739
Probable space group: P M N A
;
_chemical_formula_sum "Si O2"
_cell_formula_units_Z 56
_cell_length_a 8.171905
_cell_length_b 16.965207
_cell_length_c 19.635450
_cell_angle_alpha 90.000000
_cell_angle_beta 90.000000
_cell_angle_gamma 90.000000
_cell_volume 2722.220693
_symmetry_space_group_name_H-M "P M N A"
_symmetry_group_IT_number 53
_symmetry_cell_setting 'orthorhombic'
loop_
_space_group_symop_operation_xyz
x,y,z
1/2-x,-y,1/2+z
x,-y,-z
1/2-x,y,1/2-z
-x,-y,-z
1/2+x,y,1/2-z
-x,y,z
1/2+x,-y,1/2+z
loop_
_atom_site_type_symbol
_atom_site_label
_atom_site_fract_x
_atom_site_fract_y
_atom_site_fract_z
Si Si1 0.692566 0.335584 0.579418
Si Si2 0.806789 0.072061 0.044387
Si Si3 0.193166 0.356039 0.172357
Si Si4 0.691333 0.502582 0.922308
Si Si5 0.303912 0.985155 0.172177
Si Si6 0.299306 0.248033 0.445232
Si Si7 0.304024 0.806483 0.171880
O O1 0.500000 0.353287 0.576957
O O2 0.783852 0.413615 0.603769
O O3 0.749089 0.308988 0.504261
O O4 0.722869 0.260533 0.626859
O O5 0.781127 0.046063 0.122079
O O6 0.739704 0.160360 0.036496
O O7 0.000000 0.076348 0.028251
O O8 0.734560 0.000000 0.000000
O O9 0.250000 0.360434 0.250000
O O10 0.231026 0.434060 0.128175
O O11 0.257780 0.282559 0.127064
O O12 0.000000 0.346900 0.174848
O O13 0.500000 0.521818 0.926735
O O14 0.759598 0.500000 0.000000
O O15 0.250000 0.995515 0.250000
O O16 0.500000 0.992046 0.167390
O O17 0.256776 0.895620 0.150999
O O18 0.500000 0.245523 0.445126
O O19 0.250000 0.797349 0.250000
O O20 0.500000 0.800136 0.167184
#
# Coordination Sequence:
#
# PCOD9417739 Si02
#       7
#     8   8   8   8   8   8   8
#     4  11  21  37  63  90 118 155 197 239 293 355
#     4  10  20  36  59  87 121 157 200 249 298 355
#     4  11  23  42  64  89 123 160 205 252 302 358
#     4  11  23  40  63  91 122 155 196 242 296 356
#     4  10  21  37  57  81 113 154 198 245 298 356
#     4   9  20  37  59  87 119 158 199 243 298 356
#     4  10  21  37  56  83 118 154 195 245 299 353
#
# _framework density 20.571441
#
# number of rings (size 3 to 8) (size 9 to 14) (size 15 to 20)
#    0.000    1.714    1.429    3.000    0.000    4.857 
#    0.000    7.143    0.000    0.000    0.000    0.000 
#    0.000    0.000    0.000    0.000    0.000    0.000 
#
# Total GULP energy -312825.269160 kJ/mol
# GULP energy per Si atom -5586.165521 kJ/mol
# Density = 2.052462 g / cm^3
# Si number density = 20.571441 Si / 1000 Ang^3
#
#
#
# Elastic Constant Matrix: (Units=GPa)
#
#
# Indices 1 2 3 4 5 6 
#
# 1 23.4624 -0.0225 0.4006 0.0000 0.0000 0.0000
# 2 -0.0225 108.2833 36.8800 0.0000 0.0000 0.0000
# 3 0.4006 36.8800 76.7152 0.0000 0.0000 0.0000
# 4 0.0000 0.0000 0.0000 -231.5003 0.0000 0.0000
# 5 0.0000 0.0000 0.0000 0.0000 20.0898 0.0000
# 6 0.0000 0.0000 0.0000 0.0000 0.0000 13.3341
#
#
#
# Elastic Compliance Matrix: (Units=1/GPa)
#
#
# Indices 1 2 3 4 5 6 
#
# 1 0.042626 0.000101 -0.000271 0.000000 0.000000 0.000000
# 2 0.000101 0.011043 -0.005310 0.000000 0.000000 0.000000
# 3 -0.000271 -0.005310 0.015589 0.000000 0.000000 0.000000
# 4 0.000000 0.000000 0.000000 -0.004320 0.000000 0.000000
# 5 0.000000 0.000000 0.000000 0.000000 0.049777 0.000000
# 6 0.000000 0.000000 0.000000 0.000000 0.000000 0.074996
#
#
# Mechanical properties :
#
#
# Convention : Reuss Voigt Hill
#
# Bulk Modulus (GPa) = 17.15279 31.44190 24.29735
# Shear Modulus (GPa) = 22.71659 -28.20177 -2.74259
#
# Velocity S-wave (km/s) = 3.32667 -3.70661 -1.15590
# Velocity P-wave (km/s) = 4.80749 1.73239 3.17102
#
# Compressibility (1/GPa) = 0.05829954
#
# Stress axis : x y z
#
# Youngs Moduli (GPa) = 23.45981 90.55162 64.14716
#
# Poissons Ratio (x) = -0.00917 0.01740
# Poissons Ratio (y) = -0.00238 0.34059
# Poissons Ratio (z) = 0.00636 0.48079
#
# Static dielectric constant tensor:
#      x y z
#    x 1.709900 0.000000 0.000000 
#    y 0.000000 1.734890 0.000000 
#    z 0.000000 0.000000 1.745500 
# 
# From -- ./inp_files/30764.got.cif
#   From: 2010.05.17/outbox.cif.g08.bks.cpg/sg53_16_cif.got.tgz:30764.got - 2010.06.03 12:45:16.
