data_PCOD9417855
_publ_section_title
;
Structure prediction by ZEFSAII (Michael W. Deem and Ramdas Pophale) SiO2 
 PCOD9417855
Probable space group: P M N A
;
_chemical_formula_sum "Si O2"
_cell_formula_units_Z 40
_cell_length_a 8.598614
_cell_length_b 26.505642
_cell_length_c 9.285057
_cell_angle_alpha 90.000000
_cell_angle_beta 90.000000
_cell_angle_gamma 90.000000
_cell_volume 2116.173909
_symmetry_space_group_name_H-M "P M N A"
_symmetry_group_IT_number 53
_symmetry_cell_setting 'orthorhombic'
loop_
_space_group_symop_operation_xyz
x,y,z
1/2-x,-y,1/2+z
x,-y,-z
1/2-x,y,1/2-z
-x,-y,-z
1/2+x,y,1/2-z
-x,y,z
1/2+x,-y,1/2+z
loop_
_atom_site_type_symbol
_atom_site_label
_atom_site_fract_x
_atom_site_fract_y
_atom_site_fract_z
Si Si1 0.312797 0.160951 0.086810
Si Si2 0.812907 0.649548 0.587858
Si Si3 0.312562 0.951989 0.910722
Si Si4 0.314330 0.744795 0.411625
Si Si5 0.812265 0.549510 0.412110
O O1 0.250000 0.167117 0.250000
O O2 0.500000 0.165106 0.089242
O O3 0.269308 0.104191 0.036333
O O4 0.242979 0.203625 0.985349
O O5 0.750000 0.647140 0.750000
O O6 0.748793 0.698578 0.506862
O O7 0.765461 0.599755 0.498529
O O8 0.000000 0.651821 0.591405
O O9 0.250000 0.956176 0.750000
O O10 0.500000 0.953573 0.908223
O O11 0.255389 0.000000 0.000000
O O12 0.250000 0.740734 0.250000
O O13 0.500000 0.743395 0.408881
O O14 0.760453 0.500000 0.500000
O O15 0.750000 0.549588 0.250000
O O16 0.000000 0.548719 0.406156
#
# Coordination Sequence:
#
# PCOD9417855 Si02
#       5
#     8   8   8   8   8
#     4  10  20  37  59  83 113 149 190 233 281 337
#     4  11  23  40  62  88 118 153 194 236 284 340
#     4   9  19  35  55  81 112 146 185 229 277 332
#     4  12  25  41  60  84 115 149 189 236 287 340
#     4  10  22  39  60  88 120 154 193 237 285 338
#
# _framework density 18.902038999999998
#
# number of rings (size 3 to 8) (size 9 to 14) (size 15 to 20)
#    0.000    1.600    0.000    4.800    0.000    5.600 
#    0.000    2.000    0.000    0.000    0.000    0.000 
#    0.000    0.000    0.000    0.000    0.000    0.000 
#
# Total GULP energy -223566.041640 kJ/mol
# GULP energy per Si atom -5589.151041 kJ/mol
# Density = 1.885902 g / cm^3
# Si number density = 18.902039 Si / 1000 Ang^3
#
#
#
# Elastic Constant Matrix: (Units=GPa)
#
#
# Indices 1 2 3 4 5 6 
#
# 1 69.8761 59.1212 47.5154 0.0000 0.0000 0.0000
# 2 59.1212 215.8022 124.4365 0.0000 0.0000 0.0000
# 3 47.5154 124.4365 168.5465 0.0000 0.0000 0.0000
# 4 0.0000 0.0000 0.0000 39.7852 0.0000 0.0000
# 5 0.0000 0.0000 0.0000 0.0000 38.4420 0.0000
# 6 0.0000 0.0000 0.0000 0.0000 0.0000 168.5450
#
#
#
# Elastic Compliance Matrix: (Units=1/GPa)
#
#
# Indices 1 2 3 4 5 6 
#
# 1 0.019299 -0.003744 -0.002677 0.000000 0.000000 0.000000
# 2 -0.003744 0.008795 -0.005438 0.000000 0.000000 0.000000
# 3 -0.002677 -0.005438 0.010702 0.000000 0.000000 0.000000
# 4 0.000000 0.000000 0.000000 0.025135 0.000000 0.000000
# 5 0.000000 0.000000 0.000000 0.000000 0.026013 0.000000
# 6 0.000000 0.000000 0.000000 0.000000 0.000000 0.005933
#
#
# Mechanical properties :
#
#
# Convention : Reuss Voigt Hill
#
# Bulk Modulus (GPa) = 66.31438 101.81899 84.06668
# Shear Modulus (GPa) = 40.12178 64.23123 52.17651
#
# Velocity S-wave (km/s) = 4.61218 5.83566 5.25962
# Velocity P-wave (km/s) = 7.97009 9.96946 9.02531
#
# Compressibility (1/GPa) = 0.01507968
#
# Stress axis : x y z
#
# Youngs Moduli (GPa) = 51.81736 113.69889 93.43623
#
# Poissons Ratio (x) = 0.42565 0.25009
# Poissons Ratio (y) = 0.19399 0.50811
# Poissons Ratio (z) = 0.13869 0.61830
#
# Static dielectric constant tensor:
#      x y z
#    x 1.635460 0.000000 0.000000 
#    y 0.000000 1.662510 0.000000 
#    z 0.000000 0.000000 1.601770 
# 
# From -- ./inp_files/6255.got.cif
#   From: 2010.05.17/outbox.cif.g08.bks.cpg/sg53_4_cif.got.tgz:6255.got - 2010.06.03 12:45:16.
