data_PCOD9417888
_publ_section_title
;
Structure prediction by ZEFSAII (Michael W. Deem and Ramdas Pophale) SiO2 
 PCOD9417888
Probable space group: P M N A
;
_chemical_formula_sum "Si O2"
_cell_formula_units_Z 40
_cell_length_a 8.491988
_cell_length_b 13.149054
_cell_length_c 18.749963
_cell_angle_alpha 90.000000
_cell_angle_beta 90.000000
_cell_angle_gamma 90.000000
_cell_volume 2093.651033
_symmetry_space_group_name_H-M "P M N A"
_symmetry_group_IT_number 53
_symmetry_cell_setting 'orthorhombic'
loop_
_space_group_symop_operation_xyz
x,y,z
1/2-x,-y,1/2+z
x,-y,-z
1/2-x,y,1/2-z
-x,-y,-z
1/2+x,y,1/2-z
-x,y,z
1/2+x,-y,1/2+z
loop_
_atom_site_type_symbol
_atom_site_label
_atom_site_fract_x
_atom_site_fract_y
_atom_site_fract_z
Si Si1 0.312903 0.101971 0.586164
Si Si2 0.307856 0.491835 0.918160
Si Si3 0.688742 0.119286 0.073081
Si Si4 0.190231 0.690545 0.669521
Si Si5 0.189200 0.705892 0.329733
O O1 0.500000 0.093127 0.589655
O O2 0.262367 0.130440 0.505480
O O3 0.252879 0.188792 0.638807
O O4 0.237913 0.991663 0.600998
O O5 0.500000 0.492360 0.919048
O O6 0.257100 0.589222 0.872173
O O7 0.259033 0.387442 0.880262
O O8 0.255118 0.500000 0.000000
O O9 0.500000 0.123013 0.065263
O O10 0.739515 0.209687 0.125287
O O11 0.250000 0.691906 0.750000
O O12 0.000000 0.689775 0.670706
O O13 0.250000 0.689156 0.250000
O O14 0.000000 0.708675 0.329591
#
# Coordination Sequence:
#
# PCOD9417888 Si02
#       5
#     8   8   8   8   8
#     4  11  22  37  58  84 114 147 188 236 284 332
#     4   9  18  35  59  84 110 144 186 229 276 333
#     4  10  20  37  60  84 112 149 192 232 278 334
#     4  10  21  36  57  84 114 148 183 226 278 332
#     4  11  22  37  58  83 115 151 188 231 280 335
#
# _framework density 19.10538
#
# number of rings (size 3 to 8) (size 9 to 14) (size 15 to 20)
#    0.000    1.800    0.000    6.000    0.000    5.600 
#    0.000    3.000    0.000    4.200    0.000    0.000 
#    0.000    0.000    0.000    0.000    0.000    0.000 
#
# Total GULP energy -223552.246767 kJ/mol
# GULP energy per Si atom -5588.806169 kJ/mol
# Density = 1.906190 g / cm^3
# Si number density = 19.105380 Si / 1000 Ang^3
#
#
#
# Elastic Constant Matrix: (Units=GPa)
#
#
# Indices 1 2 3 4 5 6 
#
# 1 21.4320 -15.2946 -17.4968 0.0000 0.0000 0.0000
# 2 -15.2946 56.5675 18.4149 0.0000 0.0000 0.0000
# 3 -17.4968 18.4149 62.6344 0.0000 0.0000 0.0000
# 4 0.0000 0.0000 0.0000 63.5363 0.0000 0.0000
# 5 0.0000 0.0000 0.0000 0.0000 31.0140 0.0000
# 6 0.0000 0.0000 0.0000 0.0000 0.0000 15.7439
#
#
#
# Elastic Compliance Matrix: (Units=1/GPa)
#
#
# Indices 1 2 3 4 5 6 
#
# 1 0.068823 0.013657 0.015210 0.000000 0.000000 0.000000
# 2 0.013657 0.022259 -0.002729 0.000000 0.000000 0.000000
# 3 0.015210 -0.002729 0.021017 0.000000 0.000000 0.000000
# 4 0.000000 0.000000 0.000000 0.015739 0.000000 0.000000
# 5 0.000000 0.000000 0.000000 0.000000 0.032243 0.000000
# 6 0.000000 0.000000 0.000000 0.000000 0.000000 0.063516
#
#
# Mechanical properties :
#
#
# Convention : Reuss Voigt Hill
#
# Bulk Modulus (GPa) = 6.08369 12.43120 9.25745
# Shear Modulus (GPa) = 22.11276 32.39288 27.25282
#
# Velocity S-wave (km/s) = 3.40576 4.12209 3.78093
# Velocity P-wave (km/s) = 4.31936 5.40151 4.89046
#
# Compressibility (1/GPa) = 0.16437385
#
# Stress axis : x y z
#
# Youngs Moduli (GPa) = 14.53011 44.92575 47.58031
#
# Poissons Ratio (x) = -0.61353 -0.72371
# Poissons Ratio (y) = -0.19843 0.12986
# Poissons Ratio (z) = -0.22101 0.12262
#
# Static dielectric constant tensor:
#      x y z
#    x 1.656900 0.000000 0.000000 
#    y 0.000000 1.651110 0.000000 
#    z 0.000000 0.000000 1.626660 
# 
# From -- ./inp_files/25853.got.cif
#   From: 2010.05.17/outbox.cif.g08.bks.cpg/sg53_13_cif.got.tgz:25853.got - 2010.06.03 12:45:16.
