data_PCOD9417522
_publ_section_title
;
Structure prediction by ZEFSAII (Michael W. Deem and Ramdas Pophale) SiO2 
 PCOD9417522
Probable space group: P M N A
;
_chemical_formula_sum "Si O2"
_cell_formula_units_Z 56
_cell_length_a 19.902385
_cell_length_b 12.417494
_cell_length_c 11.743826
_cell_angle_alpha 90.000000
_cell_angle_beta 90.000000
_cell_angle_gamma 90.000000
_cell_volume 2902.342691
_symmetry_space_group_name_H-M "P M N A"
_symmetry_group_IT_number 53
_symmetry_cell_setting 'orthorhombic'
loop_
_space_group_symop_operation_xyz
x,y,z
1/2-x,-y,1/2+z
x,-y,-z
1/2-x,y,1/2-z
-x,-y,-z
1/2+x,y,1/2-z
-x,y,z
1/2+x,-y,1/2+z
loop_
_atom_site_type_symbol
_atom_site_label
_atom_site_fract_x
_atom_site_fract_y
_atom_site_fract_z
Si Si1 0.812009 0.123569 0.984345
Si Si2 0.078074 0.986927 0.368044
Si Si3 0.575230 0.188679 0.693113
Si Si4 0.234905 0.334858 0.565877
Si Si5 0.819587 0.614561 0.679278
Si Si6 0.169392 0.154093 0.238167
Si Si7 0.353126 0.398192 0.720900
O O1 0.844149 0.157635 0.104192
O O2 0.867590 0.137123 0.886583
O O3 0.754326 0.210996 0.959508
O O4 0.789473 0.000000 0.000000
O O5 0.127946 0.060806 0.296806
O O6 0.000000 0.020808 0.352855
O O7 0.094453 0.000000 0.500000
O O8 0.082684 0.866881 0.316734
O O9 0.500000 0.163281 0.652401
O O10 0.586789 0.316725 0.696119
O O11 0.201795 0.385678 0.453170
O O12 0.303115 0.393218 0.611467
O O13 0.186660 0.343209 0.673929
O O14 0.750000 0.605570 0.750000
O O15 0.848130 0.731812 0.706004
O O16 0.863937 0.517793 0.730360
O O17 0.250000 0.137382 0.250000
#
# Coordination Sequence:
#
# PCOD9417522 Si02
#       7
#     8   8   8   8   8   8   8
#     4  11  21  37  57  91 122 153 195 245 307 361
#     4  10  23  44  63  83 121 170 206 245 305 374
#     4  10  23  42  62  84 116 159 208 255 298 354
#     4  10  20  36  54  87 120 152 192 235 301 364
#     4  11  20  36  56  85 124 160 185 243 302 359
#     4  11  23  37  59  95 124 157 195 252 309 359
#     4  10  22  36  60  87 114 156 202 243 289 363
#
# _framework density 19.294758000000002
#
# number of rings (size 3 to 8) (size 9 to 14) (size 15 to 20)
#    0.000    1.571    5.714    0.429    2.000    2.571 
#    0.000    0.714    0.000    2.571    0.000    0.000 
#    0.000    0.000    0.000    0.000    0.000    0.000 
#
# Total GULP energy -312430.657555 kJ/mol
# GULP energy per Si atom -5579.118885 kJ/mol
# Density = 1.925084 g / cm^3
# Si number density = 19.294758 Si / 1000 Ang^3
#
#
#
# Elastic Constant Matrix: (Units=GPa)
#
#
# Indices 1 2 3 4 5 6 
#
# 1 19.6984 10.4262 2.1822 0.0000 0.0000 0.0000
# 2 10.4262 94.1487 5.7905 0.0000 0.0000 0.0000
# 3 2.1822 5.7905 100.5920 0.0000 0.0000 0.0000
# 4 0.0000 0.0000 0.0000 30.8317 0.0000 0.0000
# 5 0.0000 0.0000 0.0000 0.0000 12.4853 0.0000
# 6 0.0000 0.0000 0.0000 0.0000 0.0000 4.4351
#
#
#
# Elastic Compliance Matrix: (Units=1/GPa)
#
#
# Indices 1 2 3 4 5 6 
#
# 1 0.053996 -0.005929 -0.000830 0.000000 0.000000 0.000000
# 2 -0.005929 0.011310 -0.000522 0.000000 0.000000 0.000000
# 3 -0.000830 -0.000522 0.009989 0.000000 0.000000 0.000000
# 4 0.000000 0.000000 0.000000 0.032434 0.000000 0.000000
# 5 0.000000 0.000000 0.000000 0.000000 0.080094 0.000000
# 6 0.000000 0.000000 0.000000 0.000000 0.000000 0.225472
#
#
# Mechanical properties :
#
#
# Convention : Reuss Voigt Hill
#
# Bulk Modulus (GPa) = 16.46557 27.91522 22.19040
# Shear Modulus (GPa) = 11.15819 22.61977 16.88898
#
# Velocity S-wave (km/s) = 2.40740 3.42764 2.96178
# Velocity P-wave (km/s) = 4.03481 5.49219 4.81891
#
# Compressibility (1/GPa) = 0.06073277
#
# Stress axis : x y z
#
# Youngs Moduli (GPa) = 18.52004 88.41605 100.10778
#
# Poissons Ratio (x) = 0.52418 0.08310
# Poissons Ratio (y) = 0.10980 0.05230
# Poissons Ratio (z) = 0.01537 0.04619
#
# Static dielectric constant tensor:
#      x y z
#    x 1.656990 0.000000 0.000000 
#    y 0.000000 1.723720 0.000000 
#    z 0.000000 0.000000 1.678020 
# 
# From -- ./inp_files/17856.got.cif
#   From: 2010.05.17/outbox.cif.g08.bks.cpg/sg53_9_cif.got.tgz:17856.got - 2010.06.03 12:45:16.
