data_PCOD9417484
_publ_section_title
;
Structure prediction by ZEFSAII (Michael W. Deem and Ramdas Pophale) SiO2 
 PCOD9417484
Probable space group: P M N A
;
_chemical_formula_sum "Si O2"
_cell_formula_units_Z 48
_cell_length_a 18.096592
_cell_length_b 13.532221
_cell_length_c 9.462659
_cell_angle_alpha 90.000000
_cell_angle_beta 90.000000
_cell_angle_gamma 90.000000
_cell_volume 2317.282953
_symmetry_space_group_name_H-M "P M N A"
_symmetry_group_IT_number 53
_symmetry_cell_setting 'orthorhombic'
loop_
_space_group_symop_operation_xyz
x,y,z
1/2-x,-y,1/2+z
x,-y,-z
1/2-x,y,1/2-z
-x,-y,-z
1/2+x,y,1/2-z
-x,y,z
1/2+x,-y,1/2+z
loop_
_atom_site_type_symbol
_atom_site_label
_atom_site_fract_x
_atom_site_fract_y
_atom_site_fract_z
Si Si1 0.083277 0.543437 0.156301
Si Si2 0.415861 0.251272 0.979650
Si Si3 0.335423 0.360253 0.214896
Si Si4 0.672493 0.837139 0.605132
Si Si5 0.164578 0.911587 0.609571
Si Si6 0.911255 0.232559 0.844630
O O1 0.124506 0.461756 0.246779
O O2 0.114478 0.653330 0.139330
O O3 0.000000 0.555237 0.212821
O O4 0.079773 0.500000 0.000000
O O5 0.500000 0.287931 0.982623
O O6 0.397024 0.217670 0.821074
O O7 0.362096 0.328698 0.058131
O O8 0.406487 0.151402 0.067965
O O9 0.250000 0.376544 0.250000
O O10 0.352586 0.264855 0.316178
O O11 0.659161 0.924166 0.720810
O O12 0.761235 0.844337 0.587241
O O13 0.631338 0.835574 0.456203
O O14 0.172132 0.000000 0.500000
O O15 0.000000 0.226417 0.870539
#
# Coordination Sequence:
#
# PCOD9417484 Si02
#       6
#     8   8   8   8   8   8
#     4  10  20  35  59  87 118 164 214 252 290 353
#     4  10  22  40  62  89 124 163 203 255 311 369
#     4  11  20  40  58  88 127 163 207 255 302 363
#     4  10  20  39  62  87 123 159 204 253 311 376
#     4  10  22  41  64  90 117 155 203 255 315 384
#     4  10  22  39  59  90 126 165 210 251 304 362
#
# _framework density 20.713915
#
# number of rings (size 3 to 8) (size 9 to 14) (size 15 to 20)
#    0.000    1.833    5.000    0.500    0.000    7.000 
#    6.000    2.500    0.000    2.500    0.000    0.000 
#    0.000    0.000    0.000    0.000    0.000    0.000 
#
# Total GULP energy -267267.020395 kJ/mol
# GULP energy per Si atom -5568.062925 kJ/mol
# Density = 2.066677 g / cm^3
# Si number density = 20.713915 Si / 1000 Ang^3
#
#
#
# Elastic Constant Matrix: (Units=GPa)
#
#
# Indices 1 2 3 4 5 6 
#
# 1 70.2802 17.8997 66.6706 0.0000 0.0000 0.0000
# 2 17.8997 52.6412 35.4677 0.0000 0.0000 0.0000
# 3 66.6706 35.4677 139.5980 0.0000 0.0000 0.0000
# 4 0.0000 0.0000 0.0000 38.0221 0.0000 0.0000
# 5 0.0000 0.0000 0.0000 0.0000 41.5250 0.0000
# 6 0.0000 0.0000 0.0000 0.0000 0.0000 -19.0490
#
#
#
# Elastic Compliance Matrix: (Units=1/GPa)
#
#
# Indices 1 2 3 4 5 6 
#
# 1 0.026030 -0.000573 -0.012286 0.000000 0.000000 0.000000
# 2 -0.000573 0.022933 -0.005553 0.000000 0.000000 0.000000
# 3 -0.012286 -0.005553 0.014442 0.000000 0.000000 0.000000
# 4 0.000000 0.000000 0.000000 0.026300 0.000000 0.000000
# 5 0.000000 0.000000 0.000000 0.000000 0.024082 0.000000
# 6 0.000000 0.000000 0.000000 0.000000 0.000000 -0.052496
#
#
# Mechanical properties :
#
#
# Convention : Reuss Voigt Hill
#
# Bulk Modulus (GPa) = 37.62151 55.84392 46.73271
# Shear Modulus (GPa) = 46.74041 21.59840 34.16941
#
# Velocity S-wave (km/s) = 4.75539 3.23259 4.06592
# Velocity P-wave (km/s) = 6.95367 6.39930 6.68223
#
# Compressibility (1/GPa) = 0.02658054
#
# Stress axis : x y z
#
# Youngs Moduli (GPa) = 38.41786 43.60589 69.24334
#
# Poissons Ratio (x) = 0.02499 0.85071
# Poissons Ratio (y) = 0.02202 0.38449
# Poissons Ratio (z) = 0.47200 0.24213
#
# Static dielectric constant tensor:
#      x y z
#    x 1.757530 0.000000 0.000000 
#    y 0.000000 1.792790 0.000000 
#    z 0.000000 0.000000 1.818970 
# 
# From -- ./inp_files/10011.got.cif
#   From: 2010.05.17/outbox.cif.g08.bks.cpg/sg53_6_cif.got.tgz:10011.got - 2010.06.03 12:45:16.
