data_PCOD9417000
_publ_section_title
;
Structure prediction by ZEFSAII (Michael W. Deem and Ramdas Pophale) SiO2 
 PCOD9417000
Probable space group: P M N A
;
_chemical_formula_sum "Si O2"
_cell_formula_units_Z 60
_cell_length_a 13.761489
_cell_length_b 14.136447
_cell_length_c 16.217784
_cell_angle_alpha 90.000000
_cell_angle_beta 90.000000
_cell_angle_gamma 90.000000
_cell_volume 3154.984344
_symmetry_space_group_name_H-M "P M N A"
_symmetry_group_IT_number 53
_symmetry_cell_setting 'orthorhombic'
loop_
_space_group_symop_operation_xyz
x,y,z
1/2-x,-y,1/2+z
x,-y,-z
1/2-x,y,1/2-z
-x,-y,-z
1/2+x,y,1/2-z
-x,y,z
1/2+x,-y,1/2+z
loop_
_atom_site_type_symbol
_atom_site_label
_atom_site_fract_x
_atom_site_fract_y
_atom_site_fract_z
Si Si1 0.116529 0.607139 0.502474
Si Si2 0.617403 0.636982 0.677209
Si Si3 0.250000 0.273859 0.750000
Si Si4 0.699491 0.772308 0.083069
Si Si5 0.887315 0.293454 0.994687
Si Si6 0.114141 0.577675 0.157755
Si Si7 0.612786 0.906256 0.957449
Si Si8 0.117611 0.742168 0.655858
O O1 0.149877 0.500000 0.500000
O O2 0.165254 0.664439 0.428886
O O3 0.140608 0.662633 0.586794
O O4 0.000000 0.608575 0.493811
O O5 0.500000 0.630182 0.681688
O O6 0.637789 0.684132 0.589025
O O7 0.652422 0.528060 0.675006
O O8 0.646583 0.700858 0.755420
O O9 0.294572 0.209302 0.821189
O O10 0.329000 0.342683 0.708552
O O11 0.806485 0.777080 0.042136
O O12 0.622894 0.831754 0.031763
O O13 0.881172 0.387912 0.937673
O O14 0.000000 0.261469 0.989477
O O15 0.000000 0.579750 0.180369
O O16 0.500000 0.927909 0.938613
O O17 0.652735 0.844406 0.879678
O O18 0.657728 0.000000 0.000000
O O19 0.000000 0.749860 0.656709
#
# Coordination Sequence:
#
# PCOD9417000 Si02
#       8
#     8   8   4   8   8   8   8   8
#     4   9  18  30  46  69 103 138 164 199 257 320
#     4   9  16  28  48  69 101 138 175 219 247 285
#     4  10  22  32  46  74 102 134 176 218 246 302
#     4  10  20  34  52  74 103 132 173 217 255 303
#     4   9  18  33  49  67  97 144 185 210 249 297
#     4   9  18  31  46  67  99 144 184 212 246 293
#     4   9  18  36  61  81 102 133 165 207 273 339
#     4   8  15  28  46  75 102 125 164 208 251 304
#
# _framework density 19.017527999999999
#
# number of rings (size 3 to 8) (size 9 to 14) (size 15 to 20)
#    0.000    2.933    0.000    1.600    1.867    4.800 
#    2.400    0.000    2.933    0.400    0.000    0.000 
#    0.000    0.000    0.000    0.000    0.000    0.000 
#
# Total GULP energy -334151.647788 kJ/mol
# GULP energy per Si atom -5569.194130 kJ/mol
# Density = 1.897424 g / cm^3
# Si number density = 19.017528 Si / 1000 Ang^3
#
#
#
# Elastic Constant Matrix: (Units=GPa)
#
#
# Indices 1 2 3 4 5 6 
#
# 1 48.7547 -1.7781 0.6984 0.0000 0.0000 0.0000
# 2 -1.7781 53.6326 7.5576 0.0000 0.0000 0.0000
# 3 0.6984 7.5576 108.4949 0.0000 0.0000 0.0000
# 4 0.0000 0.0000 0.0000 18.2411 0.0000 0.0000
# 5 0.0000 0.0000 0.0000 0.0000 17.0921 0.0000
# 6 0.0000 0.0000 0.0000 0.0000 0.0000 6.0058
#
#
#
# Elastic Compliance Matrix: (Units=1/GPa)
#
#
# Indices 1 2 3 4 5 6 
#
# 1 0.020539 0.000707 -0.000181 0.000000 0.000000 0.000000
# 2 0.000707 0.018855 -0.001318 0.000000 0.000000 0.000000
# 3 -0.000181 -0.001318 0.009310 0.000000 0.000000 0.000000
# 4 0.000000 0.000000 0.000000 0.054821 0.000000 0.000000
# 5 0.000000 0.000000 0.000000 0.000000 0.058507 0.000000
# 6 0.000000 0.000000 0.000000 0.000000 0.000000 0.166506
#
#
# Mechanical properties :
#
#
# Convention : Reuss Voigt Hill
#
# Bulk Modulus (GPa) = 21.22329 24.87089 23.04709
# Shear Modulus (GPa) = 14.45799 21.89475 18.17637
#
# Velocity S-wave (km/s) = 2.76025 3.39675 3.09491
# Velocity P-wave (km/s) = 4.61982 5.33762 4.99164
#
# Compressibility (1/GPa) = 0.04711804
#
# Stress axis : x y z
#
# Youngs Moduli (GPa) = 48.68736 53.03771 107.41145
#
# Poissons Ratio (x) = -0.03747 0.01949
# Poissons Ratio (y) = -0.03440 0.14156
# Poissons Ratio (z) = 0.00883 0.06990
#
# Static dielectric constant tensor:
#      x y z
#    x 1.708330 0.000000 0.000000 
#    y 0.000000 1.673790 0.000000 
#    z 0.000000 0.000000 1.692870 
# 
# From -- ./inp_files/23023.got.cif
#   From: 2010.05.17/outbox.cif.g08.bks.cpg/sg53_12_cif.got.tgz:23023.got - 2010.06.03 12:45:16.
