data_PCOD9417208
_publ_section_title
;
Structure prediction by ZEFSAII (Michael W. Deem and Ramdas Pophale) SiO2 
 PCOD9417208
Probable space group: P M N A
;
_chemical_formula_sum "Si O2"
_cell_formula_units_Z 64
_cell_length_a 8.973154
_cell_length_b 24.071673
_cell_length_c 14.975515
_cell_angle_alpha 90.000000
_cell_angle_beta 90.000000
_cell_angle_gamma 90.000000
_cell_volume 3234.693702
_symmetry_space_group_name_H-M "P M N A"
_symmetry_group_IT_number 53
_symmetry_cell_setting 'orthorhombic'
loop_
_space_group_symop_operation_xyz
x,y,z
1/2-x,-y,1/2+z
x,-y,-z
1/2-x,y,1/2-z
-x,-y,-z
1/2+x,y,1/2-z
-x,y,z
1/2+x,-y,1/2+z
loop_
_atom_site_type_symbol
_atom_site_label
_atom_site_fract_x
_atom_site_fract_y
_atom_site_fract_z
Si Si1 0.325092 0.960309 0.845664
Si Si2 0.668068 0.611184 0.338058
Si Si3 0.320509 0.347163 0.152544
Si Si4 0.320385 0.563659 0.989432
Si Si5 0.174794 0.907018 0.345360
Si Si6 0.830476 0.255414 0.839811
Si Si7 0.822389 0.872438 0.973938
Si Si8 0.821447 0.759754 0.531129
O O1 0.250000 0.949227 0.750000
O O2 0.500000 0.945677 0.844667
O O3 0.314669 0.026431 0.861838
O O4 0.240848 0.924731 0.919652
O O5 0.750000 0.589339 0.250000
O O6 0.500000 0.589522 0.344043
O O7 0.759347 0.596347 0.425592
O O8 0.659993 0.677785 0.330329
O O9 0.250000 0.343458 0.250000
O O10 0.500000 0.347719 0.160658
O O11 0.281613 0.294021 0.090509
O O12 0.273580 0.402879 0.099143
O O13 0.500000 0.564518 0.991191
O O14 0.270929 0.500000 0.000000
O O15 0.250000 0.896481 0.250000
O O16 0.261309 0.877629 0.425290
O O17 0.000000 0.891840 0.345266
O O18 0.750000 0.234336 0.750000
O O19 0.000000 0.233824 0.847647
O O20 0.738671 0.246600 0.930251
O O21 0.000000 0.871500 0.972462
O O22 0.754534 0.815915 0.933479
O O23 0.000000 0.765162 0.530253
#
# Coordination Sequence:
#
# PCOD9417208 Si02
#       8
#     8   8   8   8   8   8   8   8
#     4  10  21  39  63  90 121 159 204 254 308 364
#     4  10  20  34  57  86 118 153 190 236 288 351
#     4  10  23  42  65  89 117 159 202 248 301 356
#     4  10  21  39  62  90 124 158 198 248 301 356
#     4  10  21  39  63  91 124 162 204 251 306 368
#     4  10  20  35  58  87 115 149 190 237 292 355
#     4  12  25  39  59  89 124 161 204 254 308 365
#     4  11  23  41  62  85 117 157 205 255 304 360
#
# _framework density 19.785489999999999
#
# number of rings (size 3 to 8) (size 9 to 14) (size 15 to 20)
#    0.000    1.625    1.250    3.375    0.000    7.250 
#    0.000    5.000    0.000    0.000    0.000    0.000 
#    0.000    0.000    0.000    0.000    0.000    0.000 
#
# Total GULP energy -357722.786370 kJ/mol
# GULP energy per Si atom -5589.418537 kJ/mol
# Density = 1.974046 g / cm^3
# Si number density = 19.785490 Si / 1000 Ang^3
#
#
#
# Elastic Constant Matrix: (Units=GPa)
#
#
# Indices 1 2 3 4 5 6 
#
# 1 105.0329 54.0767 48.9953 0.0000 0.0000 0.0000
# 2 54.0767 91.9744 51.4682 0.0000 0.0000 0.0000
# 3 48.9953 51.4682 130.4097 0.0000 0.0000 0.0000
# 4 0.0000 0.0000 0.0000 -6.2515 0.0000 0.0000
# 5 0.0000 0.0000 0.0000 0.0000 31.3471 0.0000
# 6 0.0000 0.0000 0.0000 0.0000 0.0000 27.8515
#
#
#
# Elastic Compliance Matrix: (Units=1/GPa)
#
#
# Indices 1 2 3 4 5 6 
#
# 1 0.014330 -0.006947 -0.002642 0.000000 0.000000 0.000000
# 2 -0.006947 0.017322 -0.004226 0.000000 0.000000 0.000000
# 3 -0.002642 -0.004226 0.010329 0.000000 0.000000 0.000000
# 4 0.000000 0.000000 0.000000 -0.159962 0.000000 0.000000
# 5 0.000000 0.000000 0.000000 0.000000 0.031901 0.000000
# 6 0.000000 0.000000 0.000000 0.000000 0.000000 0.035905
#
#
# Mechanical properties :
#
#
# Convention : Reuss Voigt Hill
#
# Bulk Modulus (GPa) = 69.68641 70.72194 70.20417
# Shear Modulus (GPa) = -281.51752 22.11453 -129.70149
#
# Velocity S-wave (km/s) = -11.94126 3.34685 -8.10532
# Velocity P-wave (km/s) = 12.44297 7.12441 7.21354
#
# Compressibility (1/GPa) = 0.01435000
#
# Stress axis : x y z
#
# Youngs Moduli (GPa) = 69.78408 57.72963 96.81624
#
# Poissons Ratio (x) = 0.40104 0.25580
# Poissons Ratio (y) = 0.48478 0.40919
# Poissons Ratio (z) = 0.18438 0.24399
#
# Static dielectric constant tensor:
#      x y z
#    x 1.666820 0.000000 0.000000 
#    y 0.000000 1.725920 0.000000 
#    z 0.000000 0.000000 1.663970 
# 
# From -- ./inp_files/21000.got.cif
#   From: 2010.05.17/outbox.cif.g08.bks.cpg/sg53_11_cif.got.tgz:21000.got - 2010.06.03 12:45:16.
