data_PCOD9417772
_publ_section_title
;
Structure prediction by ZEFSAII (Michael W. Deem and Ramdas Pophale) SiO2 
 PCOD9417772
Probable space group: P M N A
;
_chemical_formula_sum "Si O2"
_cell_formula_units_Z 48
_cell_length_a 8.087945
_cell_length_b 16.693910
_cell_length_c 19.294711
_cell_angle_alpha 90.000000
_cell_angle_beta 90.000000
_cell_angle_gamma 90.000000
_cell_volume 2605.160802
_symmetry_space_group_name_H-M "P M N A"
_symmetry_group_IT_number 53
_symmetry_cell_setting 'orthorhombic'
loop_
_space_group_symop_operation_xyz
x,y,z
1/2-x,-y,1/2+z
x,-y,-z
1/2-x,y,1/2-z
-x,-y,-z
1/2+x,y,1/2-z
-x,y,z
1/2+x,-y,1/2+z
loop_
_atom_site_type_symbol
_atom_site_label
_atom_site_fract_x
_atom_site_fract_y
_atom_site_fract_z
Si Si1 0.320704 0.278694 0.616711
Si Si2 0.500000 0.660506 0.884824
Si Si3 0.000000 0.641709 0.452440
Si Si4 0.250000 0.618264 0.250000
Si Si5 0.199099 0.766843 0.831397
Si Si6 0.695720 0.052926 0.330253
Si Si7 0.000000 0.482978 0.660626
Si Si8 0.192460 0.116632 0.669679
O O1 0.500000 0.293324 0.583426
O O2 0.164234 0.313378 0.575545
O O3 0.322909 0.321942 0.692099
O O4 0.292341 0.184778 0.629920
O O5 0.331974 0.709170 0.867532
O O6 0.500000 0.577858 0.841922
O O7 0.500000 0.640159 0.965654
O O8 0.000000 0.555013 0.415952
O O9 0.352180 0.557565 0.202646
O O10 0.250000 0.765050 0.750000
O O11 0.227943 0.858054 0.858446
O O12 0.000000 0.749733 0.837507
O O13 0.750000 0.057455 0.250000
O O14 0.500000 0.039001 0.332571
O O15 0.781484 0.973278 0.358910
O O16 0.250000 0.116226 0.750000
O O17 0.000000 0.138069 0.667865
#
# Coordination Sequence:
#
# PCOD9417772 Si02
#       8
#     8   4   4   4   8   8   4   8
#     4  11  20  36  60  85 125 160 200 245 293 359
#     4  12  25  42  67  84 124 159 204 254 299 376
#     4  10  25  44  57  88 117 174 202 236 306 371
#     4  10  20  36  60  94 120 150 194 246 314 350
#     4  10  21  37  62  92 119 154 201 259 315 357
#     4   9  17  29  46  79 122 156 189 242 311 361
#     4  10  23  40  64  90 126 152 199 253 306 368
#     4  11  19  26  48  87 124 158 198 245 298 363
#
# _framework density 18.424966999999999
#
# number of rings (size 3 to 8) (size 9 to 14) (size 15 to 20)
#    0.000    1.667    3.333    3.250    3.500    0.667 
#    0.000    0.000    0.000    5.000    0.000    3.500 
#    0.000    0.000    0.000    0.000    0.000    0.000 
#
# Total GULP energy -267418.047364 kJ/mol
# GULP energy per Si atom -5571.209320 kJ/mol
# Density = 1.838303 g / cm^3
# Si number density = 18.424967 Si / 1000 Ang^3
#
#
#
# Elastic Constant Matrix: (Units=GPa)
#
#
# Indices 1 2 3 4 5 6 
#
# 1 125.8110 49.0998 17.9185 0.0000 0.0000 0.0000
# 2 49.0998 127.2395 15.7375 0.0000 0.0000 0.0000
# 3 17.9185 15.7375 45.1363 0.0000 0.0000 0.0000
# 4 0.0000 0.0000 0.0000 8.4156 0.0000 0.0000
# 5 0.0000 0.0000 0.0000 0.0000 19.9126 0.0000
# 6 0.0000 0.0000 0.0000 0.0000 0.0000 5.3402
#
#
#
# Elastic Compliance Matrix: (Units=1/GPa)
#
#
# Indices 1 2 3 4 5 6 
#
# 1 0.009651 -0.003397 -0.002647 0.000000 0.000000 0.000000
# 2 -0.003397 0.009409 -0.001932 0.000000 0.000000 0.000000
# 3 -0.002647 -0.001932 0.023880 0.000000 0.000000 0.000000
# 4 0.000000 0.000000 0.000000 0.118827 0.000000 0.000000
# 5 0.000000 0.000000 0.000000 0.000000 0.050220 0.000000
# 6 0.000000 0.000000 0.000000 0.000000 0.000000 0.187260
#
#
# Mechanical properties :
#
#
# Convention : Reuss Voigt Hill
#
# Bulk Modulus (GPa) = 37.05377 51.52205 44.28791
# Shear Modulus (GPa) = 11.78707 21.09574 16.44140
#
# Velocity S-wave (km/s) = 2.53204 3.38739 2.99045
# Velocity P-wave (km/s) = 5.35748 6.58203 6.00107
#
# Compressibility (1/GPa) = 0.02698781
#
# Stress axis : x y z
#
# Youngs Moduli (GPa) = 103.61522 106.28188 41.87678
#
# Poissons Ratio (x) = 0.36102 0.11085
# Poissons Ratio (y) = 0.35196 0.08091
# Poissons Ratio (z) = 0.27427 0.20535
#
# Static dielectric constant tensor:
#      x y z
#    x 1.655300 0.000000 0.000000 
#    y 0.000000 1.648470 0.000000 
#    z 0.000000 0.000000 1.597770 
# 
# From -- ./inp_files/30586.got.cif
#   From: 2010.05.17/outbox.cif.g08.bks.cpg/sg53_16_cif.got.tgz:30586.got - 2010.06.03 12:45:16.
