data_PCOD9417290
_publ_section_title
;
Structure prediction by ZEFSAII (Michael W. Deem and Ramdas Pophale) SiO2 
 PCOD9417290
Probable space group: P M N A
;
_chemical_formula_sum "Si O2"
_cell_formula_units_Z 48
_cell_length_a 8.301231
_cell_length_b 21.658322
_cell_length_c 14.277977
_cell_angle_alpha 90.000000
_cell_angle_beta 90.000000
_cell_angle_gamma 90.000000
_cell_volume 2567.047965
_symmetry_space_group_name_H-M "P M N A"
_symmetry_group_IT_number 53
_symmetry_cell_setting 'orthorhombic'
loop_
_space_group_symop_operation_xyz
x,y,z
1/2-x,-y,1/2+z
x,-y,-z
1/2-x,y,1/2-z
-x,-y,-z
1/2+x,y,1/2-z
-x,y,z
1/2+x,-y,1/2+z
loop_
_atom_site_type_symbol
_atom_site_label
_atom_site_fract_x
_atom_site_fract_y
_atom_site_fract_z
Si Si1 0.805949 0.398077 0.855351
Si Si2 0.809246 0.966438 0.356105
Si Si3 0.192786 0.909502 0.955718
Si Si4 0.803003 0.659831 0.960976
Si Si5 0.305068 0.783443 0.642803
Si Si6 0.305570 0.536234 0.643443
O O1 0.750000 0.387284 0.750000
O O2 0.752794 0.467341 0.886285
O O3 0.000000 0.399019 0.855129
O O4 0.753171 0.347777 0.931087
O O5 0.750000 0.956934 0.250000
O O6 0.738687 0.921364 0.436158
O O7 0.000000 0.960495 0.357449
O O8 0.762869 0.034768 0.393288
O O9 0.247642 0.844077 0.914299
O O10 0.000000 0.913099 0.948388
O O11 0.747354 0.720711 0.907382
O O12 0.749175 0.596411 0.911610
O O13 0.000000 0.660772 0.958340
O O14 0.250000 0.786101 0.750000
O O15 0.500000 0.782803 0.641910
O O16 0.250000 0.542732 0.750000
O O17 0.500000 0.536358 0.637930
#
# Coordination Sequence:
#
# PCOD9417290 Si02
#       6
#     8   8   8   8   8   8
#     4   9  17  30  48  68  92 123 162 206 250 295
#     4  11  21  35  57  83 109 138 172 212 256 298
#     4  10  20  35  54  79 109 140 174 210 252 301
#     4   9  17  31  49  69  95 129 166 200 241 296
#     4  10  21  35  53  75 102 135 167 203 247 298
#     4   9  16  27  46  70  94 123 159 201 248 295
#
# _framework density 18.698522000000001
#
# number of rings (size 3 to 8) (size 9 to 14) (size 15 to 20)
#    0.000    2.333    0.000    4.500    0.000    4.667 
#    0.000    2.500    0.000    6.000    0.000    0.000 
#    0.000    0.000    0.000    0.000    0.000    0.000 
#
# Total GULP energy -267766.222002 kJ/mol
# GULP energy per Si atom -5578.462958 kJ/mol
# Density = 1.865596 g / cm^3
# Si number density = 18.698522 Si / 1000 Ang^3
#
#
#
# Elastic Constant Matrix: (Units=GPa)
#
#
# Indices 1 2 3 4 5 6 
#
# 1 -4.3619 0.9903 -19.1685 0.0000 0.0000 0.0000
# 2 0.9903 112.3708 87.1787 0.0000 0.0000 0.0000
# 3 -19.1685 87.1787 122.7974 0.0000 0.0000 0.0000
# 4 0.0000 0.0000 0.0000 29.4299 0.0000 0.0000
# 5 0.0000 0.0000 0.0000 0.0000 28.9142 0.0000
# 6 0.0000 0.0000 0.0000 0.0000 0.0000 12.6314
#
#
#
# Elastic Compliance Matrix: (Units=1/GPa)
#
#
# Indices 1 2 3 4 5 6 
#
# 1 -0.086385 0.024983 -0.031221 0.000000 0.000000 0.000000
# 2 0.024983 0.012585 -0.005035 0.000000 0.000000 0.000000
# 3 -0.031221 -0.005035 0.006844 0.000000 0.000000 0.000000
# 4 0.000000 0.000000 0.000000 0.033979 0.000000 0.000000
# 5 0.000000 0.000000 0.000000 0.000000 0.034585 0.000000
# 6 0.000000 0.000000 0.000000 0.000000 0.000000 0.079168
#
#
# Mechanical properties :
#
#
# Convention : Reuss Voigt Hill
#
# Bulk Modulus (GPa) = -11.17297 40.97859 14.90281
# Shear Modulus (GPa) = 68.03843 24.98216 46.51029
#
# Velocity S-wave (km/s) = 6.03871 3.65917 4.99277
# Velocity P-wave (km/s) = 6.52940 6.30997 6.42062
#
# Compressibility (1/GPa) = -0.08950171
#
# Stress axis : x y z
#
# Youngs Moduli (GPa) = -11.57604 79.45949 146.10525
#
# Poissons Ratio (x) = -1.98513 4.56154
# Poissons Ratio (y) = 0.28920 0.73561
# Poissons Ratio (z) = -0.36141 0.40006
#
# Static dielectric constant tensor:
#      x y z
#    x 1.652170 0.000000 0.000000 
#    y 0.000000 1.649320 0.000000 
#    z 0.000000 0.000000 1.650570 
# 
# From -- ./inp_files/20327.got.cif
#   From: 2010.05.17/outbox.cif.g08.bks.cpg/sg53_11_cif.got.tgz:20327.got - 2010.06.03 12:45:16.
