data_PCOD9417154
_publ_section_title
;
Structure prediction by ZEFSAII (Michael W. Deem and Ramdas Pophale) SiO2 
 PCOD9417154
Probable space group: P M N A
;
_chemical_formula_sum "Si O2"
_cell_formula_units_Z 48
_cell_length_a 16.912500
_cell_length_b 15.135384
_cell_length_c 9.181244
_cell_angle_alpha 90.000000
_cell_angle_beta 90.000000
_cell_angle_gamma 90.000000
_cell_volume 2350.188965
_symmetry_space_group_name_H-M "P M N A"
_symmetry_group_IT_number 53
_symmetry_cell_setting 'orthorhombic'
loop_
_space_group_symop_operation_xyz
x,y,z
1/2-x,-y,1/2+z
x,-y,-z
1/2-x,y,1/2-z
-x,-y,-z
1/2+x,y,1/2-z
-x,y,z
1/2+x,-y,1/2+z
loop_
_atom_site_type_symbol
_atom_site_label
_atom_site_fract_x
_atom_site_fract_y
_atom_site_fract_z
Si Si1 0.668622 0.547399 0.659611
Si Si2 0.333536 0.089199 0.074559
Si Si3 0.640299 0.912933 0.591503
Si Si4 0.706262 0.750947 0.099248
Si Si5 0.413003 0.620097 0.222059
Si Si6 0.873396 0.283187 0.019399
O O1 0.683309 0.500000 0.500000
O O2 0.750000 0.557180 0.750000
O O3 0.612723 0.478384 0.741655
O O4 0.621815 0.639873 0.638973
O O5 0.369839 0.087928 0.234802
O O6 0.236744 0.088089 0.078353
O O7 0.346998 0.174099 0.973788
O O8 0.360250 0.000000 0.000000
O O9 0.604265 0.819243 0.539765
O O10 0.614331 0.000000 0.500000
O O11 0.750000 0.781693 0.250000
O O12 0.654448 0.665871 0.128834
O O13 0.778506 0.723250 0.998699
O O14 0.500000 0.625445 0.158915
O O15 0.409692 0.676217 0.373078
#
# Coordination Sequence:
#
# PCOD9417154 Si02
#       6
#     8   8   8   8   8   8
#     4  10  20  34  55  84 110 142 185 232 279 330
#     4   9  18  26  49  82 112 144 172 227 276 327
#     4   9  18  30  48  82 118 140 174 223 281 327
#     4   9  18  32  53  80 115 145 183 228 280 337
#     4  10  20  35  55  79 108 147 187 228 280 333
#     4   9  19  32  55  82 109 144 183 227 275 324
#
# _framework density 20.423888000000002
#
# number of rings (size 3 to 8) (size 9 to 14) (size 15 to 20)
#    0.000    2.667    0.000    2.500   14.000    3.000 
#    0.000    0.000    0.000    6.500    0.000    0.000 
#    0.000    0.000    0.000    0.000    0.000    0.000 
#
# Total GULP energy -267419.493429 kJ/mol
# GULP energy per Si atom -5571.239446 kJ/mol
# Density = 2.037740 g / cm^3
# Si number density = 20.423888 Si / 1000 Ang^3
#
#
#
# Elastic Constant Matrix: (Units=GPa)
#
#
# Indices 1 2 3 4 5 6 
#
# 1 33.5152 9.5163 -6.3231 0.0000 0.0000 0.0000
# 2 9.5163 169.6671 39.7805 0.0000 0.0000 0.0000
# 3 -6.3231 39.7805 30.2157 0.0000 0.0000 0.0000
# 4 0.0000 0.0000 0.0000 26.6313 0.0000 0.0000
# 5 0.0000 0.0000 0.0000 0.0000 -12.4843 0.0000
# 6 0.0000 0.0000 0.0000 0.0000 0.0000 -5.8991
#
#
#
# Elastic Compliance Matrix: (Units=1/GPa)
#
#
# Indices 1 2 3 4 5 6 
#
# 1 0.033923 -0.005160 0.013892 0.000000 0.000000 0.000000
# 2 -0.005160 0.009310 -0.013337 0.000000 0.000000 0.000000
# 3 0.013892 -0.013337 0.053562 0.000000 0.000000 0.000000
# 4 0.000000 0.000000 0.000000 0.037550 0.000000 0.000000
# 5 0.000000 0.000000 0.000000 0.000000 -0.080101 0.000000
# 6 0.000000 0.000000 0.000000 0.000000 0.000000 -0.169517
#
#
# Mechanical properties :
#
#
# Convention : Reuss Voigt Hill
#
# Bulk Modulus (GPa) = 11.41744 35.48282 23.45013
# Shear Modulus (GPa) = -65.04710 14.34454 -25.35128
#
# Velocity S-wave (km/s) = -5.64957 2.65305 -3.52697
# Velocity P-wave (km/s) = 6.07902 5.17647 2.25374
#
# Compressibility (1/GPa) = 0.08758528
#
# Stress axis : x y z
#
# Youngs Moduli (GPa) = 29.47836 107.40652 18.66998
#
# Poissons Ratio (x) = 0.55420 -0.25937
# Poissons Ratio (y) = 0.15210 0.24901
# Poissons Ratio (z) = -0.40952 1.43253
#
# Static dielectric constant tensor:
#      x y z
#    x 1.700550 0.000000 0.000000 
#    y 0.000000 1.769000 0.000000 
#    z 0.000000 0.000000 1.690370 
# 
# From -- ./inp_files/10893.got.cif
#   From: 2010.05.17/outbox.cif.g08.bks.cpg/sg53_6_cif.got.tgz:10893.got - 2010.06.03 12:45:16.
