data_PCOD9417510
_publ_section_title
;
Structure prediction by ZEFSAII (Michael W. Deem and Ramdas Pophale) SiO2 
 PCOD9417510
Probable space group: P M N A
;
_chemical_formula_sum "Si O2"
_cell_formula_units_Z 36
_cell_length_a 26.600882
_cell_length_b 5.148516
_cell_length_c 13.702472
_cell_angle_alpha 90.000000
_cell_angle_beta 90.000000
_cell_angle_gamma 90.000000
_cell_volume 1876.622965
_symmetry_space_group_name_H-M "P M N A"
_symmetry_group_IT_number 53
_symmetry_cell_setting 'orthorhombic'
loop_
_space_group_symop_operation_xyz
x,y,z
1/2-x,-y,1/2+z
x,-y,-z
1/2-x,y,1/2-z
-x,-y,-z
1/2+x,y,1/2-z
-x,y,z
1/2+x,-y,1/2+z
loop_
_atom_site_type_symbol
_atom_site_label
_atom_site_fract_x
_atom_site_fract_y
_atom_site_fract_z
Si Si1 0.118693 0.666324 0.351770
Si Si2 0.698547 0.750879 0.311821
Si Si3 0.442415 0.864237 0.892358
Si Si4 0.267422 0.254384 0.362572
Si Si5 0.314372 0.000000 0.000000
O O1 0.155687 0.647590 0.259678
O O2 0.220854 0.156852 0.425699
O O3 0.152838 0.203576 0.562680
O O4 0.078707 0.895784 0.329481
O O5 0.750000 0.797032 0.250000
O O6 0.711935 0.534149 0.390180
O O7 0.690667 0.030441 0.359685
O O8 0.500000 0.792273 0.871148
O O9 0.407916 0.605701 0.880863
O O10 0.442473 0.000000 0.000000
O O11 0.250000 0.296180 0.250000
#
# Coordination Sequence:
#
# PCOD9417510 Si02
#       5
#     8   8   8   8   4
#     4  12  23  37  59  78 105 155 202 217 279 345
#     4  10  20  36  51  75 108 137 179 235 268 313
#     4  11  25  39  52  76 109 143 193 254 277 309
#     4  10  21  35  50  74 116 135 191 229 270 305
#     4  12  24  36  59  84 106 164 205 218 266 362
#
# _framework density 19.183395000000001
#
# number of rings (size 3 to 8) (size 9 to 14) (size 15 to 20)
#    0.000    1.111    5.556    2.667    3.111    4.444 
#    0.000    0.000    0.000    0.000    0.000    0.000 
#    0.000    0.000    0.000   70.000    0.000    4.444 
#
# Total GULP energy -200821.149959 kJ/mol
# GULP energy per Si atom -5578.365277 kJ/mol
# Density = 1.913973 g / cm^3
# Si number density = 19.183395 Si / 1000 Ang^3
#
#
#
# Elastic Constant Matrix: (Units=GPa)
#
#
# Indices 1 2 3 4 5 6 
#
# 1 85.9905 10.2086 13.0531 0.0000 0.0000 0.0000
# 2 10.2086 124.6760 -14.3904 0.0000 0.0000 0.0000
# 3 13.0531 -14.3904 33.4092 0.0000 0.0000 0.0000
# 4 0.0000 0.0000 0.0000 16.0259 0.0000 0.0000
# 5 0.0000 0.0000 0.0000 0.0000 20.2606 0.0000
# 6 0.0000 0.0000 0.0000 0.0000 0.0000 28.9287
#
#
#
# Elastic Compliance Matrix: (Units=1/GPa)
#
#
# Indices 1 2 3 4 5 6 
#
# 1 0.012694 -0.001696 -0.005690 0.000000 0.000000 0.000000
# 2 -0.001696 0.008667 0.004396 0.000000 0.000000 0.000000
# 3 -0.005690 0.004396 0.034049 0.000000 0.000000 0.000000
# 4 0.000000 0.000000 0.000000 0.062399 0.000000 0.000000
# 5 0.000000 0.000000 0.000000 0.000000 0.049357 0.000000
# 6 0.000000 0.000000 0.000000 0.000000 0.000000 0.034568
#
#
# Mechanical properties :
#
#
# Convention : Reuss Voigt Hill
#
# Bulk Modulus (GPa) = 20.23120 29.09093 24.66106
# Shear Modulus (GPa) = 22.30240 28.72334 25.51287
#
# Velocity S-wave (km/s) = 3.41337 3.87370 3.65080
# Velocity P-wave (km/s) = 5.10920 5.93337 5.53664
#
# Compressibility (1/GPa) = 0.04942860
#
# Stress axis : x y z
#
# Youngs Moduli (GPa) = 78.77528 115.37937 29.36983
#
# Poissons Ratio (x) = 0.19571 0.16712
# Poissons Ratio (y) = 0.13362 -0.12911
# Poissons Ratio (z) = 0.44826 -0.50719
#
# Static dielectric constant tensor:
#      x y z
#    x 1.720540 0.000000 0.000000 
#    y 0.000000 1.823370 0.000000 
#    z 0.000000 0.000000 1.910620 
# 
# From -- ./inp_files/24790.got.cif
#   From: 2010.05.17/outbox.cif.g08.bks.cpg/sg53_13_cif.got.tgz:24790.got - 2010.06.03 12:45:16.
