data_PCOD9417706
_publ_section_title
;
Structure prediction by ZEFSAII (Michael W. Deem and Ramdas Pophale) SiO2 
 PCOD9417706
Probable space group: P M N A
;
_chemical_formula_sum "Si O2"
_cell_formula_units_Z 48
_cell_length_a 8.729647
_cell_length_b 19.151276
_cell_length_c 15.637216
_cell_angle_alpha 90.000000
_cell_angle_beta 90.000000
_cell_angle_gamma 90.000000
_cell_volume 2614.290429
_symmetry_space_group_name_H-M "P M N A"
_symmetry_group_IT_number 53
_symmetry_cell_setting 'orthorhombic'
loop_
_space_group_symop_operation_xyz
x,y,z
1/2-x,-y,1/2+z
x,-y,-z
1/2-x,y,1/2-z
-x,-y,-z
1/2+x,y,1/2-z
-x,y,z
1/2+x,-y,1/2+z
loop_
_atom_site_type_symbol
_atom_site_label
_atom_site_fract_x
_atom_site_fract_y
_atom_site_fract_z
Si Si1 0.683195 0.329628 0.842914
Si Si2 0.182912 0.170346 0.342739
Si Si3 0.315291 0.919554 0.503138
Si Si4 0.183033 0.582337 0.002201
Si Si5 0.316108 0.333228 0.156679
Si Si6 0.815863 0.175719 0.842253
O O1 0.750000 0.349314 0.750000
O O2 0.500000 0.327477 0.839156
O O3 0.746870 0.251974 0.862129
O O4 0.739684 0.381494 0.916119
O O5 0.250000 0.151833 0.250000
O O6 0.247227 0.121326 0.416522
O O7 0.223787 0.251672 0.359870
O O8 0.000000 0.165674 0.339815
O O9 0.500000 0.918459 0.510237
O O10 0.274485 0.878440 0.416471
O O11 0.265178 0.000000 0.500000
O O12 0.245686 0.619436 0.917180
O O13 0.000000 0.591822 0.007331
O O14 0.216339 0.500000 0.000000
O O15 0.250000 0.351340 0.250000
O O16 0.500000 0.339407 0.157274
O O17 0.750000 0.154546 0.750000
O O18 0.000000 0.181401 0.837144
#
# Coordination Sequence:
#
# PCOD9417706 Si02
#       6
#     8   8   8   8   8   8
#     4  11  22  38  61  86 113 145 187 234 280 333
#     4  10  21  37  59  85 111 144 186 231 278 329
#     4  10  22  38  55  80 115 152 187 227 278 332
#     4  11  24  40  58  83 116 152 188 228 278 334
#     4  10  21  38  61  87 114 147 188 233 280 331
#     4  10  20  36  59  83 111 146 186 233 280 329
#
# _framework density 18.360623
#
# number of rings (size 3 to 8) (size 9 to 14) (size 15 to 20)
#    0.000    1.667    0.000    5.500    0.000    9.000 
#    0.000    1.667    0.000    0.000    0.000    0.000 
#    0.000    0.000    0.000    0.000    0.000    0.000 
#
# Total GULP energy -268322.647728 kJ/mol
# GULP energy per Si atom -5590.055161 kJ/mol
# Density = 1.831883 g / cm^3
# Si number density = 18.360623 Si / 1000 Ang^3
#
#
#
# Elastic Constant Matrix: (Units=GPa)
#
#
# Indices 1 2 3 4 5 6 
#
# 1 83.5091 73.6351 80.5181 0.0000 0.0000 0.0000
# 2 73.6351 131.3706 137.8918 0.0000 0.0000 0.0000
# 3 80.5181 137.8918 184.3679 0.0000 0.0000 0.0000
# 4 0.0000 0.0000 0.0000 -25.9745 0.0000 0.0000
# 5 0.0000 0.0000 0.0000 0.0000 33.0229 0.0000
# 6 0.0000 0.0000 0.0000 0.0000 0.0000 30.2779
#
#
#
# Elastic Compliance Matrix: (Units=1/GPa)
#
#
# Indices 1 2 3 4 5 6 
#
# 1 0.023825 -0.011318 -0.001940 0.000000 0.000000 0.000000
# 2 -0.011318 0.040788 -0.025563 0.000000 0.000000 0.000000
# 3 -0.001940 -0.025563 0.025391 0.000000 0.000000 0.000000
# 4 0.000000 0.000000 0.000000 -0.038499 0.000000 0.000000
# 5 0.000000 0.000000 0.000000 0.000000 0.030282 0.000000
# 6 0.000000 0.000000 0.000000 0.000000 0.000000 0.033027
#
#
# Mechanical properties :
#
#
# Convention : Reuss Voigt Hill
#
# Bulk Modulus (GPa) = 80.89937 109.25974 95.07955
# Shear Modulus (GPa) = 25.43531 14.61209 20.02370
#
# Velocity S-wave (km/s) = 3.72602 2.82412 3.30597
# Velocity P-wave (km/s) = 7.91631 8.38278 8.15288
#
# Compressibility (1/GPa) = 0.01236104
#
# Stress axis : x y z
#
# Youngs Moduli (GPa) = 41.97263 24.51696 39.38447
#
# Poissons Ratio (x) = 0.27747 0.07642
# Poissons Ratio (y) = 0.47503 1.00680
# Poissons Ratio (z) = 0.08145 0.62674
#
# Static dielectric constant tensor:
#      x y z
#    x 1.616280 0.000000 0.000000 
#    y 0.000000 1.610260 0.000000 
#    z 0.000000 0.000000 1.599740 
# 
# From -- ./inp_files/20169.got.cif
#   From: 2010.05.17/outbox.cif.g08.bks.cpg/sg53_11_cif.got.tgz:20169.got - 2010.06.03 12:45:16.
