data_PCOD9417980
_publ_section_title
;
Structure prediction by ZEFSAII (Michael W. Deem and Ramdas Pophale) SiO2 
 PCOD9417980
Probable space group: P M N A
;
_chemical_formula_sum "Si O2"
_cell_formula_units_Z 48
_cell_length_a 14.908506
_cell_length_b 14.175799
_cell_length_c 9.753798
_cell_angle_alpha 90.000000
_cell_angle_beta 90.000000
_cell_angle_gamma 90.000000
_cell_volume 2061.367518
_symmetry_space_group_name_H-M "P M N A"
_symmetry_group_IT_number 53
_symmetry_cell_setting 'orthorhombic'
loop_
_space_group_symop_operation_xyz
x,y,z
1/2-x,-y,1/2+z
x,-y,-z
1/2-x,y,1/2-z
-x,-y,-z
1/2+x,y,1/2-z
-x,y,z
1/2+x,-y,1/2+z
loop_
_atom_site_type_symbol
_atom_site_label
_atom_site_fract_x
_atom_site_fract_y
_atom_site_fract_z
Si Si1 0.000000 0.853465 0.366140
Si Si2 0.662438 0.641220 0.947467
Si Si3 0.000000 0.393822 0.947698
Si Si4 0.500000 0.626493 0.126647
Si Si5 0.704524 0.842672 0.097975
Si Si6 0.500000 0.002552 0.340374
Si Si7 0.321185 0.890827 0.644451
Si Si8 0.850533 0.331888 0.143668
O O1 0.101756 0.883997 0.412303
O O2 0.000000 0.741273 0.380667
O O3 0.000000 0.896967 0.214869
O O4 0.616000 0.641952 0.796511
O O5 0.762165 0.609575 0.902134
O O6 0.591679 0.596131 0.051739
O O7 0.688177 0.740968 0.022875
O O8 0.000000 0.396130 0.785592
O O9 0.000000 0.500000 0.000000
O O10 0.916552 0.342564 0.017368
O O11 0.750000 0.832070 0.250000
O O12 0.778885 0.897086 0.007292
O O13 0.412149 0.061252 0.308637
O O14 0.500000 0.000000 0.500000
O O15 0.250000 0.930238 0.750000
O O16 0.331344 0.778662 0.664261
#
# Coordination Sequence:
#
# PCOD9417980 Si02
#       8
#     4   8   4   4   8   4   8   8
#     4  10  24  41  58  96 129 183 224 272 346 396
#     4   9  19  38  69 103 122 175 226 270 325 408
#     4  12  28  43  68 107 141 171 219 281 348 401
#     4  10  23  40  72 100 132 174 230 278 332 406
#     4  10  20  37  66  92 136 163 232 286 336 397
#     4  12  27  38  59  95 140 175 231 284 349 399
#     4  11  23  43  68  97 127 181 233 283 341 405
#     4  10  20  43  70  94 135 174 224 272 337 409
#
# _framework density 23.285513000000002
#
# number of rings (size 3 to 8) (size 9 to 14) (size 15 to 20)
#    0.000    1.667    3.333    2.000   11.667    2.667 
#    0.000    5.833    0.000    0.000    0.000    0.000 
#    0.000    0.000    0.000    0.000    0.000    0.000 
#
# Total GULP energy -267392.894583 kJ/mol
# GULP energy per Si atom -5570.685304 kJ/mol
# Density = 2.323251 g / cm^3
# Si number density = 23.285513 Si / 1000 Ang^3
#
#
#
# Elastic Constant Matrix: (Units=GPa)
#
#
# Indices 1 2 3 4 5 6 
#
# 1 172.2492 5.6154 60.0612 0.0000 0.0000 0.0000
# 2 5.6154 48.4170 3.9804 0.0000 0.0000 0.0000
# 3 60.0612 3.9804 184.4369 0.0000 0.0000 0.0000
# 4 0.0000 0.0000 0.0000 22.0757 0.0000 0.0000
# 5 0.0000 0.0000 0.0000 0.0000 68.0131 0.0000
# 6 0.0000 0.0000 0.0000 0.0000 0.0000 64.3518
#
#
#
# Elastic Compliance Matrix: (Units=1/GPa)
#
#
# Indices 1 2 3 4 5 6 
#
# 1 0.006566 -0.000587 -0.002125 0.000000 0.000000 0.000000
# 2 -0.000587 0.020743 -0.000257 0.000000 0.000000 0.000000
# 3 -0.002125 -0.000257 0.006120 0.000000 0.000000 0.000000
# 4 0.000000 0.000000 0.000000 0.045299 0.000000 0.000000
# 5 0.000000 0.000000 0.000000 0.000000 0.014703 0.000000
# 6 0.000000 0.000000 0.000000 0.000000 0.000000 0.015540
#
#
# Mechanical properties :
#
#
# Convention : Reuss Voigt Hill
#
# Bulk Modulus (GPa) = 36.37579 60.49079 48.43329
# Shear Modulus (GPa) = 40.29953 53.25118 46.77536
#
# Velocity S-wave (km/s) = 4.16464 4.78732 4.48680
# Velocity P-wave (km/s) = 6.22746 7.52278 6.90556
#
# Compressibility (1/GPa) = 0.02749081
#
# Stress axis : x y z
#
# Youngs Moduli (GPa) = 152.30448 48.20889 163.40955
#
# Poissons Ratio (x) = 0.02829 0.34732
# Poissons Ratio (y) = 0.08937 0.04193
# Poissons Ratio (z) = 0.32372 0.01237
#
# Static dielectric constant tensor:
#      x y z
#    x 1.920970 0.000000 0.000000 
#    y 0.000000 1.888570 0.000000 
#    z 0.000000 0.000000 1.904240 
# 
# From -- ./inp_files/8768.got.cif
#   From: 2010.05.17/outbox.cif.g08.bks.cpg/sg53_5_cif.got.tgz:8768.got - 2010.06.03 12:45:16.
