data_PCOD9417266
_publ_section_title
;
Structure prediction by ZEFSAII (Michael W. Deem and Ramdas Pophale) SiO2 
 PCOD9417266
Probable space group: P M N A
;
_chemical_formula_sum "Si O2"
_cell_formula_units_Z 64
_cell_length_a 9.237074
_cell_length_b 18.439246
_cell_length_c 21.257970
_cell_angle_alpha 90.000000
_cell_angle_beta 90.000000
_cell_angle_gamma 90.000000
_cell_volume 3620.756934
_symmetry_space_group_name_H-M "P M N A"
_symmetry_group_IT_number 53
_symmetry_cell_setting 'orthorhombic'
loop_
_space_group_symop_operation_xyz
x,y,z
1/2-x,-y,1/2+z
x,-y,-z
1/2-x,y,1/2-z
-x,-y,-z
1/2+x,y,1/2-z
-x,y,z
1/2+x,-y,1/2+z
loop_
_atom_site_type_symbol
_atom_site_label
_atom_site_fract_x
_atom_site_fract_y
_atom_site_fract_z
Si Si1 0.831136 0.662568 0.931506
Si Si2 0.671268 0.410018 0.185355
Si Si3 0.671141 0.836748 0.059640
Si Si4 0.668864 0.162567 0.431506
Si Si5 0.171141 0.663253 0.440360
Si Si6 0.829086 0.416486 0.686210
Si Si7 0.329086 0.916486 0.186210
Si Si8 0.171267 0.910018 0.685356
O O1 0.744098 0.628219 0.873963
O O2 0.821501 0.750000 0.927403
O O3 0.000000 0.642186 0.928932
O O4 0.759822 0.641005 0.997965
O O5 0.750000 0.387714 0.250000
O O6 0.500000 0.394619 0.188506
O O7 0.690083 0.496967 0.178993
O O8 0.500000 0.852676 0.050148
O O9 0.685417 0.750000 0.067345
O O10 0.720855 0.876338 0.123094
O O11 0.759822 0.858996 0.997965
O O12 0.500000 0.142185 0.428932
O O13 0.755902 0.128218 0.373963
O O14 0.220854 0.623663 0.376906
O O15 0.000000 0.647325 0.449852
O O16 0.750000 0.393334 0.750000
O O17 0.000000 0.402055 0.693017
O O18 0.250000 0.893334 0.250000
O O19 0.500000 0.902053 0.193017
O O20 0.309919 0.003033 0.178994
O O21 0.250000 0.887714 0.750000
O O22 0.000000 0.894617 0.688506
#
# Coordination Sequence:
#
# PCOD9417266 Si02
#       8
#     8   8   8   8   8   8   8   8
#     4  10  21  36  53  75 102 131 167 210 253 299
#     4  10  20  35  54  75 102 134 168 207 250 298
#     4   9  18  34  54  75 102 136 171 206 247 296
#     4  10  21  36  53  75 102 131 167 210 253 299
#     4   9  18  34  54  75 102 136 171 206 247 296
#     4   9  19  34  52  76 104 134 169 208 249 295
#     4   9  19  34  52  76 104 134 169 208 249 295
#     4  10  20  35  54  75 102 134 168 207 250 298
#
# _framework density 17.675861999999999
#
# number of rings (size 3 to 8) (size 9 to 14) (size 15 to 20)
#    0.000    2.500    0.000    1.500    0.000    5.500 
#    0.000    5.000    0.000    0.000    0.000    0.000 
#    0.000    0.000    0.000    0.000    0.000    0.000 
#
# Total GULP energy -357134.413714 kJ/mol
# GULP energy per Si atom -5580.225214 kJ/mol
# Density = 1.763563 g / cm^3
# Si number density = 17.675862 Si / 1000 Ang^3
#
#
#
# Elastic Constant Matrix: (Units=GPa)
#
#
# Indices 1 2 3 4 5 6 
#
# 1 107.6132 44.9365 108.1202 0.0000 0.0000 0.0000
# 2 44.9365 16.9639 58.5334 0.0000 0.0000 0.0000
# 3 108.1202 58.5334 220.2983 0.0000 0.0000 0.0000
# 4 0.0000 0.0000 0.0000 40.3592 0.0000 0.0000
# 5 0.0000 0.0000 0.0000 0.0000 41.2126 0.0000
# 6 0.0000 0.0000 0.0000 0.0000 0.0000 18.4833
#
#
#
# Elastic Compliance Matrix: (Units=1/GPa)
#
#
# Indices 1 2 3 4 5 6 
#
# 1 -0.007600 0.087270 -0.019458 0.000000 0.000000 0.000000
# 2 0.087270 -0.293696 0.035204 0.000000 0.000000 0.000000
# 3 -0.019458 0.035204 0.004735 0.000000 0.000000 0.000000
# 4 0.000000 0.000000 0.000000 0.024777 0.000000 0.000000
# 5 0.000000 0.000000 0.000000 0.000000 0.024264 0.000000
# 6 0.000000 0.000000 0.000000 0.000000 0.000000 0.054103
#
#
# Mechanical properties :
#
#
# Convention : Reuss Voigt Hill
#
# Bulk Modulus (GPa) = -11.04633 85.33952 37.14660
# Shear Modulus (GPa) = -11.63809 28.89670 8.62930
#
# Velocity S-wave (km/s) = -2.56875 4.04767 2.21192
# Velocity P-wave (km/s) = 3.88084 8.38033 5.25209
#
# Compressibility (1/GPa) = -0.09052778
#
# Stress axis : x y z
#
# Youngs Moduli (GPa) = -131.58349 -3.40488 211.17704
#
# Poissons Ratio (x) = 0.29715 4.10906
# Poissons Ratio (y) = 11.48332 -7.43423
# Poissons Ratio (z) = -2.56034 0.11986
#
# Static dielectric constant tensor:
#      x y z
#    x 1.592970 0.000000 0.000000 
#    y 0.000000 1.593660 0.000000 
#    z 0.000000 0.000000 1.572490 
# 
# From -- ./inp_files/31278.got.cif
#   From: 2010.05.17/outbox.cif.g08.bks.cpg/sg53_16_cif.got.tgz:31278.got - 2010.06.03 12:45:16.
