data_PCOD9417140
_publ_section_title
;
Structure prediction by ZEFSAII (Michael W. Deem and Ramdas Pophale) SiO2 
 PCOD9417140
Probable space group: P M N A
;
_chemical_formula_sum "Si O2"
_cell_formula_units_Z 56
_cell_length_a 9.479495
_cell_length_b 21.660431
_cell_length_c 14.416241
_cell_angle_alpha 90.000000
_cell_angle_beta 90.000000
_cell_angle_gamma 90.000000
_cell_volume 2960.086006
_symmetry_space_group_name_H-M "P M N A"
_symmetry_group_IT_number 53
_symmetry_cell_setting 'orthorhombic'
loop_
_space_group_symop_operation_xyz
x,y,z
1/2-x,-y,1/2+z
x,-y,-z
1/2-x,y,1/2-z
-x,-y,-z
1/2+x,y,1/2-z
-x,y,z
1/2+x,-y,1/2+z
loop_
_atom_site_type_symbol
_atom_site_label
_atom_site_fract_x
_atom_site_fract_y
_atom_site_fract_z
Si Si1 0.167834 0.094440 0.043479
Si Si2 0.834895 0.426704 0.495379
Si Si3 0.333704 0.330974 0.155903
Si Si4 0.331473 0.787581 0.972553
Si Si5 0.341195 0.622929 0.335656
Si Si6 0.332502 0.967246 0.346553
Si Si7 0.338421 0.771522 0.337715
O O1 0.000000 0.108746 0.046278
O O2 0.191351 0.035762 0.110389
O O3 0.263857 0.151655 0.072998
O O4 0.202196 0.075852 0.936052
O O5 0.817057 0.500000 0.500000
O O6 0.801792 0.394753 0.397530
O O7 0.737253 0.395270 0.571210
O O8 0.000000 0.412442 0.515294
O O9 0.250000 0.324933 0.250000
O O10 0.500000 0.329504 0.175455
O O11 0.303347 0.273883 0.087007
O O12 0.500000 0.792994 0.985302
O O13 0.249829 0.782586 0.069715
O O14 0.250000 0.598941 0.250000
O O15 0.500000 0.598901 0.333118
O O16 0.347462 0.697166 0.328153
O O17 0.250000 0.957558 0.250000
O O18 0.500000 0.960720 0.329241
O O19 0.250000 0.795817 0.250000
O O20 0.500000 0.795063 0.341523
#
# Coordination Sequence:
#
# PCOD9417140 Si02
#       7
#     8   8   8   8   8   8   8
#     4   9  20  38  57  82 116 154 192 232 286 347
#     4  10  21  39  61  84 114 151 191 240 295 345
#     4  10  23  41  60  83 114 152 194 240 288 344
#     4  11  22  37  58  85 117 152 193 242 290 343
#     4  10  20  34  56  83 111 144 182 228 282 341
#     4   9  19  37  60  83 113 152 192 237 286 336
#     4  10  20  34  55  82 111 147 185 228 283 344
#
# _framework density 18.918368999999998
#
# number of rings (size 3 to 8) (size 9 to 14) (size 15 to 20)
#    0.000    2.143    1.429    2.143    0.000    6.000 
#    0.000    7.143    0.000    0.000    0.000    0.000 
#    0.000    0.000    0.000    0.000    0.000    0.000 
#
# Total GULP energy -312582.413470 kJ/mol
# GULP energy per Si atom -5581.828812 kJ/mol
# Density = 1.887531 g / cm^3
# Si number density = 18.918369 Si / 1000 Ang^3
#
#
#
# Elastic Constant Matrix: (Units=GPa)
#
#
# Indices 1 2 3 4 5 6 
#
# 1 82.4537 49.4959 57.4828 0.0000 0.0000 0.0000
# 2 49.4959 80.2735 31.1213 0.0000 0.0000 0.0000
# 3 57.4828 31.1213 103.4270 0.0000 0.0000 0.0000
# 4 0.0000 0.0000 0.0000 5.0596 0.0000 0.0000
# 5 0.0000 0.0000 0.0000 0.0000 34.5809 0.0000
# 6 0.0000 0.0000 0.0000 0.0000 0.0000 28.8918
#
#
#
# Elastic Compliance Matrix: (Units=1/GPa)
#
#
# Indices 1 2 3 4 5 6 
#
# 1 0.027867 -0.012654 -0.011680 0.000000 0.000000 0.000000
# 2 -0.012654 0.019849 0.001061 0.000000 0.000000 0.000000
# 3 -0.011680 0.001061 0.015841 0.000000 0.000000 0.000000
# 4 0.000000 0.000000 0.000000 0.197642 0.000000 0.000000
# 5 0.000000 0.000000 0.000000 0.000000 0.028918 0.000000
# 6 0.000000 0.000000 0.000000 0.000000 0.000000 0.034612
#
#
# Mechanical properties :
#
#
# Convention : Reuss Voigt Hill
#
# Bulk Modulus (GPa) = 58.79267 60.26160 59.52714
# Shear Modulus (GPa) = 13.26445 22.24340 17.75393
#
# Velocity S-wave (km/s) = 2.65078 3.43265 3.06673
# Velocity P-wave (km/s) = 6.36501 6.90170 6.63878
#
# Compressibility (1/GPa) = 0.01700892
#
# Stress axis : x y z
#
# Youngs Moduli (GPa) = 35.88438 50.38089 63.12608
#
# Poissons Ratio (x) = 0.63754 0.73734
# Poissons Ratio (y) = 0.45409 -0.06695
# Poissons Ratio (z) = 0.41914 -0.05343
#
# Static dielectric constant tensor:
#      x y z
#    x 1.632020 0.000000 0.000000 
#    y 0.000000 1.683320 0.000000 
#    z 0.000000 0.000000 1.634390 
# 
# From -- ./inp_files/20550.got.cif
#   From: 2010.05.17/outbox.cif.g08.bks.cpg/sg53_11_cif.got.tgz:20550.got - 2010.06.03 12:45:16.
