data_PCOD9417188
_publ_section_title
;
Structure prediction by ZEFSAII (Michael W. Deem and Ramdas Pophale) SiO2 
 PCOD9417188
Probable space group: P M N A
;
_chemical_formula_sum "Si O2"
_cell_formula_units_Z 64
_cell_length_a 9.144717
_cell_length_b 12.470899
_cell_length_c 29.026509
_cell_angle_alpha 90.000000
_cell_angle_beta 90.000000
_cell_angle_gamma 90.000000
_cell_volume 3310.265582
_symmetry_space_group_name_H-M "P M N A"
_symmetry_group_IT_number 53
_symmetry_cell_setting 'orthorhombic'
loop_
_space_group_symop_operation_xyz
x,y,z
1/2-x,-y,1/2+z
x,-y,-z
1/2-x,y,1/2-z
-x,-y,-z
1/2+x,y,1/2-z
-x,y,z
1/2+x,-y,1/2+z
loop_
_atom_site_type_symbol
_atom_site_label
_atom_site_fract_x
_atom_site_fract_y
_atom_site_fract_z
Si Si1 0.165515 0.647233 0.677582
Si Si2 0.670969 0.433609 0.072473
Si Si3 0.827880 0.052114 0.386760
Si Si4 0.669924 0.635222 0.391937
Si Si5 0.670252 0.864130 0.441610
Si Si6 0.673650 0.140773 0.297510
Si Si7 0.172768 0.216084 0.469374
Si Si8 0.670634 0.402652 0.796167
O O1 0.179275 0.619049 0.623541
O O2 0.279983 0.735370 0.693492
O O3 0.179513 0.532566 0.702029
O O4 0.000000 0.689585 0.685380
O O5 0.500000 0.458231 0.063875
O O6 0.761374 0.542330 0.076100
O O7 0.718667 0.339861 0.037811
O O8 0.762159 0.951401 0.413796
O O9 0.000000 0.037904 0.377332
O O10 0.740178 0.075701 0.340309
O O11 0.812695 0.153285 0.421237
O O12 0.500000 0.609931 0.383471
O O13 0.681066 0.749974 0.415933
O O14 0.754081 0.635510 0.343270
O O15 0.500000 0.895699 0.443921
O O16 0.736253 0.844921 0.492074
O O17 0.750000 0.107407 0.250000
O O18 0.500000 0.130260 0.295119
O O19 0.000000 0.215168 0.481419
O O20 0.750000 0.364219 0.750000
O O21 0.500000 0.373768 0.796177
#
# Coordination Sequence:
#
# PCOD9417188 Si02
#       8
#     8   8   8   8   8   8   8   8
#     4   9  17  33  54  82 120 156 191 236 287 346
#     4   9  18  35  59  87 121 156 195 241 290 350
#     4  11  23  43  66  88 119 155 198 249 299 352
#     4  10  22  39  57  82 121 160 197 244 296 350
#     4  11  25  42  60  87 120 156 202 251 297 354
#     4  12  24  37  58  88 122 159 196 238 293 354
#     4  10  21  39  64  92 120 154 195 245 303 357
#     4  10  20  34  56  84 115 152 198 245 292 350
#
# _framework density 19.333796
#
# number of rings (size 3 to 8) (size 9 to 14) (size 15 to 20)
#    0.000    1.750    1.250    4.125    0.000    9.000 
#    0.000    3.125    0.000    3.000    0.000    0.000 
#    0.000    0.000    0.000    0.000    0.000    0.000 
#
# Total GULP energy -357693.445876 kJ/mol
# GULP energy per Si atom -5588.960092 kJ/mol
# Density = 1.928979 g / cm^3
# Si number density = 19.333796 Si / 1000 Ang^3
#
#
#
# Elastic Constant Matrix: (Units=GPa)
#
#
# Indices 1 2 3 4 5 6 
#
# 1 120.3001 27.9705 41.3846 0.0000 0.0000 0.0000
# 2 27.9705 38.8437 -2.8592 0.0000 0.0000 0.0000
# 3 41.3846 -2.8592 65.1518 0.0000 0.0000 0.0000
# 4 0.0000 0.0000 0.0000 13.7925 0.0000 0.0000
# 5 0.0000 0.0000 0.0000 0.0000 8.3100 0.0000
# 6 0.0000 0.0000 0.0000 0.0000 0.0000 32.3974
#
#
#
# Elastic Compliance Matrix: (Units=1/GPa)
#
#
# Indices 1 2 3 4 5 6 
#
# 1 0.014065 -0.010821 -0.009409 0.000000 0.000000 0.000000
# 2 -0.010821 0.034152 0.008372 0.000000 0.000000 0.000000
# 3 -0.009409 0.008372 0.021693 0.000000 0.000000 0.000000
# 4 0.000000 0.000000 0.000000 0.072503 0.000000 0.000000
# 5 0.000000 0.000000 0.000000 0.000000 0.120336 0.000000
# 6 0.000000 0.000000 0.000000 0.000000 0.000000 0.030867
#
#
# Mechanical properties :
#
#
# Convention : Reuss Voigt Hill
#
# Bulk Modulus (GPa) = 21.64744 39.69861 30.67302
# Shear Modulus (GPa) = 15.02718 21.41996 18.22357
#
# Velocity S-wave (km/s) = 2.79094 3.33213 3.07347
# Velocity P-wave (km/s) = 4.64831 5.94827 5.33801
#
# Compressibility (1/GPa) = 0.04619484
#
# Stress axis : x y z
#
# Youngs Moduli (GPa) = 71.09702 29.28073 46.09796
#
# Poissons Ratio (x) = 0.31684 0.43374
# Poissons Ratio (y) = 0.76932 -0.38594
# Poissons Ratio (z) = 0.66896 -0.24514
#
# Static dielectric constant tensor:
#      x y z
#    x 1.652570 0.000000 0.000000 
#    y 0.000000 1.663920 0.000000 
#    z 0.000000 0.000000 1.675120 
# 
# From -- ./inp_files/38202.got.cif
#   From: 2010.05.17/outbox.cif.g08.bks.cpg/sg53_20_cif.got.tgz:38202.got - 2010.06.03 12:45:16.
