data_PCOD9417628
_publ_section_title
;
Structure prediction by ZEFSAII (Michael W. Deem and Ramdas Pophale) SiO2 
 PCOD9417628
Probable space group: P M N A
;
_chemical_formula_sum "Si O2"
_cell_formula_units_Z 48
_cell_length_a 9.780299
_cell_length_b 23.928457
_cell_length_c 10.428112
_cell_angle_alpha 90.000000
_cell_angle_beta 90.000000
_cell_angle_gamma 90.000000
_cell_volume 2440.464606
_symmetry_space_group_name_H-M "P M N A"
_symmetry_group_IT_number 53
_symmetry_cell_setting 'orthorhombic'
loop_
_space_group_symop_operation_xyz
x,y,z
1/2-x,-y,1/2+z
x,-y,-z
1/2-x,y,1/2-z
-x,-y,-z
1/2+x,y,1/2-z
-x,y,z
1/2+x,-y,1/2+z
loop_
_atom_site_type_symbol
_atom_site_label
_atom_site_fract_x
_atom_site_fract_y
_atom_site_fract_z
Si Si1 0.661373 0.836717 0.625051
Si Si2 0.000000 0.449695 0.599385
Si Si3 0.246754 0.367717 0.894629
Si Si4 0.153694 0.010470 0.640429
Si Si5 0.000000 0.453666 0.890573
Si Si6 0.341014 0.856378 0.130857
Si Si7 0.342553 0.702003 0.630802
O O1 0.750000 0.854708 0.750000
O O2 0.500000 0.855840 0.622425
O O3 0.750866 0.850597 0.498419
O O4 0.655502 0.769167 0.629972
O O5 0.000000 0.500000 0.500000
O O6 0.875464 0.407203 0.583989
O O7 0.000000 0.474921 0.743744
O O8 0.250000 0.344162 0.750000
O O9 0.126215 0.412361 0.903309
O O10 0.223165 0.321024 0.000618
O O11 0.250000 0.987427 0.750000
O O12 0.144531 0.077198 0.655349
O O13 0.000000 0.986740 0.645137
O O14 0.212317 0.000000 0.500000
O O15 0.000000 0.500000 0.000000
O O16 0.250000 0.833276 0.250000
O O17 0.500000 0.834984 0.121485
O O18 0.250000 0.683109 0.750000
O O19 0.500000 0.682642 0.641712
#
# Coordination Sequence:
#
# PCOD9417628 Si02
#       7
#     8   4   8   8   4   8   8
#     4  10  21  38  58  82 113 148 187 235 286 339
#     4  10  22  36  54  84 112 140 184 222 267 326
#     4  10  21  38  57  81 112 145 179 223 272 322
#     4   9  19  35  54  79 112 148 189 236 282 334
#     4  10  20  36  58  78 108 146 178 224 269 314
#     4  10  20  36  57  83 114 150 193 237 284 339
#     4  10  22  39  59  84 112 144 184 227 273 328
#
# _framework density 19.668385000000001
#
# number of rings (size 3 to 8) (size 9 to 14) (size 15 to 20)
#    0.000    2.167    0.833    1.500    1.167    4.333 
#    0.000    1.667    0.000    0.000    0.000    0.000 
#    0.000    0.000    0.000    0.000    0.000    0.000 
#
# Total GULP energy -267640.019550 kJ/mol
# GULP energy per Si atom -5575.833741 kJ/mol
# Density = 1.962362 g / cm^3
# Si number density = 19.668385 Si / 1000 Ang^3
#
#
#
# Elastic Constant Matrix: (Units=GPa)
#
#
# Indices 1 2 3 4 5 6 
#
# 1 175.7477 15.7337 77.7872 0.0000 0.0000 0.0000
# 2 15.7337 24.5365 20.8503 0.0000 0.0000 0.0000
# 3 77.7872 20.8503 149.6391 0.0000 0.0000 0.0000
# 4 0.0000 0.0000 0.0000 33.8171 0.0000 0.0000
# 5 0.0000 0.0000 0.0000 0.0000 25.1072 0.0000
# 6 0.0000 0.0000 0.0000 0.0000 0.0000 52.4892
#
#
#
# Elastic Compliance Matrix: (Units=1/GPa)
#
#
# Indices 1 2 3 4 5 6 
#
# 1 0.007451 -0.001686 -0.003639 0.000000 0.000000 0.000000
# 2 -0.001686 0.046611 -0.005618 0.000000 0.000000 0.000000
# 3 -0.003639 -0.005618 0.009357 0.000000 0.000000 0.000000
# 4 0.000000 0.000000 0.000000 0.029571 0.000000 0.000000
# 5 0.000000 0.000000 0.000000 0.000000 0.039829 0.000000
# 6 0.000000 0.000000 0.000000 0.000000 0.000000 0.019052
#
#
# Mechanical properties :
#
#
# Convention : Reuss Voigt Hill
#
# Bulk Modulus (GPa) = 24.07688 64.29622 44.18655
# Shear Modulus (GPa) = 26.65231 37.98618 32.31924
#
# Velocity S-wave (km/s) = 3.68514 4.39946 4.05805
# Velocity P-wave (km/s) = 5.51135 7.65298 6.66870
#
# Compressibility (1/GPa) = 0.04153362
#
# Stress axis : x y z
#
# Youngs Moduli (GPa) = 134.20371 21.45420 106.87226
#
# Poissons Ratio (x) = 0.03618 0.38885
# Poissons Ratio (y) = 0.22630 0.60042
# Poissons Ratio (z) = 0.48830 0.12053
#
# Static dielectric constant tensor:
#      x y z
#    x 1.689440 0.000000 0.000000 
#    y 0.000000 1.671190 0.000000 
#    z 0.000000 0.000000 1.700780 
# 
# From -- ./inp_files/6786.got.cif
#   From: 2010.05.17/outbox.cif.g08.bks.cpg/sg53_4_cif.got.tgz:6786.got - 2010.06.03 12:45:16.
