data_PCOD9417300
_publ_section_title
;
Structure prediction by ZEFSAII (Michael W. Deem and Ramdas Pophale) SiO2 
 PCOD9417300
Probable space group: P M N A
;
_chemical_formula_sum "Si O2"
_cell_formula_units_Z 40
_cell_length_a 8.491149
_cell_length_b 26.324199
_cell_length_c 9.831659
_cell_angle_alpha 90.000000
_cell_angle_beta 90.000000
_cell_angle_gamma 90.000000
_cell_volume 2197.598926
_symmetry_space_group_name_H-M "P M N A"
_symmetry_group_IT_number 53
_symmetry_cell_setting 'orthorhombic'
loop_
_space_group_symop_operation_xyz
x,y,z
1/2-x,-y,1/2+z
x,-y,-z
1/2-x,y,1/2-z
-x,-y,-z
1/2+x,y,1/2-z
-x,y,z
1/2+x,-y,1/2+z
loop_
_atom_site_type_symbol
_atom_site_label
_atom_site_fract_x
_atom_site_fract_y
_atom_site_fract_z
Si Si1 0.811092 0.656780 0.402941
Si Si2 0.690244 0.955385 0.098413
Si Si3 0.689003 0.454428 0.597912
Si Si4 0.809558 0.250922 0.403896
Si Si5 0.690270 0.840402 0.097458
O O1 0.750000 0.667251 0.250000
O O2 0.751994 0.600903 0.443998
O O3 0.759373 0.699787 0.509092
O O4 0.000000 0.656380 0.397634
O O5 0.750000 0.964791 0.250000
O O6 0.500000 0.955949 0.098153
O O7 0.740091 0.897944 0.060536
O O8 0.746746 0.000000 0.000000
O O9 0.740184 0.500000 0.500000
O O10 0.750000 0.463736 0.750000
O O11 0.500000 0.452505 0.599519
O O12 0.750000 0.251519 0.250000
O O13 0.756765 0.201257 0.488449
O O14 0.000000 0.250661 0.401058
O O15 0.750000 0.829200 0.250000
O O16 0.500000 0.839246 0.101587
#
# Coordination Sequence:
#
# PCOD9417300 Si02
#       5
#     8   8   8   8   8
#     4  10  20  35  55  77 101 132 170 208 248 297
#     4   9  18  32  50  73 101 132 167 208 251 297
#     4  10  21  36  55  79 105 135 170 206 248 297
#     4  10  22  36  51  75 104 133 166 207 254 300
#     4   9  18  34  53  73  99 132 170 208 249 299
#
# _framework density 18.201681000000001
#
# number of rings (size 3 to 8) (size 9 to 14) (size 15 to 20)
#    0.000    2.400    0.000    3.000    0.000    6.000 
#    0.000    4.000    0.000    0.000    0.000    0.000 
#    0.000    0.000    0.000    0.000    0.000    0.000 
#
# Total GULP energy -223208.976192 kJ/mol
# GULP energy per Si atom -5580.224405 kJ/mol
# Density = 1.816025 g / cm^3
# Si number density = 18.201681 Si / 1000 Ang^3
#
#
#
# Elastic Constant Matrix: (Units=GPa)
#
#
# Indices 1 2 3 4 5 6 
#
# 1 19.2052 32.4299 23.1016 0.0000 0.0000 0.0000
# 2 32.4299 199.5619 146.3967 0.0000 0.0000 0.0000
# 3 23.1016 146.3967 139.0304 0.0000 0.0000 0.0000
# 4 0.0000 0.0000 0.0000 39.6878 0.0000 0.0000
# 5 0.0000 0.0000 0.0000 0.0000 31.4706 0.0000
# 6 0.0000 0.0000 0.0000 0.0000 0.0000 -105.9263
#
#
#
# Elastic Compliance Matrix: (Units=1/GPa)
#
#
# Indices 1 2 3 4 5 6 
#
# 1 0.071838 -0.012821 0.001564 0.000000 0.000000 0.000000
# 2 -0.012821 0.024311 -0.023468 0.000000 0.000000 0.000000
# 3 0.001564 -0.023468 0.031645 0.000000 0.000000 0.000000
# 4 0.000000 0.000000 0.000000 0.025197 0.000000 0.000000
# 5 0.000000 0.000000 0.000000 0.000000 0.031776 0.000000
# 6 0.000000 0.000000 0.000000 0.000000 0.000000 -0.009441
#
#
# Mechanical properties :
#
#
# Convention : Reuss Voigt Hill
#
# Bulk Modulus (GPa) = 17.14030 84.62822 50.88426
# Shear Modulus (GPa) = 18.92332 3.43770 11.18051
#
# Velocity S-wave (km/s) = 3.22785 1.37578 2.48111
# Velocity P-wave (km/s) = 4.83005 7.00852 6.01867
#
# Compressibility (1/GPa) = 0.05834203
#
# Stress axis : x y z
#
# Youngs Moduli (GPa) = 13.92013 41.13425 31.60106
#
# Poissons Ratio (x) = 0.52740 -0.04942
# Poissons Ratio (y) = 0.17848 0.74162
# Poissons Ratio (z) = -0.02177 0.96535
#
# Static dielectric constant tensor:
#      x y z
#    x 1.622520 0.000000 0.000000 
#    y 0.000000 1.641440 0.000000 
#    z 0.000000 0.000000 1.581160 
# 
# From -- ./inp_files/6312.got.cif
#   From: 2010.05.17/outbox.cif.g08.bks.cpg/sg53_4_cif.got.tgz:6312.got - 2010.06.03 12:45:16.
