data_PCOD9417714
_publ_section_title
;
Structure prediction by ZEFSAII (Michael W. Deem and Ramdas Pophale) SiO2 
 PCOD9417714
Probable space group: P M N A
;
_chemical_formula_sum "Si O2"
_cell_formula_units_Z 32
_cell_length_a 15.329860
_cell_length_b 9.118994
_cell_length_c 10.636239
_cell_angle_alpha 90.000000
_cell_angle_beta 90.000000
_cell_angle_gamma 90.000000
_cell_volume 1486.870709
_symmetry_space_group_name_H-M "P M N A"
_symmetry_group_IT_number 53
_symmetry_cell_setting 'orthorhombic'
loop_
_space_group_symop_operation_xyz
x,y,z
1/2-x,-y,1/2+z
x,-y,-z
1/2-x,y,1/2-z
-x,-y,-z
1/2+x,y,1/2-z
-x,y,z
1/2+x,-y,1/2+z
loop_
_atom_site_type_symbol
_atom_site_label
_atom_site_fract_x
_atom_site_fract_y
_atom_site_fract_z
Si Si1 0.682109 0.431862 0.636283
Si Si2 0.222907 0.826805 0.006037
Si Si3 0.096027 0.677134 0.510903
Si Si4 0.093776 0.707391 0.806162
O O1 0.711308 0.500000 0.500000
O O2 0.750000 0.453713 0.750000
O O3 0.665906 0.261093 0.609999
O O4 0.600879 0.533121 0.669253
O O5 0.318602 0.760555 0.037903
O O6 0.176600 0.776569 0.876102
O O7 0.225239 0.000000 0.000000
O O8 0.102230 0.500000 0.500000
O O9 0.097442 0.722157 0.657301
O O10 0.000000 0.717365 0.458763
O O11 0.000000 0.763393 0.852655
#
# Coordination Sequence:
#
# PCOD9417714 Si02
#       4
#     8   8   8   8
#     4  10  20  36  59  84 112 149 198 248 296 348
#     4  11  23  36  55  83 121 161 194 235 289 356
#     4  10  20  37  62  87 110 144 195 250 299 348
#     4  10  20  36  59  84 113 150 195 246 294 345
#
# _framework density 21.521709999999999
#
# number of rings (size 3 to 8) (size 9 to 14) (size 15 to 20)
#    0.000    1.750    0.000    7.500    0.000    7.500 
#    0.000    0.000    0.000    6.000    0.000    0.000 
#    0.000    0.000    0.000    0.000    0.000    0.000 
#
# Total GULP energy -178226.431893 kJ/mol
# GULP energy per Si atom -5569.575997 kJ/mol
# Density = 2.147273 g / cm^3
# Si number density = 21.521710 Si / 1000 Ang^3
#
#
#
# Elastic Constant Matrix: (Units=GPa)
#
#
# Indices 1 2 3 4 5 6 
#
# 1 83.1683 23.2681 0.3909 0.0000 0.0000 0.0000
# 2 23.2681 124.4709 -9.1999 0.0000 0.0000 0.0000
# 3 0.3909 -9.1999 66.3708 0.0000 0.0000 0.0000
# 4 0.0000 0.0000 0.0000 12.8105 0.0000 0.0000
# 5 0.0000 0.0000 0.0000 0.0000 1.0169 0.0000
# 6 0.0000 0.0000 0.0000 0.0000 0.0000 -31.4582
#
#
#
# Elastic Compliance Matrix: (Units=1/GPa)
#
#
# Indices 1 2 3 4 5 6 
#
# 1 0.012698 -0.002404 -0.000408 0.000000 0.000000 0.000000
# 2 -0.002404 0.008572 0.001202 0.000000 0.000000 0.000000
# 3 -0.000408 0.001202 0.015236 0.000000 0.000000 0.000000
# 4 0.000000 0.000000 0.000000 0.078061 0.000000 0.000000
# 5 0.000000 0.000000 0.000000 0.000000 0.983365 0.000000
# 6 0.000000 0.000000 0.000000 0.000000 0.000000 -0.031788
#
#
# Mechanical properties :
#
#
# Convention : Reuss Voigt Hill
#
# Bulk Modulus (GPa) = 30.04141 33.65870 31.85005
# Shear Modulus (GPa) = 4.62766 13.77722 9.20244
#
# Velocity S-wave (km/s) = 1.46796 2.53287 2.07007
# Velocity P-wave (km/s) = 4.10636 4.92212 4.53263
#
# Compressibility (1/GPa) = 0.03328738
#
# Stress axis : x y z
#
# Youngs Moduli (GPa) = 78.75086 116.65535 65.63435
#
# Poissons Ratio (x) = 0.28043 0.02678
# Poissons Ratio (y) = 0.18931 -0.07892
# Poissons Ratio (z) = 0.03213 -0.14026
#
# Static dielectric constant tensor:
#      x y z
#    x 1.874200 0.000000 0.000000 
#    y 0.000000 1.817000 0.000000 
#    z 0.000000 0.000000 1.836560 
# 
# From -- ./inp_files/15412.got.cif
#   From: 2010.05.17/outbox.cif.g08.bks.cpg/sg53_8_cif.got.tgz:15412.got - 2010.06.03 12:45:16.
