data_PCOD9417656
_publ_section_title
;
Structure prediction by ZEFSAII (Michael W. Deem and Ramdas Pophale) SiO2 
 PCOD9417656
Probable space group: P M N A
;
_chemical_formula_sum "Si O2"
_cell_formula_units_Z 48
_cell_length_a 8.815000
_cell_length_b 12.911771
_cell_length_c 24.176224
_cell_angle_alpha 90.000000
_cell_angle_beta 90.000000
_cell_angle_gamma 90.000000
_cell_volume 2751.671606
_symmetry_space_group_name_H-M "P M N A"
_symmetry_group_IT_number 53
_symmetry_cell_setting 'orthorhombic'
loop_
_space_group_symop_operation_xyz
x,y,z
1/2-x,-y,1/2+z
x,-y,-z
1/2-x,y,1/2-z
-x,-y,-z
1/2+x,y,1/2-z
-x,y,z
1/2+x,-y,1/2+z
loop_
_atom_site_type_symbol
_atom_site_label
_atom_site_fract_x
_atom_site_fract_y
_atom_site_fract_z
Si Si1 0.318384 0.616309 0.809879
Si Si2 0.182284 0.201857 0.120994
Si Si3 0.683001 0.878230 0.500009
Si Si4 0.817794 0.005138 0.811202
Si Si5 0.182397 0.622002 0.309524
Si Si6 0.817816 0.811309 0.385607
O O1 0.250000 0.644759 0.750000
O O2 0.500000 0.621221 0.806813
O O3 0.258328 0.695572 0.855303
O O4 0.272700 0.496915 0.821204
O O5 0.000000 0.213729 0.122313
O O6 0.220772 0.104541 0.160317
O O7 0.226294 0.172383 0.058475
O O8 0.500000 0.873584 0.494864
O O9 0.757153 0.823389 0.447565
O O10 0.724900 0.000000 0.500000
O O11 0.750000 0.011132 0.750000
O O12 0.751235 0.095991 0.849159
O O13 0.000000 0.014173 0.809299
O O14 0.250000 0.652049 0.250000
O O15 0.227538 0.703596 0.356331
O O16 0.000000 0.624431 0.305070
O O17 0.000000 0.818538 0.385136
#
# Coordination Sequence:
#
# PCOD9417656 Si02
#       6
#     8   8   8   8   8   8
#     4  10  20  36  58  82 111 145 182 225 275 326
#     4  10  21  37  57  80 109 143 183 226 273 327
#     4  10  20  39  59  78 108 149 186 226 277 323
#     4  11  22  36  53  79 113 145 177 224 279 329
#     4   9  20  37  56  81 112 145 181 225 275 325
#     4  11  22  36  56  83 111 143 186 228 272 329
#
# _framework density 17.443942
#
# number of rings (size 3 to 8) (size 9 to 14) (size 15 to 20)
#    0.000    1.833    1.667    2.500    0.000    7.000 
#    0.000    0.833    0.000    5.000    0.000    0.000 
#    0.000    0.000    0.000    0.000    0.000    0.000 
#
# Total GULP energy -268099.510911 kJ/mol
# GULP energy per Si atom -5585.406477 kJ/mol
# Density = 1.740424 g / cm^3
# Si number density = 17.443942 Si / 1000 Ang^3
#
#
#
# Elastic Constant Matrix: (Units=GPa)
#
#
# Indices 1 2 3 4 5 6 
#
# 1 26.2567 32.1394 35.2519 0.0000 0.0000 0.0000
# 2 32.1394 99.5346 68.1625 0.0000 0.0000 0.0000
# 3 35.2519 68.1625 130.4305 0.0000 0.0000 0.0000
# 4 0.0000 0.0000 0.0000 22.3249 0.0000 0.0000
# 5 0.0000 0.0000 0.0000 0.0000 35.2858 0.0000
# 6 0.0000 0.0000 0.0000 0.0000 0.0000 28.3421
#
#
#
# Elastic Compliance Matrix: (Units=1/GPa)
#
#
# Indices 1 2 3 4 5 6 
#
# 1 0.072542 -0.015569 -0.011470 0.000000 0.000000 0.000000
# 2 -0.015569 0.018988 -0.005715 0.000000 0.000000 0.000000
# 3 -0.011470 -0.005715 0.013754 0.000000 0.000000 0.000000
# 4 0.000000 0.000000 0.000000 0.044793 0.000000 0.000000
# 5 0.000000 0.000000 0.000000 0.000000 0.028340 0.000000
# 6 0.000000 0.000000 0.000000 0.000000 0.000000 0.035283
#
#
# Mechanical properties :
#
#
# Convention : Reuss Voigt Hill
#
# Bulk Modulus (GPa) = 25.14114 58.59216 41.86665
# Shear Modulus (GPa) = 17.09606 25.23508 21.16557
#
# Velocity S-wave (km/s) = 3.13398 3.80760 3.48709
# Velocity P-wave (km/s) = 5.24782 7.27957 6.34554
#
# Compressibility (1/GPa) = 0.03977544
#
# Stress axis : x y z
#
# Youngs Moduli (GPa) = 13.78519 52.66599 72.70841
#
# Poissons Ratio (x) = 0.81995 0.83396
# Poissons Ratio (y) = 0.21462 0.41553
# Poissons Ratio (z) = 0.15811 0.30099
#
# Static dielectric constant tensor:
#      x y z
#    x 1.586490 0.000000 0.000000 
#    y 0.000000 1.586130 0.000000 
#    z 0.000000 0.000000 1.564180 
# 
# From -- ./inp_files/33841.got.cif
#   From: 2010.05.17/outbox.cif.g08.bks.cpg/sg53_17_cif.got.tgz:33841.got - 2010.06.03 12:45:16.
