data_PCOD9417186
_publ_section_title
;
Structure prediction by ZEFSAII (Michael W. Deem and Ramdas Pophale) SiO2 
 PCOD9417186
Probable space group: P M N A
;
_chemical_formula_sum "Si O2"
_cell_formula_units_Z 64
_cell_length_a 9.055754
_cell_length_b 24.256188
_cell_length_c 15.024379
_cell_angle_alpha 90.000000
_cell_angle_beta 90.000000
_cell_angle_gamma 90.000000
_cell_volume 3300.226117
_symmetry_space_group_name_H-M "P M N A"
_symmetry_group_IT_number 53
_symmetry_cell_setting 'orthorhombic'
loop_
_space_group_symop_operation_xyz
x,y,z
1/2-x,-y,1/2+z
x,-y,-z
1/2-x,y,1/2-z
-x,-y,-z
1/2+x,y,1/2-z
-x,y,z
1/2+x,-y,1/2+z
loop_
_atom_site_type_symbol
_atom_site_label
_atom_site_fract_x
_atom_site_fract_y
_atom_site_fract_z
Si Si1 0.678188 0.650997 0.653291
Si Si2 0.675370 0.083141 0.659110
Si Si3 0.673787 0.123949 0.465615
Si Si4 0.823511 0.246852 0.027150
Si Si5 0.322328 0.436414 0.491531
Si Si6 0.676743 0.964320 0.843451
Si Si7 0.833699 0.390213 0.663056
Si Si8 0.833723 0.742304 0.337994
O O1 0.750000 0.653083 0.750000
O O2 0.500000 0.652367 0.661768
O O3 0.722436 0.703453 0.591989
O O4 0.719734 0.595812 0.598430
O O5 0.750000 0.103573 0.750000
O O6 0.500000 0.075103 0.673164
O O7 0.695089 0.120480 0.572201
O O8 0.752234 0.024314 0.638652
O O9 0.500000 0.111496 0.448924
O O10 0.705611 0.185994 0.434142
O O11 0.773349 0.078890 0.417711
O O12 0.000000 0.251695 0.013862
O O13 0.747913 0.249016 0.931058
O O14 0.276516 0.500000 0.500000
O O15 0.500000 0.434131 0.497395
O O16 0.254425 0.404527 0.574675
O O17 0.750000 0.946297 0.750000
O O18 0.500000 0.968194 0.836748
O O19 0.750000 0.411920 0.750000
O O20 0.842021 0.324145 0.671156
O O21 0.000000 0.412011 0.658605
O O22 0.750000 0.762850 0.250000
O O23 0.000000 0.764612 0.340897
#
# Coordination Sequence:
#
# PCOD9417186 Si02
#       8
#     8   8   8   8   8   8   8   8
#     4  10  22  40  62  84 113 153 194 239 287 341
#     4  10  20  36  58  83 115 152 189 235 288 348
#     4  10  22  38  57  84 117 151 191 240 294 345
#     4  10  21  39  60  83 114 153 195 241 291 342
#     4  10  21  38  60  87 118 151 191 240 293 346
#     4  11  22  37  59  84 113 150 193 241 291 346
#     4  10  20  34  56  84 114 148 185 230 281 339
#     4  10  20  34  56  84 112 146 187 232 282 342
#
# _framework density 19.392610999999999
#
# number of rings (size 3 to 8) (size 9 to 14) (size 15 to 20)
#    0.000    1.875    1.250    3.375    0.000    6.750 
#    0.000    3.750    0.000    0.000    0.000    0.000 
#    0.000    0.000    0.000    0.000    0.000    0.000 
#
# Total GULP energy -357395.463149 kJ/mol
# GULP energy per Si atom -5584.304112 kJ/mol
# Density = 1.934847 g / cm^3
# Si number density = 19.392611 Si / 1000 Ang^3
#
#
#
# Elastic Constant Matrix: (Units=GPa)
#
#
# Indices 1 2 3 4 5 6 
#
# 1 63.1255 44.8352 46.4733 0.0000 0.0000 0.0000
# 2 44.8352 89.5567 48.1061 0.0000 0.0000 0.0000
# 3 46.4733 48.1061 124.1222 0.0000 0.0000 0.0000
# 4 0.0000 0.0000 0.0000 -3.8805 0.0000 0.0000
# 5 0.0000 0.0000 0.0000 0.0000 34.6314 0.0000
# 6 0.0000 0.0000 0.0000 0.0000 0.0000 5.6721
#
#
#
# Elastic Compliance Matrix: (Units=1/GPa)
#
#
# Indices 1 2 3 4 5 6 
#
# 1 0.028107 -0.010632 -0.006403 0.000000 0.000000 0.000000
# 2 -0.010632 0.018124 -0.003043 0.000000 0.000000 0.000000
# 3 -0.006403 -0.003043 0.011634 0.000000 0.000000 0.000000
# 4 0.000000 0.000000 0.000000 -0.257700 0.000000 0.000000
# 5 0.000000 0.000000 0.000000 0.000000 0.028876 0.000000
# 6 0.000000 0.000000 0.000000 0.000000 0.000000 0.176300
#
#
# Mechanical properties :
#
#
# Convention : Reuss Voigt Hill
#
# Bulk Modulus (GPa) = 56.47395 61.73706 59.10551
# Shear Modulus (GPa) = 97.27889 16.44394 56.86141
#
# Velocity S-wave (km/s) = 7.09026 2.91511 5.42078
# Velocity P-wave (km/s) = 9.80885 6.57533 8.35011
#
# Compressibility (1/GPa) = 0.01770728
#
# Stress axis : x y z
#
# Youngs Moduli (GPa) = 35.57887 55.17684 85.95854
#
# Poissons Ratio (x) = 0.58662 0.55039
# Poissons Ratio (y) = 0.37826 0.26161
# Poissons Ratio (z) = 0.22781 0.16793
#
# Static dielectric constant tensor:
#      x y z
#    x 1.661250 0.000000 0.000000 
#    y 0.000000 1.692780 0.000000 
#    z 0.000000 0.000000 1.658660 
# 
# From -- ./inp_files/20811.got.cif
#   From: 2010.05.17/outbox.cif.g08.bks.cpg/sg53_11_cif.got.tgz:20811.got - 2010.06.03 12:45:16.
