data_PCOD9417520
_publ_section_title
;
Structure prediction by ZEFSAII (Michael W. Deem and Ramdas Pophale) SiO2 
 PCOD9417520
Probable space group: P M N A
;
_chemical_formula_sum "Si O2"
_cell_formula_units_Z 48
_cell_length_a 30.610859
_cell_length_b 14.328096
_cell_length_c 4.729171
_cell_angle_alpha 90.000000
_cell_angle_beta 90.000000
_cell_angle_gamma 90.000000
_cell_volume 2074.192298
_symmetry_space_group_name_H-M "P M N A"
_symmetry_group_IT_number 53
_symmetry_cell_setting 'orthorhombic'
loop_
_space_group_symop_operation_xyz
x,y,z
1/2-x,-y,1/2+z
x,-y,-z
1/2-x,y,1/2-z
-x,-y,-z
1/2+x,y,1/2-z
-x,y,z
1/2+x,-y,1/2+z
loop_
_atom_site_type_symbol
_atom_site_label
_atom_site_fract_x
_atom_site_fract_y
_atom_site_fract_z
Si Si1 0.888410 0.395335 0.552528
Si Si2 0.774389 0.500000 0.500000
Si Si3 0.308545 0.178360 0.701389
Si Si4 0.750000 0.143895 0.250000
Si Si5 0.949582 0.089964 0.173716
Si Si6 0.173931 0.368582 0.065108
Si Si7 0.911890 0.803281 0.302587
O O1 0.906123 0.500000 0.500000
O O2 0.849453 0.410399 0.784908
O O3 0.916658 0.307851 0.649723
O O4 0.867251 0.352615 0.269435
O O5 0.750000 0.558448 0.250000
O O6 0.703040 0.429668 0.222130
O O7 0.285923 0.106973 0.481085
O O8 0.302074 0.276522 0.537037
O O9 0.284224 0.180353 0.003159
O O10 0.360825 0.175601 0.734329
O O11 0.943800 0.172039 0.950676
O O12 0.000000 0.072356 0.247174
O O13 0.924278 0.126945 0.444584
O O14 0.932665 0.000000 0.000000
#
# Coordination Sequence:
#
# PCOD9417520 Si02
#       7
#     8   4   8   4   8   8   8
#     4  11  22  38  62  84 122 174 228 273 313 372
#     4  12  26  38  44  66 106 168 221 292 361 392
#     4  10  21  37  58  87 121 174 229 278 332 386
#     4  10  20  36  54  84 126 174 224 290 336 370
#     4  11  24  44  74 111 142 164 194 255 345 428
#     4  11  22  39  50  73 112 167 227 287 337 382
#     4  11  22  42  68  98 136 178 221 266 325 403
#
# _framework density 23.141535000000001
#
# number of rings (size 3 to 8) (size 9 to 14) (size 15 to 20)
#    0.000    1.167    0.833    7.500    1.167    1.333 
#    0.000    3.333    0.000    3.000    0.000   32.667 
#    0.000    0.000    0.000    0.000    0.000    0.000 
#
# Total GULP energy -267295.240901 kJ/mol
# GULP energy per Si atom -5568.650852 kJ/mol
# Density = 2.308886 g / cm^3
# Si number density = 23.141535 Si / 1000 Ang^3
#
#
#
# Elastic Constant Matrix: (Units=GPa)
#
#
# Indices 1 2 3 4 5 6 
#
# 1 57.2959 33.4887 36.1914 0.0000 0.0000 0.0000
# 2 33.4887 94.4478 40.3223 0.0000 0.0000 0.0000
# 3 36.1914 40.3223 197.6937 0.0000 0.0000 0.0000
# 4 0.0000 0.0000 0.0000 18.8805 0.0000 0.0000
# 5 0.0000 0.0000 0.0000 0.0000 44.1414 0.0000
# 6 0.0000 0.0000 0.0000 0.0000 0.0000 31.2992
#
#
#
# Elastic Compliance Matrix: (Units=1/GPa)
#
#
# Indices 1 2 3 4 5 6 
#
# 1 0.023383 -0.007080 -0.002837 0.000000 0.000000 0.000000
# 2 -0.007080 0.013741 -0.001507 0.000000 0.000000 0.000000
# 3 -0.002837 -0.001507 0.005885 0.000000 0.000000 0.000000
# 4 0.000000 0.000000 0.000000 0.052965 0.000000 0.000000
# 5 0.000000 0.000000 0.000000 0.000000 0.022654 0.000000
# 6 0.000000 0.000000 0.000000 0.000000 0.000000 0.031950
#
#
# Mechanical properties :
#
#
# Convention : Reuss Voigt Hill
#
# Bulk Modulus (GPa) = 49.59579 63.27135 56.43357
# Shear Modulus (GPa) = 27.75527 34.82657 31.29092
#
# Velocity S-wave (km/s) = 3.46695 3.88356 3.68115
# Velocity P-wave (km/s) = 6.12408 6.89273 6.51974
#
# Compressibility (1/GPa) = 0.02016300
#
# Stress axis : x y z
#
# Youngs Moduli (GPa) = 42.76570 72.77244 169.92551
#
# Poissons Ratio (x) = 0.51523 0.48202
# Poissons Ratio (y) = 0.30278 0.25601
# Poissons Ratio (z) = 0.12131 0.10964
#
# Static dielectric constant tensor:
#      x y z
#    x 2.259280 0.000000 0.000000 
#    y 0.000000 1.996010 0.000000 
#    z 0.000000 0.000000 1.960920 
# 
# From -- ./inp_files/5295.got.cif
#   From: 2010.05.17/outbox.cif.g08.bks.cpg/sg53_3_cif.got.tgz:5295.got - 2010.06.03 12:45:16.
