data_PCOD9417731
_publ_section_title
;
Structure prediction by ZEFSAII (Michael W. Deem and Ramdas Pophale) SiO2 
 PCOD9417731
Probable space group: P M N A
;
_chemical_formula_sum "Si O2"
_cell_formula_units_Z 56
_cell_length_a 9.286606
_cell_length_b 14.845838
_cell_length_c 20.540298
_cell_angle_alpha 90.000000
_cell_angle_beta 90.000000
_cell_angle_gamma 90.000000
_cell_volume 2831.838471
_symmetry_space_group_name_H-M "P M N A"
_symmetry_group_IT_number 53
_symmetry_cell_setting 'orthorhombic'
loop_
_space_group_symop_operation_xyz
x,y,z
1/2-x,-y,1/2+z
x,-y,-z
1/2-x,y,1/2-z
-x,-y,-z
1/2+x,y,1/2-z
-x,y,z
1/2+x,-y,1/2+z
loop_
_atom_site_type_symbol
_atom_site_label
_atom_site_fract_x
_atom_site_fract_y
_atom_site_fract_z
Si Si1 0.333530 0.308685 0.395580
Si Si2 0.336931 0.475994 0.307178
Si Si3 0.673966 0.995953 0.075403
Si Si4 0.835574 0.394893 0.503578
Si Si5 0.173984 0.855365 0.316305
Si Si6 0.174152 0.153331 0.319700
Si Si7 0.163931 0.650001 0.344882
O O1 0.500000 0.278867 0.398007
O O2 0.330491 0.410243 0.367933
O O3 0.259700 0.323178 0.464883
O O4 0.241230 0.244820 0.348849
O O5 0.250000 0.428931 0.250000
O O6 0.500000 0.486546 0.287169
O O7 0.265944 0.571714 0.319812
O O8 0.500000 0.992312 0.070669
O O9 0.706388 0.079989 0.123355
O O10 0.718659 0.909986 0.118988
O O11 0.727228 0.000000 0.000000
O O12 0.787466 0.500000 0.500000
O O13 0.838819 0.363532 0.577752
O O14 0.000000 0.393891 0.477060
O O15 0.250000 0.888000 0.250000
O O16 0.209448 0.750244 0.326094
O O17 0.000000 0.864197 0.309787
O O18 0.250000 0.133450 0.250000
O O19 0.000000 0.157970 0.311493
O O20 0.000000 0.637186 0.321216
#
# Coordination Sequence:
#
# PCOD9417731 Si02
#       7
#     8   8   8   8   8   8   8
#     4  11  24  39  58  86 121 160 203 251 304 362
#     4  11  23  37  55  79 113 155 198 245 295 351
#     4   9  20  39  65  94 121 154 198 246 298 361
#     4  10  20  36  59  86 117 158 205 252 302 358
#     4  10  21  38  62  90 121 156 196 243 295 357
#     4  11  23  40  66  93 122 160 203 254 308 367
#     4  10  21  36  58  87 118 154 199 245 293 355
#
# _framework density 19.775138999999999
#
# number of rings (size 3 to 8) (size 9 to 14) (size 15 to 20)
#    0.000    1.714    1.429    2.571    2.000    5.429 
#    0.000    0.714    0.000    2.143    0.000    0.000 
#    0.000    0.000    0.000    0.000    0.000    0.000 
#
# Total GULP energy -312418.925954 kJ/mol
# GULP energy per Si atom -5578.909392 kJ/mol
# Density = 1.973013 g / cm^3
# Si number density = 19.775139 Si / 1000 Ang^3
#
#
#
# Elastic Constant Matrix: (Units=GPa)
#
#
# Indices 1 2 3 4 5 6 
#
# 1 74.6929 31.7621 33.4925 0.0000 0.0000 0.0000
# 2 31.7621 91.9066 41.0859 0.0000 0.0000 0.0000
# 3 33.4925 41.0859 132.1088 0.0000 0.0000 0.0000
# 4 0.0000 0.0000 0.0000 28.9013 0.0000 0.0000
# 5 0.0000 0.0000 0.0000 0.0000 31.7692 0.0000
# 6 0.0000 0.0000 0.0000 0.0000 0.0000 -4.7727
#
#
#
# Elastic Compliance Matrix: (Units=1/GPa)
#
#
# Indices 1 2 3 4 5 6 
#
# 1 0.016544 -0.004463 -0.002806 0.000000 0.000000 0.000000
# 2 -0.004463 0.013842 -0.003173 0.000000 0.000000 0.000000
# 3 -0.002806 -0.003173 0.009268 0.000000 0.000000 0.000000
# 4 0.000000 0.000000 0.000000 0.034601 0.000000 0.000000
# 5 0.000000 0.000000 0.000000 0.000000 0.031477 0.000000
# 6 0.000000 0.000000 0.000000 0.000000 0.000000 -0.209526
#
#
# Mechanical properties :
#
#
# Convention : Reuss Voigt Hill
#
# Bulk Modulus (GPa) = 53.28072 56.82105 55.05088
# Shear Modulus (GPa) = -65.22903 24.00408 -20.61248
#
# Velocity S-wave (km/s) = -5.74952 3.48782 -3.23204
# Velocity P-wave (km/s) = 4.13209 6.70938 3.73775
#
# Compressibility (1/GPa) = 0.01876852
#
# Stress axis : x y z
#
# Youngs Moduli (GPa) = 60.44352 72.24619 107.89960
#
# Poissons Ratio (x) = 0.32244 0.30281
# Poissons Ratio (y) = 0.26976 0.34239
# Poissons Ratio (z) = 0.16963 0.22926
#
# Static dielectric constant tensor:
#      x y z
#    x 1.695760 0.000000 0.000000 
#    y 0.000000 1.701280 0.000000 
#    z 0.000000 0.000000 1.726370 
# 
# From -- ./inp_files/30758.got.cif
#   From: 2010.05.17/outbox.cif.g08.bks.cpg/sg53_16_cif.got.tgz:30758.got - 2010.06.03 12:45:16.
