data_PCOD9417793
_publ_section_title
;
Structure prediction by ZEFSAII (Michael W. Deem and Ramdas Pophale) SiO2 
 PCOD9417793
Probable space group: P M N A
;
_chemical_formula_sum "Si O2"
_cell_formula_units_Z 48
_cell_length_a 14.888099
_cell_length_b 9.200410
_cell_length_c 17.425761
_cell_angle_alpha 90.000000
_cell_angle_beta 90.000000
_cell_angle_gamma 90.000000
_cell_volume 2386.921754
_symmetry_space_group_name_H-M "P M N A"
_symmetry_group_IT_number 53
_symmetry_cell_setting 'orthorhombic'
loop_
_space_group_symop_operation_xyz
x,y,z
1/2-x,-y,1/2+z
x,-y,-z
1/2-x,y,1/2-z
-x,-y,-z
1/2+x,y,1/2-z
-x,y,z
1/2+x,-y,1/2+z
loop_
_atom_site_type_symbol
_atom_site_label
_atom_site_fract_x
_atom_site_fract_y
_atom_site_fract_z
Si Si1 0.287415 0.853718 0.832343
Si Si2 0.305379 0.258750 0.484005
Si Si3 0.000000 0.038424 0.871970
Si Si4 0.000000 0.756419 0.979149
Si Si5 0.192732 0.131988 0.853427
Si Si6 0.750000 0.603600 0.250000
Si Si7 0.341460 0.500000 0.000000
Si Si8 0.099008 0.414712 0.335765
O O1 0.250000 0.809657 0.750000
O O2 0.223721 0.805653 0.902548
O O3 0.376189 0.756800 0.840892
O O4 0.277221 0.027792 0.834257
O O5 0.405088 0.324262 0.474242
O O6 0.310529 0.146830 0.554395
O O7 0.226755 0.366360 0.507833
O O8 0.095776 0.062945 0.829786
O O9 0.000000 0.882532 0.914115
O O10 0.000000 0.160184 0.939195
O O11 0.207259 0.287324 0.813322
O O12 0.674264 0.502333 0.211565
O O13 0.395926 0.475470 0.077516
O O14 0.000000 0.434998 0.303037
#
# Coordination Sequence:
#
# PCOD9417793 Si02
#       8
#     8   8   4   4   8   4   4   8
#     4  11  22  40  61  90 126 168 208 258 322 378
#     4  10  20  36  62  90 128 169 209 261 319 385
#     4   9  18  32  56  90 126 163 200 244 327 383
#     4   9  16  31  54  90 128 162 200 248 318 389
#     4  11  21  39  63  94 128 166 212 264 317 386
#     4  12  24  42  66  98 130 160 214 274 322 370
#     4  10  21  41  68  86 120 178 223 264 321 380
#     4  11  25  47  67  90 129 174 219 264 324 388
#
# _framework density 20.109584000000002
#
# number of rings (size 3 to 8) (size 9 to 14) (size 15 to 20)
#    0.000    1.500    5.000    0.750    1.167    0.333 
#    3.000    0.833    0.000    2.000    0.000    0.000 
#    0.000    0.000    0.000    0.000    0.000    0.000 
#
# Total GULP energy -267527.828669 kJ/mol
# GULP energy per Si atom -5573.496431 kJ/mol
# Density = 2.006381 g / cm^3
# Si number density = 20.109584 Si / 1000 Ang^3
#
#
#
# Elastic Constant Matrix: (Units=GPa)
#
#
# Indices 1 2 3 4 5 6 
#
# 1 125.3640 38.4584 20.2094 0.0000 0.0000 0.0000
# 2 38.4584 71.3832 9.3797 0.0000 0.0000 0.0000
# 3 20.2094 9.3797 92.3989 0.0000 0.0000 0.0000
# 4 0.0000 0.0000 0.0000 17.5778 0.0000 0.0000
# 5 0.0000 0.0000 0.0000 0.0000 -11.2085 0.0000
# 6 0.0000 0.0000 0.0000 0.0000 0.0000 10.2181
#
#
#
# Elastic Compliance Matrix: (Units=1/GPa)
#
#
# Indices 1 2 3 4 5 6 
#
# 1 0.009792 -0.005062 -0.001628 0.000000 0.000000 0.000000
# 2 -0.005062 0.016815 -0.000600 0.000000 0.000000 0.000000
# 3 -0.001628 -0.000600 0.011240 0.000000 0.000000 0.000000
# 4 0.000000 0.000000 0.000000 0.056890 0.000000 0.000000
# 5 0.000000 0.000000 0.000000 0.000000 -0.089218 0.000000
# 6 0.000000 0.000000 0.000000 0.000000 0.000000 0.097866
#
#
# Mechanical properties :
#
#
# Convention : Reuss Voigt Hill
#
# Bulk Modulus (GPa) = 42.97822 47.24901 45.11362
# Shear Modulus (GPa) = 39.77129 18.05737 28.91433
#
# Velocity S-wave (km/s) = 4.45199 2.99983 3.79600
# Velocity P-wave (km/s) = 6.91703 5.96200 6.45720
#
# Compressibility (1/GPa) = 0.02326760
#
# Stress axis : x y z
#
# Youngs Moduli (GPa) = 102.12452 59.47170 88.97128
#
# Poissons Ratio (x) = 0.30102 0.14483
# Poissons Ratio (y) = 0.51692 0.05337
# Poissons Ratio (z) = 0.16624 0.03567
#
# Static dielectric constant tensor:
#      x y z
#    x 1.724740 0.000000 0.000000 
#    y 0.000000 1.790490 0.000000 
#    z 0.000000 0.000000 1.725920 
# 
# From -- ./inp_files/28331.got.cif
#   From: 2010.05.17/outbox.cif.g08.bks.cpg/sg53_15_cif.got.tgz:28331.got - 2010.06.03 12:45:16.
