data_PCOD9417062
_publ_section_title
;
Structure prediction by ZEFSAII (Michael W. Deem and Ramdas Pophale) SiO2 
 PCOD9417062
Probable space group: P M N A
;
_chemical_formula_sum "Si O2"
_cell_formula_units_Z 32
_cell_length_a 25.311320
_cell_length_b 14.521333
_cell_length_c 5.061187
_cell_angle_alpha 90.000000
_cell_angle_beta 90.000000
_cell_angle_gamma 90.000000
_cell_volume 1860.260065
_symmetry_space_group_name_H-M "P M N A"
_symmetry_group_IT_number 53
_symmetry_cell_setting 'orthorhombic'
loop_
_space_group_symop_operation_xyz
x,y,z
1/2-x,-y,1/2+z
x,-y,-z
1/2-x,y,1/2-z
-x,-y,-z
1/2+x,y,1/2-z
-x,y,z
1/2+x,-y,1/2+z
loop_
_atom_site_type_symbol
_atom_site_label
_atom_site_fract_x
_atom_site_fract_y
_atom_site_fract_z
Si Si1 0.786626 0.500000 0.000000
Si Si2 0.845338 0.798541 0.284518
Si Si3 0.313297 0.689218 0.724241
Si Si4 0.250000 0.062787 0.750000
Si Si5 0.439129 0.936133 0.257134
O O1 0.750000 0.531944 0.250000
O O2 0.819109 0.414999 0.119184
O O3 0.839152 0.718029 0.500184
O O4 0.798970 0.873067 0.334491
O O5 0.900728 0.850792 0.287948
O O6 0.834696 0.757170 0.997491
O O7 0.250000 0.701088 0.750000
O O8 0.265054 0.000000 0.500000
O O9 0.500000 0.908588 0.309914
O O10 0.420643 0.000000 0.500000
O O11 0.438211 0.000000 0.000000
#
# Coordination Sequence:
#
# PCOD9417062 Si02
#       5
#     4   8   8   4   8
#     4  10  20  34  54  76 107 146 177 210 268 320
#     4  12  21  34  53  77 107 140 177 219 262 313
#     4  11  20  35  51  79 109 139 172 217 261 326
#     4  12  22  32  46  70 108 142 168 202 260 320
#     4  10  21  38  56  75 102 140 187 230 261 299
#
# _framework density 17.201895
#
# number of rings (size 3 to 8) (size 9 to 14) (size 15 to 20)
#    0.000    1.000    2.500    7.500    0.000    0.000 
#    0.000    0.000    0.000    0.000    0.000    5.250 
#    0.000    0.000    0.000    0.000    0.000    0.000 
#
# Total GULP energy -178781.473493 kJ/mol
# GULP energy per Si atom -5586.921047 kJ/mol
# Density = 1.716274 g / cm^3
# Si number density = 17.201895 Si / 1000 Ang^3
#
#
#
# Elastic Constant Matrix: (Units=GPa)
#
#
# Indices 1 2 3 4 5 6 
#
# 1 66.6874 32.7622 0.4229 0.0000 0.0000 0.0000
# 2 32.7622 65.3228 1.2645 0.0000 0.0000 0.0000
# 3 0.4229 1.2645 80.9128 0.0000 0.0000 0.0000
# 4 0.0000 0.0000 0.0000 44.2953 0.0000 0.0000
# 5 0.0000 0.0000 0.0000 0.0000 31.8377 0.0000
# 6 0.0000 0.0000 0.0000 0.0000 0.0000 58.1710
#
#
#
# Elastic Compliance Matrix: (Units=1/GPa)
#
#
# Indices 1 2 3 4 5 6 
#
# 1 0.019898 -0.009981 0.000052 0.000000 0.000000 0.000000
# 2 -0.009981 0.020320 -0.000265 0.000000 0.000000 0.000000
# 3 0.000052 -0.000265 0.012363 0.000000 0.000000 0.000000
# 4 0.000000 0.000000 0.000000 0.022576 0.000000 0.000000
# 5 0.000000 0.000000 0.000000 0.000000 0.031409 0.000000
# 6 0.000000 0.000000 0.000000 0.000000 0.000000 0.017191
#
#
# Mechanical properties :
#
#
# Convention : Reuss Voigt Hill
#
# Bulk Modulus (GPa) = 31.06341 31.31359 31.18850
# Shear Modulus (GPa) = 32.28387 38.75904 35.52145
#
# Velocity S-wave (km/s) = 4.33686 4.75192 4.54913
# Velocity P-wave (km/s) = 6.57078 6.95347 6.76483
#
# Compressibility (1/GPa) = 0.03219221
#
# Stress axis : x y z
#
# Youngs Moduli (GPa) = 50.25514 49.21356 80.88746
#
# Poissons Ratio (x) = 0.49120 -0.00420
# Poissons Ratio (y) = 0.50159 0.02147
# Poissons Ratio (z) = -0.00261 0.01306
#
# Static dielectric constant tensor:
#      x y z
#    x 1.568920 0.000000 0.000000 
#    y 0.000000 1.594650 0.000000 
#    z 0.000000 0.000000 1.622590 
# 
# From -- ./inp_files/3565.got.cif
#   From: 2010.05.17/outbox.cif.g08.bks.cpg/sg53_2_cif.got.tgz:3565.got - 2010.06.03 12:45:16.
