data_PCOD9417098
_publ_section_title
;
Structure prediction by ZEFSAII (Michael W. Deem and Ramdas Pophale) SiO2 
 PCOD9417098
Probable space group: P M N A
;
_chemical_formula_sum "Si O2"
_cell_formula_units_Z 56
_cell_length_a 15.870730
_cell_length_b 19.919980
_cell_length_c 9.768431
_cell_angle_alpha 90.000000
_cell_angle_beta 90.000000
_cell_angle_gamma 90.000000
_cell_volume 3088.236947
_symmetry_space_group_name_H-M "P M N A"
_symmetry_group_IT_number 53
_symmetry_cell_setting 'orthorhombic'
loop_
_space_group_symop_operation_xyz
x,y,z
1/2-x,-y,1/2+z
x,-y,-z
1/2-x,y,1/2-z
-x,-y,-z
1/2+x,y,1/2-z
-x,y,z
1/2+x,-y,1/2+z
loop_
_atom_site_type_symbol
_atom_site_label
_atom_site_fract_x
_atom_site_fract_y
_atom_site_fract_z
Si Si1 0.398065 0.438290 0.592601
Si Si2 0.898065 0.438290 0.592601
Si Si3 0.405266 0.165414 0.088401
Si Si4 0.750000 0.067829 0.413908
Si Si5 0.850211 0.711023 0.408970
Si Si6 0.405266 0.165414 0.411598
Si Si7 0.149789 0.711023 0.091030
O O1 0.368627 0.500000 0.500000
O O2 0.500000 0.438458 0.591676
O O3 0.369853 0.446502 0.750000
O O4 0.369280 0.364878 0.544630
O O5 0.868627 0.500000 0.500000
O O6 0.869280 0.364878 0.544630
O O7 0.000000 0.438458 0.591676
O O8 0.500000 0.139032 0.066555
O O9 0.332627 0.112225 0.053512
O O10 0.395924 0.181033 0.250000
O O11 0.392773 0.232626 0.001047
O O12 0.750000 0.054576 0.250000
O O13 0.667373 0.112225 0.446488
O O14 0.750000 0.000000 0.500000
O O15 0.750000 0.721750 0.413417
O O16 0.878138 0.716059 0.250000
O O17 0.500000 0.139033 0.433445
O O18 0.392773 0.232626 0.498952
#
# Coordination Sequence:
#
# PCOD9417098 Si02
#       7
#     8   8   8   8   8   8   8
#     4   9  18  32  48  69 101 140 183 231 279 328
#     4   9  18  32  48  69 101 140 183 231 279 328
#     4  10  21  38  60  85 114 149 187 227 274 327
#     4  10  22  40  60  86 119 148 181 224 269 324
#     4  10  20  34  54  80 110 144 186 234 281 330
#     4  10  21  38  60  85 114 149 187 227 274 327
#     4  10  20  34  54  80 110 144 186 234 281 330
#
# _framework density 18.133324000000002
#
# number of rings (size 3 to 8) (size 9 to 14) (size 15 to 20)
#    0.000    2.286    1.429    0.857    0.000    5.143 
#    0.000    2.857    0.000    0.000    0.000    0.000 
#    0.000    0.000    0.000    0.000    0.000    0.000 
#
# Total GULP energy -312534.194152 kJ/mol
# GULP energy per Si atom -5580.967753 kJ/mol
# Density = 1.809205 g / cm^3
# Si number density = 18.133324 Si / 1000 Ang^3
#
#
#
# Elastic Constant Matrix: (Units=GPa)
#
#
# Indices 1 2 3 4 5 6 
#
# 1 95.1958 64.8104 41.1859 0.0000 0.0000 0.0000
# 2 64.8104 154.1354 75.0744 0.0000 0.0000 0.0000
# 3 41.1859 75.0744 50.7720 0.0000 0.0000 0.0000
# 4 0.0000 0.0000 0.0000 42.1080 0.0000 0.0000
# 5 0.0000 0.0000 0.0000 0.0000 1.0863 0.0000
# 6 0.0000 0.0000 0.0000 0.0000 0.0000 -6.6349
#
#
#
# Elastic Compliance Matrix: (Units=1/GPa)
#
#
# Indices 1 2 3 4 5 6 
#
# 1 0.016278 -0.001476 -0.011022 0.000000 0.000000 0.000000
# 2 -0.001476 0.023322 -0.033287 0.000000 0.000000 0.000000
# 3 -0.011022 -0.033287 0.077858 0.000000 0.000000 0.000000
# 4 0.000000 0.000000 0.000000 0.023748 0.000000 0.000000
# 5 0.000000 0.000000 0.000000 0.000000 0.920515 0.000000
# 6 0.000000 0.000000 0.000000 0.000000 0.000000 -0.150718
#
#
# Mechanical properties :
#
#
# Convention : Reuss Voigt Hill
#
# Bulk Modulus (GPa) = 38.63046 73.58272 56.10659
# Shear Modulus (GPa) = 4.94460 15.24740 10.09600
#
# Velocity S-wave (km/s) = 1.65310 2.90289 2.36215
# Velocity P-wave (km/s) = 4.99935 7.20434 6.20064
#
# Compressibility (1/GPa) = 0.02588631
#
# Stress axis : x y z
#
# Youngs Moduli (GPa) = 61.43149 42.87854 12.84393
#
# Poissons Ratio (x) = 0.06329 0.14157
# Poissons Ratio (y) = 0.09068 0.42754
# Poissons Ratio (z) = 0.67711 1.42732
#
# Static dielectric constant tensor:
#      x y z
#    x 1.645660 0.000000 0.000000 
#    y 0.000000 1.578390 0.000000 
#    z 0.000000 0.000000 1.611830 
# 
# From -- ./inp_files/8854.got.cif
#   From: 2010.05.17/outbox.cif.g08.bks.cpg/sg53_5_cif.got.tgz:8854.got - 2010.06.03 12:45:16.
