data_PCOD9417954
_publ_section_title
;
Structure prediction by ZEFSAII (Michael W. Deem and Ramdas Pophale) SiO2 
 PCOD9417954
Probable space group: P M N A
;
_chemical_formula_sum "Si O2"
_cell_formula_units_Z 64
_cell_length_a 8.492266
_cell_length_b 12.414619
_cell_length_c 32.155394
_cell_angle_alpha 90.000000
_cell_angle_beta 90.000000
_cell_angle_gamma 90.000000
_cell_volume 3390.086816
_symmetry_space_group_name_H-M "P M N A"
_symmetry_group_IT_number 53
_symmetry_cell_setting 'orthorhombic'
loop_
_space_group_symop_operation_xyz
x,y,z
1/2-x,-y,1/2+z
x,-y,-z
1/2-x,y,1/2-z
-x,-y,-z
1/2+x,y,1/2-z
-x,y,z
1/2+x,-y,1/2+z
loop_
_atom_site_type_symbol
_atom_site_label
_atom_site_fract_x
_atom_site_fract_y
_atom_site_fract_z
Si Si1 0.185184 0.621563 0.485944
Si Si2 0.808032 0.015262 0.047940
Si Si3 0.812625 0.635830 0.106101
Si Si4 0.310295 0.874201 0.373666
Si Si5 0.189851 0.256041 0.295159
Si Si6 0.811459 0.991088 0.704332
Si Si7 0.314939 0.742275 0.560381
Si Si8 0.812522 0.589340 0.631008
O O1 0.224244 0.500000 0.500000
O O2 0.225097 0.631980 0.437908
O O3 0.284421 0.704369 0.513362
O O4 0.000000 0.639158 0.493580
O O5 0.761569 0.134117 0.064015
O O6 0.000000 0.013015 0.046577
O O7 0.757544 0.927743 0.082363
O O8 0.754451 0.000000 0.000000
O O9 0.768371 0.748188 0.127638
O O10 0.767694 0.526804 0.129668
O O11 0.000000 0.637149 0.098609
O O12 0.500000 0.882603 0.372922
O O13 0.245650 0.937261 0.333941
O O14 0.250000 0.288882 0.250000
O O15 0.243117 0.337241 0.330740
O O16 0.000000 0.255556 0.295298
O O17 0.242911 0.132849 0.302662
O O18 0.750000 0.024619 0.750000
O O19 0.000000 0.991930 0.705505
O O20 0.500000 0.736624 0.569965
O O21 0.226197 0.658299 0.589829
O O22 0.000000 0.574193 0.633372
#
# Coordination Sequence:
#
# PCOD9417954 Si02
#       8
#     8   8   8   8   8   8   8   8
#     4  11  22  36  54  77 109 150 188 231 282 329
#     4   9  18  34  55  81 113 148 186 231 283 335
#     4  11  23  38  58  82 109 148 195 236 273 328
#     4  10  21  38  59  84 116 152 192 239 288 340
#     4   9  20  37  59  86 115 145 178 222 277 334
#     4  10  20  37  62  90 117 147 186 232 284 344
#     4  11  21  33  56  84 108 141 186 232 275 329
#     4  11  22  37  55  80 114 146 179 225 279 330
#
# _framework density 18.878571999999998
#
# number of rings (size 3 to 8) (size 9 to 14) (size 15 to 20)
#    0.000    1.750    1.250    3.375    0.000    5.000 
#    0.000    1.250    0.000    4.125    0.000    0.000 
#    0.000    0.000    0.000    0.000    0.000    0.000 
#
# Total GULP energy -357489.998807 kJ/mol
# GULP energy per Si atom -5585.781231 kJ/mol
# Density = 1.883560 g / cm^3
# Si number density = 18.878572 Si / 1000 Ang^3
#
#
#
# Elastic Constant Matrix: (Units=GPa)
#
#
# Indices 1 2 3 4 5 6 
#
# 1 14.5295 19.9340 6.8264 0.0000 0.0000 0.0000
# 2 19.9340 119.6565 62.5849 0.0000 0.0000 0.0000
# 3 6.8264 62.5849 121.1278 0.0000 0.0000 0.0000
# 4 0.0000 0.0000 0.0000 34.2948 0.0000 0.0000
# 5 0.0000 0.0000 0.0000 0.0000 27.0803 0.0000
# 6 0.0000 0.0000 0.0000 0.0000 0.0000 20.9591
#
#
#
# Elastic Compliance Matrix: (Units=1/GPa)
#
#
# Indices 1 2 3 4 5 6 
#
# 1 0.090399 -0.016985 0.003681 0.000000 0.000000 0.000000
# 2 -0.016985 0.014644 -0.006609 0.000000 0.000000 0.000000
# 3 0.003681 -0.006609 0.011463 0.000000 0.000000 0.000000
# 4 0.000000 0.000000 0.000000 0.029159 0.000000 0.000000
# 5 0.000000 0.000000 0.000000 0.000000 0.036927 0.000000
# 6 0.000000 0.000000 0.000000 0.000000 0.000000 0.047712
#
#
# Mechanical properties :
#
#
# Convention : Reuss Voigt Hill
#
# Bulk Modulus (GPa) = 13.04121 48.22273 30.63197
# Shear Modulus (GPa) = 16.90963 27.53141 22.22052
#
# Velocity S-wave (km/s) = 2.99608 3.82297 3.43450
# Velocity P-wave (km/s) = 4.34645 6.71460 5.65586
#
# Compressibility (1/GPa) = 0.07668002
#
# Stress axis : x y z
#
# Youngs Moduli (GPa) = 11.06206 68.28913 87.23740
#
# Poissons Ratio (x) = 1.15992 -0.32116
# Poissons Ratio (y) = 0.18789 0.57654
# Poissons Ratio (z) = -0.04072 0.45132
#
# Static dielectric constant tensor:
#      x y z
#    x 1.639830 0.000000 0.000000 
#    y 0.000000 1.663900 0.000000 
#    z 0.000000 0.000000 1.648330 
# 
# From -- ./inp_files/38138.got.cif
#   From: 2010.05.17/outbox.cif.g08.bks.cpg/sg53_20_cif.got.tgz:38138.got - 2010.06.03 12:45:16.
