data_PCOD9417028
_publ_section_title
;
Structure prediction by ZEFSAII (Michael W. Deem and Ramdas Pophale) SiO2 
 PCOD9417028
Probable space group: P M N A
;
_chemical_formula_sum "Si O2"
_cell_formula_units_Z 40
_cell_length_a 8.858889
_cell_length_b 15.552841
_cell_length_c 13.256231
_cell_angle_alpha 90.000000
_cell_angle_beta 90.000000
_cell_angle_gamma 90.000000
_cell_volume 1826.455332
_symmetry_space_group_name_H-M "P M N A"
_symmetry_group_IT_number 53
_symmetry_cell_setting 'orthorhombic'
loop_
_space_group_symop_operation_xyz
x,y,z
1/2-x,-y,1/2+z
x,-y,-z
1/2-x,y,1/2-z
-x,-y,-z
1/2+x,y,1/2-z
-x,y,z
1/2+x,-y,1/2+z
loop_
_atom_site_type_symbol
_atom_site_label
_atom_site_fract_x
_atom_site_fract_y
_atom_site_fract_z
Si Si1 0.328821 0.013925 0.120099
Si Si2 0.176527 0.839106 0.147523
Si Si3 0.319452 0.199364 0.069721
Si Si4 0.180980 0.563055 0.146115
Si Si5 0.818409 0.374205 0.074324
O O1 0.500000 0.000389 0.160652
O O2 0.278092 0.112509 0.130176
O O3 0.210497 0.941588 0.150950
O O4 0.342566 0.000000 0.000000
O O5 0.250000 0.803358 0.250000
O O6 0.000000 0.820487 0.144758
O O7 0.252432 0.808691 0.043545
O O8 0.500000 0.199921 0.063255
O O9 0.258061 0.288114 0.113777
O O10 0.250000 0.594963 0.250000
O O11 0.223804 0.462797 0.129398
O O12 0.000000 0.567068 0.151617
O O13 0.225295 0.611669 0.043506
O O14 0.000000 0.366045 0.078455
#
# Coordination Sequence:
#
# PCOD9417028 Si02
#       5
#     8   8   8   8   8
#     4   8  16  32  50  69  97 130 164 203 247 297
#     4  11  21  33  51  74 102 136 174 215 260 309
#     4  10  20  34  53  77 104 134 170 213 259 309
#     4   9  19  36  57  79 106 140 177 219 268 321
#     4   9  19  36  55  78 109 143 177 216 267 325
#
# _framework density 21.900344
#
# number of rings (size 3 to 8) (size 9 to 14) (size 15 to 20)
#    0.000    2.600    0.000    4.800    0.000    6.800 
#    0.000    5.000    0.000    2.400    0.000    0.000 
#    0.000    0.000    0.000    0.000    0.000    0.000 
#
# Total GULP energy -223386.071209 kJ/mol
# GULP energy per Si atom -5584.651780 kJ/mol
# Density = 2.185050 g / cm^3
# Si number density = 21.900344 Si / 1000 Ang^3
#
#
#
# Elastic Constant Matrix: (Units=GPa)
#
#
# Indices 1 2 3 4 5 6 
#
# 1 37.4356 18.9264 10.6867 0.0000 0.0000 0.0000
# 2 18.9264 133.5599 -9.5434 0.0000 0.0000 0.0000
# 3 10.6867 -9.5434 69.8188 0.0000 0.0000 0.0000
# 4 0.0000 0.0000 0.0000 -3.9570 0.0000 0.0000
# 5 0.0000 0.0000 0.0000 0.0000 8.1539 0.0000
# 6 0.0000 0.0000 0.0000 0.0000 0.0000 36.6125
#
#
#
# Elastic Compliance Matrix: (Units=1/GPa)
#
#
# Indices 1 2 3 4 5 6 
#
# 1 0.030621 -0.004720 -0.005332 0.000000 0.000000 0.000000
# 2 -0.004720 0.008289 0.001855 0.000000 0.000000 0.000000
# 3 -0.005332 0.001855 0.015393 0.000000 0.000000 0.000000
# 4 0.000000 0.000000 0.000000 -0.252714 0.000000 0.000000
# 5 0.000000 0.000000 0.000000 0.000000 0.122641 0.000000
# 6 0.000000 0.000000 0.000000 0.000000 0.000000 0.027313
#
#
# Mechanical properties :
#
#
# Convention : Reuss Voigt Hill
#
# Bulk Modulus (GPa) = 26.37926 31.21709 28.79817
# Shear Modulus (GPa) = -257.37226 22.87817 -117.24705
#
# Velocity S-wave (km/s) = -10.85241 3.23561 -7.32481
# Velocity P-wave (km/s) = 12.04001 5.31451 7.63930
#
# Compressibility (1/GPa) = 0.03790857
#
# Stress axis : x y z
#
# Youngs Moduli (GPa) = 32.65714 120.64549 64.96641
#
# Poissons Ratio (x) = 0.56948 0.34641
# Poissons Ratio (y) = 0.15415 -0.12054
# Poissons Ratio (z) = 0.17413 -0.22385
#
# Static dielectric constant tensor:
#      x y z
#    x 1.732690 0.000000 0.000000 
#    y 0.000000 1.847630 0.000000 
#    z 0.000000 0.000000 1.965000 
# 
# From -- ./inp_files/19840.got.cif
#   From: 2010.05.17/outbox.cif.g08.bks.cpg/sg53_10_cif.got.tgz:19840.got - 2010.06.03 12:45:16.
