data_PCOD9417184
_publ_section_title
;
Structure prediction by ZEFSAII (Michael W. Deem and Ramdas Pophale) SiO2 
 PCOD9417184
Probable space group: P M N A
;
_chemical_formula_sum "Si O2"
_cell_formula_units_Z 56
_cell_length_a 14.945866
_cell_length_b 5.121665
_cell_length_c 28.167558
_cell_angle_alpha 90.000000
_cell_angle_beta 90.000000
_cell_angle_gamma 90.000000
_cell_volume 2156.162309
_symmetry_space_group_name_H-M "P M N A"
_symmetry_group_IT_number 53
_symmetry_cell_setting 'orthorhombic'
loop_
_space_group_symop_operation_xyz
x,y,z
1/2-x,-y,1/2+z
x,-y,-z
1/2-x,y,1/2-z
-x,-y,-z
1/2+x,y,1/2-z
-x,y,z
1/2+x,-y,1/2+z
loop_
_atom_site_type_symbol
_atom_site_label
_atom_site_fract_x
_atom_site_fract_y
_atom_site_fract_z
Si Si1 0.899729 0.259718 0.184381
Si Si2 0.400916 0.005416 0.056643
Si Si3 0.892055 0.597714 0.094632
Si Si4 0.297202 0.104270 0.445998
Si Si5 0.405745 0.220590 0.213709
Si Si6 0.100976 0.615070 0.366053
Si Si7 0.248328 0.162906 0.799573
O O1 0.870181 0.476341 0.146686
O O2 0.904788 0.383108 0.237199
O O3 0.838184 0.003682 0.185662
O O4 0.000000 0.179466 0.170244
O O5 0.500000 0.115733 0.070352
O O6 0.393363 0.715605 0.079885
O O7 0.306736 0.140708 0.070199
O O8 0.401775 0.000000 0.000000
O O9 0.850640 0.373468 0.060473
O O10 0.000000 0.616100 0.089958
O O11 0.846924 0.873856 0.082796
O O12 0.295982 0.000000 0.500000
O O13 0.500000 0.074447 0.219761
O O14 0.404518 0.341991 0.161462
O O15 0.318845 0.055748 0.216400
O O16 0.000000 0.718421 0.353492
O O17 0.191968 0.716220 0.341609
O O18 0.250000 0.326500 0.750000
#
# Coordination Sequence:
#
# PCOD9417184 Si02
#       7
#     8   8   8   8   8   8   8
#     4   9  20  39  57  83 123 165 210 261 320 389
#     4   9  20  41  66  95 132 173 223 283 349 417
#     4  11  24  43  67  99 136 180 228 281 342 403
#     4  11  24  43  70 101 135 176 227 285 345 410
#     4   9  19  36  56  84 118 152 197 249 309 381
#     4  10  20  36  61  89 118 158 206 260 325 394
#     4  10  20  34  56  83 115 157 203 254 313 378
#
# _framework density 25.972071
#
# number of rings (size 3 to 8) (size 9 to 14) (size 15 to 20)
#    0.000    2.143    0.000    2.143    2.000    4.000 
#    5.143    0.714    0.000    3.429    0.000    0.000 
#    0.000    0.000    0.000    0.000    0.000    0.000 
#
# Total GULP energy -312252.599390 kJ/mol
# GULP energy per Si atom -5575.939275 kJ/mol
# Density = 2.591296 g / cm^3
# Si number density = 25.972071 Si / 1000 Ang^3
#
#
#
# Elastic Constant Matrix: (Units=GPa)
#
#
# Indices 1 2 3 4 5 6 
#
# 1 226.8846 52.5626 9.4445 0.0000 0.0000 0.0000
# 2 52.5626 62.2792 5.7573 0.0000 0.0000 0.0000
# 3 9.4445 5.7573 129.7157 0.0000 0.0000 0.0000
# 4 0.0000 0.0000 0.0000 -81.8198 0.0000 0.0000
# 5 0.0000 0.0000 0.0000 0.0000 22.0254 0.0000
# 6 0.0000 0.0000 0.0000 0.0000 0.0000 101.3527
#
#
#
# Elastic Compliance Matrix: (Units=1/GPa)
#
#
# Indices 1 2 3 4 5 6 
#
# 1 0.005484 -0.004610 -0.000195 0.000000 0.000000 0.000000
# 2 -0.004610 0.019999 -0.000552 0.000000 0.000000 0.000000
# 3 -0.000195 -0.000552 0.007748 0.000000 0.000000 0.000000
# 4 0.000000 0.000000 0.000000 -0.012222 0.000000 0.000000
# 5 0.000000 0.000000 0.000000 0.000000 0.045402 0.000000
# 6 0.000000 0.000000 0.000000 0.000000 0.000000 0.009867
#
#
# Mechanical properties :
#
#
# Convention : Reuss Voigt Hill
#
# Bulk Modulus (GPa) = 44.41153 61.60093 53.00623
# Shear Modulus (GPa) = 52.91240 31.71932 42.31586
#
# Velocity S-wave (km/s) = 4.51852 3.49848 4.04082
# Velocity P-wave (km/s) = 6.66030 6.33157 6.49801
#
# Compressibility (1/GPa) = 0.02251667
#
# Stress axis : x y z
#
# Youngs Moduli (GPa) = 182.35979 50.00341 129.06830
#
# Poissons Ratio (x) = 0.23052 0.02512
# Poissons Ratio (y) = 0.84070 0.07124
# Poissons Ratio (z) = 0.03550 0.02760
#
# Static dielectric constant tensor:
#      x y z
#    x 2.005780 0.000000 0.000000 
#    y 0.000000 2.146920 0.000000 
#    z 0.000000 0.000000 2.174510 
# 
# From -- ./inp_files/38859.got.cif
#   From: 2010.05.17/outbox.cif.g08.bks.cpg/sg53_20_cif.got.tgz:38859.got - 2010.06.03 12:45:16.
