data_PCOD9417365
_publ_section_title
;
Structure prediction by ZEFSAII (Michael W. Deem and Ramdas Pophale) SiO2 
 PCOD9417365
Probable space group: P M N A
;
_chemical_formula_sum "Si O2"
_cell_formula_units_Z 64
_cell_length_a 8.611469
_cell_length_b 20.919165
_cell_length_c 19.017555
_cell_angle_alpha 90.000000
_cell_angle_beta 90.000000
_cell_angle_gamma 90.000000
_cell_volume 3425.912518
_symmetry_space_group_name_H-M "P M N A"
_symmetry_group_IT_number 53
_symmetry_cell_setting 'orthorhombic'
loop_
_space_group_symop_operation_xyz
x,y,z
1/2-x,-y,1/2+z
x,-y,-z
1/2-x,y,1/2-z
-x,-y,-z
1/2+x,y,1/2-z
-x,y,z
1/2+x,-y,1/2+z
loop_
_atom_site_type_symbol
_atom_site_label
_atom_site_fract_x
_atom_site_fract_y
_atom_site_fract_z
Si Si1 0.814772 0.999836 0.329191
Si Si2 0.312151 0.502933 0.080611
Si Si3 0.186849 0.237396 0.328739
Si Si4 0.686591 0.879858 0.584615
Si Si5 0.813843 0.382230 0.827688
Si Si6 0.688044 0.117234 0.578852
Si Si7 0.187105 0.763610 0.172403
Si Si8 0.812990 0.382961 0.327697
O O1 0.750000 0.996486 0.250000
O O2 0.756586 0.939972 0.375073
O O3 0.000000 0.000258 0.326213
O O4 0.755245 0.063363 0.368280
O O5 0.500000 0.504839 0.083068
O O6 0.249358 0.565589 0.118872
O O7 0.259951 0.438777 0.120652
O O8 0.262967 0.500000 0.000000
O O9 0.250000 0.224611 0.250000
O O10 0.256154 0.186594 0.382514
O O11 0.232323 0.310460 0.347298
O O12 0.000000 0.232693 0.327866
O O13 0.500000 0.882866 0.587618
O O14 0.734204 0.886440 0.502904
O O15 0.750000 0.396945 0.750000
O O16 0.764505 0.309187 0.844594
O O17 0.000000 0.384368 0.826333
O O18 0.500000 0.112982 0.581423
O O19 0.735353 0.184060 0.615216
O O20 0.250000 0.779857 0.250000
O O21 0.000000 0.764360 0.175849
O O22 0.750000 0.395818 0.250000
O O23 0.000000 0.384126 0.325483
#
# Coordination Sequence:
#
# PCOD9417365 Si02
#       8
#     8   8   8   8   8   8   8   8
#     4  12  25  41  62  86 113 146 187 231 273 322
#     4  10  21  36  53  77 111 147 183 227 280 333
#     4  10  20  36  57  81 109 141 183 230 275 327
#     4  11  23  39  59  84 116 150 182 222 275 329
#     4  10  20  35  56  81 109 143 185 229 273 325
#     4  10  22  40  60  84 116 150 183 224 275 327
#     4   9  19  36  57  82 111 144 183 226 272 324
#     4   9  19  35  55  78 105 141 183 228 276 327
#
# _framework density 18.681155
#
# number of rings (size 3 to 8) (size 9 to 14) (size 15 to 20)
#    0.000    1.875    0.000    3.750    0.000    7.750 
#    0.000    0.000    0.000    0.000    0.000    0.000 
#    0.000    0.000    0.000    0.000    0.000    0.000 
#
# Total GULP energy -357566.893751 kJ/mol
# GULP energy per Si atom -5586.982715 kJ/mol
# Density = 1.863864 g / cm^3
# Si number density = 18.681155 Si / 1000 Ang^3
#
#
#
# Elastic Constant Matrix: (Units=GPa)
#
#
# Indices 1 2 3 4 5 6 
#
# 1 39.5122 38.0354 44.3259 0.0000 0.0000 0.0000
# 2 38.0354 136.7716 112.5869 0.0000 0.0000 0.0000
# 3 44.3259 112.5869 158.6232 0.0000 0.0000 0.0000
# 4 0.0000 0.0000 0.0000 -22.1556 0.0000 0.0000
# 5 0.0000 0.0000 0.0000 0.0000 27.4045 0.0000
# 6 0.0000 0.0000 0.0000 0.0000 0.0000 23.1812
#
#
#
# Elastic Compliance Matrix: (Units=1/GPa)
#
#
# Indices 1 2 3 4 5 6 
#
# 1 0.037928 -0.004385 -0.007486 0.000000 0.000000 0.000000
# 2 -0.004385 0.018094 -0.011617 0.000000 0.000000 0.000000
# 3 -0.007486 -0.011617 0.016642 0.000000 0.000000 0.000000
# 4 0.000000 0.000000 0.000000 -0.045135 0.000000 0.000000
# 5 0.000000 0.000000 0.000000 0.000000 0.036490 0.000000
# 6 0.000000 0.000000 0.000000 0.000000 0.000000 0.043138
#
#
# Mechanical properties :
#
#
# Convention : Reuss Voigt Hill
#
# Bulk Modulus (GPa) = 38.93066 80.53372 59.73219
# Shear Modulus (GPa) = 30.73199 15.01661 22.87430
#
# Velocity S-wave (km/s) = 4.06036 2.83828 3.50302
# Velocity P-wave (km/s) = 6.54727 7.34468 6.95741
#
# Compressibility (1/GPa) = 0.02568669
#
# Stress axis : x y z
#
# Youngs Moduli (GPa) = 26.36568 55.26691 60.08939
#
# Poissons Ratio (x) = 0.24235 0.44984
# Poissons Ratio (y) = 0.11562 0.69808
# Poissons Ratio (z) = 0.19738 0.64205
#
# Static dielectric constant tensor:
#      x y z
#    x 1.637030 0.000000 0.000000 
#    y 0.000000 1.644170 0.000000 
#    z 0.000000 0.000000 1.605630 
# 
# From -- ./inp_files/27002.got.cif
#   From: 2010.05.17/outbox.cif.g08.bks.cpg/sg53_14_cif.got.tgz:27002.got - 2010.06.03 12:45:16.
