data_PCOD9417708
_publ_section_title
;
Structure prediction by ZEFSAII (Michael W. Deem and Ramdas Pophale) SiO2 
 PCOD9417708
Probable space group: P M N A
;
_chemical_formula_sum "Si O2"
_cell_formula_units_Z 48
_cell_length_a 15.059168
_cell_length_b 15.840013
_cell_length_c 9.134991
_cell_angle_alpha 90.000000
_cell_angle_beta 90.000000
_cell_angle_gamma 90.000000
_cell_volume 2179.037156
_symmetry_space_group_name_H-M "P M N A"
_symmetry_group_IT_number 53
_symmetry_cell_setting 'orthorhombic'
loop_
_space_group_symop_operation_xyz
x,y,z
1/2-x,-y,1/2+z
x,-y,-z
1/2-x,y,1/2-z
-x,-y,-z
1/2+x,y,1/2-z
-x,y,z
1/2+x,-y,1/2+z
loop_
_atom_site_type_symbol
_atom_site_label
_atom_site_fract_x
_atom_site_fract_y
_atom_site_fract_z
Si Si1 0.346748 0.368418 0.200582
Si Si2 0.103058 0.016370 0.176073
Si Si3 0.599781 0.529722 0.348987
Si Si4 0.391505 0.329391 0.871816
Si Si5 0.892493 0.801767 0.873250
Si Si6 0.108679 0.834529 0.206961
O O1 0.250000 0.396016 0.250000
O O2 0.406080 0.446843 0.249485
O O3 0.366519 0.282135 0.287947
O O4 0.354889 0.352479 0.029418
O O5 0.141029 0.929482 0.239781
O O6 0.000000 0.020409 0.223562
O O7 0.140419 0.110079 0.198567
O O8 0.102718 0.000000 0.000000
O O9 0.644339 0.500000 0.500000
O O10 0.500000 0.559869 0.390453
O O11 0.638557 0.605152 0.253338
O O12 0.500000 0.333754 0.880008
O O13 0.365548 0.235559 0.823333
O O14 0.000000 0.805088 0.873264
O O15 0.864759 0.804421 0.043771
O O16 0.000000 0.837967 0.204451
#
# Coordination Sequence:
#
# PCOD9417708 Si02
#       6
#     8   8   8   8   8   8
#     4  12  25  37  50  74 110 150 183 217 262 316
#     4   7  11  22  47  81 107 129 167 221 273 317
#     4  10  21  39  63  86 104 130 174 224 274 329
#     4  10  20  36  59  84 111 140 174 222 275 325
#     4   9  16  31  55  78 104 141 183 224 266 317
#     4   8  14  28  54  85 107 129 173 229 277 320
#
# _framework density 22.028078000000001
#
# number of rings (size 3 to 8) (size 9 to 14) (size 15 to 20)
#    0.000    2.667    0.000    5.000    0.000    5.333 
#    0.000    3.333    0.000   10.000    0.000    0.000 
#    0.000    0.000    0.000    0.000    0.000    0.000 
#
# Total GULP energy -267850.934115 kJ/mol
# GULP energy per Si atom -5580.227794 kJ/mol
# Density = 2.197794 g / cm^3
# Si number density = 22.028078 Si / 1000 Ang^3
#
#
#
# Elastic Constant Matrix: (Units=GPa)
#
#
# Indices 1 2 3 4 5 6 
#
# 1 54.1143 -2.0076 4.7752 0.0000 0.0000 0.0000
# 2 -2.0076 79.3324 -8.4476 0.0000 0.0000 0.0000
# 3 4.7752 -8.4476 52.0787 0.0000 0.0000 0.0000
# 4 0.0000 0.0000 0.0000 16.7130 0.0000 0.0000
# 5 0.0000 0.0000 0.0000 0.0000 35.5446 0.0000
# 6 0.0000 0.0000 0.0000 0.0000 0.0000 -0.3484
#
#
#
# Elastic Compliance Matrix: (Units=1/GPa)
#
#
# Indices 1 2 3 4 5 6 
#
# 1 0.018637 0.000295 -0.001661 0.000000 0.000000 0.000000
# 2 0.000295 0.012831 0.002054 0.000000 0.000000 0.000000
# 3 -0.001661 0.002054 0.019687 0.000000 0.000000 0.000000
# 4 0.000000 0.000000 0.000000 0.059834 0.000000 0.000000
# 5 0.000000 0.000000 0.000000 0.000000 0.028134 0.000000
# 6 0.000000 0.000000 0.000000 0.000000 0.000000 -2.869973
#
#
# Mechanical properties :
#
#
# Convention : Reuss Voigt Hill
#
# Bulk Modulus (GPa) = 19.03614 19.35171 19.19392
# Shear Modulus (GPa) = -1.84181 23.12886 10.64352
#
# Velocity S-wave (km/s) = -0.91539 3.24384 2.20052
# Velocity P-wave (km/s) = 2.74650 4.77850 3.89727
#
# Compressibility (1/GPa) = 0.05253166
#
# Stress axis : x y z
#
# Youngs Moduli (GPa) = 53.65694 77.93377 50.79432
#
# Poissons Ratio (x) = -0.02297 0.08437
# Poissons Ratio (y) = -0.01582 -0.10435
# Poissons Ratio (z) = 0.08913 -0.16010
#
# Static dielectric constant tensor:
#      x y z
#    x 1.858170 0.000000 0.000000 
#    y 0.000000 1.836730 0.000000 
#    z 0.000000 0.000000 1.765200 
# 
# From -- ./inp_files/9980.got.cif
#   From: 2010.05.17/outbox.cif.g08.bks.cpg/sg53_5_cif.got.tgz:9980.got - 2010.06.03 12:45:16.
