data_PCOD9417515
_publ_section_title
;
Structure prediction by ZEFSAII (Michael W. Deem and Ramdas Pophale) SiO2 
 PCOD9417515
Probable space group: P M N A
;
_chemical_formula_sum "Si O2"
_cell_formula_units_Z 44
_cell_length_a 31.120432
_cell_length_b 9.163764
_cell_length_c 7.395275
_cell_angle_alpha 90.000000
_cell_angle_beta 90.000000
_cell_angle_gamma 90.000000
_cell_volume 2108.986702
_symmetry_space_group_name_H-M "P M N A"
_symmetry_group_IT_number 53
_symmetry_cell_setting 'orthorhombic'
loop_
_space_group_symop_operation_xyz
x,y,z
1/2-x,-y,1/2+z
x,-y,-z
1/2-x,y,1/2-z
-x,-y,-z
1/2+x,y,1/2-z
-x,y,z
1/2+x,-y,1/2+z
loop_
_atom_site_type_symbol
_atom_site_label
_atom_site_fract_x
_atom_site_fract_y
_atom_site_fract_z
Si Si1 0.881962 0.413807 0.318731
Si Si2 0.450811 0.887316 0.227515
Si Si3 0.048350 0.218754 0.136465
Si Si4 0.246954 0.500000 0.500000
Si Si5 0.814590 0.628590 0.192113
Si Si6 0.859120 0.162140 0.559364
O O1 0.896204 0.500000 0.500000
O O2 0.919156 0.336449 0.209631
O O3 0.856656 0.527980 0.195159
O O4 0.853510 0.280850 0.400459
O O5 0.500000 0.864486 0.157992
O O6 0.447676 0.809533 0.422334
O O7 0.410011 0.837963 0.111079
O O8 0.445644 0.060112 0.269583
O O9 0.000000 0.266091 0.174661
O O10 0.214428 0.457511 0.659199
O O11 0.283112 0.629736 0.481192
O O12 0.830694 0.780985 0.272699
O O13 0.847820 0.000000 0.500000
#
# Coordination Sequence:
#
# PCOD9417515 Si02
#       6
#     8   8   8   4   8   8
#     4  10  20  36  53  83 116 150 192 236 291 347
#     4   9  19  33  53  81 115 158 199 233 291 348
#     4   9  18  34  53  78 116 159 198 239 286 346
#     4  10  20  42  68  76 114 146 192 226 294 382
#     4  10  22  39  63  87 108 154 186 233 300 360
#     4  11  20  35  58  87 118 147 194 246 283 341
#
# _framework density 20.863098999999998
#
# number of rings (size 3 to 8) (size 9 to 14) (size 15 to 20)
#    0.000    2.182    4.545    1.091    2.545    1.455 
#    0.000    2.727    8.000    8.727    0.000    0.000 
#    0.000    0.000    0.000    0.000    0.000    0.000 
#
# Total GULP energy -245149.784372 kJ/mol
# GULP energy per Si atom -5571.586008 kJ/mol
# Density = 2.081561 g / cm^3
# Si number density = 20.863099 Si / 1000 Ang^3
#
#
#
# Elastic Constant Matrix: (Units=GPa)
#
#
# Indices 1 2 3 4 5 6 
#
# 1 100.8504 46.0841 31.7454 0.0000 0.0000 0.0000
# 2 46.0841 117.2258 23.4440 0.0000 0.0000 0.0000
# 3 31.7454 23.4440 55.3329 0.0000 0.0000 0.0000
# 4 0.0000 0.0000 0.0000 19.6850 0.0000 0.0000
# 5 0.0000 0.0000 0.0000 0.0000 41.0146 0.0000
# 6 0.0000 0.0000 0.0000 0.0000 0.0000 -2.1378
#
#
#
# Elastic Compliance Matrix: (Units=1/GPa)
#
#
# Indices 1 2 3 4 5 6 
#
# 1 0.013753 -0.004183 -0.006118 0.000000 0.000000 0.000000
# 2 -0.004183 0.010593 -0.002088 0.000000 0.000000 0.000000
# 3 -0.006118 -0.002088 0.022467 0.000000 0.000000 0.000000
# 4 0.000000 0.000000 0.000000 0.050800 0.000000 0.000000
# 5 0.000000 0.000000 0.000000 0.000000 0.024382 0.000000
# 6 0.000000 0.000000 0.000000 0.000000 0.000000 -0.467773
#
#
# Mechanical properties :
#
#
# Convention : Reuss Voigt Hill
#
# Bulk Modulus (GPa) = 45.38355 52.88400 49.13377
# Shear Modulus (GPa) = -15.94106 23.18806 3.62350
#
# Velocity S-wave (km/s) = -2.76720 3.33744 1.31931
# Velocity P-wave (km/s) = 3.40447 6.34464 5.09141
#
# Compressibility (1/GPa) = 0.02203442
#
# Stress axis : x y z
#
# Youngs Moduli (GPa) = 72.71170 94.40558 44.50953
#
# Poissons Ratio (x) = 0.39490 0.27231
# Poissons Ratio (y) = 0.30416 0.09294
# Poissons Ratio (z) = 0.44485 0.19713
#
# Static dielectric constant tensor:
#      x y z
#    x 1.772190 0.000000 0.000000 
#    y 0.000000 1.734870 0.000000 
#    z 0.000000 0.000000 1.917570 
# 
# From -- ./inp_files/12928.got.cif
#   From: 2010.05.17/outbox.cif.g08.bks.cpg/sg53_7_cif.got.tgz:12928.got - 2010.06.03 12:45:16.
