data_PCOD9417336
_publ_section_title
;
Structure prediction by ZEFSAII (Michael W. Deem and Ramdas Pophale) SiO2 
 PCOD9417336
Probable space group: P M N A
;
_chemical_formula_sum "Si O2"
_cell_formula_units_Z 64
_cell_length_a 8.336960
_cell_length_b 24.974489
_cell_length_c 15.167616
_cell_angle_alpha 90.000000
_cell_angle_beta 90.000000
_cell_angle_gamma 90.000000
_cell_volume 3158.069285
_symmetry_space_group_name_H-M "P M N A"
_symmetry_group_IT_number 53
_symmetry_cell_setting 'orthorhombic'
loop_
_space_group_symop_operation_xyz
x,y,z
1/2-x,-y,1/2+z
x,-y,-z
1/2-x,y,1/2-z
-x,-y,-z
1/2+x,y,1/2-z
-x,y,z
1/2+x,-y,1/2+z
loop_
_atom_site_type_symbol
_atom_site_label
_atom_site_fract_x
_atom_site_fract_y
_atom_site_fract_z
Si Si1 0.190364 0.362991 0.652792
Si Si2 0.195467 0.321390 0.471625
Si Si3 0.189529 0.478741 0.905965
Si Si4 0.193288 0.025087 0.154187
Si Si5 0.191648 0.413278 0.339596
Si Si6 0.191883 0.223351 0.350599
Si Si7 0.805761 0.877019 0.962969
Si Si8 0.806492 0.901485 0.154398
O O1 0.250000 0.349719 0.750000
O O2 0.252681 0.326279 0.572227
O O3 0.233312 0.424427 0.628823
O O4 0.000000 0.358735 0.653503
O O5 0.238366 0.376366 0.421821
O O6 0.252431 0.272152 0.412200
O O7 0.000000 0.318995 0.472794
O O8 0.222924 0.529604 0.844890
O O9 0.000000 0.469133 0.913982
O O10 0.254424 0.500000 0.000000
O O11 0.250000 0.044921 0.250000
O O12 0.244763 0.065696 0.077925
O O13 0.000000 0.023974 0.153242
O O14 0.248380 0.963639 0.145268
O O15 0.250000 0.385573 0.250000
O O16 0.000000 0.419817 0.339373
O O17 0.250000 0.226232 0.250000
O O18 0.243759 0.169066 0.399085
O O19 0.000000 0.226057 0.348599
O O20 0.000000 0.875787 0.962035
O O21 0.753172 0.872043 0.064934
O O22 0.750000 0.881472 0.250000
O O23 0.000000 0.901408 0.155286
#
# Coordination Sequence:
#
# PCOD9417336 Si02
#       8
#     8   8   8   8   8   8   8   8
#     4  11  22  40  62  85 113 148 188 229 277 328
#     4   9  21  40  61  81 108 144 183 227 277 328
#     4  11  22  36  55  84 117 149 185 224 268 324
#     4   9  17  30  50  77 111 149 187 229 278 333
#     4  11  21  36  57  82 110 145 182 221 271 325
#     4  11  23  41  62  86 113 144 182 229 283 335
#     4  10  20  35  55  81 112 149 190 232 281 336
#     4   9  18  33  53  78 111 150 191 233 278 329
#
# _framework density 20.265547000000002
#
# number of rings (size 3 to 8) (size 9 to 14) (size 15 to 20)
#    0.000    1.875    1.250    3.000    0.000    4.000 
#    0.000    5.000    0.000    6.750    0.000    0.000 
#    0.000    0.000    0.000    0.000    0.000    0.000 
#
# Total GULP energy -357323.636828 kJ/mol
# GULP energy per Si atom -5583.181825 kJ/mol
# Density = 2.021942 g / cm^3
# Si number density = 20.265547 Si / 1000 Ang^3
#
#
#
# Elastic Constant Matrix: (Units=GPa)
#
#
# Indices 1 2 3 4 5 6 
#
# 1 19.4520 6.7580 21.5120 0.0000 0.0000 0.0000
# 2 6.7580 57.1559 48.9004 0.0000 0.0000 0.0000
# 3 21.5120 48.9004 200.2073 0.0000 0.0000 0.0000
# 4 0.0000 0.0000 0.0000 31.0291 0.0000 0.0000
# 5 0.0000 0.0000 0.0000 0.0000 24.7994 0.0000
# 6 0.0000 0.0000 0.0000 0.0000 0.0000 -483.9027
#
#
#
# Elastic Compliance Matrix: (Units=1/GPa)
#
#
# Indices 1 2 3 4 5 6 
#
# 1 0.058512 -0.001946 -0.005812 0.000000 0.000000 0.000000
# 2 -0.001946 0.022183 -0.005209 0.000000 0.000000 0.000000
# 3 -0.005812 -0.005209 0.006892 0.000000 0.000000 0.000000
# 4 0.000000 0.000000 0.000000 0.032228 0.000000 0.000000
# 5 0.000000 0.000000 0.000000 0.000000 0.040324 0.000000
# 6 0.000000 0.000000 0.000000 0.000000 0.000000 -0.002067
#
#
# Mechanical properties :
#
#
# Convention : Reuss Voigt Hill
#
# Bulk Modulus (GPa) = 16.21994 47.90624 32.06309
# Shear Modulus (GPa) = 24.44326 -72.30520 -23.93097
#
# Velocity S-wave (km/s) = 3.47673 -5.97966 -3.44011
# Velocity P-wave (km/s) = 4.91304 4.89740 0.27697
#
# Compressibility (1/GPa) = 0.06165252
#
# Stress axis : x y z
#
# Youngs Moduli (GPa) = 17.09057 45.08012 145.10480
#
# Poissons Ratio (x) = 0.08773 0.84330
# Poissons Ratio (y) = 0.03326 0.75585
# Poissons Ratio (z) = 0.09933 0.23482
#
# Static dielectric constant tensor:
#      x y z
#    x 1.699300 0.000000 0.000000 
#    y 0.000000 1.705760 0.000000 
#    z 0.000000 0.000000 1.774870 
# 
# From -- ./inp_files/21024.got.cif
#   From: 2010.05.17/outbox.cif.g08.bks.cpg/sg53_11_cif.got.tgz:21024.got - 2010.06.03 12:45:16.
