data_PCOD9417804
_publ_section_title
;
Structure prediction by ZEFSAII (Michael W. Deem and Ramdas Pophale) SiO2 
 PCOD9417804
Probable space group: P M N A
;
_chemical_formula_sum "Si O2"
_cell_formula_units_Z 56
_cell_length_a 17.392317
_cell_length_b 17.740378
_cell_length_c 9.995396
_cell_angle_alpha 90.000000
_cell_angle_beta 90.000000
_cell_angle_gamma 90.000000
_cell_volume 3084.042232
_symmetry_space_group_name_H-M "P M N A"
_symmetry_group_IT_number 53
_symmetry_cell_setting 'orthorhombic'
loop_
_space_group_symop_operation_xyz
x,y,z
1/2-x,-y,1/2+z
x,-y,-z
1/2-x,y,1/2-z
-x,-y,-z
1/2+x,y,1/2-z
-x,y,z
1/2+x,-y,1/2+z
loop_
_atom_site_type_symbol
_atom_site_label
_atom_site_fract_x
_atom_site_fract_y
_atom_site_fract_z
Si Si1 0.662082 0.087121 0.703225
Si Si2 0.590209 0.160458 0.955178
Si Si3 0.810456 0.278071 0.412914
Si Si4 0.410169 0.674963 0.651891
Si Si5 0.221308 0.430705 0.099175
Si Si6 0.343952 0.816257 0.565032
Si Si7 0.592178 0.071622 0.217884
O O1 0.750000 0.090654 0.750000
O O2 0.611373 0.132708 0.809281
O O3 0.656875 0.126290 0.558911
O O4 0.632903 0.001771 0.721590
O O5 0.500000 0.170201 0.972818
O O6 0.632638 0.238470 0.984696
O O7 0.613460 0.096838 0.066391
O O8 0.860800 0.296420 0.280892
O O9 0.770417 0.357357 0.447267
O O10 0.740912 0.217078 0.403599
O O11 0.500000 0.666376 0.680309
O O12 0.366254 0.599545 0.607529
O O13 0.395660 0.741573 0.544537
O O14 0.250000 0.448513 0.250000
O O15 0.230254 0.500000 0.000000
O O16 0.381095 0.860013 0.689016
O O17 0.500000 0.061108 0.222565
#
# Coordination Sequence:
#
# PCOD9417804 Si02
#       7
#     8   8   8   8   8   8   8
#     4  12  26  38  55  84 120 161 197 254 309 358
#     4  11  23  41  62  83 116 157 204 251 300 358
#     4  10  20  38  64  89 115 154 208 238 287 353
#     4  10  20  36  64  94 121 158 202 246 293 352
#     4   9  20  39  63  93 123 158 193 241 287 357
#     4  11  22  38  59  86 118 153 205 254 300 352
#     4  11  25  40  59  83 113 157 206 257 308 359
#
# _framework density 18.157986999999999
#
# number of rings (size 3 to 8) (size 9 to 14) (size 15 to 20)
#    0.000    1.429    2.857    3.429    2.000    5.429 
#    5.143    0.000    0.000   10.714    0.000    0.000 
#    0.000    0.000    0.000    0.000    0.000    0.000 
#
# Total GULP energy -312406.993993 kJ/mol
# GULP energy per Si atom -5578.696321 kJ/mol
# Density = 1.811666 g / cm^3
# Si number density = 18.157987 Si / 1000 Ang^3
#
#
#
# Elastic Constant Matrix: (Units=GPa)
#
#
# Indices 1 2 3 4 5 6 
#
# 1 62.2726 0.3804 2.4363 0.0000 0.0000 0.0000
# 2 0.3804 60.9464 16.0755 0.0000 0.0000 0.0000
# 3 2.4363 16.0755 45.0789 0.0000 0.0000 0.0000
# 4 0.0000 0.0000 0.0000 19.6378 0.0000 0.0000
# 5 0.0000 0.0000 0.0000 0.0000 24.5652 0.0000
# 6 0.0000 0.0000 0.0000 0.0000 0.0000 4.3153
#
#
#
# Elastic Compliance Matrix: (Units=1/GPa)
#
#
# Indices 1 2 3 4 5 6 
#
# 1 0.016094 0.000142 -0.000921 0.000000 0.000000 0.000000
# 2 0.000142 0.018113 -0.006467 0.000000 0.000000 0.000000
# 3 -0.000921 -0.006467 0.024539 0.000000 0.000000 0.000000
# 4 0.000000 0.000000 0.000000 0.050922 0.000000 0.000000
# 5 0.000000 0.000000 0.000000 0.000000 0.040708 0.000000
# 6 0.000000 0.000000 0.000000 0.000000 0.000000 0.231733
#
#
# Mechanical properties :
#
#
# Convention : Reuss Voigt Hill
#
# Bulk Modulus (GPa) = 22.59609 22.89803 22.74706
# Shear Modulus (GPa) = 12.15508 19.66404 15.90956
#
# Velocity S-wave (km/s) = 2.59010 3.29438 2.96324
# Velocity P-wave (km/s) = 4.62774 5.20657 4.92567
#
# Compressibility (1/GPa) = 0.04425544
#
# Stress axis : x y z
#
# Youngs Moduli (GPa) = 62.13656 55.20993 40.75115
#
# Poissons Ratio (x) = -0.00786 0.03751
# Poissons Ratio (y) = -0.00884 0.26353
# Poissons Ratio (z) = 0.05720 0.35703
#
# Static dielectric constant tensor:
#      x y z
#    x 1.635640 0.000000 0.000000 
#    y 0.000000 1.628370 0.000000 
#    z 0.000000 0.000000 1.660200 
# 
# From -- ./inp_files/16069.got.cif
#   From: 2010.05.17/outbox.cif.g08.bks.cpg/sg53_9_cif.got.tgz:16069.got - 2010.06.03 12:45:16.
