data_PCOD9417189
_publ_section_title
;
Structure prediction by ZEFSAII (Michael W. Deem and Ramdas Pophale) SiO2 
 PCOD9417189
Probable space group: P M N A
;
_chemical_formula_sum "Si O2"
_cell_formula_units_Z 64
_cell_length_a 8.859414
_cell_length_b 20.257836
_cell_length_c 20.573676
_cell_angle_alpha 90.000000
_cell_angle_beta 90.000000
_cell_angle_gamma 90.000000
_cell_volume 3692.410215
_symmetry_space_group_name_H-M "P M N A"
_symmetry_group_IT_number 53
_symmetry_cell_setting 'orthorhombic'
loop_
_space_group_symop_operation_xyz
x,y,z
1/2-x,-y,1/2+z
x,-y,-z
1/2-x,y,1/2-z
-x,-y,-z
1/2+x,y,1/2-z
-x,y,z
1/2+x,-y,1/2+z
loop_
_atom_site_type_symbol
_atom_site_label
_atom_site_fract_x
_atom_site_fract_y
_atom_site_fract_z
Si Si1 0.818675 0.557764 0.320127
Si Si2 0.179121 0.190351 0.892060
Si Si3 0.681118 0.403831 0.180730
Si Si4 0.179763 0.828743 0.955555
Si Si5 0.818383 0.311995 0.439655
Si Si6 0.181408 0.660600 0.079968
Si Si7 0.320084 0.070709 0.819594
Si Si8 0.317984 0.032707 0.069097
O O1 0.750000 0.576401 0.250000
O O2 0.779012 0.480648 0.331281
O O3 0.750609 0.603387 0.376122
O O4 0.000000 0.563739 0.318536
O O5 0.218187 0.267729 0.888737
O O6 0.266694 0.142185 0.844503
O O7 0.000000 0.183396 0.880701
O O8 0.210155 0.169380 0.966693
O O9 0.750000 0.383974 0.250000
O O10 0.500000 0.400453 0.185759
O O11 0.727619 0.357868 0.120810
O O12 0.259454 0.762544 0.930341
O O13 0.243033 0.895808 0.925546
O O14 0.000000 0.823230 0.947027
O O15 0.748205 0.337904 0.507252
O O16 0.000000 0.312240 0.444871
O O17 0.000000 0.655585 0.076507
O O18 0.250000 0.056017 0.750000
O O19 0.500000 0.069777 0.815457
O O20 0.273101 0.016815 0.873429
O O21 0.500000 0.039893 0.069616
O O22 0.275655 0.000000 0.000000
#
# Coordination Sequence:
#
# PCOD9417189 Si02
#       8
#     8   8   8   8   8   8   8   8
#     4  10  20  36  56  79 108 145 187 231 277 332
#     4   9  19  35  53  75 106 140 177 217 263 319
#     4   9  20  37  58  82 108 143 187 230 280 336
#     4  10  20  34  56  85 111 139 178 225 270 323
#     4  10  20  36  57  82 113 146 181 229 280 331
#     4  10  21  36  54  82 114 146 185 228 274 328
#     4  11  23  37  55  79 110 143 179 224 270 321
#     4  10  20  36  58  83 107 139 183 225 268 323
#
# _framework density 17.332851999999999
#
# number of rings (size 3 to 8) (size 9 to 14) (size 15 to 20)
#    0.000    2.125    1.250    2.625    0.000    6.250 
#    0.000    3.125    0.000    0.000    0.000    0.000 
#    0.000    0.000    0.000    0.000    0.000    0.000 
#
# Total GULP energy -357269.309035 kJ/mol
# GULP energy per Si atom -5582.332954 kJ/mol
# Density = 1.729340 g / cm^3
# Si number density = 17.332852 Si / 1000 Ang^3
#
#
#
# Elastic Constant Matrix: (Units=GPa)
#
#
# Indices 1 2 3 4 5 6 
#
# 1 46.6724 48.9994 54.7598 0.0000 0.0000 0.0000
# 2 48.9994 120.5329 99.0205 0.0000 0.0000 0.0000
# 3 54.7598 99.0205 139.2093 0.0000 0.0000 0.0000
# 4 0.0000 0.0000 0.0000 22.5006 0.0000 0.0000
# 5 0.0000 0.0000 0.0000 0.0000 31.1168 0.0000
# 6 0.0000 0.0000 0.0000 0.0000 0.0000 26.6140
#
#
#
# Elastic Compliance Matrix: (Units=1/GPa)
#
#
# Indices 1 2 3 4 5 6 
#
# 1 0.043259 -0.008677 -0.010845 0.000000 0.000000 0.000000
# 2 -0.008677 0.021701 -0.012023 0.000000 0.000000 0.000000
# 3 -0.010845 -0.012023 0.020001 0.000000 0.000000 0.000000
# 4 0.000000 0.000000 0.000000 0.044443 0.000000 0.000000
# 5 0.000000 0.000000 0.000000 0.000000 0.032137 0.000000
# 6 0.000000 0.000000 0.000000 0.000000 0.000000 0.037574
#
#
# Mechanical properties :
#
#
# Convention : Reuss Voigt Hill
#
# Bulk Modulus (GPa) = 45.71905 79.10822 62.41363
# Shear Modulus (GPa) = 18.55319 22.95525 20.75422
#
# Velocity S-wave (km/s) = 3.27526 3.64315 3.46409
# Velocity P-wave (km/s) = 6.38259 7.96470 7.21713
#
# Compressibility (1/GPa) = 0.02187272
#
# Stress axis : x y z
#
# Youngs Moduli (GPa) = 23.11647 46.08133 49.99663
#
# Poissons Ratio (x) = 0.39983 0.54221
# Poissons Ratio (y) = 0.20057 0.60110
# Poissons Ratio (z) = 0.25070 0.55403
#
# Static dielectric constant tensor:
#      x y z
#    x 1.577610 0.000000 0.000000 
#    y 0.000000 1.576480 0.000000 
#    z 0.000000 0.000000 1.563990 
# 
# From -- ./inp_files/31185.got.cif
#   From: 2010.05.17/outbox.cif.g08.bks.cpg/sg53_16_cif.got.tgz:31185.got - 2010.06.03 12:45:16.
