data_PCOD9417133
_publ_section_title
;
Structure prediction by ZEFSAII (Michael W. Deem and Ramdas Pophale) SiO2 
 PCOD9417133
Probable space group: P M N A
;
_chemical_formula_sum "Si O2"
_cell_formula_units_Z 40
_cell_length_a 11.358548
_cell_length_b 7.212925
_cell_length_c 22.144579
_cell_angle_alpha 90.000000
_cell_angle_beta 90.000000
_cell_angle_gamma 90.000000
_cell_volume 1814.268926
_symmetry_space_group_name_H-M "P M N A"
_symmetry_group_IT_number 53
_symmetry_cell_setting 'orthorhombic'
loop_
_space_group_symop_operation_xyz
x,y,z
1/2-x,-y,1/2+z
x,-y,-z
1/2-x,y,1/2-z
-x,-y,-z
1/2+x,y,1/2-z
-x,y,z
1/2+x,-y,1/2+z
loop_
_atom_site_type_symbol
_atom_site_label
_atom_site_fract_x
_atom_site_fract_y
_atom_site_fract_z
Si Si1 0.628886 0.155602 0.392553
Si Si2 0.629289 0.365986 0.908147
Si Si3 0.125032 0.896440 0.220223
Si Si4 0.692796 0.497888 0.690079
Si Si5 0.866164 0.218583 0.462638
O O1 0.500000 0.160365 0.424068
O O2 0.637871 0.342434 0.351336
O O3 0.746977 0.143978 0.432234
O O4 0.628283 0.986127 0.346041
O O5 0.500000 0.319065 0.884851
O O6 0.716849 0.387297 0.853173
O O7 0.627273 0.571536 0.937233
O O8 0.653258 0.233597 0.965219
O O9 0.250000 0.946047 0.250000
O O10 0.120113 0.674159 0.215793
O O11 0.000000 0.962885 0.248506
O O12 0.750000 0.587276 0.750000
O O13 0.000000 0.143638 0.451023
#
# Coordination Sequence:
#
# PCOD9417133 Si02
#       5
#     8   8   8   8   8
#     4  10  20  35  55  80 108 138 174 217 266 316
#     4   8  15  30  53  79 107 139 177 220 262 308
#     4  10  22  38  54  77 110 142 176 219 263 312
#     4  10  20  34  55  80 107 140 177 215 261 313
#     4   8  15  31  54  79 105 137 178 220 262 310
#
# _framework density 22.047446999999998
#
# number of rings (size 3 to 8) (size 9 to 14) (size 15 to 20)
#    0.000    2.800    0.000    2.400    0.000    4.800 
#    0.000   14.000    0.000    4.800    0.000    0.000 
#    0.000    0.000    0.000    0.000    0.000    0.000 
#
# Total GULP energy -222816.416211 kJ/mol
# GULP energy per Si atom -5570.410405 kJ/mol
# Density = 2.199727 g / cm^3
# Si number density = 22.047447 Si / 1000 Ang^3
#
#
#
# Elastic Constant Matrix: (Units=GPa)
#
#
# Indices 1 2 3 4 5 6 
#
# 1 207.3505 27.5276 69.9465 0.0000 0.0000 0.0000
# 2 27.5276 68.4669 -0.6597 0.0000 0.0000 0.0000
# 3 69.9465 -0.6597 70.9707 0.0000 0.0000 0.0000
# 4 0.0000 0.0000 0.0000 24.3204 0.0000 0.0000
# 5 0.0000 0.0000 0.0000 0.0000 -3.5877 0.0000
# 6 0.0000 0.0000 0.0000 0.0000 0.0000 -3.0767
#
#
#
# Elastic Compliance Matrix: (Units=1/GPa)
#
#
# Indices 1 2 3 4 5 6 
#
# 1 0.007885 -0.003246 -0.007802 0.000000 0.000000 0.000000
# 2 -0.003246 0.015943 0.003347 0.000000 0.000000 0.000000
# 3 -0.007802 0.003347 0.021811 0.000000 0.000000 0.000000
# 4 0.000000 0.000000 0.000000 0.041118 0.000000 0.000000
# 5 0.000000 0.000000 0.000000 0.000000 -0.278729 0.000000
# 6 0.000000 0.000000 0.000000 0.000000 0.000000 -0.325025
#
#
# Mechanical properties :
#
#
# Convention : Reuss Voigt Hill
#
# Bulk Modulus (GPa) = 33.07102 60.04633 46.55867
# Shear Modulus (GPa) = -10.17259 20.19612 5.01177
#
# Velocity S-wave (km/s) = -2.15034 3.02988 1.50934
# Velocity P-wave (km/s) = 2.97778 6.28764 4.91943
#
# Compressibility (1/GPa) = 0.03023796
#
# Stress axis : x y z
#
# Youngs Moduli (GPa) = 126.81566 62.72441 45.84909
#
# Poissons Ratio (x) = 0.20358 0.35771
# Poissons Ratio (y) = 0.41159 -0.15345
# Poissons Ratio (z) = 0.98940 -0.20994
#
# Static dielectric constant tensor:
#      x y z
#    x 1.800990 0.000000 0.000000 
#    y 0.000000 1.811950 0.000000 
#    z 0.000000 0.000000 1.789090 
# 
# From -- ./inp_files/31790.got.cif
#   From: 2010.05.17/outbox.cif.g08.bks.cpg/sg53_16_cif.got.tgz:31790.got - 2010.06.03 12:45:16.
