data_PCOD9417740
_publ_section_title
;
Structure prediction by ZEFSAII (Michael W. Deem and Ramdas Pophale) SiO2 
 PCOD9417740
Probable space group: P M N A
;
_chemical_formula_sum "Si O2"
_cell_formula_units_Z 48
_cell_length_a 13.410729
_cell_length_b 9.048136
_cell_length_c 18.561536
_cell_angle_alpha 90.000000
_cell_angle_beta 90.000000
_cell_angle_gamma 90.000000
_cell_volume 2252.295755
_symmetry_space_group_name_H-M "P M N A"
_symmetry_group_IT_number 53
_symmetry_cell_setting 'orthorhombic'
loop_
_space_group_symop_operation_xyz
x,y,z
1/2-x,-y,1/2+z
x,-y,-z
1/2-x,y,1/2-z
-x,-y,-z
1/2+x,y,1/2-z
-x,y,z
1/2+x,-y,1/2+z
loop_
_atom_site_type_symbol
_atom_site_label
_atom_site_fract_x
_atom_site_fract_y
_atom_site_fract_z
Si Si1 0.811231 0.673985 0.497460
Si Si2 0.618776 0.163949 0.534838
Si Si3 0.177200 0.194299 0.357169
Si Si4 0.892149 0.198590 0.202210
Si Si5 0.880421 0.145778 0.640894
Si Si6 0.112495 0.158395 0.798276
O O1 0.820196 0.500000 0.500000
O O2 0.695457 0.724871 0.501610
O O3 0.860853 0.737356 0.569435
O O4 0.855480 0.750031 0.426089
O O5 0.500000 0.191248 0.527383
O O6 0.647439 0.179620 0.619748
O O7 0.635757 0.000000 0.500000
O O8 0.292362 0.236824 0.340550
O O9 0.119777 0.244300 0.285366
O O10 0.167154 0.017277 0.366020
O O11 0.000000 0.244372 0.172214
O O12 0.891242 0.020065 0.206361
O O13 0.846761 0.205432 0.719777
O O14 0.000000 0.124959 0.644383
O O15 0.000000 0.218807 0.799400
#
# Coordination Sequence:
#
# PCOD9417740 Si02
#       6
#     8   8   8   8   8   8
#     4  12  26  39  53  81 122 163 202 247 301 360
#     4  10  20  37  64  93 120 152 194 247 305 366
#     4  10  20  36  59  88 115 145 197 248 292 358
#     4   9  17  32  59  90 117 144 180 242 311 360
#     4  10  21  39  63  86 112 151 199 253 303 350
#     4   8  15  30  55  87 112 136 183 240 292 347
#
# _framework density 21.311586999999999
#
# number of rings (size 3 to 8) (size 9 to 14) (size 15 to 20)
#    0.000    2.167    0.000    5.000    0.000    6.667 
#    0.000    3.333    0.000    2.000    0.000    0.000 
#    0.000    0.000    0.000    0.000    0.000    0.000 
#
# Total GULP energy -267645.156523 kJ/mol
# GULP energy per Si atom -5575.940761 kJ/mol
# Density = 2.126308 g / cm^3
# Si number density = 21.311587 Si / 1000 Ang^3
#
#
#
# Elastic Constant Matrix: (Units=GPa)
#
#
# Indices 1 2 3 4 5 6 
#
# 1 95.4372 9.3198 19.4265 0.0000 0.0000 0.0000
# 2 9.3198 43.9755 35.9638 0.0000 0.0000 0.0000
# 3 19.4265 35.9638 175.0974 0.0000 0.0000 0.0000
# 4 0.0000 0.0000 0.0000 -8.2935 0.0000 0.0000
# 5 0.0000 0.0000 0.0000 0.0000 12.7257 0.0000
# 6 0.0000 0.0000 0.0000 0.0000 0.0000 2.8603
#
#
#
# Elastic Compliance Matrix: (Units=1/GPa)
#
#
# Indices 1 2 3 4 5 6 
#
# 1 0.010810 -0.001575 -0.000876 0.000000 0.000000 0.000000
# 2 -0.001575 0.027560 -0.005486 0.000000 0.000000 0.000000
# 3 -0.000876 -0.005486 0.006935 0.000000 0.000000 0.000000
# 4 0.000000 0.000000 0.000000 -0.120576 0.000000 0.000000
# 5 0.000000 0.000000 0.000000 0.000000 0.078581 0.000000
# 6 0.000000 0.000000 0.000000 0.000000 0.000000 0.349618
#
#
# Mechanical properties :
#
#
# Convention : Reuss Voigt Hill
#
# Bulk Modulus (GPa) = 33.97630 49.32558 41.65094
# Shear Modulus (GPa) = 13.20615 18.11184 15.65900
#
# Velocity S-wave (km/s) = 2.49202 2.91840 2.71359
# Velocity P-wave (km/s) = 4.92519 5.87803 5.42258
#
# Compressibility (1/GPa) = 0.02943228
#
# Stress axis : x y z
#
# Youngs Moduli (GPa) = 92.50558 36.28426 144.19476
#
# Poissons Ratio (x) = 0.05714 0.12630
# Poissons Ratio (y) = 0.14567 0.79105
# Poissons Ratio (z) = 0.08103 0.19905
#
# Static dielectric constant tensor:
#      x y z
#    x 1.853970 0.000000 0.000000 
#    y 0.000000 1.693900 0.000000 
#    z 0.000000 0.000000 1.837700 
# 
# From -- ./inp_files/28284.got.cif
#   From: 2010.05.17/outbox.cif.g08.bks.cpg/sg53_15_cif.got.tgz:28284.got - 2010.06.03 12:45:16.
