data_PCOD9417742
_publ_section_title
;
Structure prediction by ZEFSAII (Michael W. Deem and Ramdas Pophale) SiO2 
 PCOD9417742
Probable space group: P M N A
;
_chemical_formula_sum "Si O2"
_cell_formula_units_Z 64
_cell_length_a 8.723512
_cell_length_b 13.244766
_cell_length_c 28.771867
_cell_angle_alpha 90.000000
_cell_angle_beta 90.000000
_cell_angle_gamma 90.000000
_cell_volume 3324.326693
_symmetry_space_group_name_H-M "P M N A"
_symmetry_group_IT_number 53
_symmetry_cell_setting 'orthorhombic'
loop_
_space_group_symop_operation_xyz
x,y,z
1/2-x,-y,1/2+z
x,-y,-z
1/2-x,y,1/2-z
-x,-y,-z
1/2+x,y,1/2-z
-x,y,z
1/2+x,-y,1/2+z
loop_
_atom_site_type_symbol
_atom_site_label
_atom_site_fract_x
_atom_site_fract_y
_atom_site_fract_z
Si Si1 0.684409 0.230523 0.801883
Si Si2 0.315523 0.362495 0.358641
Si Si3 0.684626 0.422165 0.863881
Si Si4 0.683163 0.963526 0.948262
Si Si5 0.183519 0.741597 0.953842
Si Si6 0.315011 0.399461 0.971119
Si Si7 0.316152 0.038436 0.644149
Si Si8 0.185002 0.834433 0.801525
O O1 0.750000 0.234463 0.750000
O O2 0.500000 0.227232 0.800124
O O3 0.731745 0.329198 0.831415
O O4 0.745252 0.131419 0.828027
O O5 0.500000 0.368238 0.356453
O O6 0.246599 0.470535 0.346667
O O7 0.272492 0.332553 0.411422
O O8 0.265159 0.269457 0.326239
O O9 0.500000 0.425922 0.864163
O O10 0.734673 0.406298 0.917515
O O11 0.500000 0.964704 0.943108
O O12 0.746073 0.850354 0.943426
O O13 0.757010 0.032327 0.908494
O O14 0.722256 0.000000 0.000000
O O15 0.000000 0.749797 0.954546
O O16 0.244970 0.694838 0.001514
O O17 0.500000 0.391779 0.972179
O O18 0.271218 0.500000 0.000000
O O19 0.500000 0.045141 0.644915
O O20 0.270090 0.932762 0.668721
O O21 0.250000 0.841800 0.750000
O O22 0.000000 0.833444 0.799941
#
# Coordination Sequence:
#
# PCOD9417742 Si02
#       8
#     8   8   8   8   8   8   8   8
#     4  11  25  45  66  91 125 166 217 270 322 376
#     4  10  21  39  60  87 126 161 199 252 309 369
#     4  10  23  41  62  89 124 164 211 264 313 370
#     4  11  25  42  62  91 128 168 207 250 305 371
#     4  11  22  38  60  88 124 163 203 253 309 368
#     4  10  20  36  59  88 121 159 204 251 302 368
#     4  11  23  43  68  94 127 162 206 259 316 378
#     4  10  22  40  61  90 122 153 194 251 308 367
#
# _framework density 19.252019000000001
#
# number of rings (size 3 to 8) (size 9 to 14) (size 15 to 20)
#    0.000    1.500    2.500    1.875    1.750    6.250 
#    0.000    2.500    0.000    0.000    0.000    0.000 
#    0.000    0.000    0.000    0.000    0.000    0.000 
#
# Total GULP energy -357764.667232 kJ/mol
# GULP energy per Si atom -5590.072926 kJ/mol
# Density = 1.920820 g / cm^3
# Si number density = 19.252019 Si / 1000 Ang^3
#
#
#
# Elastic Constant Matrix: (Units=GPa)
#
#
# Indices 1 2 3 4 5 6 
#
# 1 26.3995 40.9813 46.1165 0.0000 0.0000 0.0000
# 2 40.9813 150.4330 88.8130 0.0000 0.0000 0.0000
# 3 46.1165 88.8130 152.9268 0.0000 0.0000 0.0000
# 4 0.0000 0.0000 0.0000 30.7023 0.0000 0.0000
# 5 0.0000 0.0000 0.0000 0.0000 32.4005 0.0000
# 6 0.0000 0.0000 0.0000 0.0000 0.0000 17.1046
#
#
#
# Elastic Compliance Matrix: (Units=1/GPa)
#
#
# Indices 1 2 3 4 5 6 
#
# 1 0.095664 -0.013741 -0.020869 0.000000 0.000000 0.000000
# 2 -0.013741 0.012090 -0.002877 0.000000 0.000000 0.000000
# 3 -0.020869 -0.002877 0.014503 0.000000 0.000000 0.000000
# 4 0.000000 0.000000 0.000000 0.032571 0.000000 0.000000
# 5 0.000000 0.000000 0.000000 0.000000 0.030864 0.000000
# 6 0.000000 0.000000 0.000000 0.000000 0.000000 0.058464
#
#
# Mechanical properties :
#
#
# Convention : Reuss Voigt Hill
#
# Bulk Modulus (GPa) = 21.14884 75.73122 48.44003
# Shear Modulus (GPa) = 14.93026 26.29806 20.61416
#
# Velocity S-wave (km/s) = 2.78783 3.69994 3.27579
# Velocity P-wave (km/s) = 4.62296 7.59440 6.28676
#
# Compressibility (1/GPa) = 0.04728392
#
# Stress axis : x y z
#
# Youngs Moduli (GPa) = 10.45320 82.71626 68.95008
#
# Poissons Ratio (x) = 1.13658 1.43889
# Poissons Ratio (y) = 0.14363 0.19840
# Poissons Ratio (z) = 0.21814 0.23801
#
# Static dielectric constant tensor:
#      x y z
#    x 1.648070 0.000000 0.000000 
#    y 0.000000 1.655460 0.000000 
#    z 0.000000 0.000000 1.660400 
# 
# From -- ./inp_files/38167.got.cif
#   From: 2010.05.17/outbox.cif.g08.bks.cpg/sg53_20_cif.got.tgz:38167.got - 2010.06.03 12:45:16.
