data_PCOD9417485
_publ_section_title
;
Structure prediction by ZEFSAII (Michael W. Deem and Ramdas Pophale) SiO2 
 PCOD9417485
Probable space group: P M N A
;
_chemical_formula_sum "Si O2"
_cell_formula_units_Z 44
_cell_length_a 9.376859
_cell_length_b 9.506231
_cell_length_c 24.267989
_cell_angle_alpha 90.000000
_cell_angle_beta 90.000000
_cell_angle_gamma 90.000000
_cell_volume 2163.214266
_symmetry_space_group_name_H-M "P M N A"
_symmetry_group_IT_number 53
_symmetry_cell_setting 'orthorhombic'
loop_
_space_group_symop_operation_xyz
x,y,z
1/2-x,-y,1/2+z
x,-y,-z
1/2-x,y,1/2-z
-x,-y,-z
1/2+x,y,1/2-z
-x,y,z
1/2+x,-y,1/2+z
loop_
_atom_site_type_symbol
_atom_site_label
_atom_site_fract_x
_atom_site_fract_y
_atom_site_fract_z
Si Si1 0.750000 0.672876 0.750000
Si Si2 0.671585 0.150543 0.976611
Si Si3 0.673608 0.666799 0.924641
Si Si4 0.339924 0.888516 0.835883
Si Si5 0.336219 0.466158 0.654698
Si Si6 0.170244 0.190082 0.653100
O O1 0.843308 0.779836 0.714001
O O2 0.827319 0.575035 0.794368
O O3 0.500000 0.145218 0.982484
O O4 0.699566 0.171881 0.912389
O O5 0.714449 0.283808 0.014234
O O6 0.725398 0.000000 0.000000
O O7 0.500000 0.649377 0.920761
O O8 0.720830 0.800070 0.886703
O O9 0.749107 0.534694 0.896328
O O10 0.500000 0.923179 0.854676
O O11 0.279085 0.040772 0.821934
O O12 0.500000 0.441989 0.639926
O O13 0.258050 0.323787 0.672464
O O14 0.000000 0.214357 0.661849
#
# Coordination Sequence:
#
# PCOD9417485 Si02
#       6
#     4   8   8   8   8   8
#     4  10  22  40  60  78 102 148 192 236 286 344
#     4   9  15  29  58  91 117 146 189 240 284 325
#     4   9  17  33  59  86 114 149 191 232 277 331
#     4   9  17  33  58  84 103 132 184 241 285 328
#     4  11  24  40  56  81 120 157 189 230 284 346
#     4  10  20  35  59  89 117 144 185 238 288 337
#
# _framework density 20.340102000000002
#
# number of rings (size 3 to 8) (size 9 to 14) (size 15 to 20)
#    0.000    2.364    1.818    1.091    0.000    3.636 
#    0.000   10.909    0.000    1.091    0.000    0.000 
#    0.000    0.000    0.000    0.000    0.000    0.000 
#
# Total GULP energy -245186.458371 kJ/mol
# GULP energy per Si atom -5572.419508 kJ/mol
# Density = 2.029381 g / cm^3
# Si number density = 20.340102 Si / 1000 Ang^3
#
#
#
# Elastic Constant Matrix: (Units=GPa)
#
#
# Indices 1 2 3 4 5 6 
#
# 1 60.0943 39.8666 8.2185 0.0000 0.0000 0.0000
# 2 39.8666 135.4444 11.4759 0.0000 0.0000 0.0000
# 3 8.2185 11.4759 55.4430 0.0000 0.0000 0.0000
# 4 0.0000 0.0000 0.0000 23.1094 0.0000 0.0000
# 5 0.0000 0.0000 0.0000 0.0000 3.6362 0.0000
# 6 0.0000 0.0000 0.0000 0.0000 0.0000 12.1596
#
#
#
# Elastic Compliance Matrix: (Units=1/GPa)
#
#
# Indices 1 2 3 4 5 6 
#
# 1 0.020864 -0.005984 -0.001854 0.000000 0.000000 0.000000
# 2 -0.005984 0.009231 -0.001024 0.000000 0.000000 0.000000
# 3 -0.001854 -0.001024 0.018523 0.000000 0.000000 0.000000
# 4 0.000000 0.000000 0.000000 0.043272 0.000000 0.000000
# 5 0.000000 0.000000 0.000000 0.000000 0.275013 0.000000
# 6 0.000000 0.000000 0.000000 0.000000 0.000000 0.082240
#
#
# Mechanical properties :
#
#
# Convention : Reuss Voigt Hill
#
# Bulk Modulus (GPa) = 32.36796 41.12263 36.74529
# Shear Modulus (GPa) = 10.47855 20.54242 15.51048
#
# Velocity S-wave (km/s) = 2.27219 3.18141 2.76444
# Velocity P-wave (km/s) = 4.77826 5.81004 5.31923
#
# Compressibility (1/GPa) = 0.03089475
#
# Stress axis : x y z
#
# Youngs Moduli (GPa) = 47.92981 108.32885 53.98611
#
# Poissons Ratio (x) = 0.64824 0.10010
# Poissons Ratio (y) = 0.28681 0.05527
# Poissons Ratio (z) = 0.08887 0.11090
#
# Static dielectric constant tensor:
#      x y z
#    x 1.707420 0.000000 0.000000 
#    y 0.000000 1.784630 0.000000 
#    z 0.000000 0.000000 1.755920 
# 
# From -- ./inp_files/37585.got.cif
#   From: 2010.05.17/outbox.cif.g08.bks.cpg/sg53_19_cif.got.tgz:37585.got - 2010.06.03 12:45:16.
