data_PCOD9417178
_publ_section_title
;
Structure prediction by ZEFSAII (Michael W. Deem and Ramdas Pophale) SiO2 
 PCOD9417178
Probable space group: P M N A
;
_chemical_formula_sum "Si O2"
_cell_formula_units_Z 36
_cell_length_a 15.086417
_cell_length_b 8.945193
_cell_length_c 15.669305
_cell_angle_alpha 90.000000
_cell_angle_beta 90.000000
_cell_angle_gamma 90.000000
_cell_volume 2114.586996
_symmetry_space_group_name_H-M "P M N A"
_symmetry_group_IT_number 53
_symmetry_cell_setting 'orthorhombic'
loop_
_space_group_symop_operation_xyz
x,y,z
1/2-x,-y,1/2+z
x,-y,-z
1/2-x,y,1/2-z
-x,-y,-z
1/2+x,y,1/2-z
-x,y,z
1/2+x,-y,1/2+z
loop_
_atom_site_type_symbol
_atom_site_label
_atom_site_fract_x
_atom_site_fract_y
_atom_site_fract_z
Si Si1 0.304117 0.158233 0.171106
Si Si2 0.301726 0.895806 0.414537
Si Si3 0.500000 0.852479 0.061107
Si Si4 0.000000 0.060802 0.902269
Si Si5 0.175506 0.323202 0.505547
Si Si6 0.000000 0.939990 0.718090
O O1 0.250000 0.224462 0.250000
O O2 0.407350 0.135645 0.192417
O O3 0.254526 0.000583 0.149611
O O4 0.301224 0.259394 0.087609
O O5 0.403742 0.863829 0.391687
O O6 0.251310 0.742783 0.433219
O O7 0.302255 0.000000 0.500000
O O8 0.414109 0.756540 0.037527
O O9 0.500000 0.909591 0.159074
O O10 0.500000 0.000000 0.000000
O O11 0.000000 0.951112 0.820627
O O12 0.000000 0.000000 0.000000
O O13 0.167727 0.500000 0.500000
#
# Coordination Sequence:
#
# PCOD9417178 Si02
#       6
#     8   8   4   4   8   4
#     4  11  20  35  58  88 115 150 200 249 288 345
#     4   9  18  34  56  80 110 149 195 242 286 339
#     4  12  19  36  61  90 119 143 196 253 298 352
#     4  10  20  34  55  89 114 144 196 254 292 327
#     4  11  22  37  57  86 125 160 186 234 312 370
#     4  12  20  32  60  93 113 142 192 256 298 337
#
# _framework density 17.024602000000002
#
# number of rings (size 3 to 8) (size 9 to 14) (size 15 to 20)
#    0.000    1.333    6.667    1.000    0.000    0.000 
#    0.000    3.889    0.000    0.000    0.000    0.000 
#    0.000    0.000    0.000    0.000    0.000    0.000 
#
# Total GULP energy -200493.347118 kJ/mol
# GULP energy per Si atom -5569.259642 kJ/mol
# Density = 1.698585 g / cm^3
# Si number density = 17.024602 Si / 1000 Ang^3
#
#
#
# Elastic Constant Matrix: (Units=GPa)
#
#
# Indices 1 2 3 4 5 6 
#
# 1 158.2019 43.0738 15.6617 0.0000 0.0000 0.0000
# 2 43.0738 95.1629 15.0162 0.0000 0.0000 0.0000
# 3 15.6617 15.0162 83.8243 0.0000 0.0000 0.0000
# 4 0.0000 0.0000 0.0000 13.6883 0.0000 0.0000
# 5 0.0000 0.0000 0.0000 0.0000 32.1846 0.0000
# 6 0.0000 0.0000 0.0000 0.0000 0.0000 -1.9492
#
#
#
# Elastic Compliance Matrix: (Units=1/GPa)
#
#
# Indices 1 2 3 4 5 6 
#
# 1 0.007260 -0.003161 -0.000790 0.000000 0.000000 0.000000
# 2 -0.003161 0.012191 -0.001593 0.000000 0.000000 0.000000
# 3 -0.000790 -0.001593 0.012363 0.000000 0.000000 0.000000
# 4 0.000000 0.000000 0.000000 0.073055 0.000000 0.000000
# 5 0.000000 0.000000 0.000000 0.000000 0.031071 0.000000
# 6 0.000000 0.000000 0.000000 0.000000 0.000000 -0.513035
#
#
# Mechanical properties :
#
#
# Convention : Reuss Voigt Hill
#
# Bulk Modulus (GPa) = 48.25322 53.85472 51.05397
# Shear Modulus (GPa) = -13.92378 26.34724 6.21173
#
# Velocity S-wave (km/s) = -2.86293 3.93822 1.91222
# Velocity P-wave (km/s) = 4.18046 7.23751 5.91007
#
# Compressibility (1/GPa) = 0.02072401
#
# Stress axis : x y z
#
# Youngs Moduli (GPa) = 137.74047 82.03001 80.88825
#
# Poissons Ratio (x) = 0.25933 0.06391
# Poissons Ratio (y) = 0.43546 0.12887
# Poissons Ratio (z) = 0.10883 0.13069
#
# Static dielectric constant tensor:
#      x y z
#    x 1.611810 0.000000 0.000000 
#    y 0.000000 1.541700 0.000000 
#    z 0.000000 0.000000 1.621020 
# 
# From -- ./inp_files/22340.got.cif
#   From: 2010.05.17/outbox.cif.g08.bks.cpg/sg53_12_cif.got.tgz:22340.got - 2010.06.03 12:45:16.
