data_PCOD9417760
_publ_section_title
;
Structure prediction by ZEFSAII (Michael W. Deem and Ramdas Pophale) SiO2 
 PCOD9417760
Probable space group: P M N A
;
_chemical_formula_sum "Si O2"
_cell_formula_units_Z 64
_cell_length_a 8.534097
_cell_length_b 15.932217
_cell_length_c 24.446993
_cell_angle_alpha 90.000000
_cell_angle_beta 90.000000
_cell_angle_gamma 90.000000
_cell_volume 3323.986383
_symmetry_space_group_name_H-M "P M N A"
_symmetry_group_IT_number 53
_symmetry_cell_setting 'orthorhombic'
loop_
_space_group_symop_operation_xyz
x,y,z
1/2-x,-y,1/2+z
x,-y,-z
1/2-x,y,1/2-z
-x,-y,-z
1/2+x,y,1/2-z
-x,y,z
1/2+x,-y,1/2+z
loop_
_atom_site_type_symbol
_atom_site_label
_atom_site_fract_x
_atom_site_fract_y
_atom_site_fract_z
Si Si1 0.310684 1.000000 0.811442
Si Si2 0.687690 0.401685 0.000000
Si Si3 0.310627 0.500000 0.311548
Si Si4 0.812516 0.341577 0.115985
Si Si5 0.312516 0.658423 0.384015
Si Si6 0.310477 0.838725 0.118113
Si Si7 0.810477 0.838725 0.618113
Si Si8 0.309086 0.902491 0.000000
O O1 0.250000 1.000000 0.750000
O O2 0.500000 1.000000 0.811282
O O3 0.260547 0.916417 0.843998
O O4 0.260547 0.083582 0.843998
O O5 0.500000 0.396693 0.000001
O O6 0.750176 0.359184 0.055003
O O7 0.734648 0.500000 0.000000
O O8 0.750174 0.359184 0.944997
O O9 0.250000 0.500000 0.250000
O O10 0.500000 0.500000 0.310704
O O11 0.258796 0.417386 0.344842
O O12 0.258796 0.582614 0.344842
O O13 0.753528 0.251190 0.135503
O O14 0.000000 0.342260 0.114629
O O15 0.500000 0.657739 0.385372
O O16 0.253529 0.748810 0.364497
O O17 0.500000 0.836033 0.118368
O O18 0.258711 0.858182 0.055834
O O19 0.758710 0.858182 0.555834
O O20 0.000000 0.836034 0.618367
O O21 0.500000 0.902142 0.000000
O O22 0.261060 0.000000 0.000000
#
# Coordination Sequence:
#
# PCOD9417760 Si02
#       8
#     8   8   8   8   8   8   8   8
#     4  10  22  39  59  83 117 158 200 246 296 348
#     4  11  22  37  62  93 121 156 198 239 287 352
#     4  10  24  43  62  83 113 156 200 244 297 348
#     4  11  23  40  61  88 123 159 192 241 303 355
#     4  11  23  40  61  88 123 159 192 241 303 355
#     4  10  20  36  60  89 116 150 195 242 293 353
#     4  10  20  36  60  89 116 150 195 242 293 353
#     4   9  15  30  58  85 111 142 181 232 287 338
#
# _framework density 19.253989000000001
#
# number of rings (size 3 to 8) (size 9 to 14) (size 15 to 20)
#    0.000    1.750    2.500    1.875    0.000    5.500 
#    0.000    5.000    0.000    0.750    0.000    0.000 
#    0.000    0.000    0.000    0.000    0.000    0.000 
#
# Total GULP energy -357635.220165 kJ/mol
# GULP energy per Si atom -5588.050315 kJ/mol
# Density = 1.921017 g / cm^3
# Si number density = 19.253989 Si / 1000 Ang^3
#
#
#
# Elastic Constant Matrix: (Units=GPa)
#
#
# Indices 1 2 3 4 5 6 
#
# 1 16.3185 32.9398 22.7289 0.0000 0.0000 0.0000
# 2 32.9398 205.0867 92.8491 0.0000 0.0000 0.0000
# 3 22.7289 92.8491 157.3588 0.0000 0.0000 0.0000
# 4 0.0000 0.0000 0.0000 1.0445 0.0000 0.0000
# 5 0.0000 0.0000 0.0000 0.0000 31.0569 0.0000
# 6 0.0000 0.0000 0.0000 0.0000 0.0000 26.3257
#
#
#
# Elastic Compliance Matrix: (Units=1/GPa)
#
#
# Indices 1 2 3 4 5 6 
#
# 1 0.095254 -0.012376 -0.006456 0.000000 0.000000 0.000000
# 2 -0.012376 0.008261 -0.003087 0.000000 0.000000 0.000000
# 3 -0.006456 -0.003087 0.009109 0.000000 0.000000 0.000000
# 4 0.000000 0.000000 0.000000 0.957442 0.000000 0.000000
# 5 0.000000 0.000000 0.000000 0.000000 0.032199 0.000000
# 6 0.000000 0.000000 0.000000 0.000000 0.000000 0.037986
#
#
# Mechanical properties :
#
#
# Convention : Reuss Voigt Hill
#
# Bulk Modulus (GPa) = 14.53783 75.08885 44.81334
# Shear Modulus (GPa) = 4.14244 27.03514 15.58879
#
# Velocity S-wave (km/s) = 1.46838 3.75124 2.84850
# Velocity P-wave (km/s) = 3.23138 7.60567 5.84329
#
# Compressibility (1/GPa) = 0.06878606
#
# Stress axis : x y z
#
# Youngs Moduli (GPa) = 10.49821 121.04530 109.78354
#
# Poissons Ratio (x) = 1.49811 0.70875
# Poissons Ratio (y) = 0.12993 0.33890
# Poissons Ratio (z) = 0.06778 0.37366
#
# Static dielectric constant tensor:
#      x y z
#    x 1.662350 0.000000 0.000000 
#    y 0.000000 1.674260 0.000000 
#    z 0.000000 0.000000 1.637050 
# 
# From -- ./inp_files/34160.got.cif
#   From: 2010.05.17/outbox.cif.g08.bks.cpg/sg53_18_cif.got.tgz:34160.got - 2010.06.03 12:45:16.
