data_PCOD9417417
_publ_section_title
;
Structure prediction by ZEFSAII (Michael W. Deem and Ramdas Pophale) SiO2 
 PCOD9417417
Probable space group: P M N A
;
_chemical_formula_sum "Si O2"
_cell_formula_units_Z 48
_cell_length_a 14.309661
_cell_length_b 5.031207
_cell_length_c 27.531841
_cell_angle_alpha 90.000000
_cell_angle_beta 90.000000
_cell_angle_gamma 90.000000
_cell_volume 1982.151220
_symmetry_space_group_name_H-M "P M N A"
_symmetry_group_IT_number 53
_symmetry_cell_setting 'orthorhombic'
loop_
_space_group_symop_operation_xyz
x,y,z
1/2-x,-y,1/2+z
x,-y,-z
1/2-x,y,1/2-z
-x,-y,-z
1/2+x,y,1/2-z
-x,y,z
1/2+x,-y,1/2+z
loop_
_atom_site_type_symbol
_atom_site_label
_atom_site_fract_x
_atom_site_fract_y
_atom_site_fract_z
Si Si1 0.893009 0.120334 0.632643
Si Si2 0.701987 0.266273 0.968083
Si Si3 0.392553 0.644512 0.802528
Si Si4 0.896937 0.169496 0.950561
Si Si5 0.886016 0.376586 0.796607
Si Si6 0.112602 0.131119 0.148495
O O1 0.845318 0.183119 0.581918
O O2 0.894656 0.393138 0.662174
O O3 0.000000 0.035927 0.622370
O O4 0.850755 0.890865 0.667422
O O5 0.807956 0.357005 0.955509
O O6 0.656621 0.500000 0.000000
O O7 0.706030 0.000000 0.000000
O O8 0.500000 0.730550 0.790595
O O9 0.354900 0.521614 0.752500
O O10 0.872548 0.980235 0.905132
O O11 0.000000 0.292741 0.941756
O O12 0.903704 0.000000 0.000000
O O13 0.854503 0.082949 0.811235
O O14 0.000000 0.361674 0.794027
O O15 0.855112 0.573486 0.839710
O O16 0.000000 0.142053 0.153456
#
# Coordination Sequence:
#
# PCOD9417417 Si02
#       6
#     8   8   8   8   8   8
#     4  10  20  35  57  84 113 148 187 225 270 326
#     4  11  24  40  59  83 112 147 184 229 283 331
#     4   9  17  31  54  82 112 148 187 226 270 325
#     4   9  20  39  61  84 111 146 190 236 283 337
#     4   9  16  28  49  79 110 141 181 223 270 328
#     4   9  17  29  49  77 107 140 179 227 278 325
#
# _framework density 24.216114000000001
#
# number of rings (size 3 to 8) (size 9 to 14) (size 15 to 20)
#    0.000    2.500    0.000    2.000    0.000    7.667 
#    0.000    5.000    0.000    6.000    0.000    0.000 
#    0.000    0.000    0.000    0.000    0.000    0.000 
#
# Total GULP energy -268276.020120 kJ/mol
# GULP energy per Si atom -5589.083752 kJ/mol
# Density = 2.416100 g / cm^3
# Si number density = 24.216114 Si / 1000 Ang^3
#
#
#
# Elastic Constant Matrix: (Units=GPa)
#
#
# Indices 1 2 3 4 5 6 
#
# 1 72.4556 4.2833 27.2433 0.0000 0.0000 0.0000
# 2 4.2833 87.9068 7.5050 0.0000 0.0000 0.0000
# 3 27.2433 7.5050 119.5116 0.0000 0.0000 0.0000
# 4 0.0000 0.0000 0.0000 41.5435 0.0000 0.0000
# 5 0.0000 0.0000 0.0000 0.0000 15.6758 0.0000
# 6 0.0000 0.0000 0.0000 0.0000 0.0000 3.2614
#
#
#
# Elastic Compliance Matrix: (Units=1/GPa)
#
#
# Indices 1 2 3 4 5 6 
#
# 1 0.015113 -0.000445 -0.003417 0.000000 0.000000 0.000000
# 2 -0.000445 0.011450 -0.000618 0.000000 0.000000 0.000000
# 3 -0.003417 -0.000618 0.009185 0.000000 0.000000 0.000000
# 4 0.000000 0.000000 0.000000 0.024071 0.000000 0.000000
# 5 0.000000 0.000000 0.000000 0.000000 0.063793 0.000000
# 6 0.000000 0.000000 0.000000 0.000000 0.000000 0.306619
#
#
# Mechanical properties :
#
#
# Convention : Reuss Voigt Hill
#
# Bulk Modulus (GPa) = 37.32865 39.77078 38.54971
# Shear Modulus (GPa) = 11.15775 28.15230 19.65502
#
# Velocity S-wave (km/s) = 2.14885 3.41331 2.85204
# Velocity P-wave (km/s) = 4.64812 5.65625 5.17678
#
# Compressibility (1/GPa) = 0.02678907
#
# Stress axis : x y z
#
# Youngs Moduli (GPa) = 66.16963 87.33561 108.87172
#
# Poissons Ratio (x) = 0.03883 0.37202
# Poissons Ratio (y) = 0.02942 0.06725
# Poissons Ratio (z) = 0.22611 0.05394
#
# Static dielectric constant tensor:
#      x y z
#    x 2.021190 0.000000 0.000000 
#    y 0.000000 1.703670 0.000000 
#    z 0.000000 0.000000 1.944490 
# 
# From -- ./inp_files/35495.got.cif
#   From: 2010.05.17/outbox.cif.g08.bks.cpg/sg53_18_cif.got.tgz:35495.got - 2010.06.03 12:45:16.
