data_PCOD9417280
_publ_section_title
;
Structure prediction by ZEFSAII (Michael W. Deem and Ramdas Pophale) SiO2 
 PCOD9417280
Probable space group: P M N A
;
_chemical_formula_sum "Si O2"
_cell_formula_units_Z 56
_cell_length_a 9.043053
_cell_length_b 19.628839
_cell_length_c 16.272888
_cell_angle_alpha 90.000000
_cell_angle_beta 90.000000
_cell_angle_gamma 90.000000
_cell_volume 2888.512986
_symmetry_space_group_name_H-M "P M N A"
_symmetry_group_IT_number 53
_symmetry_cell_setting 'orthorhombic'
loop_
_space_group_symop_operation_xyz
x,y,z
1/2-x,-y,1/2+z
x,-y,-z
1/2-x,y,1/2-z
-x,-y,-z
1/2+x,y,1/2-z
-x,y,z
1/2+x,-y,1/2+z
loop_
_atom_site_type_symbol
_atom_site_label
_atom_site_fract_x
_atom_site_fract_y
_atom_site_fract_z
Si Si1 0.675626 0.785148 0.421029
Si Si2 0.175406 0.791082 0.588866
Si Si3 0.822780 0.925858 0.160711
Si Si4 0.322783 0.650447 0.834220
Si Si5 0.674636 0.646646 0.335589
Si Si6 0.825427 0.418746 0.505063
Si Si7 0.322952 0.923075 0.659887
O O1 0.500000 0.786003 0.441474
O O2 0.770484 0.766288 0.500173
O O3 0.720851 0.860412 0.391887
O O4 0.697147 0.727524 0.352372
O O5 0.211471 0.730485 0.652041
O O6 0.258497 0.860909 0.608665
O O7 0.000000 0.801752 0.589998
O O8 0.750000 0.921115 0.250000
O O9 0.000000 0.922680 0.170241
O O10 0.787964 0.001116 0.126051
O O11 0.250000 0.625859 0.750000
O O12 0.500000 0.643094 0.828359
O O13 0.274307 0.612593 0.917809
O O14 0.750000 0.626715 0.250000
O O15 0.500000 0.633892 0.331102
O O16 0.741158 0.609533 0.415481
O O17 0.811271 0.500000 0.500000
O O18 0.000000 0.401545 0.513855
O O19 0.250000 0.919316 0.750000
O O20 0.500000 0.916896 0.666217
#
# Coordination Sequence:
#
# PCOD9417280 Si02
#       7
#     8   8   8   8   8   8   8
#     4  10  21  37  57  83 114 153 198 247 301 353
#     4  11  22  36  56  82 113 151 197 249 299 353
#     4   9  19  35  54  77 108 147 193 243 298 354
#     4  10  22  39  61  89 119 156 198 244 297 352
#     4  11  23  39  64  94 126 164 205 251 301 359
#     4  10  22  43  67  92 126 162 199 247 300 357
#     4  10  20  35  54  77 109 148 192 244 297 356
#
# _framework density 19.387139999999999
#
# number of rings (size 3 to 8) (size 9 to 14) (size 15 to 20)
#    0.000    1.857    1.429    2.143    0.000    6.000 
#    0.000    4.286    0.000    0.000    0.000    0.000 
#    0.000    0.000    0.000    0.000    0.000    0.000 
#
# Total GULP energy -312693.311616 kJ/mol
# GULP energy per Si atom -5583.809136 kJ/mol
# Density = 1.934301 g / cm^3
# Si number density = 19.387140 Si / 1000 Ang^3
#
#
#
# Elastic Constant Matrix: (Units=GPa)
#
#
# Indices 1 2 3 4 5 6 
#
# 1 50.8223 42.8074 54.0887 0.0000 0.0000 0.0000
# 2 42.8074 72.5593 48.0584 0.0000 0.0000 0.0000
# 3 54.0887 48.0584 138.7618 0.0000 0.0000 0.0000
# 4 0.0000 0.0000 0.0000 18.4222 0.0000 0.0000
# 5 0.0000 0.0000 0.0000 0.0000 36.3507 0.0000
# 6 0.0000 0.0000 0.0000 0.0000 0.0000 22.4198
#
#
#
# Elastic Compliance Matrix: (Units=1/GPa)
#
#
# Indices 1 2 3 4 5 6 
#
# 1 0.051617 -0.022224 -0.012423 0.000000 0.000000 0.000000
# 2 -0.022224 0.027453 -0.000845 0.000000 0.000000 0.000000
# 3 -0.012423 -0.000845 0.012342 0.000000 0.000000 0.000000
# 4 0.000000 0.000000 0.000000 0.054282 0.000000 0.000000
# 5 0.000000 0.000000 0.000000 0.000000 0.027510 0.000000
# 6 0.000000 0.000000 0.000000 0.000000 0.000000 0.044603
#
#
# Mechanical properties :
#
#
# Convention : Reuss Voigt Hill
#
# Bulk Modulus (GPa) = 48.95413 61.33916 55.14664
# Shear Modulus (GPa) = 16.91468 23.25114 20.08291
#
# Velocity S-wave (km/s) = 2.95696 3.46686 3.22201
# Velocity P-wave (km/s) = 6.07979 6.90893 6.50758
#
# Compressibility (1/GPa) = 0.02042729
#
# Stress axis : x y z
#
# Youngs Moduli (GPa) = 19.37339 36.42592 81.02552
#
# Poissons Ratio (x) = 0.80953 1.00659
# Poissons Ratio (y) = 0.43055 0.06848
# Poissons Ratio (z) = 0.24068 0.03079
#
# Static dielectric constant tensor:
#      x y z
#    x 1.648740 0.000000 0.000000 
#    y 0.000000 1.694630 0.000000 
#    z 0.000000 0.000000 1.663760 
# 
# From -- ./inp_files/20536.got.cif
#   From: 2010.05.17/outbox.cif.g08.bks.cpg/sg53_11_cif.got.tgz:20536.got - 2010.06.03 12:45:16.
