data_PCOD9417463
_publ_section_title
;
Structure prediction by ZEFSAII (Michael W. Deem and Ramdas Pophale) SiO2 
 PCOD9417463
Probable space group: P M N A
;
_chemical_formula_sum "Si O2"
_cell_formula_units_Z 64
_cell_length_a 8.861802
_cell_length_b 24.202889
_cell_length_c 14.857164
_cell_angle_alpha 90.000000
_cell_angle_beta 90.000000
_cell_angle_gamma 90.000000
_cell_volume 3186.582514
_symmetry_space_group_name_H-M "P M N A"
_symmetry_group_IT_number 53
_symmetry_cell_setting 'orthorhombic'
loop_
_space_group_symop_operation_xyz
x,y,z
1/2-x,-y,1/2+z
x,-y,-z
1/2-x,y,1/2-z
-x,-y,-z
1/2+x,y,1/2-z
-x,y,z
1/2+x,-y,1/2+z
loop_
_atom_site_type_symbol
_atom_site_label
_atom_site_fract_x
_atom_site_fract_y
_atom_site_fract_z
Si Si1 0.320681 0.064054 0.516834
Si Si2 0.681277 0.467124 0.652882
Si Si3 0.820703 0.413605 0.346751
Si Si4 0.670471 0.891866 0.839719
Si Si5 0.679202 0.632441 0.481577
Si Si6 0.678403 0.246026 0.534401
Si Si7 0.179858 0.147859 0.650919
Si Si8 0.171196 0.240682 0.340772
O O1 0.500000 0.069282 0.529510
O O2 0.268266 0.095258 0.426968
O O3 0.237732 0.092993 0.599953
O O4 0.283634 0.000000 0.500000
O O5 0.750000 0.452664 0.750000
O O6 0.500000 0.473168 0.658791
O O7 0.753042 0.526096 0.628069
O O8 0.716044 0.419138 0.582099
O O9 0.750000 0.399393 0.250000
O O10 0.770076 0.373129 0.425932
O O11 0.000000 0.416860 0.339085
O O12 0.750000 0.914147 0.750000
O O13 0.500000 0.913440 0.850027
O O14 0.659895 0.825782 0.830310
O O15 0.500000 0.630183 0.502500
O O16 0.706808 0.691124 0.433716
O O17 0.500000 0.234198 0.539043
O O18 0.765430 0.199769 0.590574
O O19 0.732042 0.247408 0.430866
O O20 0.250000 0.151704 0.750000
O O21 0.000000 0.147712 0.655712
O O22 0.250000 0.262263 0.250000
O O23 0.000000 0.262309 0.350283
#
# Coordination Sequence:
#
# PCOD9417463 Si02
#       8
#     8   8   8   8   8   8   8   8
#     4  11  24  42  66  96 129 164 204 253 308 365
#     4  10  20  37  60  85 118 156 200 253 308 368
#     4  11  22  37  60  88 120 160 204 251 308 371
#     4  10  20  35  59  89 122 158 196 241 295 356
#     4  10  23  40  59  87 122 161 203 252 310 365
#     4  11  23  41  64  90 124 164 207 257 310 368
#     4  12  26  46  70  95 126 168 214 258 308 365
#     4  10  20  35  58  88 118 155 197 241 297 360
#
# _framework density 20.084212000000001
#
# number of rings (size 3 to 8) (size 9 to 14) (size 15 to 20)
#    0.000    1.375    1.250    5.250    0.000    7.000 
#    0.000    1.250    0.000    0.000    0.000    0.000 
#    0.000    0.000    0.000    0.000    0.000    0.000 
#
# Total GULP energy -357829.922864 kJ/mol
# GULP energy per Si atom -5591.092545 kJ/mol
# Density = 2.003850 g / cm^3
# Si number density = 20.084212 Si / 1000 Ang^3
#
#
#
# Elastic Constant Matrix: (Units=GPa)
#
#
# Indices 1 2 3 4 5 6 
#
# 1 121.0566 64.4846 50.6108 0.0000 0.0000 0.0000
# 2 64.4846 96.4569 49.3743 0.0000 0.0000 0.0000
# 3 50.6108 49.3743 111.1654 0.0000 0.0000 0.0000
# 4 0.0000 0.0000 0.0000 -2.5673 0.0000 0.0000
# 5 0.0000 0.0000 0.0000 0.0000 26.4453 0.0000
# 6 0.0000 0.0000 0.0000 0.0000 0.0000 -6.3076
#
#
#
# Elastic Compliance Matrix: (Units=1/GPa)
#
#
# Indices 1 2 3 4 5 6 
#
# 1 0.013452 -0.007582 -0.002757 0.000000 0.000000 0.000000
# 2 -0.007582 0.017691 -0.004406 0.000000 0.000000 0.000000
# 3 -0.002757 -0.004406 0.012208 0.000000 0.000000 0.000000
# 4 0.000000 0.000000 0.000000 -0.389511 0.000000 0.000000
# 5 0.000000 0.000000 0.000000 0.000000 0.037814 0.000000
# 6 0.000000 0.000000 0.000000 0.000000 0.000000 -0.158539
#
#
# Mechanical properties :
#
#
# Convention : Reuss Voigt Hill
#
# Bulk Modulus (GPa) = 72.14072 73.06872 72.60472
# Shear Modulus (GPa) = -11.55331 14.46136 1.45402
#
# Velocity S-wave (km/s) = -2.40103 2.68626 0.85178
# Velocity P-wave (km/s) = 5.32076 6.78833 6.09885
#
# Compressibility (1/GPa) = 0.01386180
#
# Stress axis : x y z
#
# Youngs Moduli (GPa) = 74.33906 56.52498 81.91659
#
# Poissons Ratio (x) = 0.42857 0.22583
# Poissons Ratio (y) = 0.56363 0.36091
# Poissons Ratio (z) = 0.20494 0.24904
#
# Static dielectric constant tensor:
#      x y z
#    x 1.684840 0.000000 0.000000 
#    y 0.000000 1.740190 0.000000 
#    z 0.000000 0.000000 1.679920 
# 
# From -- ./inp_files/21022.got.cif
#   From: 2010.05.17/outbox.cif.g08.bks.cpg/sg53_11_cif.got.tgz:21022.got - 2010.06.03 12:45:16.
