data_PCOD9417448
_publ_section_title
;
Structure prediction by ZEFSAII (Michael W. Deem and Ramdas Pophale) SiO2 
 PCOD9417448
Probable space group: P M N A
;
_chemical_formula_sum "Si O2"
_cell_formula_units_Z 64
_cell_length_a 8.852283
_cell_length_b 20.275268
_cell_length_c 20.541232
_cell_angle_alpha 90.000000
_cell_angle_beta 90.000000
_cell_angle_gamma 90.000000
_cell_volume 3686.789829
_symmetry_space_group_name_H-M "P M N A"
_symmetry_group_IT_number 53
_symmetry_cell_setting 'orthorhombic'
loop_
_space_group_symop_operation_xyz
x,y,z
1/2-x,-y,1/2+z
x,-y,-z
1/2-x,y,1/2-z
-x,-y,-z
1/2+x,y,1/2-z
-x,y,z
1/2+x,-y,1/2+z
loop_
_atom_site_type_symbol
_atom_site_label
_atom_site_fract_x
_atom_site_fract_y
_atom_site_fract_z
Si Si1 0.180486 0.187944 0.065262
Si Si2 0.178780 0.690736 0.392954
Si Si3 0.181576 0.900112 0.679537
Si Si4 0.820452 0.671129 0.545787
Si Si5 0.182577 0.838279 0.424831
Si Si6 0.179961 0.571606 0.180146
Si Si7 0.181338 0.053905 0.680281
Si Si8 0.182203 0.467616 0.069396
O O1 0.249371 0.144431 0.123001
O O2 0.238867 0.263191 0.070991
O O3 0.000000 0.186109 0.066503
O O4 0.241140 0.161984 0.995491
O O5 0.207099 0.669251 0.467747
O O6 0.218441 0.768075 0.390980
O O7 0.267647 0.642908 0.345495
O O8 0.000000 0.684091 0.380235
O O9 0.250000 0.882556 0.750000
O O10 0.000000 0.893910 0.680798
O O11 0.220058 0.977352 0.667673
O O12 0.757361 0.603751 0.575158
O O13 0.000000 0.677351 0.555530
O O14 0.228744 0.897995 0.378056
O O15 0.000000 0.839820 0.434163
O O16 0.250000 0.557660 0.250000
O O17 0.227517 0.517387 0.126666
O O18 0.000000 0.570265 0.184298
O O19 0.250000 0.072956 0.750000
O O20 0.000000 0.058282 0.685070
O O21 0.000000 0.460412 0.070071
O O22 0.224131 0.500000 0.000000
#
# Coordination Sequence:
#
# PCOD9417448 Si02
#       8
#     8   8   8   8   8   8   8   8
#     4  11  22  36  56  83 114 147 184 232 280 330
#     4   9  18  33  53  77 107 141 180 221 267 323
#     4  10  20  37  59  82 109 145 187 232 282 339
#     4  10  20  35  58  85 110 139 179 228 273 328
#     4   9  19  36  55  81 114 148 185 228 277 329
#     4  11  23  37  54  77 111 147 181 225 271 322
#     4   9  19  35  56  79 109 147 188 232 280 335
#     4  10  20  36  58  83 109 141 182 227 273 326
#
# _framework density 17.359275
#
# number of rings (size 3 to 8) (size 9 to 14) (size 15 to 20)
#    0.000    2.125    1.250    3.000    0.000    5.250 
#    0.000    4.375    0.000    1.500    0.000    0.000 
#    0.000    0.000    0.000    0.000    0.000    0.000 
#
# Total GULP energy -357267.582063 kJ/mol
# GULP energy per Si atom -5582.305970 kJ/mol
# Density = 1.731976 g / cm^3
# Si number density = 17.359275 Si / 1000 Ang^3
#
#
#
# Elastic Constant Matrix: (Units=GPa)
#
#
# Indices 1 2 3 4 5 6 
#
# 1 54.5007 53.5237 61.4083 0.0000 0.0000 0.0000
# 2 53.5237 123.2276 101.9745 0.0000 0.0000 0.0000
# 3 61.4083 101.9745 141.1944 0.0000 0.0000 0.0000
# 4 0.0000 0.0000 0.0000 21.4243 0.0000 0.0000
# 5 0.0000 0.0000 0.0000 0.0000 30.4175 0.0000
# 6 0.0000 0.0000 0.0000 0.0000 0.0000 25.2683
#
#
#
# Elastic Compliance Matrix: (Units=1/GPa)
#
#
# Indices 1 2 3 4 5 6 
#
# 1 0.038320 -0.007090 -0.011546 0.000000 0.000000 0.000000
# 2 -0.007090 0.021482 -0.012431 0.000000 0.000000 0.000000
# 3 -0.011546 -0.012431 0.021082 0.000000 0.000000 0.000000
# 4 0.000000 0.000000 0.000000 0.046676 0.000000 0.000000
# 5 0.000000 0.000000 0.000000 0.000000 0.032876 0.000000
# 6 0.000000 0.000000 0.000000 0.000000 0.000000 0.039575
#
#
# Mechanical properties :
#
#
# Convention : Reuss Voigt Hill
#
# Bulk Modulus (GPa) = 53.33210 83.63729 68.48469
# Shear Modulus (GPa) = 18.62929 22.22310 20.42620
#
# Velocity S-wave (km/s) = 3.27947 3.58185 3.43399
# Velocity P-wave (km/s) = 6.71782 8.08647 7.43371
#
# Compressibility (1/GPa) = 0.01875043
#
# Stress axis : x y z
#
# Youngs Moduli (GPa) = 26.09586 46.55131 47.43390
#
# Poissons Ratio (x) = 0.33005 0.54766
# Poissons Ratio (y) = 0.18502 0.58966
# Poissons Ratio (z) = 0.30129 0.57868
#
# Static dielectric constant tensor:
#      x y z
#    x 1.579630 0.000000 0.000000 
#    y 0.000000 1.581030 0.000000 
#    z 0.000000 0.000000 1.562820 
# 
# From -- ./inp_files/31242.got.cif
#   From: 2010.05.17/outbox.cif.g08.bks.cpg/sg53_16_cif.got.tgz:31242.got - 2010.06.03 12:45:16.
