data_PCOD9417063
_publ_section_title
;
Structure prediction by ZEFSAII (Michael W. Deem and Ramdas Pophale) SiO2 
 PCOD9417063
Probable space group: P M N A
;
_chemical_formula_sum "Si O2"
_cell_formula_units_Z 44
_cell_length_a 10.113649
_cell_length_b 8.411950
_cell_length_c 25.929833
_cell_angle_alpha 90.000000
_cell_angle_beta 90.000000
_cell_angle_gamma 90.000000
_cell_volume 2205.993759
_symmetry_space_group_name_H-M "P M N A"
_symmetry_group_IT_number 53
_symmetry_cell_setting 'orthorhombic'
loop_
_space_group_symop_operation_xyz
x,y,z
1/2-x,-y,1/2+z
x,-y,-z
1/2-x,y,1/2-z
-x,-y,-z
1/2+x,y,1/2-z
-x,y,z
1/2+x,-y,1/2+z
loop_
_atom_site_type_symbol
_atom_site_label
_atom_site_fract_x
_atom_site_fract_y
_atom_site_fract_z
Si Si1 0.344097 0.881161 0.047492
Si Si2 0.347866 0.643975 0.644790
Si Si3 0.361282 0.773283 0.187004
Si Si4 0.852136 0.556876 0.416933
Si Si5 0.250000 0.513808 0.250000
Si Si6 0.153147 0.022926 0.859519
O O1 0.500000 0.896868 0.063271
O O2 0.323704 0.690336 0.039364
O O3 0.237130 0.934889 0.089592
O O4 0.327504 0.000000 0.000000
O O5 0.500000 0.592688 0.637470
O O6 0.256096 0.571826 0.599407
O O7 0.297386 0.583674 0.700553
O O8 0.343007 0.833912 0.645934
O O9 0.500000 0.864129 0.189256
O O10 0.356934 0.670335 0.134099
O O11 0.358006 0.638334 0.229954
O O12 0.234805 0.886932 0.185112
O O13 0.000000 0.489837 0.424692
O O14 0.000000 0.074533 0.861883
#
# Coordination Sequence:
#
# PCOD9417063 Si02
#       6
#     8   8   8   8   4   8
#     4   9  18  35  58  81 104 133 173 216 257 308
#     4  10  21  36  52  74 107 141 172 210 259 310
#     4   9  18  33  52  73  98 131 173 215 254 299
#     4   8  16  31  52  76 100 131 169 207 252 302
#     4  10  20  34  54  76  98 134 180 218 252 300
#     4  10  21  35  52  77 107 137 169 210 261 311
#
# _framework density 19.945658999999999
#
# number of rings (size 3 to 8) (size 9 to 14) (size 15 to 20)
#    0.000    2.727    0.000    2.182    0.000   10.545 
#    0.000    2.727    0.000    5.455    0.000    0.000 
#    0.000    0.000    0.000    0.000    0.000    0.000 
#
# Total GULP energy -244983.630121 kJ/mol
# GULP energy per Si atom -5567.809775 kJ/mol
# Density = 1.990026 g / cm^3
# Si number density = 19.945659 Si / 1000 Ang^3
#
#
#
# Elastic Constant Matrix: (Units=GPa)
#
#
# Indices 1 2 3 4 5 6 
#
# 1 163.9336 51.1958 19.6294 0.0000 0.0000 0.0000
# 2 51.1958 48.2708 -5.4993 0.0000 0.0000 0.0000
# 3 19.6294 -5.4993 15.3491 0.0000 0.0000 0.0000
# 4 0.0000 0.0000 0.0000 9.2454 0.0000 0.0000
# 5 0.0000 0.0000 0.0000 0.0000 2.5781 0.0000
# 6 0.0000 0.0000 0.0000 0.0000 0.0000 31.6356
#
#
#
# Elastic Compliance Matrix: (Units=1/GPa)
#
#
# Indices 1 2 3 4 5 6 
#
# 1 0.015244 -0.019171 -0.026363 0.000000 0.000000 0.000000
# 2 -0.019171 0.045708 0.040893 0.000000 0.000000 0.000000
# 3 -0.026363 0.040893 0.113517 0.000000 0.000000 0.000000
# 4 0.000000 0.000000 0.000000 0.108162 0.000000 0.000000
# 5 0.000000 0.000000 0.000000 0.000000 0.387879 0.000000
# 6 0.000000 0.000000 0.000000 0.000000 0.000000 0.031610
#
#
# Mechanical properties :
#
#
# Convention : Reuss Voigt Hill
#
# Bulk Modulus (GPa) = 6.05374 39.80058 22.92716
# Shear Modulus (GPa) = 6.52346 19.50699 13.01523
#
# Velocity S-wave (km/s) = 1.81045 3.13070 2.55725
# Velocity P-wave (km/s) = 2.72250 5.75032 4.49879
#
# Compressibility (1/GPa) = 0.16518705
#
# Stress axis : x y z
#
# Youngs Moduli (GPa) = 65.60047 21.87802 8.80925
#
# Poissons Ratio (x) = 0.41942 0.23224
# Poissons Ratio (y) = 1.25763 -0.36024
# Poissons Ratio (z) = 1.72945 -0.89467
#
# Static dielectric constant tensor:
#      x y z
#    x 1.740180 0.000000 0.000000 
#    y 0.000000 1.704820 0.000000 
#    z 0.000000 0.000000 1.789660 
# 
# From -- ./inp_files/37578.got.cif
#   From: 2010.05.17/outbox.cif.g08.bks.cpg/sg53_19_cif.got.tgz:37578.got - 2010.06.03 12:45:16.
