data_PCOD9417728
_publ_section_title
;
Structure prediction by ZEFSAII (Michael W. Deem and Ramdas Pophale) SiO2 
 PCOD9417728
Probable space group: P M N A
;
_chemical_formula_sum "Si O2"
_cell_formula_units_Z 64
_cell_length_a 8.799166
_cell_length_b 12.708244
_cell_length_c 29.829501
_cell_angle_alpha 90.000000
_cell_angle_beta 90.000000
_cell_angle_gamma 90.000000
_cell_volume 3335.592925
_symmetry_space_group_name_H-M "P M N A"
_symmetry_group_IT_number 53
_symmetry_cell_setting 'orthorhombic'
loop_
_space_group_symop_operation_xyz
x,y,z
1/2-x,-y,1/2+z
x,-y,-z
1/2-x,y,1/2-z
-x,-y,-z
1/2+x,y,1/2-z
-x,y,z
1/2+x,-y,1/2+z
loop_
_atom_site_type_symbol
_atom_site_label
_atom_site_fract_x
_atom_site_fract_y
_atom_site_fract_z
Si Si1 0.183006 0.261782 0.300074
Si Si2 0.317198 0.492262 0.199891
Si Si3 0.180567 0.724163 0.051565
Si Si4 0.817950 0.880414 0.377381
Si Si5 0.681879 0.284955 0.446549
Si Si6 0.316497 0.277493 0.799912
Si Si7 0.172205 0.504580 0.445484
Si Si8 0.317809 0.112248 0.373925
O O1 0.250000 0.254698 0.250000
O O2 0.227270 0.378222 0.319150
O O3 0.250738 0.171096 0.330762
O O4 0.000000 0.254891 0.298609
O O5 0.250000 0.492868 0.250000
O O6 0.500000 0.491594 0.202092
O O7 0.272118 0.606430 0.180973
O O8 0.265035 0.811286 0.080523
O O9 0.231474 0.607257 0.066251
O O10 0.000000 0.735667 0.056438
O O11 0.219623 0.733788 0.998784
O O12 0.768354 0.814587 0.333339
O O13 0.000000 0.888210 0.376823
O O14 0.746677 0.995591 0.378270
O O15 0.500000 0.299668 0.443977
O O16 0.760032 0.393072 0.431146
O O17 0.724763 0.186178 0.416089
O O18 0.250000 0.266173 0.750000
O O19 0.500000 0.275344 0.796855
O O20 0.169898 0.500000 0.500000
O O21 0.000000 0.516996 0.428913
O O22 0.500000 0.108612 0.371191
#
# Coordination Sequence:
#
# PCOD9417728 Si02
#       8
#     8   8   8   8   8   8   8   8
#     4  10  20  36  59  86 115 147 182 225 279 337
#     4   8  15  30  53  81 110 138 170 212 265 324
#     4  10  20  37  60  84 113 149 187 230 282 338
#     4  11  24  40  56  80 113 148 192 240 285 337
#     4   9  20  38  59  83 113 149 188 232 283 339
#     4   9  19  36  58  83 112 144 178 221 273 329
#     4   9  17  31  55  87 118 146 180 225 279 338
#     4  11  24  41  58  79 109 147 194 241 284 335
#
# _framework density 19.186993999999999
#
# number of rings (size 3 to 8) (size 9 to 14) (size 15 to 20)
#    0.000    2.375    0.000    1.875    0.000    6.500 
#    0.000    5.000    0.000    0.000    0.000    0.000 
#    0.000    0.000    0.000    0.000    0.000    0.000 
#
# Total GULP energy -357206.242651 kJ/mol
# GULP energy per Si atom -5581.347541 kJ/mol
# Density = 1.914332 g / cm^3
# Si number density = 19.186994 Si / 1000 Ang^3
#
#
#
# Elastic Constant Matrix: (Units=GPa)
#
#
# Indices 1 2 3 4 5 6 
#
# 1 44.9473 55.9467 35.0984 0.0000 0.0000 0.0000
# 2 55.9467 193.9174 67.3153 0.0000 0.0000 0.0000
# 3 35.0984 67.3153 86.3626 0.0000 0.0000 0.0000
# 4 0.0000 0.0000 0.0000 31.1292 0.0000 0.0000
# 5 0.0000 0.0000 0.0000 0.0000 22.1044 0.0000
# 6 0.0000 0.0000 0.0000 0.0000 0.0000 34.7675
#
#
#
# Elastic Compliance Matrix: (Units=1/GPa)
#
#
# Indices 1 2 3 4 5 6 
#
# 1 0.040153 -0.008116 -0.009993 0.000000 0.000000 0.000000
# 2 -0.008116 0.008710 -0.003491 0.000000 0.000000 0.000000
# 3 -0.009993 -0.003491 0.018361 0.000000 0.000000 0.000000
# 4 0.000000 0.000000 0.000000 0.032124 0.000000 0.000000
# 5 0.000000 0.000000 0.000000 0.000000 0.045240 0.000000
# 6 0.000000 0.000000 0.000000 0.000000 0.000000 0.028762
#
#
# Mechanical properties :
#
#
# Convention : Reuss Voigt Hill
#
# Bulk Modulus (GPa) = 41.62186 71.32757 56.47471
# Shear Modulus (GPa) = 22.26599 28.72470 25.49534
#
# Velocity S-wave (km/s) = 3.41027 3.87342 3.64920
# Velocity P-wave (km/s) = 6.10298 7.56705 6.87410
#
# Compressibility (1/GPa) = 0.02402584
#
# Stress axis : x y z
#
# Youngs Moduli (GPa) = 24.90466 114.81026 54.46293
#
# Poissons Ratio (x) = 0.93176 0.54424
# Poissons Ratio (y) = 0.20212 0.19012
# Poissons Ratio (z) = 0.24887 0.40078
#
# Static dielectric constant tensor:
#      x y z
#    x 1.644460 0.000000 0.000000 
#    y 0.000000 1.658210 0.000000 
#    z 0.000000 0.000000 1.672180 
# 
# From -- ./inp_files/38220.got.cif
#   From: 2010.05.17/outbox.cif.g08.bks.cpg/sg53_20_cif.got.tgz:38220.got - 2010.06.03 12:45:16.
