data_PCOD9417538
_publ_section_title
;
Structure prediction by ZEFSAII (Michael W. Deem and Ramdas Pophale) SiO2 
 PCOD9417538
Probable space group: P M N A
;
_chemical_formula_sum "Si O2"
_cell_formula_units_Z 52
_cell_length_a 13.934613
_cell_length_b 9.103136
_cell_length_c 19.421693
_cell_angle_alpha 90.000000
_cell_angle_beta 90.000000
_cell_angle_gamma 90.000000
_cell_volume 2463.616067
_symmetry_space_group_name_H-M "P M N A"
_symmetry_group_IT_number 53
_symmetry_cell_setting 'orthorhombic'
loop_
_space_group_symop_operation_xyz
x,y,z
1/2-x,-y,1/2+z
x,-y,-z
1/2-x,y,1/2-z
-x,-y,-z
1/2+x,y,1/2-z
-x,y,z
1/2+x,-y,1/2+z
loop_
_atom_site_type_symbol
_atom_site_label
_atom_site_fract_x
_atom_site_fract_y
_atom_site_fract_z
Si Si1 0.250000 0.546693 0.250000
Si Si2 0.886910 0.216105 0.750324
Si Si3 0.608831 0.889023 0.791965
Si Si4 0.392015 0.666014 0.668710
Si Si5 0.236698 0.500000 0.000000
Si Si6 0.773337 0.750883 0.588423
Si Si7 0.288748 0.000000 0.500000
Si Si8 0.886441 0.742592 0.084427
O O1 0.175063 0.657516 0.285844
O O2 0.182441 0.448702 0.201731
O O3 0.871822 0.235904 0.832980
O O4 0.000000 0.234126 0.738286
O O5 0.858686 0.054943 0.723083
O O6 0.500000 0.894225 0.819785
O O7 0.604551 0.803668 0.719946
O O8 0.674386 0.790650 0.841163
O O9 0.500000 0.607774 0.660177
O O10 0.340744 0.723495 0.600725
O O11 0.301206 0.394495 0.047784
O O12 0.172790 0.607794 0.049374
O O13 0.779277 0.895173 0.543735
O O14 0.351553 0.892737 0.452071
O O15 0.000000 0.720044 0.073445
#
# Coordination Sequence:
#
# PCOD9417538 Si02
#       8
#     4   8   8   8   4   8   4   8
#     4  12  22  34  60  90 130 162 194 240 306 372
#     4  10  23  38  59  93 127 160 204 259 319 375
#     4  10  22  42  67  92 120 163 214 265 323 374
#     4  11  23  39  64  97 127 163 205 253 316 381
#     4  10  23  36  59  86 124 172 212 240 306 378
#     4  11  22  43  62  89 125 164 206 262 311 374
#     4  10  23  34  61  90 118 164 216 246 302 368
#     4  10  20  36  55  87 127 165 205 251 300 368
#
# _framework density 21.107185999999999
#
# number of rings (size 3 to 8) (size 9 to 14) (size 15 to 20)
#    0.000    1.538    1.538    2.769    4.308    6.154 
#    0.000    0.769    0.000    0.000    0.000    0.000 
#    0.000    0.000    0.000    0.000    0.000    0.000 
#
# Total GULP energy -290399.461998 kJ/mol
# GULP energy per Si atom -5584.605038 kJ/mol
# Density = 2.105914 g / cm^3
# Si number density = 21.107186 Si / 1000 Ang^3
#
#
#
# Elastic Constant Matrix: (Units=GPa)
#
#
# Indices 1 2 3 4 5 6 
#
# 1 76.1512 22.0226 6.8402 0.0000 0.0000 0.0000
# 2 22.0226 130.6412 13.3148 0.0000 0.0000 0.0000
# 3 6.8402 13.3148 41.7283 0.0000 0.0000 0.0000
# 4 0.0000 0.0000 0.0000 38.8240 0.0000 0.0000
# 5 0.0000 0.0000 0.0000 0.0000 2.6154 0.0000
# 6 0.0000 0.0000 0.0000 0.0000 0.0000 25.0292
#
#
#
# Elastic Compliance Matrix: (Units=1/GPa)
#
#
# Indices 1 2 3 4 5 6 
#
# 1 0.013905 -0.002183 -0.001583 0.000000 0.000000 0.000000
# 2 -0.002183 0.008254 -0.002276 0.000000 0.000000 0.000000
# 3 -0.001583 -0.002276 0.024950 0.000000 0.000000 0.000000
# 4 0.000000 0.000000 0.000000 0.025757 0.000000 0.000000
# 5 0.000000 0.000000 0.000000 0.000000 0.382350 0.000000
# 6 0.000000 0.000000 0.000000 0.000000 0.000000 0.039953
#
#
# Mechanical properties :
#
#
# Convention : Reuss Voigt Hill
#
# Bulk Modulus (GPa) = 28.54975 36.98619 32.76797
# Shear Modulus (GPa) = 9.63522 27.04992 18.34257
#
# Velocity S-wave (km/s) = 2.13888 3.58376 2.95111
# Velocity P-wave (km/s) = 4.43342 5.88944 5.21252
#
# Compressibility (1/GPa) = 0.03502658
#
# Stress axis : x y z
#
# Youngs Moduli (GPa) = 71.91561 121.14643 40.07971
#
# Poissons Ratio (x) = 0.26443 0.06344
# Poissons Ratio (y) = 0.15697 0.09122
# Poissons Ratio (z) = 0.11384 0.27574
#
# Static dielectric constant tensor:
#      x y z
#    x 1.781660 0.000000 0.000000 
#    y 0.000000 1.795170 0.000000 
#    z 0.000000 0.000000 1.801680 
# 
# From -- ./inp_files/32382.got.cif
#   From: 2010.05.17/outbox.cif.g08.bks.cpg/sg53_17_cif.got.tgz:32382.got - 2010.06.03 12:45:16.
