data_PCOD9417669
_publ_section_title
;
Structure prediction by ZEFSAII (Michael W. Deem and Ramdas Pophale) SiO2 
 PCOD9417669
Probable space group: P M N A
;
_chemical_formula_sum "Si O2"
_cell_formula_units_Z 48
_cell_length_a 9.723910
_cell_length_b 28.966809
_cell_length_c 9.380168
_cell_angle_alpha 90.000000
_cell_angle_beta 90.000000
_cell_angle_gamma 90.000000
_cell_volume 2642.117959
_symmetry_space_group_name_H-M "P M N A"
_symmetry_group_IT_number 53
_symmetry_cell_setting 'orthorhombic'
loop_
_space_group_symop_operation_xyz
x,y,z
1/2-x,-y,1/2+z
x,-y,-z
1/2-x,y,1/2-z
-x,-y,-z
1/2+x,y,1/2-z
-x,y,z
1/2+x,-y,1/2+z
loop_
_atom_site_type_symbol
_atom_site_label
_atom_site_fract_x
_atom_site_fract_y
_atom_site_fract_z
Si Si1 0.500000 0.450364 0.074384
Si Si2 0.000000 0.453546 0.088208
Si Si3 0.665179 0.107579 0.395686
Si Si4 0.163623 0.043849 0.605762
Si Si5 0.841320 0.782594 0.885909
Si Si6 0.334751 0.702946 0.395139
Si Si7 0.746035 0.615045 0.580908
O O1 0.500000 0.461909 0.242640
O O2 0.624566 0.416112 0.041867
O O3 0.500000 0.500000 0.000000
O O4 0.126366 0.421134 0.054279
O O5 0.000000 0.500000 0.000000
O O6 0.750000 0.096649 0.250000
O O7 0.500000 0.095380 0.387701
O O8 0.748824 0.082818 0.521988
O O9 0.673171 0.162900 0.415700
O O10 0.250000 0.033996 0.750000
O O11 0.000000 0.054995 0.631796
O O12 0.165059 0.000000 0.500000
O O13 0.750000 0.770626 0.750000
O O14 0.000000 0.773924 0.848227
O O15 0.808681 0.750444 0.019600
O O16 0.250000 0.702690 0.250000
O O17 0.500000 0.698371 0.373616
O O18 0.280717 0.660921 0.492248
O O19 0.750000 0.626363 0.750000
#
# Coordination Sequence:
#
# PCOD9417669 Si02
#       7
#     4   4   8   8   8   8   8
#     4  10  22  36  58  88 112 142 188 230 277 340
#     4  10  20  36  58  82 114 150 182 226 279 330
#     4  10  20  37  62  90 122 158 200 248 298 357
#     4  11  24  40  60  87 121 162 206 254 307 361
#     4   9  20  39  62  89 119 155 196 239 291 350
#     4  11  24  40  58  85 118 151 190 239 290 340
#     4  10  21  39  60  82 112 150 188 230 279 338
#
# _framework density 18.167244
#
# number of rings (size 3 to 8) (size 9 to 14) (size 15 to 20)
#    0.000    1.833    0.833    2.500    1.167    6.000 
#    0.000    1.667    0.000    0.000    0.000    0.000 
#    0.000    0.000    0.000    0.000    0.000    0.000 
#
# Total GULP energy -267714.419264 kJ/mol
# GULP energy per Si atom -5577.383735 kJ/mol
# Density = 1.812589 g / cm^3
# Si number density = 18.167244 Si / 1000 Ang^3
#
#
#
# Elastic Constant Matrix: (Units=GPa)
#
#
# Indices 1 2 3 4 5 6 
#
# 1 168.0577 59.6501 77.2569 0.0000 0.0000 0.0000
# 2 59.6501 70.8911 61.4759 0.0000 0.0000 0.0000
# 3 77.2569 61.4759 109.4395 0.0000 0.0000 0.0000
# 4 0.0000 0.0000 0.0000 37.6200 0.0000 0.0000
# 5 0.0000 0.0000 0.0000 0.0000 34.3712 0.0000
# 6 0.0000 0.0000 0.0000 0.0000 0.0000 28.3030
#
#
#
# Elastic Compliance Matrix: (Units=1/GPa)
#
#
# Indices 1 2 3 4 5 6 
#
# 1 0.009411 -0.004207 -0.004281 0.000000 0.000000 0.000000
# 2 -0.004207 0.029385 -0.013537 0.000000 0.000000 0.000000
# 3 -0.004281 -0.013537 0.019763 0.000000 0.000000 0.000000
# 4 0.000000 0.000000 0.000000 0.026582 0.000000 0.000000
# 5 0.000000 0.000000 0.000000 0.000000 0.029094 0.000000
# 6 0.000000 0.000000 0.000000 0.000000 0.000000 0.035332
#
#
# Mechanical properties :
#
#
# Convention : Reuss Voigt Hill
#
# Bulk Modulus (GPa) = 68.91280 82.79492 75.85386
# Shear Modulus (GPa) = 25.19491 30.05918 27.62705
#
# Velocity S-wave (km/s) = 3.72806 4.07207 3.90385
# Velocity P-wave (km/s) = 7.51971 8.23296 7.88440
#
# Compressibility (1/GPa) = 0.01451109
#
# Stress axis : x y z
#
# Youngs Moduli (GPa) = 106.25466 34.03111 50.59880
#
# Poissons Ratio (x) = 0.14317 0.21659
# Poissons Ratio (y) = 0.44701 0.68494
# Poissons Ratio (z) = 0.45483 0.46067
#
# Static dielectric constant tensor:
#      x y z
#    x 1.606030 0.000000 0.000000 
#    y 0.000000 1.575850 0.000000 
#    z 0.000000 0.000000 1.648890 
# 
# From -- ./inp_files/6843.got.cif
#   From: 2010.05.17/outbox.cif.g08.bks.cpg/sg53_4_cif.got.tgz:6843.got - 2010.06.03 12:45:16.
