data_PCOD9417940
_publ_section_title
;
Structure prediction by ZEFSAII (Michael W. Deem and Ramdas Pophale) SiO2 
 PCOD9417940
Probable space group: P M N A
;
_chemical_formula_sum "Si O2"
_cell_formula_units_Z 40
_cell_length_a 17.634777
_cell_length_b 7.284621
_cell_length_c 13.163867
_cell_angle_alpha 90.000000
_cell_angle_beta 90.000000
_cell_angle_gamma 90.000000
_cell_volume 1691.065461
_symmetry_space_group_name_H-M "P M N A"
_symmetry_group_IT_number 53
_symmetry_cell_setting 'orthorhombic'
loop_
_space_group_symop_operation_xyz
x,y,z
1/2-x,-y,1/2+z
x,-y,-z
1/2-x,y,1/2-z
-x,-y,-z
1/2+x,y,1/2-z
-x,y,z
1/2+x,-y,1/2+z
loop_
_atom_site_type_symbol
_atom_site_label
_atom_site_fract_x
_atom_site_fract_y
_atom_site_fract_z
Si Si1 0.660727 0.288938 0.588725
Si Si2 0.682477 0.807167 0.026975
Si Si3 0.090814 0.304599 0.115847
Si Si4 0.087817 0.337075 0.339698
Si Si5 0.086644 0.774136 0.289098
O O1 0.750695 0.310272 0.577355
O O2 0.627257 0.213078 0.482996
O O3 0.621443 0.486791 0.605937
O O4 0.637108 0.185040 0.690720
O O5 0.619294 0.861843 0.109444
O O6 0.643222 0.712521 0.931164
O O7 0.720538 0.000000 0.000000
O O8 0.108976 0.246028 0.231223
O O9 0.000000 0.304245 0.107042
O O10 0.089208 0.556237 0.317973
O O11 0.000000 0.290902 0.364817
O O12 0.000000 0.822702 0.267276
#
# Coordination Sequence:
#
# PCOD9417940 Si02
#       5
#     8   8   8   8   8
#     4  10  20  37  61  93 124 154 194 249 317 366
#     4  12  26  40  56  88 136 171 201 245 311 376
#     4   9  18  37  69  99 120 148 200 264 308 358
#     4   9  20  39  65  95 120 155 211 260 302 359
#     4  10  21  41  69  90 116 158 213 266 302 357
#
# _framework density 23.653725000000001
#
# number of rings (size 3 to 8) (size 9 to 14) (size 15 to 20)
#    0.000    2.000    0.000    5.400    5.600    4.000 
#    7.200    0.000    0.000    4.200    0.000    0.000 
#    0.000    0.000    0.000    0.000    0.000    0.000 
#
# Total GULP energy -223605.043596 kJ/mol
# GULP energy per Si atom -5590.126090 kJ/mol
# Density = 2.359989 g / cm^3
# Si number density = 23.653725 Si / 1000 Ang^3
#
#
#
# Elastic Constant Matrix: (Units=GPa)
#
#
# Indices 1 2 3 4 5 6 
#
# 1 133.2921 4.5321 88.1624 0.0000 0.0000 0.0000
# 2 4.5321 39.4877 -1.8488 0.0000 0.0000 0.0000
# 3 88.1624 -1.8488 166.2989 0.0000 0.0000 0.0000
# 4 0.0000 0.0000 0.0000 4.9292 0.0000 0.0000
# 5 0.0000 0.0000 0.0000 0.0000 25.7228 0.0000
# 6 0.0000 0.0000 0.0000 0.0000 0.0000 8.9158
#
#
#
# Elastic Compliance Matrix: (Units=1/GPa)
#
#
# Indices 1 2 3 4 5 6 
#
# 1 0.011657 -0.001628 -0.006198 0.000000 0.000000 0.000000
# 2 -0.001628 0.025565 0.001147 0.000000 0.000000 0.000000
# 3 -0.006198 0.001147 0.009312 0.000000 0.000000 0.000000
# 4 0.000000 0.000000 0.000000 0.202874 0.000000 0.000000
# 5 0.000000 0.000000 0.000000 0.000000 0.038876 0.000000
# 6 0.000000 0.000000 0.000000 0.000000 0.000000 0.112161
#
#
# Mechanical properties :
#
#
# Convention : Reuss Voigt Hill
#
# Bulk Modulus (GPa) = 30.14201 57.86335 44.00268
# Shear Modulus (GPa) = 11.76853 24.46242 18.11547
#
# Velocity S-wave (km/s) = 2.23297 3.21937 2.77042
# Velocity P-wave (km/s) = 4.40669 6.19152 5.37372
#
# Compressibility (1/GPa) = 0.03317629
#
# Stress axis : x y z
#
# Youngs Moduli (GPa) = 85.78345 39.11614 107.38915
#
# Poissons Ratio (x) = 0.06369 0.66561
# Poissons Ratio (y) = 0.13967 -0.12321
# Poissons Ratio (z) = 0.53170 -0.04488
#
# Static dielectric constant tensor:
#      x y z
#    x 1.808560 0.000000 0.000000 
#    y 0.000000 1.849550 0.000000 
#    z 0.000000 0.000000 1.924670 
# 
# From -- ./inp_files/16675.got.cif
#   From: 2010.05.17/outbox.cif.g08.bks.cpg/sg53_9_cif.got.tgz:16675.got - 2010.06.03 12:45:16.
