data_PCOD9417044
_publ_section_title
;
Structure prediction by ZEFSAII (Michael W. Deem and Ramdas Pophale) SiO2 
 PCOD9417044
Probable space group: P M N A
;
_chemical_formula_sum "Si O2"
_cell_formula_units_Z 64
_cell_length_a 8.966940
_cell_length_b 23.148889
_cell_length_c 15.998109
_cell_angle_alpha 90.000000
_cell_angle_beta 90.000000
_cell_angle_gamma 90.000000
_cell_volume 3320.802656
_symmetry_space_group_name_H-M "P M N A"
_symmetry_group_IT_number 53
_symmetry_cell_setting 'orthorhombic'
loop_
_space_group_symop_operation_xyz
x,y,z
1/2-x,-y,1/2+z
x,-y,-z
1/2-x,y,1/2-z
-x,-y,-z
1/2+x,y,1/2-z
-x,y,z
1/2+x,-y,1/2+z
loop_
_atom_site_type_symbol
_atom_site_label
_atom_site_fract_x
_atom_site_fract_y
_atom_site_fract_z
Si Si1 0.823383 0.126355 0.482481
Si Si2 0.323035 0.261026 0.007301
Si Si3 0.170747 0.365558 0.091444
Si Si4 0.677948 0.694930 0.337059
Si Si5 0.178949 0.947947 0.837011
Si Si6 0.174651 0.472593 0.333526
Si Si7 0.668644 0.427506 0.588784
Si Si8 0.179270 0.075449 0.664088
O O1 0.798753 0.194391 0.470318
O O2 0.729797 0.089576 0.416268
O O3 0.789577 0.110285 0.579017
O O4 0.000000 0.113785 0.469766
O O5 0.500000 0.271933 0.002164
O O6 0.249640 0.304934 0.073169
O O7 0.250589 0.274124 0.916955
O O8 0.258007 0.409665 0.149640
O O9 0.000000 0.357824 0.118450
O O10 0.169682 0.398506 0.002099
O O11 0.750000 0.713610 0.250000
O O12 0.500000 0.703742 0.337601
O O13 0.704303 0.626191 0.350620
O O14 0.250000 0.925060 0.750000
O O15 0.000000 0.950758 0.830536
O O16 0.248104 0.012103 0.846833
O O17 0.250000 0.496248 0.250000
O O18 0.221281 0.519295 0.402637
O O19 0.000000 0.468972 0.325142
O O20 0.500000 0.448675 0.605433
O O21 0.250000 0.099885 0.750000
O O22 0.000000 0.070682 0.673769
#
# Coordination Sequence:
#
# PCOD9417044 Si02
#       8
#     8   8   8   8   8   8   8   8
#     4  10  22  39  59  85 118 155 193 238 287 334
#     4  10  21  38  58  80 108 144 188 231 274 327
#     4  10  21  39  59  78 105 140 177 219 269 322
#     4  10  20  34  53  78 110 147 185 227 277 330
#     4  11  22  37  60  88 118 152 192 239 287 339
#     4  12  24  36  54  80 108 137 172 218 270 325
#     4   9  19  35  55  79 107 138 172 215 267 326
#     4  10  20  36  58  86 123 160 192 231 280 335
#
# _framework density 19.272449000000002
#
# number of rings (size 3 to 8) (size 9 to 14) (size 15 to 20)
#    0.000    1.750    0.000    6.375    0.000    9.500 
#    0.000    1.875    0.000    3.000    0.000    0.000 
#    0.000    0.000    0.000    0.000    0.000    0.000 
#
# Total GULP energy -357520.293190 kJ/mol
# GULP energy per Si atom -5586.254581 kJ/mol
# Density = 1.922858 g / cm^3
# Si number density = 19.272449 Si / 1000 Ang^3
#
#
#
# Elastic Constant Matrix: (Units=GPa)
#
#
# Indices 1 2 3 4 5 6 
#
# 1 113.9846 50.2095 30.3383 0.0000 0.0000 0.0000
# 2 50.2095 61.3421 17.5300 0.0000 0.0000 0.0000
# 3 30.3383 17.5300 53.5784 0.0000 0.0000 0.0000
# 4 0.0000 0.0000 0.0000 15.4646 0.0000 0.0000
# 5 0.0000 0.0000 0.0000 0.0000 31.7878 0.0000
# 6 0.0000 0.0000 0.0000 0.0000 0.0000 19.3106
#
#
#
# Elastic Compliance Matrix: (Units=1/GPa)
#
#
# Indices 1 2 3 4 5 6 
#
# 1 0.014788 -0.010713 -0.004868 0.000000 0.000000 0.000000
# 2 -0.010713 0.025744 -0.002357 0.000000 0.000000 0.000000
# 3 -0.004868 -0.002357 0.022192 0.000000 0.000000 0.000000
# 4 0.000000 0.000000 0.000000 0.064664 0.000000 0.000000
# 5 0.000000 0.000000 0.000000 0.000000 0.031459 0.000000
# 6 0.000000 0.000000 0.000000 0.000000 0.000000 0.051785
#
#
# Mechanical properties :
#
#
# Convention : Reuss Voigt Hill
#
# Bulk Modulus (GPa) = 37.24725 47.22894 42.23810
# Shear Modulus (GPa) = 19.57275 22.03443 20.80359
#
# Velocity S-wave (km/s) = 3.19028 3.38496 3.28906
# Velocity P-wave (km/s) = 5.73926 6.31161 6.03223
#
# Compressibility (1/GPa) = 0.02684762
#
# Stress axis : x y z
#
# Youngs Moduli (GPa) = 67.62318 38.84369 45.06101
#
# Poissons Ratio (x) = 0.41613 0.21938
# Poissons Ratio (y) = 0.72443 0.10621
# Poissons Ratio (z) = 0.32922 0.09156
#
# Static dielectric constant tensor:
#      x y z
#    x 1.652590 0.000000 0.000000 
#    y 0.000000 1.658280 0.000000 
#    z 0.000000 0.000000 1.620410 
# 
# From -- ./inp_files/20969.got.cif
#   From: 2010.05.17/outbox.cif.g08.bks.cpg/sg53_11_cif.got.tgz:20969.got - 2010.06.03 12:45:16.
