data_PCOD9417814
_publ_section_title
;
Structure prediction by ZEFSAII (Michael W. Deem and Ramdas Pophale) SiO2 
 PCOD9417814
Probable space group: P M N A
;
_chemical_formula_sum "Si O2"
_cell_formula_units_Z 52
_cell_length_a 26.106394
_cell_length_b 5.184914
_cell_length_c 20.493180
_cell_angle_alpha 90.000000
_cell_angle_beta 90.000000
_cell_angle_gamma 90.000000
_cell_volume 2773.944708
_symmetry_space_group_name_H-M "P M N A"
_symmetry_group_IT_number 53
_symmetry_cell_setting 'orthorhombic'
loop_
_space_group_symop_operation_xyz
x,y,z
1/2-x,-y,1/2+z
x,-y,-z
1/2-x,y,1/2-z
-x,-y,-z
1/2+x,y,1/2-z
-x,y,z
1/2+x,-y,1/2+z
loop_
_atom_site_type_symbol
_atom_site_label
_atom_site_fract_x
_atom_site_fract_y
_atom_site_fract_z
Si Si1 0.559769 0.629878 0.320590
Si Si2 0.184521 0.000000 0.500000
Si Si3 0.654557 0.098697 0.142916
Si Si4 0.278687 0.306658 0.557319
Si Si5 0.220777 0.406832 0.681618
Si Si6 0.889338 0.763455 0.042114
Si Si7 0.060283 0.143325 0.265884
O O1 0.500000 0.581519 0.334179
O O2 0.585938 0.695471 0.388726
O O3 0.578235 0.378779 0.280740
O O4 0.564083 0.878508 0.274315
O O5 0.154592 0.896203 0.563354
O O6 0.225127 0.808005 0.466949
O O7 0.686705 0.340314 0.170230
O O8 0.597968 0.117667 0.172798
O O9 0.684603 0.842428 0.168101
O O10 0.291284 0.500000 0.500000
O O11 0.265421 0.419466 0.627135
O O12 0.330895 0.146140 0.560426
O O13 0.250000 0.392541 0.750000
O O14 0.893007 0.500000 0.000000
O O15 0.912028 0.000000 0.000000
O O16 0.000000 0.185824 0.282537
#
# Coordination Sequence:
#
# PCOD9417814 Si02
#       7
#     8   4   8   8   8   8   8
#     4  10  22  41  62  85 118 156 196 252 307 353
#     4  10  20  40  57  84 117 162 194 230 300 360
#     4  11  23  39  64  86 120 160 197 245 302 358
#     4  10  20  37  55  78 122 160 194 232 295 358
#     4  11  24  38  57  92 120 155 202 252 293 354
#     4  11  23  36  57  85 114 159 203 245 287 348
#     4  10  22  41  63  89 118 153 198 248 309 359
#
# _framework density 18.745868000000002
#
# number of rings (size 3 to 8) (size 9 to 14) (size 15 to 20)
#    0.000    1.538    2.308    2.308    4.308    0.615 
#    0.000    0.385    0.000    0.000    0.000    6.462 
#    0.000    0.000    0.000    0.000    0.000    0.000 
#
# Total GULP energy -289769.976765 kJ/mol
# GULP energy per Si atom -5572.499553 kJ/mol
# Density = 1.870320 g / cm^3
# Si number density = 18.745868 Si / 1000 Ang^3
#
#
#
# Elastic Constant Matrix: (Units=GPa)
#
#
# Indices 1 2 3 4 5 6 
#
# 1 71.5302 20.2443 71.0159 0.0000 0.0000 0.0000
# 2 20.2443 101.8089 24.5164 0.0000 0.0000 0.0000
# 3 71.0159 24.5164 160.5286 0.0000 0.0000 0.0000
# 4 0.0000 0.0000 0.0000 21.1340 0.0000 0.0000
# 5 0.0000 0.0000 0.0000 0.0000 23.0463 0.0000
# 6 0.0000 0.0000 0.0000 0.0000 0.0000 4.0460
#
#
#
# Elastic Compliance Matrix: (Units=1/GPa)
#
#
# Indices 1 2 3 4 5 6 
#
# 1 0.025502 -0.002444 -0.010908 0.000000 0.000000 0.000000
# 2 -0.002444 0.010432 -0.000512 0.000000 0.000000 0.000000
# 3 -0.010908 -0.000512 0.011133 0.000000 0.000000 0.000000
# 4 0.000000 0.000000 0.000000 0.047317 0.000000 0.000000
# 5 0.000000 0.000000 0.000000 0.000000 0.043391 0.000000
# 6 0.000000 0.000000 0.000000 0.000000 0.000000 0.247159
#
#
# Mechanical properties :
#
#
# Convention : Reuss Voigt Hill
#
# Bulk Modulus (GPa) = 51.71189 62.82453 57.26821
# Shear Modulus (GPa) = 11.93007 24.18467 18.05737
#
# Velocity S-wave (km/s) = 2.52545 3.59574 3.10703
# Velocity P-wave (km/s) = 6.01245 7.12921 6.59451
#
# Compressibility (1/GPa) = 0.01933791
#
# Stress axis : x y z
#
# Youngs Moduli (GPa) = 39.21283 95.86261 89.82017
#
# Poissons Ratio (x) = 0.23430 0.97980
# Poissons Ratio (y) = 0.09584 0.04598
# Poissons Ratio (z) = 0.42775 0.04907
#
# Static dielectric constant tensor:
#      x y z
#    x 1.704390 0.000000 0.000000 
#    y 0.000000 1.667970 0.000000 
#    z 0.000000 0.000000 1.636720 
# 
# From -- ./inp_files/29683.got.cif
#   From: 2010.05.17/outbox.cif.g08.bks.cpg/sg53_15_cif.got.tgz:29683.got - 2010.06.03 12:45:16.
