data_PCOD9417699
_publ_section_title
;
Structure prediction by ZEFSAII (Michael W. Deem and Ramdas Pophale) SiO2 
 PCOD9417699
Probable space group: P M N A
;
_chemical_formula_sum "Si O2"
_cell_formula_units_Z 52
_cell_length_a 13.126831
_cell_length_b 8.994714
_cell_length_c 20.798147
_cell_angle_alpha 90.000000
_cell_angle_beta 90.000000
_cell_angle_gamma 90.000000
_cell_volume 2455.680696
_symmetry_space_group_name_H-M "P M N A"
_symmetry_group_IT_number 53
_symmetry_cell_setting 'orthorhombic'
loop_
_space_group_symop_operation_xyz
x,y,z
1/2-x,-y,1/2+z
x,-y,-z
1/2-x,y,1/2-z
-x,-y,-z
1/2+x,y,1/2-z
-x,y,z
1/2+x,-y,1/2+z
loop_
_atom_site_type_symbol
_atom_site_label
_atom_site_fract_x
_atom_site_fract_y
_atom_site_fract_z
Si Si1 0.882754 0.657490 0.636620
Si Si2 0.339230 0.284784 0.673764
Si Si3 0.250000 0.210012 0.250000
Si Si4 0.885368 0.649583 0.040022
Si Si5 0.386223 0.047551 0.350827
Si Si6 0.887540 0.670523 0.317648
Si Si7 0.265618 0.144839 0.035687
O O1 0.809675 0.699019 0.695851
O O2 0.882788 0.477938 0.639066
O O3 0.840691 0.742994 0.573769
O O4 0.000000 0.703406 0.647859
O O5 0.366546 0.388282 0.614314
O O6 0.391367 0.128186 0.660551
O O7 0.218504 0.246426 0.670746
O O8 0.374975 0.356284 0.740675
O O9 0.333017 0.113496 0.287735
O O10 0.000000 0.711063 0.032315
O O11 0.877718 0.500000 0.000000
O O12 0.800594 0.763093 0.015567
O O13 0.500000 0.107427 0.360541
O O14 0.314346 0.086180 0.410828
O O15 0.000000 0.739339 0.327530
O O16 0.311805 0.000000 0.000000
#
# Coordination Sequence:
#
# PCOD9417699 Si02
#       7
#     8   8   4   8   8   8   8
#     4  10  22  40  62  89 122 161 206 257 310 370
#     4  11  21  36  58  86 117 155 201 251 301 368
#     4  10  20  36  58  88 118 152 198 252 308 370
#     4  11  23  38  60  91 125 162 210 262 308 363
#     4  11  22  36  59  89 123 162 203 251 308 366
#     4  10  21  38  60  85 118 157 198 251 315 371
#     4  11  23  41  63  88 124 172 210 256 307 369
#
# _framework density 21.17539
#
# number of rings (size 3 to 8) (size 9 to 14) (size 15 to 20)
#    0.000    1.385    1.538    5.077    0.000    2.154 
#    0.000    6.923    0.000    2.769    0.000    0.000 
#    0.000    0.000    0.000    0.000    0.000    0.000 
#
# Total GULP energy -290292.382797 kJ/mol
# GULP energy per Si atom -5582.545823 kJ/mol
# Density = 2.112719 g / cm^3
# Si number density = 21.175390 Si / 1000 Ang^3
#
#
#
# Elastic Constant Matrix: (Units=GPa)
#
#
# Indices 1 2 3 4 5 6 
#
# 1 126.5317 8.1165 -3.7450 0.0000 0.0000 0.0000
# 2 8.1165 28.5227 1.9917 0.0000 0.0000 0.0000
# 3 -3.7450 1.9917 59.1846 0.0000 0.0000 0.0000
# 4 0.0000 0.0000 0.0000 28.5676 0.0000 0.0000
# 5 0.0000 0.0000 0.0000 0.0000 28.0300 0.0000
# 6 0.0000 0.0000 0.0000 0.0000 0.0000 18.1814
#
#
#
# Elastic Compliance Matrix: (Units=1/GPa)
#
#
# Indices 1 2 3 4 5 6 
#
# 1 0.008071 -0.002338 0.000589 0.000000 0.000000 0.000000
# 2 -0.002338 0.035820 -0.001353 0.000000 0.000000 0.000000
# 3 0.000589 -0.001353 0.016979 0.000000 0.000000 0.000000
# 4 0.000000 0.000000 0.000000 0.035005 0.000000 0.000000
# 5 0.000000 0.000000 0.000000 0.000000 0.035676 0.000000
# 6 0.000000 0.000000 0.000000 0.000000 0.000000 0.055001
#
#
# Mechanical properties :
#
#
# Convention : Reuss Voigt Hill
#
# Bulk Modulus (GPa) = 18.29301 25.21840 21.75570
# Shear Modulus (GPa) = 23.69931 28.81419 26.25675
#
# Velocity S-wave (km/s) = 3.34906 3.69282 3.52513
# Velocity P-wave (km/s) = 4.85927 5.48796 5.18316
#
# Compressibility (1/GPa) = 0.05466569
#
# Stress axis : x y z
#
# Youngs Moduli (GPa) = 123.90716 27.91773 58.89588
#
# Poissons Ratio (x) = 0.06526 -0.03471
# Poissons Ratio (y) = 0.28966 0.07971
# Poissons Ratio (z) = -0.07302 0.03778
#
# Static dielectric constant tensor:
#      x y z
#    x 1.784520 0.000000 0.000000 
#    y 0.000000 1.769690 0.000000 
#    z 0.000000 0.000000 1.767580 
# 
# From -- ./inp_files/32348.got.cif
#   From: 2010.05.17/outbox.cif.g08.bks.cpg/sg53_17_cif.got.tgz:32348.got - 2010.06.03 12:45:16.
