data_PCOD9417971
_publ_section_title
;
Structure prediction by ZEFSAII (Michael W. Deem and Ramdas Pophale) SiO2 
 PCOD9417971
Probable space group: P M N A
;
_chemical_formula_sum "Si O2"
_cell_formula_units_Z 64
_cell_length_a 8.669508
_cell_length_b 24.713245
_cell_length_c 15.496778
_cell_angle_alpha 90.000000
_cell_angle_beta 90.000000
_cell_angle_gamma 90.000000
_cell_volume 3320.210647
_symmetry_space_group_name_H-M "P M N A"
_symmetry_group_IT_number 53
_symmetry_cell_setting 'orthorhombic'
loop_
_space_group_symop_operation_xyz
x,y,z
1/2-x,-y,1/2+z
x,-y,-z
1/2-x,y,1/2-z
-x,-y,-z
1/2+x,y,1/2-z
-x,y,z
1/2+x,-y,1/2+z
loop_
_atom_site_type_symbol
_atom_site_label
_atom_site_fract_x
_atom_site_fract_y
_atom_site_fract_z
Si Si1 0.685492 0.122947 0.153105
Si Si2 0.185813 0.807918 0.488570
Si Si3 0.684290 0.110089 0.652108
Si Si4 0.316389 0.610233 0.339686
Si Si5 0.685562 0.312320 0.503610
Si Si6 0.314615 0.377046 0.157354
Si Si7 0.314783 0.997674 0.847392
Si Si8 0.684908 0.497488 0.101538
O O1 0.750000 0.131056 0.250000
O O2 0.500000 0.124719 0.160375
O O3 0.725414 0.062240 0.119535
O O4 0.734122 0.165718 0.080588
O O5 0.253430 0.843475 0.410626
O O6 0.245481 0.746927 0.483493
O O7 0.000000 0.809462 0.484487
O O8 0.750000 0.115763 0.750000
O O9 0.500000 0.110686 0.656600
O O10 0.741502 0.051999 0.615013
O O11 0.250000 0.631175 0.250000
O O12 0.500000 0.610600 0.336392
O O13 0.265583 0.647460 0.419250
O O14 0.260512 0.548947 0.353870
O O15 0.500000 0.309624 0.502350
O O16 0.746913 0.338725 0.415958
O O17 0.250000 0.361246 0.250000
O O18 0.500000 0.374813 0.155690
O O19 0.266871 0.439275 0.137962
O O20 0.250000 0.996586 0.750000
O O21 0.500000 0.003403 0.847983
O O22 0.500000 0.501943 0.110692
O O23 0.722361 0.500000 0.000000
#
# Coordination Sequence:
#
# PCOD9417971 Si02
#       8
#     8   8   8   8   8   8   8   8
#     4   9  20  37  60  88 119 155 195 240 296 354
#     4  11  24  42  62  86 117 158 203 250 301 355
#     4  11  22  38  60  88 120 156 197 244 298 357
#     4  11  24  40  63  91 122 158 198 243 297 357
#     4  11  25  44  62  86 118 156 204 255 301 353
#     4  11  23  40  64  92 123 160 200 245 298 356
#     4   9  16  31  55  85 119 153 190 236 291 355
#     4  10  20  37  63  94 127 160 195 239 295 355
#
# _framework density 19.275884999999999
#
# number of rings (size 3 to 8) (size 9 to 14) (size 15 to 20)
#    0.000    1.625    1.250    4.125    0.000    6.750 
#    0.000    5.000    0.000    0.000    0.000    0.000 
#    0.000    0.000    0.000    0.000    0.000    0.000 
#
# Total GULP energy -357597.674315 kJ/mol
# GULP energy per Si atom -5587.463661 kJ/mol
# Density = 1.923201 g / cm^3
# Si number density = 19.275885 Si / 1000 Ang^3
#
#
#
# Elastic Constant Matrix: (Units=GPa)
#
#
# Indices 1 2 3 4 5 6 
#
# 1 57.6674 15.5013 16.1108 0.0000 0.0000 0.0000
# 2 15.5013 61.9366 -3.8822 0.0000 0.0000 0.0000
# 3 16.1108 -3.8822 72.5581 0.0000 0.0000 0.0000
# 4 0.0000 0.0000 0.0000 29.4167 0.0000 0.0000
# 5 0.0000 0.0000 0.0000 0.0000 26.1942 0.0000
# 6 0.0000 0.0000 0.0000 0.0000 0.0000 29.7983
#
#
#
# Elastic Compliance Matrix: (Units=1/GPa)
#
#
# Indices 1 2 3 4 5 6 
#
# 1 0.020099 -0.005328 -0.004748 0.000000 0.000000 0.000000
# 2 -0.005328 0.017612 0.002125 0.000000 0.000000 0.000000
# 3 -0.004748 0.002125 0.014950 0.000000 0.000000 0.000000
# 4 0.000000 0.000000 0.000000 0.033994 0.000000 0.000000
# 5 0.000000 0.000000 0.000000 0.000000 0.038176 0.000000
# 6 0.000000 0.000000 0.000000 0.000000 0.000000 0.033559
#
#
# Mechanical properties :
#
#
# Convention : Reuss Voigt Hill
#
# Bulk Modulus (GPa) = 27.20312 27.51354 27.35833
# Shear Modulus (GPa) = 26.80300 28.04397 27.42348
#
# Velocity S-wave (km/s) = 3.73298 3.81842 3.77594
# Velocity P-wave (km/s) = 5.72043 5.80904 5.76491
#
# Compressibility (1/GPa) = 0.03676049
#
# Stress axis : x y z
#
# Youngs Moduli (GPa) = 49.75252 56.77871 66.88957
#
# Poissons Ratio (x) = 0.30252 0.31759
# Poissons Ratio (y) = 0.26508 -0.14217
# Poissons Ratio (z) = 0.23622 -0.12068
#
# Static dielectric constant tensor:
#      x y z
#    x 1.645690 0.000000 0.000000 
#    y 0.000000 1.668210 0.000000 
#    z 0.000000 0.000000 1.676570 
# 
# From -- ./inp_files/20830.got.cif
#   From: 2010.05.17/outbox.cif.g08.bks.cpg/sg53_11_cif.got.tgz:20830.got - 2010.06.03 12:45:16.
