data_PCOD9417112
_publ_section_title
;
Structure prediction by ZEFSAII (Michael W. Deem and Ramdas Pophale) SiO2 
 PCOD9417112
Probable space group: P M N A
;
_chemical_formula_sum "Si O2"
_cell_formula_units_Z 48
_cell_length_a 9.180819
_cell_length_b 9.942311
_cell_length_c 23.929627
_cell_angle_alpha 90.000000
_cell_angle_beta 90.000000
_cell_angle_gamma 90.000000
_cell_volume 2184.261840
_symmetry_space_group_name_H-M "P M N A"
_symmetry_group_IT_number 53
_symmetry_cell_setting 'orthorhombic'
loop_
_space_group_symop_operation_xyz
x,y,z
1/2-x,-y,1/2+z
x,-y,-z
1/2-x,y,1/2-z
-x,-y,-z
1/2+x,y,1/2-z
-x,y,z
1/2+x,-y,1/2+z
loop_
_atom_site_type_symbol
_atom_site_label
_atom_site_fract_x
_atom_site_fract_y
_atom_site_fract_z
Si Si1 0.837367 0.991541 0.923442
Si Si2 0.832791 0.886542 0.801621
Si Si3 0.830346 0.670563 0.306724
Si Si4 0.669919 0.371922 0.151319
Si Si5 0.172868 0.749490 0.431278
Si Si6 0.330467 0.679479 0.539306
O O1 0.828851 0.975820 0.856803
O O2 0.825329 0.839888 0.945949
O O3 0.000000 0.043784 0.937959
O O4 0.715109 0.095043 0.941991
O O5 0.750000 0.950611 0.750000
O O6 0.752212 0.748142 0.817443
O O7 0.000000 0.858271 0.787412
O O8 0.750000 0.711001 0.250000
O O9 0.820907 0.509088 0.314135
O O10 0.777751 0.721657 0.367540
O O11 0.000000 0.709182 0.302022
O O12 0.500000 0.337600 0.143605
O O13 0.744030 0.387580 0.090512
O O14 0.255771 0.665690 0.479061
O O15 0.000000 0.725589 0.434726
O O16 0.500000 0.640227 0.539074
#
# Coordination Sequence:
#
# PCOD9417112 Si02
#       6
#     8   8   8   8   8   8
#     4   9  20  37  55  79 113 149 185 230 281 332
#     4  10  20  34  54  82 114 146 186 236 286 336
#     4  10  24  42  59  82 113 150 189 231 276 326
#     4  10  20  37  60  84 112 145 184 232 284 333
#     4  11  23  38  57  83 114 149 189 230 276 331
#     4  10  21  38  60  87 116 145 182 229 282 336
#
# _framework density 21.975389
#
# number of rings (size 3 to 8) (size 9 to 14) (size 15 to 20)
#    0.000    2.000    0.000    4.000    0.000   11.333 
#    0.000    6.667    0.000    0.000    0.000    0.000 
#    0.000    0.000    0.000    0.000    0.000    0.000 
#
# Total GULP energy -268354.325281 kJ/mol
# GULP energy per Si atom -5590.715110 kJ/mol
# Density = 2.192537 g / cm^3
# Si number density = 21.975389 Si / 1000 Ang^3
#
#
#
# Elastic Constant Matrix: (Units=GPa)
#
#
# Indices 1 2 3 4 5 6 
#
# 1 121.3869 12.3011 70.7654 0.0000 0.0000 0.0000
# 2 12.3011 27.4869 -1.1496 0.0000 0.0000 0.0000
# 3 70.7654 -1.1496 184.6377 0.0000 0.0000 0.0000
# 4 0.0000 0.0000 0.0000 10.8186 0.0000 0.0000
# 5 0.0000 0.0000 0.0000 0.0000 0.5316 0.0000
# 6 0.0000 0.0000 0.0000 0.0000 0.0000 1.1706
#
#
#
# Elastic Compliance Matrix: (Units=1/GPa)
#
#
# Indices 1 2 3 4 5 6 
#
# 1 0.011318 -0.005248 -0.004370 0.000000 0.000000 0.000000
# 2 -0.005248 0.038824 0.002253 0.000000 0.000000 0.000000
# 3 -0.004370 0.002253 0.007105 0.000000 0.000000 0.000000
# 4 0.000000 0.000000 0.000000 0.092434 0.000000 0.000000
# 5 0.000000 0.000000 0.000000 0.000000 1.881040 0.000000
# 6 0.000000 0.000000 0.000000 0.000000 0.000000 0.854295
#
#
# Mechanical properties :
#
#
# Convention : Reuss Voigt Hill
#
# Bulk Modulus (GPa) = 23.52040 55.26059 39.39049
# Shear Modulus (GPa) = 1.71590 19.27712 10.49651
#
# Velocity S-wave (km/s) = 0.88460 2.96499 2.18789
# Velocity P-wave (km/s) = 3.43069 6.07641 4.93419
#
# Compressibility (1/GPa) = 0.04251628
#
# Stress axis : x y z
#
# Youngs Moduli (GPa) = 88.35682 25.75744 140.74474
#
# Poissons Ratio (x) = 0.13517 0.61511
# Poissons Ratio (y) = 0.46368 -0.31710
# Poissons Ratio (z) = 0.38615 -0.05803
#
# Static dielectric constant tensor:
#      x y z
#    x 1.754570 0.000000 0.000000 
#    y 0.000000 1.818120 0.000000 
#    z 0.000000 0.000000 1.840690 
# 
# From -- ./inp_files/33889.got.cif
#   From: 2010.05.17/outbox.cif.g08.bks.cpg/sg53_17_cif.got.tgz:33889.got - 2010.06.03 12:45:16.
