data_PCOD9417915
_publ_section_title
;
Structure prediction by ZEFSAII (Michael W. Deem and Ramdas Pophale) SiO2 
 PCOD9417915
Probable space group: P M N A
;
_chemical_formula_sum "Si O2"
_cell_formula_units_Z 56
_cell_length_a 8.195359
_cell_length_b 21.927586
_cell_length_c 15.928660
_cell_angle_alpha 90.000000
_cell_angle_beta 90.000000
_cell_angle_gamma 90.000000
_cell_volume 2862.450914
_symmetry_space_group_name_H-M "P M N A"
_symmetry_group_IT_number 53
_symmetry_cell_setting 'orthorhombic'
loop_
_space_group_symop_operation_xyz
x,y,z
1/2-x,-y,1/2+z
x,-y,-z
1/2-x,y,1/2-z
-x,-y,-z
1/2+x,y,1/2-z
-x,y,z
1/2+x,-y,1/2+z
loop_
_atom_site_type_symbol
_atom_site_label
_atom_site_fract_x
_atom_site_fract_y
_atom_site_fract_z
Si Si1 0.804953 0.365614 0.157723
Si Si2 0.196796 0.073478 0.342939
Si Si3 0.303097 0.502549 0.597185
Si Si4 0.196896 0.290284 0.503296
Si Si5 0.196839 0.933459 0.343021
Si Si6 0.199983 0.150583 0.503068
Si Si7 0.305525 0.628033 0.158441
O O1 0.750000 0.346199 0.250000
O O2 0.744389 0.434647 0.138915
O O3 0.744700 0.322362 0.083390
O O4 0.000000 0.366705 0.155206
O O5 0.250000 0.092909 0.250000
O O6 0.253162 0.117134 0.417660
O O7 0.000000 0.072687 0.344988
O O8 0.253307 0.003450 0.356145
O O9 0.248410 0.500000 0.500000
O O10 0.500000 0.503324 0.597365
O O11 0.248074 0.441554 0.643318
O O12 0.254181 0.220511 0.507145
O O13 0.258278 0.330494 0.581832
O O14 0.000000 0.289438 0.507734
O O15 0.250000 0.914201 0.250000
O O16 0.253337 0.888820 0.416603
O O17 0.000000 0.934308 0.345396
O O18 0.000000 0.150517 0.503121
O O19 0.250000 0.649117 0.250000
O O20 0.500000 0.629808 0.156029
#
# Coordination Sequence:
#
# PCOD9417915 Si02
#       7
#     8   8   8   8   8   8   8
#     4  11  23  39  60  83 110 142 178 222 271 324
#     4   9  17  31  53  79 106 137 174 219 266 314
#     4  10  20  37  61  86 111 138 173 222 276 324
#     4  10  22  39  56  78 108 145 186 226 267 317
#     4   9  17  31  53  80 107 137 175 218 266 314
#     4   9  18  34  55  76 104 142 182 218 259 316
#     4  11  23  37  57  82 110 144 182 224 272 325
#
# _framework density 19.563655000000001
#
# number of rings (size 3 to 8) (size 9 to 14) (size 15 to 20)
#    0.000    2.143    1.429    1.714    0.000    6.000 
#    0.000    3.571    0.000    3.429    0.000    0.000 
#    0.000    0.000    0.000    0.000    0.000    0.000 
#
# Total GULP energy -312745.965731 kJ/mol
# GULP energy per Si atom -5584.749388 kJ/mol
# Density = 1.951913 g / cm^3
# Si number density = 19.563655 Si / 1000 Ang^3
#
#
#
# Elastic Constant Matrix: (Units=GPa)
#
#
# Indices 1 2 3 4 5 6 
#
# 1 6.9406 7.3815 4.8215 0.0000 0.0000 0.0000
# 2 7.3815 122.6390 85.6184 0.0000 0.0000 0.0000
# 3 4.8215 85.6184 167.5913 0.0000 0.0000 0.0000
# 4 0.0000 0.0000 0.0000 90.2987 0.0000 0.0000
# 5 0.0000 0.0000 0.0000 0.0000 29.2130 0.0000
# 6 0.0000 0.0000 0.0000 0.0000 0.0000 9.2682
#
#
#
# Elastic Compliance Matrix: (Units=1/GPa)
#
#
# Indices 1 2 3 4 5 6 
#
# 1 0.153958 -0.009597 0.000474 0.000000 0.000000 0.000000
# 2 -0.009597 0.013273 -0.006505 0.000000 0.000000 0.000000
# 3 0.000474 -0.006505 0.009276 0.000000 0.000000 0.000000
# 4 0.000000 0.000000 0.000000 0.011074 0.000000 0.000000
# 5 0.000000 0.000000 0.000000 0.000000 0.034231 0.000000
# 6 0.000000 0.000000 0.000000 0.000000 0.000000 0.107895
#
#
# Mechanical properties :
#
#
# Convention : Reuss Voigt Hill
#
# Bulk Modulus (GPa) = 6.88464 54.75709 30.82086
# Shear Modulus (GPa) = 12.21354 39.04594 25.62974
#
# Velocity S-wave (km/s) = 2.50131 4.47233 3.62341
# Velocity P-wave (km/s) = 3.44511 7.39722 5.77008
#
# Compressibility (1/GPa) = 0.14525088
#
# Stress axis : x y z
#
# Youngs Moduli (GPa) = 6.49527 75.34226 107.80122
#
# Poissons Ratio (x) = 0.72308 -0.05107
# Poissons Ratio (y) = 0.06234 0.70121
# Poissons Ratio (z) = -0.00308 0.49007
#
# Static dielectric constant tensor:
#      x y z
#    x 1.686000 0.000000 0.000000 
#    y 0.000000 1.671570 0.000000 
#    z 0.000000 0.000000 1.669140 
# 
# From -- ./inp_files/20444.got.cif
#   From: 2010.05.17/outbox.cif.g08.bks.cpg/sg53_11_cif.got.tgz:20444.got - 2010.06.03 12:45:16.
