data_PCOD9417136
_publ_section_title
;
Structure prediction by ZEFSAII (Michael W. Deem and Ramdas Pophale) SiO2 
 PCOD9417136
Probable space group: P M N A
;
_chemical_formula_sum "Si O2"
_cell_formula_units_Z 48
_cell_length_a 8.957379
_cell_length_b 17.846995
_cell_length_c 14.816436
_cell_angle_alpha 90.000000
_cell_angle_beta 90.000000
_cell_angle_gamma 90.000000
_cell_volume 2368.589510
_symmetry_space_group_name_H-M "P M N A"
_symmetry_group_IT_number 53
_symmetry_cell_setting 'orthorhombic'
loop_
_space_group_symop_operation_xyz
x,y,z
1/2-x,-y,1/2+z
x,-y,-z
1/2-x,y,1/2-z
-x,-y,-z
1/2+x,y,1/2-z
-x,y,z
1/2+x,-y,1/2+z
loop_
_atom_site_type_symbol
_atom_site_label
_atom_site_fract_x
_atom_site_fract_y
_atom_site_fract_z
Si Si1 0.321350 0.825117 0.544086
Si Si2 0.674729 0.628336 0.345841
Si Si3 0.830076 0.026764 0.395683
Si Si4 0.674781 0.448969 0.346334
Si Si5 0.822382 0.328334 0.471679
Si Si6 0.322583 0.876328 0.340018
O O1 0.500000 0.823943 0.552896
O O2 0.252085 0.893662 0.600450
O O3 0.248877 0.746429 0.570352
O O4 0.286122 0.839640 0.437269
O O5 0.750000 0.644097 0.250000
O O6 0.500000 0.649737 0.346816
O O7 0.683983 0.538363 0.361113
O O8 0.763059 0.666658 0.426336
O O9 0.000000 0.032046 0.361376
O O10 0.837684 0.000000 0.500000
O O11 0.738292 0.961223 0.347929
O O12 0.750000 0.433414 0.250000
O O13 0.500000 0.428688 0.346246
O O14 0.760359 0.401114 0.420576
O O15 0.000000 0.325696 0.468518
O O16 0.250000 0.841710 0.250000
O O17 0.500000 0.875712 0.330259
#
# Coordination Sequence:
#
# PCOD9417136 Si02
#       6
#     8   8   8   8   8   8
#     4  10  21  37  55  77 109 146 184 226 275 330
#     4  10  21  38  60  86 116 151 192 239 288 341
#     4   9  17  32  54  77 102 133 171 213 258 312
#     4  10  21  39  62  86 113 147 191 241 291 343
#     4  12  24  37  57  85 118 156 195 235 287 347
#     4  10  20  34  55  81 108 141 180 223 271 324
#
# _framework density 20.265225000000001
#
# number of rings (size 3 to 8) (size 9 to 14) (size 15 to 20)
#    0.000    1.833    0.000    4.500    0.000    8.667 
#    0.000    2.500    0.000    0.000    0.000    0.000 
#    0.000    0.000    0.000    0.000    0.000    0.000 
#
# Total GULP energy -268318.504394 kJ/mol
# GULP energy per Si atom -5589.968842 kJ/mol
# Density = 2.021910 g / cm^3
# Si number density = 20.265225 Si / 1000 Ang^3
#
#
#
# Elastic Constant Matrix: (Units=GPa)
#
#
# Indices 1 2 3 4 5 6 
#
# 1 101.7545 32.3957 6.6917 0.0000 0.0000 0.0000
# 2 32.3957 48.8528 10.4328 0.0000 0.0000 0.0000
# 3 6.6917 10.4328 26.0630 0.0000 0.0000 0.0000
# 4 0.0000 0.0000 0.0000 -10.9958 0.0000 0.0000
# 5 0.0000 0.0000 0.0000 0.0000 24.6606 0.0000
# 6 0.0000 0.0000 0.0000 0.0000 0.0000 2323.2626
#
#
#
# Elastic Compliance Matrix: (Units=1/GPa)
#
#
# Indices 1 2 3 4 5 6 
#
# 1 0.012458 -0.008287 0.000118 0.000000 0.000000 0.000000
# 2 -0.008287 0.027895 -0.009038 0.000000 0.000000 0.000000
# 3 0.000118 -0.009038 0.041956 0.000000 0.000000 0.000000
# 4 0.000000 0.000000 0.000000 -0.090944 0.000000 0.000000
# 5 0.000000 0.000000 0.000000 0.000000 0.040551 0.000000
# 6 0.000000 0.000000 0.000000 0.000000 0.000000 0.000430
#
#
# Mechanical properties :
#
#
# Convention : Reuss Voigt Hill
#
# Bulk Modulus (GPa) = 20.87864 30.63451 25.75658
# Shear Modulus (GPa) = 60.44140 475.86214 268.15177
#
# Velocity S-wave (km/s) = 5.46717 15.34037 11.51557
# Velocity P-wave (km/s) = 7.08366 18.13612 13.76766
#
# Compressibility (1/GPa) = 0.04789584
#
# Stress axis : x y z
#
# Youngs Moduli (GPa) = 80.26981 35.84883 23.83440
#
# Poissons Ratio (x) = 0.29706 -0.00282
# Poissons Ratio (y) = 0.66516 0.21543
# Poissons Ratio (z) = -0.00950 0.32402
#
# Static dielectric constant tensor:
#      x y z
#    x 1.671580 0.000000 0.000000 
#    y 0.000000 1.718730 0.000000 
#    z 0.000000 0.000000 1.772030 
# 
# From -- ./inp_files/20143.got.cif
#   From: 2010.05.17/outbox.cif.g08.bks.cpg/sg53_11_cif.got.tgz:20143.got - 2010.06.03 12:45:16.
