data_PCOD9417473
_publ_section_title
;
Structure prediction by ZEFSAII (Michael W. Deem and Ramdas Pophale) SiO2 
 PCOD9417473
Probable space group: P M N A
;
_chemical_formula_sum "Si O2"
_cell_formula_units_Z 36
_cell_length_a 26.241107
_cell_length_b 10.437659
_cell_length_c 6.617283
_cell_angle_alpha 90.000000
_cell_angle_beta 90.000000
_cell_angle_gamma 90.000000
_cell_volume 1812.445536
_symmetry_space_group_name_H-M "P M N A"
_symmetry_group_IT_number 53
_symmetry_cell_setting 'orthorhombic'
loop_
_space_group_symop_operation_xyz
x,y,z
1/2-x,-y,1/2+z
x,-y,-z
1/2-x,y,1/2-z
-x,-y,-z
1/2+x,y,1/2-z
-x,y,z
1/2+x,-y,1/2+z
loop_
_atom_site_type_symbol
_atom_site_label
_atom_site_fract_x
_atom_site_fract_y
_atom_site_fract_z
Si Si1 0.863530 0.147331 0.481626
Si Si2 0.307385 0.388422 0.168492
Si Si3 0.441908 0.299911 0.729458
Si Si4 0.119637 0.500000 0.000000
Si Si5 0.945795 0.877795 0.856977
O O1 0.821012 0.253706 0.438006
O O2 0.902563 0.208194 0.648667
O O3 0.899643 0.136485 0.289040
O O4 0.844734 0.000000 0.500000
O O5 0.250000 0.392306 0.250000
O O6 0.343745 0.409751 0.364125
O O7 0.314872 0.500000 0.000000
O O8 0.500000 0.309066 0.815198
O O9 0.414915 0.433024 0.672909
O O10 0.447413 0.239438 0.508355
O O11 0.000000 0.889940 0.745242
O O12 0.940931 0.000000 0.000000
#
# Coordination Sequence:
#
# PCOD9417473 Si02
#       5
#     8   8   8   4   8
#     4  12  24  41  66 102 138 172 219 276 333 398
#     4  12  26  47  72  96 122 173 229 282 338 396
#     4  11  23  38  63 100 141 180 217 263 324 398
#     4  12  23  44  68  94 132 172 233 276 326 394
#     4  10  20  35  58  91 134 183 218 250 312 394
#
# _framework density 19.862666000000001
#
# number of rings (size 3 to 8) (size 9 to 14) (size 15 to 20)
#    0.000    0.667    7.778    1.000    0.000    0.889 
#    0.000    5.556    0.000    0.000    0.000    0.000 
#    0.000    0.000    0.000    0.000    0.000    0.000 
#
# Total GULP energy -200657.409172 kJ/mol
# GULP energy per Si atom -5573.816921 kJ/mol
# Density = 1.981746 g / cm^3
# Si number density = 19.862666 Si / 1000 Ang^3
#
#
#
# Elastic Constant Matrix: (Units=GPa)
#
#
# Indices 1 2 3 4 5 6 
#
# 1 57.5384 43.8515 15.6515 0.0000 0.0000 0.0000
# 2 43.8515 120.3726 21.7403 0.0000 0.0000 0.0000
# 3 15.6515 21.7403 44.8116 0.0000 0.0000 0.0000
# 4 0.0000 0.0000 0.0000 29.2435 0.0000 0.0000
# 5 0.0000 0.0000 0.0000 0.0000 59.3354 0.0000
# 6 0.0000 0.0000 0.0000 0.0000 0.0000 24.6496
#
#
#
# Elastic Compliance Matrix: (Units=1/GPa)
#
#
# Indices 1 2 3 4 5 6 
#
# 1 0.024937 -0.008233 -0.004716 0.000000 0.000000 0.000000
# 2 -0.008233 0.011823 -0.002861 0.000000 0.000000 0.000000
# 3 -0.004716 -0.002861 0.025351 0.000000 0.000000 0.000000
# 4 0.000000 0.000000 0.000000 0.034196 0.000000 0.000000
# 5 0.000000 0.000000 0.000000 0.000000 0.016853 0.000000
# 6 0.000000 0.000000 0.000000 0.000000 0.000000 0.040569
#
#
# Mechanical properties :
#
#
# Convention : Reuss Voigt Hill
#
# Bulk Modulus (GPa) = 32.79476 42.80102 37.79789
# Shear Modulus (GPa) = 25.57408 32.07766 28.82587
#
# Velocity S-wave (km/s) = 3.59213 4.02303 3.81367
# Velocity P-wave (km/s) = 5.80957 6.57077 6.20186
#
# Compressibility (1/GPa) = 0.03049268
#
# Stress axis : x y z
#
# Youngs Moduli (GPa) = 40.10130 84.57831 39.44693
#
# Poissons Ratio (x) = 0.69631 0.18602
# Poissons Ratio (y) = 0.33014 0.11284
# Poissons Ratio (z) = 0.18910 0.24195
#
# Static dielectric constant tensor:
#      x y z
#    x 1.714560 0.000000 0.000000 
#    y 0.000000 1.819350 0.000000 
#    z 0.000000 0.000000 1.697340 
# 
# From -- ./inp_files/3493.got.cif
#   From: 2010.05.17/outbox.cif.g08.bks.cpg/sg53_2_cif.got.tgz:3493.got - 2010.06.03 12:45:16.
