data_PCOD9417289
_publ_section_title
;
Structure prediction by ZEFSAII (Michael W. Deem and Ramdas Pophale) SiO2 
 PCOD9417289
Probable space group: P M N A
;
_chemical_formula_sum "Si O2"
_cell_formula_units_Z 56
_cell_length_a 14.778876
_cell_length_b 17.825089
_cell_length_c 9.385511
_cell_angle_alpha 90.000000
_cell_angle_beta 90.000000
_cell_angle_gamma 90.000000
_cell_volume 2472.470026
_symmetry_space_group_name_H-M "P M N A"
_symmetry_group_IT_number 53
_symmetry_cell_setting 'orthorhombic'
loop_
_space_group_symop_operation_xyz
x,y,z
1/2-x,-y,1/2+z
x,-y,-z
1/2-x,y,1/2-z
-x,-y,-z
1/2+x,y,1/2-z
-x,y,z
1/2+x,-y,1/2+z
loop_
_atom_site_type_symbol
_atom_site_label
_atom_site_fract_x
_atom_site_fract_y
_atom_site_fract_z
Si Si1 0.110309 0.870453 0.169540
Si Si2 0.609213 0.318398 0.408804
Si Si3 0.110517 0.845242 0.844760
Si Si4 0.389128 0.016716 0.159273
Si Si5 0.900469 0.432135 0.596414
Si Si6 0.339730 0.479431 0.336091
Si Si7 0.889641 0.294130 0.760665
O O1 0.138787 0.946635 0.244018
O O2 0.137625 0.793252 0.248801
O O3 0.000000 0.869172 0.169662
O O4 0.137857 0.869195 0.004439
O O5 0.500000 0.320759 0.408182
O O6 0.638349 0.241313 0.333689
O O7 0.643922 0.391245 0.329078
O O8 0.635190 0.317357 0.576967
O O9 0.000000 0.845839 0.842622
O O10 0.140645 0.904565 0.726998
O O11 0.500000 0.018032 0.157964
O O12 0.358450 0.000000 0.000000
O O13 0.860882 0.500000 0.500000
O O14 0.909825 0.470658 0.750266
O O15 0.856465 0.352088 0.638583
O O16 0.000000 0.416783 0.532241
O O17 0.340330 0.500000 0.500000
O O18 0.250000 0.499300 0.250000
O O19 0.000000 0.297184 0.752787
#
# Coordination Sequence:
#
# PCOD9417289 Si02
#       7
#     8   8   8   8   8   8   8
#     4   8  13  22  38  59  87 127 166 198 237 291
#     4   9  17  32  55  79  99 130 177 220 258 306
#     4   8  14  25  42  64  91 125 169 208 239 296
#     4   9  15  22  33  57  97 136 162 191 245 304
#     4  10  20  35  54  79 107 136 173 217 265 318
#     4  12  24  38  56  76 104 138 176 217 268 321
#     4   8  14  27  48  72  96 128 171 212 254 304
#
# _framework density 22.649415000000001
#
# number of rings (size 3 to 8) (size 9 to 14) (size 15 to 20)
#    0.000    2.857    1.429    3.000    0.000    2.286 
#    2.571    0.000    0.000    0.000    0.000    0.000 
#    0.000    5.714    0.000    0.000    0.000    0.000 
#
# Total GULP energy -312372.045909 kJ/mol
# GULP energy per Si atom -5578.072248 kJ/mol
# Density = 2.259786 g / cm^3
# Si number density = 22.649415 Si / 1000 Ang^3
#
#
#
# Elastic Constant Matrix: (Units=GPa)
#
#
# Indices 1 2 3 4 5 6 
#
# 1 52.6450 0.1031 5.9070 0.0000 0.0000 0.0000
# 2 0.1031 157.9455 49.9174 0.0000 0.0000 0.0000
# 3 5.9070 49.9174 79.2765 0.0000 0.0000 0.0000
# 4 0.0000 0.0000 0.0000 48.8446 0.0000 0.0000
# 5 0.0000 0.0000 0.0000 0.0000 3.5202 0.0000
# 6 0.0000 0.0000 0.0000 0.0000 0.0000 -21.0359
#
#
#
# Elastic Compliance Matrix: (Units=1/GPa)
#
#
# Indices 1 2 3 4 5 6 
#
# 1 0.019193 0.000549 -0.001776 0.000000 0.000000 0.000000
# 2 0.000549 0.007920 -0.005028 0.000000 0.000000 0.000000
# 3 -0.001776 -0.005028 0.015912 0.000000 0.000000 0.000000
# 4 0.000000 0.000000 0.000000 0.020473 0.000000 0.000000
# 5 0.000000 0.000000 0.000000 0.000000 0.284073 0.000000
# 6 0.000000 0.000000 0.000000 0.000000 0.000000 -0.047538
#
#
# Mechanical properties :
#
#
# Convention : Reuss Voigt Hill
#
# Bulk Modulus (GPa) = 32.76968 44.63578 38.70273
# Shear Modulus (GPa) = 15.49353 21.86173 18.67763
#
# Velocity S-wave (km/s) = 2.61829 3.11017 2.87477
# Velocity P-wave (km/s) = 4.86212 5.71381 5.30508
#
# Compressibility (1/GPa) = 0.03051602
#
# Stress axis : x y z
#
# Youngs Moduli (GPa) = 52.10146 126.26382 62.84497
#
# Poissons Ratio (x) = -0.06927 0.11159
# Poissons Ratio (y) = -0.02858 0.31597
# Poissons Ratio (z) = 0.09251 0.63482
#
# Static dielectric constant tensor:
#      x y z
#    x 1.886480 0.000000 0.000000 
#    y 0.000000 1.857570 0.000000 
#    z 0.000000 0.000000 1.809960 
# 
# From -- ./inp_files/11167.got.cif
#   From: 2010.05.17/outbox.cif.g08.bks.cpg/sg53_6_cif.got.tgz:11167.got - 2010.06.03 12:45:16.
