data_PCOD9417676
_publ_section_title
;
Structure prediction by ZEFSAII (Michael W. Deem and Ramdas Pophale) SiO2 
 PCOD9417676
Probable space group: P M N A
;
_chemical_formula_sum "Si O2"
_cell_formula_units_Z 64
_cell_length_a 8.669177
_cell_length_b 12.323809
_cell_length_c 31.984734
_cell_angle_alpha 90.000000
_cell_angle_beta 90.000000
_cell_angle_gamma 90.000000
_cell_volume 3417.162031
_symmetry_space_group_name_H-M "P M N A"
_symmetry_group_IT_number 53
_symmetry_cell_setting 'orthorhombic'
loop_
_space_group_symop_operation_xyz
x,y,z
1/2-x,-y,1/2+z
x,-y,-z
1/2-x,y,1/2-z
-x,-y,-z
1/2+x,y,1/2-z
-x,y,z
1/2+x,-y,1/2+z
loop_
_atom_site_type_symbol
_atom_site_label
_atom_site_fract_x
_atom_site_fract_y
_atom_site_fract_z
Si Si1 0.318121 0.126589 0.137899
Si Si2 0.817661 0.179487 0.997563
Si Si3 0.186878 0.407655 0.033883
Si Si4 0.185677 0.628006 0.623828
Si Si5 0.685593 0.254207 0.703031
Si Si6 0.686316 0.496120 0.702324
Si Si7 0.182319 0.011430 0.933743
Si Si8 0.816205 0.979522 0.203682
O O1 0.500000 0.132785 0.143038
O O2 0.263941 0.245225 0.123537
O O3 0.242555 0.084605 0.180043
O O4 0.274035 0.034000 0.105012
O O5 0.758527 0.121787 0.955384
O O6 0.000000 0.197526 0.990118
O O7 0.755187 0.292225 0.015131
O O8 0.806499 0.085706 0.032362
O O9 0.252643 0.423296 0.080531
O O10 0.000000 0.403755 0.037528
O O11 0.225495 0.500000 0.000000
O O12 0.249189 0.575191 0.666551
O O13 0.000000 0.622383 0.624063
O O14 0.750000 0.251738 0.750000
O O15 0.500000 0.254571 0.704115
O O16 0.731359 0.373389 0.687403
O O17 0.732474 0.137884 0.683801
O O18 0.750000 0.512587 0.750000
O O19 0.500000 0.503868 0.704139
O O20 0.000000 0.023548 0.923380
O O21 0.750000 0.980628 0.250000
O O22 0.000000 0.981115 0.204562
#
# Coordination Sequence:
#
# PCOD9417676 Si02
#       8
#     8   8   8   8   8   8   8   8
#     4  11  23  37  53  78 112 149 190 234 278 331
#     4   8  15  30  55  83 105 132 176 221 270 328
#     4  10  20  37  61  85 111 147 189 236 289 345
#     4  11  24  40  57  80 115 156 196 239 286 338
#     4   8  16  32  55  81 106 136 175 220 273 328
#     4  10  20  37  62  89 117 150 192 239 285 339
#     4   9  16  31  56  79 103 138 178 224 273 328
#     4  10  20  36  58  83 112 147 183 225 277 334
#
# _framework density 18.728992999999999
#
# number of rings (size 3 to 8) (size 9 to 14) (size 15 to 20)
#    0.000    2.375    1.250    2.250    0.000    3.250 
#    2.250    1.875    0.000    0.000    0.000    0.000 
#    0.000    0.000    0.000    0.000    0.000    0.000 
#
# Total GULP energy -356418.493739 kJ/mol
# GULP energy per Si atom -5569.038965 kJ/mol
# Density = 1.868636 g / cm^3
# Si number density = 18.728993 Si / 1000 Ang^3
#
#
#
# Elastic Constant Matrix: (Units=GPa)
#
#
# Indices 1 2 3 4 5 6 
#
# 1 29.1134 25.5579 33.0500 0.0000 0.0000 0.0000
# 2 25.5579 75.3651 55.1796 0.0000 0.0000 0.0000
# 3 33.0500 55.1796 98.6311 0.0000 0.0000 0.0000
# 4 0.0000 0.0000 0.0000 33.1325 0.0000 0.0000
# 5 0.0000 0.0000 0.0000 0.0000 26.6708 0.0000
# 6 0.0000 0.0000 0.0000 0.0000 0.0000 20.8245
#
#
#
# Elastic Compliance Matrix: (Units=1/GPa)
#
#
# Indices 1 2 3 4 5 6 
#
# 1 0.059116 -0.009390 -0.014555 0.000000 0.000000 0.000000
# 2 -0.009390 0.023966 -0.010261 0.000000 0.000000 0.000000
# 3 -0.014555 -0.010261 0.020757 0.000000 0.000000 0.000000
# 4 0.000000 0.000000 0.000000 0.030182 0.000000 0.000000
# 5 0.000000 0.000000 0.000000 0.000000 0.037494 0.000000
# 6 0.000000 0.000000 0.000000 0.000000 0.000000 0.048020
#
#
# Mechanical properties :
#
#
# Convention : Reuss Voigt Hill
#
# Bulk Modulus (GPa) = 28.22917 47.85383 38.04150
# Shear Modulus (GPa) = 16.68014 22.08037 19.38025
#
# Velocity S-wave (km/s) = 2.98754 3.43730 3.22028
# Velocity P-wave (km/s) = 5.19670 6.43113 5.84659
#
# Compressibility (1/GPa) = 0.03542435
#
# Stress axis : x y z
#
# Youngs Moduli (GPa) = 16.91601 41.72528 48.17676
#
# Poissons Ratio (x) = 0.39182 0.70123
# Poissons Ratio (y) = 0.15885 0.49436
# Poissons Ratio (z) = 0.24622 0.42816
#
# Static dielectric constant tensor:
#      x y z
#    x 1.634610 0.000000 0.000000 
#    y 0.000000 1.663320 0.000000 
#    z 0.000000 0.000000 1.520650 
# 
# From -- ./inp_files/38224.got.cif
#   From: 2010.05.17/outbox.cif.g08.bks.cpg/sg53_20_cif.got.tgz:38224.got - 2010.06.03 12:45:16.
