data_PCOD9417688
_publ_section_title
;
Structure prediction by ZEFSAII (Michael W. Deem and Ramdas Pophale) SiO2 
 PCOD9417688
Probable space group: P M N A
;
_chemical_formula_sum "Si O2"
_cell_formula_units_Z 64
_cell_length_a 9.085395
_cell_length_b 19.966543
_cell_length_c 20.293686
_cell_angle_alpha 90.000000
_cell_angle_beta 90.000000
_cell_angle_gamma 90.000000
_cell_volume 3681.354393
_symmetry_space_group_name_H-M "P M N A"
_symmetry_group_IT_number 53
_symmetry_cell_setting 'orthorhombic'
loop_
_space_group_symop_operation_xyz
x,y,z
1/2-x,-y,1/2+z
x,-y,-z
1/2-x,y,1/2-z
-x,-y,-z
1/2+x,y,1/2-z
-x,y,z
1/2+x,-y,1/2+z
loop_
_atom_site_type_symbol
_atom_site_label
_atom_site_fract_x
_atom_site_fract_y
_atom_site_fract_z
Si Si1 0.176565 0.344296 0.029222
Si Si2 0.825309 0.268759 0.816924
Si Si3 0.323484 0.191355 0.438568
Si Si4 0.674998 0.114045 0.180757
Si Si5 0.825381 0.955851 0.319307
Si Si6 0.331240 0.483363 0.421480
Si Si7 0.175002 0.614495 0.391755
Si Si8 0.675064 0.146396 0.584444
O O1 0.208298 0.270600 0.055894
O O2 0.208454 0.404949 0.079785
O O3 0.000000 0.347805 0.014140
O O4 0.264642 0.358695 0.962229
O O5 0.750000 0.244210 0.750000
O O6 0.751290 0.338365 0.838016
O O7 0.800360 0.214912 0.874841
O O8 0.000000 0.276464 0.808271
O O9 0.500000 0.184168 0.430747
O O10 0.241674 0.156332 0.378720
O O11 0.282474 0.158255 0.508740
O O12 0.750000 0.132429 0.250000
O O13 0.500000 0.123094 0.185156
O O14 0.704021 0.034750 0.169770
O O15 0.750000 0.936669 0.250000
O O16 0.760479 0.911916 0.378159
O O17 0.000000 0.945943 0.313830
O O18 0.328028 0.500000 0.500000
O O19 0.500000 0.492651 0.399462
O O20 0.227693 0.537484 0.387396
O O21 0.000000 0.619624 0.388690
O O22 0.500000 0.132688 0.586796
#
# Coordination Sequence:
#
# PCOD9417688 Si02
#       8
#     8   8   8   8   8   8   8   8
#     4   9  17  33  53  76 107 142 178 218 270 320
#     4  11  22  37  53  74 107 147 190 229 273 329
#     4  10  20  36  58  84 113 145 179 224 274 325
#     4  10  22  40  60  83 108 141 180 223 273 331
#     4  10  21  37  57  79 109 145 186 228 270 321
#     4   8  15  28  49  72  99 137 175 216 264 313
#     4  11  20  30  48  75 106 140 180 225 269 316
#     4  10  21  36  56  81 111 144 182 225 271 323
#
# _framework density 17.384906999999998
#
# number of rings (size 3 to 8) (size 9 to 14) (size 15 to 20)
#    0.000    2.125    1.250    3.375    0.000    7.250 
#    0.000    2.500    0.000    0.750    0.000    3.500 
#    0.000    0.000    0.000    0.000    0.000    0.000 
#
# Total GULP energy -357197.250243 kJ/mol
# GULP energy per Si atom -5581.207035 kJ/mol
# Density = 1.734534 g / cm^3
# Si number density = 17.384907 Si / 1000 Ang^3
#
#
#
# Elastic Constant Matrix: (Units=GPa)
#
#
# Indices 1 2 3 4 5 6 
#
# 1 72.0968 59.4856 59.0271 0.0000 0.0000 0.0000
# 2 59.4856 104.4960 69.7270 0.0000 0.0000 0.0000
# 3 59.0271 69.7270 108.0733 0.0000 0.0000 0.0000
# 4 0.0000 0.0000 0.0000 16.5816 0.0000 0.0000
# 5 0.0000 0.0000 0.0000 0.0000 28.6846 0.0000
# 6 0.0000 0.0000 0.0000 0.0000 0.0000 26.1994
#
#
#
# Elastic Compliance Matrix: (Units=1/GPa)
#
#
# Indices 1 2 3 4 5 6 
#
# 1 0.031094 -0.011183 -0.009768 0.000000 0.000000 0.000000
# 2 -0.011183 0.020826 -0.007329 0.000000 0.000000 0.000000
# 3 -0.009768 -0.007329 0.019316 0.000000 0.000000 0.000000
# 4 0.000000 0.000000 0.000000 0.060308 0.000000 0.000000
# 5 0.000000 0.000000 0.000000 0.000000 0.034862 0.000000
# 6 0.000000 0.000000 0.000000 0.000000 0.000000 0.038169
#
#
# Mechanical properties :
#
#
# Convention : Reuss Voigt Hill
#
# Bulk Modulus (GPa) = 68.13171 73.46062 70.79617
# Shear Modulus (GPa) = 18.79510 20.72154 19.75832
#
# Velocity S-wave (km/s) = 3.29160 3.45618 3.37489
# Velocity P-wave (km/s) = 7.32949 7.63374 7.48316
#
# Compressibility (1/GPa) = 0.01467745
#
# Stress axis : x y z
#
# Youngs Moduli (GPa) = 32.16025 48.01692 51.76961
#
# Poissons Ratio (x) = 0.53697 0.50568
# Poissons Ratio (y) = 0.35965 0.37940
# Poissons Ratio (z) = 0.31414 0.35190
#
# Static dielectric constant tensor:
#      x y z
#    x 1.575780 0.000000 0.000000 
#    y 0.000000 1.611050 0.000000 
#    z 0.000000 0.000000 1.567630 
# 
# From -- ./inp_files/26885.got.cif
#   From: 2010.05.17/outbox.cif.g08.bks.cpg/sg53_14_cif.got.tgz:26885.got - 2010.06.03 12:45:16.
