data_PCOD9417634
_publ_section_title
;
Structure prediction by ZEFSAII (Michael W. Deem and Ramdas Pophale) SiO2 
 PCOD9417634
Probable space group: P M N A
;
_chemical_formula_sum "Si O2"
_cell_formula_units_Z 64
_cell_length_a 23.896719
_cell_length_b 8.739445
_cell_length_c 14.056827
_cell_angle_alpha 90.000000
_cell_angle_beta 90.000000
_cell_angle_gamma 90.000000
_cell_volume 2935.684841
_symmetry_space_group_name_H-M "P M N A"
_symmetry_group_IT_number 53
_symmetry_cell_setting 'orthorhombic'
loop_
_space_group_symop_operation_xyz
x,y,z
1/2-x,-y,1/2+z
x,-y,-z
1/2-x,y,1/2-z
-x,-y,-z
1/2+x,y,1/2-z
-x,y,z
1/2+x,-y,1/2+z
loop_
_atom_site_type_symbol
_atom_site_label
_atom_site_fract_x
_atom_site_fract_y
_atom_site_fract_z
Si Si1 0.064431 0.113424 0.196972
Si Si2 0.298431 0.859379 0.180209
Si Si3 0.770902 0.431277 0.105939
Si Si4 0.718105 0.177178 0.517311
Si Si5 0.609917 0.541744 0.697438
Si Si6 0.890476 0.077717 0.404718
Si Si7 0.381656 0.217609 0.654142
Si Si8 0.356699 0.421695 0.099862
O O1 0.090438 0.282882 0.171974
O O2 0.070841 0.092368 0.311573
O O3 0.000000 0.119274 0.168964
O O4 0.090293 0.952171 0.157926
O O5 0.250000 0.922881 0.250000
O O6 0.264050 0.774115 0.096872
O O7 0.341259 0.776342 0.251986
O O8 0.337199 0.979129 0.127389
O O9 0.824737 0.469785 0.166823
O O10 0.706882 0.455797 0.133281
O O11 0.778844 0.500000 0.000000
O O12 0.774055 0.251866 0.084321
O O13 0.658309 0.215057 0.562553
O O14 0.723338 0.000000 0.500000
O O15 0.585352 0.380564 0.656272
O O16 0.604634 0.534763 0.811559
O O17 0.866590 0.244936 0.422697
O O18 0.914588 0.000000 0.500000
O O19 0.367340 0.500000 0.000000
#
# Coordination Sequence:
#
# PCOD9417634 Si02
#       8
#     8   8   8   8   8   8   8   8
#     4  10  24  44  65  87 109 150 206 263 326 376
#     4   9  19  31  54  85 123 165 203 231 278 348
#     4  11  21  33  54  89 125 165 197 230 285 354
#     4  11  20  33  55  88 126 164 203 239 282 354
#     4  11  23  41  62  87 126 160 200 257 302 360
#     4  10  20  36  57  84 119 158 200 251 307 360
#     4  10  22  38  62  88 117 160 199 248 302 360
#     4  10  23  33  55  89 127 165 201 230 283 356
#
# _framework density 21.800706000000002
#
# number of rings (size 3 to 8) (size 9 to 14) (size 15 to 20)
#    0.000    1.750    1.250    3.000    7.000    5.750 
#    0.000    0.000    0.000    5.250    0.000    0.000 
#    0.000    0.000    0.000    0.000    0.000    0.000 
#
# Total GULP energy -356727.403148 kJ/mol
# GULP energy per Si atom -5573.865674 kJ/mol
# Density = 2.175109 g / cm^3
# Si number density = 21.800706 Si / 1000 Ang^3
#
#
#
# Elastic Constant Matrix: (Units=GPa)
#
#
# Indices 1 2 3 4 5 6 
#
# 1 45.0545 26.4282 0.0425 0.0000 0.0000 0.0000
# 2 26.4282 152.2983 4.4288 0.0000 0.0000 0.0000
# 3 0.0425 4.4288 34.8567 0.0000 0.0000 0.0000
# 4 0.0000 0.0000 0.0000 16.1630 0.0000 0.0000
# 5 0.0000 0.0000 0.0000 0.0000 6.7837 0.0000
# 6 0.0000 0.0000 0.0000 0.0000 0.0000 5.0547
#
#
#
# Elastic Compliance Matrix: (Units=1/GPa)
#
#
# Indices 1 2 3 4 5 6 
#
# 1 0.024720 -0.004305 0.000517 0.000000 0.000000 0.000000
# 2 -0.004305 0.007340 -0.000927 0.000000 0.000000 0.000000
# 3 0.000517 -0.000927 0.028806 0.000000 0.000000 0.000000
# 4 0.000000 0.000000 0.000000 0.061870 0.000000 0.000000
# 5 0.000000 0.000000 0.000000 0.000000 0.147411 0.000000
# 6 0.000000 0.000000 0.000000 0.000000 0.000000 0.197838
#
#
# Mechanical properties :
#
#
# Convention : Reuss Voigt Hill
#
# Bulk Modulus (GPa) = 19.44180 32.66762 26.05471
# Shear Modulus (GPa) = 10.11000 19.02095 14.56547
#
# Velocity S-wave (km/s) = 2.15581 2.95700 2.58760
# Velocity P-wave (km/s) = 3.89025 5.16485 4.57218
#
# Compressibility (1/GPa) = 0.05143557
#
# Stress axis : x y z
#
# Youngs Moduli (GPa) = 40.45322 136.23958 34.71490
#
# Poissons Ratio (x) = 0.58646 -0.01794
# Poissons Ratio (y) = 0.17414 0.03219
# Poissons Ratio (z) = -0.02091 0.12634
#
# Static dielectric constant tensor:
#      x y z
#    x 1.781240 0.000000 0.000000 
#    y 0.000000 1.944410 0.000000 
#    z 0.000000 0.000000 1.815010 
# 
# From -- ./inp_files/24728.got.cif
#   From: 2010.05.17/outbox.cif.g08.bks.cpg/sg53_13_cif.got.tgz:24728.got - 2010.06.03 12:45:16.
