data_PCOD9417197
_publ_section_title
;
Structure prediction by ZEFSAII (Michael W. Deem and Ramdas Pophale) SiO2 
 PCOD9417197
Probable space group: P M N A
;
_chemical_formula_sum "Si O2"
_cell_formula_units_Z 40
_cell_length_a 8.691420
_cell_length_b 12.735753
_cell_length_c 18.604681
_cell_angle_alpha 90.000000
_cell_angle_beta 90.000000
_cell_angle_gamma 90.000000
_cell_volume 2059.385225
_symmetry_space_group_name_H-M "P M N A"
_symmetry_group_IT_number 53
_symmetry_cell_setting 'orthorhombic'
loop_
_space_group_symop_operation_xyz
x,y,z
1/2-x,-y,1/2+z
x,-y,-z
1/2-x,y,1/2-z
-x,-y,-z
1/2+x,y,1/2-z
-x,y,z
1/2+x,-y,1/2+z
loop_
_atom_site_type_symbol
_atom_site_label
_atom_site_fract_x
_atom_site_fract_y
_atom_site_fract_z
Si Si1 0.685181 0.349606 0.828746
Si Si2 0.313927 0.785104 0.911199
Si Si3 0.687626 0.456158 0.077942
Si Si4 0.685401 0.151552 0.927656
Si Si5 0.817540 0.972452 0.827434
O O1 0.750000 0.330884 0.750000
O O2 0.500000 0.351083 0.825163
O O3 0.737254 0.460658 0.861960
O O4 0.727197 0.256340 0.883335
O O5 0.500000 0.788564 0.905765
O O6 0.264423 0.663508 0.909197
O O7 0.242251 0.857867 0.850373
O O8 0.271570 0.832165 0.989376
O O9 0.500000 0.455578 0.076987
O O10 0.735947 0.500000 0.000000
O O11 0.500000 0.139738 0.925114
O O12 0.759496 0.053253 0.887941
O O13 0.750000 0.003013 0.750000
O O14 0.000000 0.974021 0.823751
#
# Coordination Sequence:
#
# PCOD9417197 Si02
#       5
#     8   8   8   8   8
#     4  10  20  34  56  87 119 152 192 237 288 342
#     4  10  20  37  64  91 117 153 197 240 286 348
#     4   9  16  33  60  87 114 151 195 234 275 336
#     4  10  20  37  62  89 117 152 195 239 289 351
#     4  12  26  42  59  82 117 156 197 245 298 349
#
# _framework density 19.423272999999998
#
# number of rings (size 3 to 8) (size 9 to 14) (size 15 to 20)
#    0.000    1.800    2.000    3.000    0.000    6.400 
#    0.000    3.000    0.000    1.200    0.000    0.000 
#    0.000    0.000    0.000    0.000    0.000    0.000 
#
# Total GULP energy -223509.067782 kJ/mol
# GULP energy per Si atom -5587.726695 kJ/mol
# Density = 1.937906 g / cm^3
# Si number density = 19.423273 Si / 1000 Ang^3
#
#
#
# Elastic Constant Matrix: (Units=GPa)
#
#
# Indices 1 2 3 4 5 6 
#
# 1 17.7183 22.8383 12.0985 0.0000 0.0000 0.0000
# 2 22.8383 98.9368 -3.3794 0.0000 0.0000 0.0000
# 3 12.0985 -3.3794 46.4732 0.0000 0.0000 0.0000
# 4 0.0000 0.0000 0.0000 16.8643 0.0000 0.0000
# 5 0.0000 0.0000 0.0000 0.0000 22.8881 0.0000
# 6 0.0000 0.0000 0.0000 0.0000 0.0000 5.7732
#
#
#
# Elastic Compliance Matrix: (Units=1/GPa)
#
#
# Indices 1 2 3 4 5 6 
#
# 1 0.112757 -0.027098 -0.031325 0.000000 0.000000 0.000000
# 2 -0.027098 0.016645 0.008265 0.000000 0.000000 0.000000
# 3 -0.031325 0.008265 0.030274 0.000000 0.000000 0.000000
# 4 0.000000 0.000000 0.000000 0.059297 0.000000 0.000000
# 5 0.000000 0.000000 0.000000 0.000000 0.043691 0.000000
# 6 0.000000 0.000000 0.000000 0.000000 0.000000 0.173214
#
#
# Mechanical properties :
#
#
# Convention : Reuss Voigt Hill
#
# Bulk Modulus (GPa) = 16.84661 25.13811 20.99236
# Shear Modulus (GPa) = 8.99313 17.87653 13.43483
#
# Velocity S-wave (km/s) = 2.15410 3.03705 2.63285
# Velocity P-wave (km/s) = 3.85734 5.02678 4.48038
#
# Compressibility (1/GPa) = 0.05935912
#
# Stress axis : x y z
#
# Youngs Moduli (GPa) = 8.86863 60.07775 33.03198
#
# Poissons Ratio (x) = 1.62801 1.03472
# Poissons Ratio (y) = 0.24033 -0.27301
# Poissons Ratio (z) = 0.27781 -0.49654
#
# Static dielectric constant tensor:
#      x y z
#    x 1.656240 0.000000 0.000000 
#    y 0.000000 1.682840 0.000000 
#    z 0.000000 0.000000 1.649140 
# 
# From -- ./inp_files/25819.got.cif
#   From: 2010.05.17/outbox.cif.g08.bks.cpg/sg53_13_cif.got.tgz:25819.got - 2010.06.03 12:45:16.
