data_PCOD9417373
_publ_section_title
;
Structure prediction by ZEFSAII (Michael W. Deem and Ramdas Pophale) SiO2 
 PCOD9417373
Probable space group: P M N A
;
_chemical_formula_sum "Si O2"
_cell_formula_units_Z 40
_cell_length_a 23.365155
_cell_length_b 9.461701
_cell_length_c 8.157644
_cell_angle_alpha 90.000000
_cell_angle_beta 90.000000
_cell_angle_gamma 90.000000
_cell_volume 1803.443890
_symmetry_space_group_name_H-M "P M N A"
_symmetry_group_IT_number 53
_symmetry_cell_setting 'orthorhombic'
loop_
_space_group_symop_operation_xyz
x,y,z
1/2-x,-y,1/2+z
x,-y,-z
1/2-x,y,1/2-z
-x,-y,-z
1/2+x,y,1/2-z
-x,y,z
1/2+x,-y,1/2+z
loop_
_atom_site_type_symbol
_atom_site_label
_atom_site_fract_x
_atom_site_fract_y
_atom_site_fract_z
Si Si1 0.194975 0.923398 0.835420
Si Si2 0.594458 0.139325 0.084708
Si Si3 0.681538 0.343995 0.527141
Si Si4 0.863975 0.607284 0.362863
Si Si5 0.935755 0.627707 0.829492
O O1 0.250000 0.991222 0.750000
O O2 0.148940 0.909937 0.692405
O O3 0.211791 0.771393 0.914354
O O4 0.173138 0.000000 0.000000
O O5 0.561287 0.234522 0.214955
O O6 0.611224 0.254846 0.949168
O O7 0.569406 0.000000 0.000000
O O8 0.704651 0.500000 0.500000
O O9 0.677483 0.333083 0.722162
O O10 0.615220 0.343489 0.459440
O O11 0.838976 0.500000 0.500000
O O12 0.911789 0.505973 0.275826
O O13 0.000000 0.605855 0.890049
#
# Coordination Sequence:
#
# PCOD9417373 Si02
#       5
#     8   8   8   8   8
#     4  11  23  40  61  85 111 146 188 228 280 341
#     4  10  20  35  56  81 113 148 187 236 280 324
#     4   9  19  37  59  84 115 148 183 229 279 326
#     4   9  18  33  56  81 110 146 185 224 274 328
#     4   9  19  35  56  83 116 153 190 226 274 335
#
# _framework density 22.179787999999999
#
# number of rings (size 3 to 8) (size 9 to 14) (size 15 to 20)
#    0.000    2.400    0.000    3.000    0.000    7.600 
#    0.000    8.000    0.000   20.400    0.000    0.000 
#    0.000    0.000    0.000    0.000    0.000    0.000 
#
# Total GULP energy -223009.405702 kJ/mol
# GULP energy per Si atom -5575.235143 kJ/mol
# Density = 2.212931 g / cm^3
# Si number density = 22.179788 Si / 1000 Ang^3
#
#
#
# Elastic Constant Matrix: (Units=GPa)
#
#
# Indices 1 2 3 4 5 6 
#
# 1 61.9437 0.2066 -5.4678 0.0000 0.0000 0.0000
# 2 0.2066 123.2754 37.6263 0.0000 0.0000 0.0000
# 3 -5.4678 37.6263 84.4999 0.0000 0.0000 0.0000
# 4 0.0000 0.0000 0.0000 35.9296 0.0000 0.0000
# 5 0.0000 0.0000 0.0000 0.0000 -12.1945 0.0000
# 6 0.0000 0.0000 0.0000 0.0000 0.0000 7.0535
#
#
#
# Elastic Compliance Matrix: (Units=1/GPa)
#
#
# Indices 1 2 3 4 5 6 
#
# 1 0.016254 -0.000403 0.001231 0.000000 0.000000 0.000000
# 2 -0.000403 0.009398 -0.004211 0.000000 0.000000 0.000000
# 3 0.001231 -0.004211 0.013789 0.000000 0.000000 0.000000
# 4 0.000000 0.000000 0.000000 0.027832 0.000000 0.000000
# 5 0.000000 0.000000 0.000000 0.000000 -0.082004 0.000000
# 6 0.000000 0.000000 0.000000 0.000000 0.000000 0.141774
#
#
# Mechanical properties :
#
#
# Convention : Reuss Voigt Hill
#
# Bulk Modulus (GPa) = 30.60412 37.16102 33.88257
# Shear Modulus (GPa) = 34.55429 21.98130 28.26780
#
# Velocity S-wave (km/s) = 3.95133 3.15151 3.57387
# Velocity P-wave (km/s) = 5.88604 5.48029 5.68678
#
# Compressibility (1/GPa) = 0.03267533
#
# Stress axis : x y z
#
# Youngs Moduli (GPa) = 61.52436 106.40782 72.52177
#
# Poissons Ratio (x) = 0.04289 -0.08929
# Poissons Ratio (y) = 0.02480 0.30537
# Poissons Ratio (z) = -0.07575 0.44806
#
# Static dielectric constant tensor:
#      x y z
#    x 1.822680 0.000000 0.000000 
#    y 0.000000 1.865020 0.000000 
#    z 0.000000 0.000000 1.773570 
# 
# From -- ./inp_files/12238.got.cif
#   From: 2010.05.17/outbox.cif.g08.bks.cpg/sg53_7_cif.got.tgz:12238.got - 2010.06.03 12:45:16.
