data_PCOD9417987
_publ_section_title
;
Structure prediction by ZEFSAII (Michael W. Deem and Ramdas Pophale) SiO2 
 PCOD9417987
Probable space group: P M N A
;
_chemical_formula_sum "Si O2"
_cell_formula_units_Z 36
_cell_length_a 22.544633
_cell_length_b 6.336965
_cell_length_c 13.389207
_cell_angle_alpha 90.000000
_cell_angle_beta 90.000000
_cell_angle_gamma 90.000000
_cell_volume 1912.843036
_symmetry_space_group_name_H-M "P M N A"
_symmetry_group_IT_number 53
_symmetry_cell_setting 'orthorhombic'
loop_
_space_group_symop_operation_xyz
x,y,z
1/2-x,-y,1/2+z
x,-y,-z
1/2-x,y,1/2-z
-x,-y,-z
1/2+x,y,1/2-z
-x,y,z
1/2+x,-y,1/2+z
loop_
_atom_site_type_symbol
_atom_site_label
_atom_site_fract_x
_atom_site_fract_y
_atom_site_fract_z
Si Si1 0.853389 0.353753 0.242469
Si Si2 0.750000 0.663066 0.250000
Si Si3 0.324755 0.973725 0.115296
Si Si4 0.431424 0.267041 0.797482
Si Si5 0.068510 0.049597 0.115847
O O1 0.801896 0.512771 0.208819
O O2 0.826579 0.192090 0.323516
O O3 0.904093 0.500578 0.290759
O O4 0.884488 0.217488 0.156694
O O5 0.779245 0.813603 0.332329
O O6 0.389749 0.870020 0.130452
O O7 0.310937 0.000000 0.000000
O O8 0.500000 0.266775 0.825890
O O9 0.426054 0.153886 0.688506
O O10 0.000000 0.125426 0.127023
O O11 0.078072 0.000000 0.000000
#
# Coordination Sequence:
#
# PCOD9417987 Si02
#       5
#     8   4   8   8   8
#     4  10  20  38  57  78 113 150 187 233 279 329
#     4  10  22  40  58  80 108 146 194 234 274 328
#     4  10  22  41  60  81 112 147 185 232 282 330
#     4   9  19  35  57  86 115 146 186 229 279 337
#     4   9  18  34  57  86 119 150 183 229 283 337
#
# _framework density 18.820153000000001
#
# number of rings (size 3 to 8) (size 9 to 14) (size 15 to 20)
#    0.000    2.444    0.000    1.333    0.000    5.778 
#    0.000   31.111    0.000    0.000    0.000    0.000 
#    0.000    0.000    0.000    0.000    0.000    0.000 
#
# Total GULP energy -200920.676281 kJ/mol
# GULP energy per Si atom -5581.129897 kJ/mol
# Density = 1.877732 g / cm^3
# Si number density = 18.820153 Si / 1000 Ang^3
#
#
#
# Elastic Constant Matrix: (Units=GPa)
#
#
# Indices 1 2 3 4 5 6 
#
# 1 126.3037 69.3811 60.2434 0.0000 0.0000 0.0000
# 2 69.3811 120.2432 53.7975 0.0000 0.0000 0.0000
# 3 60.2434 53.7975 109.0978 0.0000 0.0000 0.0000
# 4 0.0000 0.0000 0.0000 3.3937 0.0000 0.0000
# 5 0.0000 0.0000 0.0000 0.0000 8.2618 0.0000
# 6 0.0000 0.0000 0.0000 0.0000 0.0000 18.2834
#
#
#
# Elastic Compliance Matrix: (Units=1/GPa)
#
#
# Indices 1 2 3 4 5 6 
#
# 1 0.013116 -0.005553 -0.004505 0.000000 0.000000 0.000000
# 2 -0.005553 0.013021 -0.003355 0.000000 0.000000 0.000000
# 3 -0.004505 -0.003355 0.013308 0.000000 0.000000 0.000000
# 4 0.000000 0.000000 0.000000 0.294667 0.000000 0.000000
# 5 0.000000 0.000000 0.000000 0.000000 0.121038 0.000000
# 6 0.000000 0.000000 0.000000 0.000000 0.000000 0.054694
#
#
# Mechanical properties :
#
#
# Convention : Reuss Voigt Hill
#
# Bulk Modulus (GPa) = 79.23230 80.27653 79.75441
# Shear Modulus (GPa) = 9.24425 17.46930 13.35677
#
# Velocity S-wave (km/s) = 2.21868 3.04998 2.66692
# Velocity P-wave (km/s) = 6.98244 7.42633 7.20780
#
# Compressibility (1/GPa) = 0.01262112
#
# Stress axis : x y z
#
# Youngs Moduli (GPa) = 76.24138 76.79646 75.14391
#
# Poissons Ratio (x) = 0.42643 0.33849
# Poissons Ratio (y) = 0.42335 0.25209
# Poissons Ratio (z) = 0.34344 0.25764
#
# Static dielectric constant tensor:
#      x y z
#    x 1.670470 0.000000 0.000000 
#    y 0.000000 1.656160 0.000000 
#    z 0.000000 0.000000 1.603430 
# 
# From -- ./inp_files/18089.got.cif
#   From: 2010.05.17/outbox.cif.g08.bks.cpg/sg53_10_cif.got.tgz:18089.got - 2010.06.03 12:45:16.
