data_PCOD9417784
_publ_section_title
;
Structure prediction by ZEFSAII (Michael W. Deem and Ramdas Pophale) SiO2 
 PCOD9417784
Probable space group: P M N A
;
_chemical_formula_sum "Si O2"
_cell_formula_units_Z 64
_cell_length_a 28.676356
_cell_length_b 11.684869
_cell_length_c 9.306411
_cell_angle_alpha 90.000000
_cell_angle_beta 90.000000
_cell_angle_gamma 90.000000
_cell_volume 3118.387203
_symmetry_space_group_name_H-M "P M N A"
_symmetry_group_IT_number 53
_symmetry_cell_setting 'orthorhombic'
loop_
_space_group_symop_operation_xyz
x,y,z
1/2-x,-y,1/2+z
x,-y,-z
1/2-x,y,1/2-z
-x,-y,-z
1/2+x,y,1/2-z
-x,y,z
1/2+x,-y,1/2+z
loop_
_atom_site_type_symbol
_atom_site_label
_atom_site_fract_x
_atom_site_fract_y
_atom_site_fract_z
Si Si1 0.871681 0.763643 0.009527
Si Si2 0.113832 0.089886 0.717821
Si Si3 0.447367 0.704395 0.100958
Si Si4 0.711351 0.973471 0.151624
Si Si5 0.584574 0.451271 0.647864
Si Si6 0.196853 0.769249 0.752966
Si Si7 0.128336 0.399662 0.392500
Si Si8 0.553741 0.089781 0.365241
O O1 0.868488 0.863501 0.127848
O O2 0.879868 0.645627 0.091657
O O3 0.827963 0.757381 0.906073
O O4 0.917952 0.799386 0.918672
O O5 0.077618 0.180910 0.655563
O O6 0.161478 0.085271 0.628680
O O7 0.085488 0.972923 0.745471
O O8 0.500000 0.725294 0.055753
O O9 0.446556 0.616080 0.235780
O O10 0.416166 0.652236 0.974800
O O11 0.750000 0.913635 0.250000
O O12 0.698350 0.095639 0.220524
O O13 0.734339 0.000000 0.000000
O O14 0.562955 0.500000 0.500000
O O15 0.611417 0.545713 0.742085
O O16 0.250000 0.728151 0.750000
O O17 0.166004 0.697178 0.641275
O O18 0.145804 0.500000 0.500000
O O19 0.500000 0.111634 0.323405
O O20 0.551797 0.000000 0.500000
#
# Coordination Sequence:
#
# PCOD9417784 Si02
#       8
#     8   8   8   8   8   8   8   8
#     4  10  20  36  61  92 127 158 204 266 310 369
#     4  10  20  37  64  88 128 167 209 254 309 373
#     4  10  22  40  64  92 126 169 211 258 321 384
#     4  11  25  39  65  94 129 169 211 256 312 380
#     4  10  20  37  64  87 122 160 207 265 315 375
#     4  11  23  40  65  92 127 162 210 264 322 372
#     4  10  22  43  66  87 126 162 209 262 326 378
#     4   9  17  31  55  87 123 164 202 244 304 368
#
# _framework density 20.523430000000001
#
# number of rings (size 3 to 8) (size 9 to 14) (size 15 to 20)
#    0.000    1.875    2.500    1.125    3.500    5.500 
#    2.250    0.625    0.000    1.500    0.000    0.000 
#    0.000    0.000    0.000    0.000    0.000    0.000 
#
# Total GULP energy -357283.152533 kJ/mol
# GULP energy per Si atom -5582.549258 kJ/mol
# Density = 2.047672 g / cm^3
# Si number density = 20.523430 Si / 1000 Ang^3
#
#
#
# Elastic Constant Matrix: (Units=GPa)
#
#
# Indices 1 2 3 4 5 6 
#
# 1 133.8209 24.3714 34.0446 0.0000 0.0000 0.0000
# 2 24.3714 49.0972 15.3311 0.0000 0.0000 0.0000
# 3 34.0446 15.3311 78.8297 0.0000 0.0000 0.0000
# 4 0.0000 0.0000 0.0000 25.5751 0.0000 0.0000
# 5 0.0000 0.0000 0.0000 0.0000 22.7383 0.0000
# 6 0.0000 0.0000 0.0000 0.0000 0.0000 8.3451
#
#
#
# Elastic Compliance Matrix: (Units=1/GPa)
#
#
# Indices 1 2 3 4 5 6 
#
# 1 0.008906 -0.003428 -0.003180 0.000000 0.000000 0.000000
# 2 -0.003428 0.023004 -0.002993 0.000000 0.000000 0.000000
# 3 -0.003180 -0.002993 0.014641 0.000000 0.000000 0.000000
# 4 0.000000 0.000000 0.000000 0.039101 0.000000 0.000000
# 5 0.000000 0.000000 0.000000 0.000000 0.043979 0.000000
# 6 0.000000 0.000000 0.000000 0.000000 0.000000 0.119830
#
#
# Mechanical properties :
#
#
# Convention : Reuss Voigt Hill
#
# Bulk Modulus (GPa) = 36.56447 45.47133 41.01790
# Shear Modulus (GPa) = 17.99994 23.86509 20.93252
#
# Velocity S-wave (km/s) = 2.96470 3.41372 3.19710
# Velocity P-wave (km/s) = 5.43819 6.14344 5.80154
#
# Compressibility (1/GPa) = 0.02734895
#
# Stress axis : x y z
#
# Youngs Moduli (GPa) = 112.28563 43.47057 68.30176
#
# Poissons Ratio (x) = 0.14901 0.21717
# Poissons Ratio (y) = 0.38491 0.20446
# Poissons Ratio (z) = 0.35702 0.13013
#
# Static dielectric constant tensor:
#      x y z
#    x 1.707830 0.000000 0.000000 
#    y 0.000000 1.745160 0.000000 
#    z 0.000000 0.000000 1.772350 
# 
# From -- ./inp_files/13243.got.cif
#   From: 2010.05.17/outbox.cif.g08.bks.cpg/sg53_7_cif.got.tgz:13243.got - 2010.06.03 12:45:16.
