data_PCOD9417329
_publ_section_title
;
Structure prediction by ZEFSAII (Michael W. Deem and Ramdas Pophale) SiO2 
 PCOD9417329
Probable space group: P M N A
;
_chemical_formula_sum "Si O2"
_cell_formula_units_Z 56
_cell_length_a 8.362307
_cell_length_b 20.871861
_cell_length_c 15.966171
_cell_angle_alpha 90.000000
_cell_angle_beta 90.000000
_cell_angle_gamma 90.000000
_cell_volume 2786.686140
_symmetry_space_group_name_H-M "P M N A"
_symmetry_group_IT_number 53
_symmetry_cell_setting 'orthorhombic'
loop_
_space_group_symop_operation_xyz
x,y,z
1/2-x,-y,1/2+z
x,-y,-z
1/2-x,y,1/2-z
-x,-y,-z
1/2+x,y,1/2-z
-x,y,z
1/2+x,-y,1/2+z
loop_
_atom_site_type_symbol
_atom_site_label
_atom_site_fract_x
_atom_site_fract_y
_atom_site_fract_z
Si Si1 0.307585 0.835975 0.846356
Si Si2 0.818250 0.560300 0.101481
Si Si3 0.809418 0.302351 0.655814
Si Si4 0.693473 0.838129 0.153437
Si Si5 0.315342 0.567956 0.921237
Si Si6 0.304798 0.926370 0.999622
Si Si7 0.690558 0.301712 0.344857
O O1 0.250000 0.846897 0.750000
O O2 0.500000 0.832599 0.843700
O O3 0.242867 0.767408 0.879394
O O4 0.258208 0.889439 0.914215
O O5 0.759249 0.630305 0.126571
O O6 0.719561 0.497415 0.129982
O O7 0.000000 0.551452 0.127813
O O8 0.798142 0.563412 0.001459
O O9 0.750000 0.296531 0.750000
O O10 0.759307 0.233081 0.619740
O O11 0.000000 0.306571 0.649409
O O12 0.750000 0.847824 0.250000
O O13 0.500000 0.839107 0.156744
O O14 0.747197 0.889536 0.084276
O O15 0.500000 0.566994 0.948001
O O16 0.275745 0.635530 0.880525
O O17 0.500000 0.925741 0.000622
O O18 0.252044 0.000000 0.000000
O O19 0.750000 0.298177 0.250000
O O20 0.500000 0.309074 0.350476
#
# Coordination Sequence:
#
# PCOD9417329 Si02
#       7
#     8   8   8   8   8   8   8
#     4  10  20  36  59  86 119 158 198 246 297 353
#     4  11  22  37  55  81 113 148 190 238 289 342
#     4  10  20  35  55  80 109 145 191 240 291 347
#     4   9  19  36  58  85 116 153 195 243 293 349
#     4  11  22  38  57  80 111 150 191 235 288 345
#     4   9  19  36  59  88 119 156 199 237 287 358
#     4  11  22  38  58  84 113 147 190 240 291 348
#
# _framework density 20.095554
#
# number of rings (size 3 to 8) (size 9 to 14) (size 15 to 20)
#    0.000    1.857    0.000    6.429    2.000    1.714 
#    0.000    4.286    0.000    3.000    0.000    0.000 
#    0.000    0.000    0.000    0.000    0.000    0.000 
#
# Total GULP energy -312234.544379 kJ/mol
# GULP energy per Si atom -5575.616864 kJ/mol
# Density = 2.004982 g / cm^3
# Si number density = 20.095554 Si / 1000 Ang^3
#
#
#
# Elastic Constant Matrix: (Units=GPa)
#
#
# Indices 1 2 3 4 5 6 
#
# 1 54.4104 22.9620 4.8854 0.0000 0.0000 0.0000
# 2 22.9620 205.6291 72.5513 0.0000 0.0000 0.0000
# 3 4.8854 72.5513 68.8447 0.0000 0.0000 0.0000
# 4 0.0000 0.0000 0.0000 69.5717 0.0000 0.0000
# 5 0.0000 0.0000 0.0000 0.0000 30.9098 0.0000
# 6 0.0000 0.0000 0.0000 0.0000 0.0000 18.7178
#
#
#
# Elastic Compliance Matrix: (Units=1/GPa)
#
#
# Indices 1 2 3 4 5 6 
#
# 1 0.019377 -0.002672 0.001441 0.000000 0.000000 0.000000
# 2 -0.002672 0.008110 -0.008357 0.000000 0.000000 0.000000
# 3 0.001441 -0.008357 0.023230 0.000000 0.000000 0.000000
# 4 0.000000 0.000000 0.000000 0.014374 0.000000 0.000000
# 5 0.000000 0.000000 0.000000 0.000000 0.032352 0.000000
# 6 0.000000 0.000000 0.000000 0.000000 0.000000 0.053425
#
#
# Mechanical properties :
#
#
# Convention : Reuss Voigt Hill
#
# Bulk Modulus (GPa) = 31.70482 58.85348 45.27915
# Shear Modulus (GPa) = 27.69180 39.07224 33.38202
#
# Velocity S-wave (km/s) = 3.71618 4.41423 4.08016
# Velocity P-wave (km/s) = 5.85018 7.43848 6.69162
#
# Compressibility (1/GPa) = 0.03154095
#
# Stress axis : x y z
#
# Youngs Moduli (GPa) = 51.60708 123.30220 43.04717
#
# Poissons Ratio (x) = 0.32949 -0.06203
# Poissons Ratio (y) = 0.13791 0.35975
# Poissons Ratio (z) = -0.07437 1.03046
#
# Static dielectric constant tensor:
#      x y z
#    x 1.687540 0.000000 0.000000 
#    y 0.000000 1.825200 0.000000 
#    z 0.000000 0.000000 1.720810 
# 
# From -- ./inp_files/20591.got.cif
#   From: 2010.05.17/outbox.cif.g08.bks.cpg/sg53_11_cif.got.tgz:20591.got - 2010.06.03 12:45:16.
