data_PCOD9417317
_publ_section_title
;
Structure prediction by ZEFSAII (Michael W. Deem and Ramdas Pophale) SiO2 
 PCOD9417317
Probable space group: P M N A
;
_chemical_formula_sum "Si O2"
_cell_formula_units_Z 56
_cell_length_a 8.864616
_cell_length_b 19.816773
_cell_length_c 16.147589
_cell_angle_alpha 90.000000
_cell_angle_beta 90.000000
_cell_angle_gamma 90.000000
_cell_volume 2836.616005
_symmetry_space_group_name_H-M "P M N A"
_symmetry_group_IT_number 53
_symmetry_cell_setting 'orthorhombic'
loop_
_space_group_symop_operation_xyz
x,y,z
1/2-x,-y,1/2+z
x,-y,-z
1/2-x,y,1/2-z
-x,-y,-z
1/2+x,y,1/2-z
-x,y,z
1/2+x,-y,1/2+z
loop_
_atom_site_type_symbol
_atom_site_label
_atom_site_fract_x
_atom_site_fract_y
_atom_site_fract_z
Si Si1 0.677486 0.794647 0.405488
Si Si2 0.323277 0.786417 0.598092
Si Si3 0.679190 0.928897 0.158018
Si Si4 0.320788 0.655394 0.836119
Si Si5 0.680668 0.651847 0.336532
Si Si6 0.818930 0.420395 0.503885
Si Si7 0.319209 0.934679 0.658109
O O1 0.500000 0.809950 0.391147
O O2 0.693742 0.772723 0.500742
O O3 0.772087 0.861395 0.388574
O O4 0.722143 0.730740 0.350208
O O5 0.500000 0.777888 0.620389
O O6 0.226877 0.732976 0.648857
O O7 0.283447 0.864436 0.613469
O O8 0.750000 0.923318 0.250000
O O9 0.500000 0.934781 0.163664
O O10 0.748440 0.997490 0.120168
O O11 0.250000 0.631248 0.750000
O O12 0.500000 0.649876 0.830623
O O13 0.269339 0.614719 0.917914
O O14 0.750000 0.627761 0.250000
O O15 0.500000 0.647602 0.334259
O O16 0.741835 0.611942 0.415929
O O17 0.788770 0.500000 0.500000
O O18 0.000000 0.410528 0.511075
O O19 0.250000 0.929316 0.750000
O O20 0.500000 0.942092 0.662121
#
# Coordination Sequence:
#
# PCOD9417317 Si02
#       7
#     8   8   8   8   8   8   8
#     4  10  21  38  59  85 118 156 200 252 308 365
#     4  10  21  38  60  86 118 155 201 253 305 365
#     4  11  22  36  55  79 111 151 199 252 304 364
#     4  11  23  39  64  93 126 166 206 255 306 365
#     4  11  23  40  66  95 128 167 210 258 309 371
#     4  10  23  44  67  95 131 166 206 255 307 365
#     4  10  20  35  55  78 110 151 195 248 304 361
#
# _framework density 19.741833
#
# number of rings (size 3 to 8) (size 9 to 14) (size 15 to 20)
#    0.000    1.571    1.429    4.286    0.000    7.143 
#    0.000    4.286    0.000    0.000    0.000    0.000 
#    0.000    0.000    0.000    0.000    0.000    0.000 
#
# Total GULP energy -312965.308059 kJ/mol
# GULP energy per Si atom -5588.666215 kJ/mol
# Density = 1.969690 g / cm^3
# Si number density = 19.741833 Si / 1000 Ang^3
#
#
#
# Elastic Constant Matrix: (Units=GPa)
#
#
# Indices 1 2 3 4 5 6 
#
# 1 68.6659 49.2548 48.6419 0.0000 0.0000 0.0000
# 2 49.2548 103.2060 59.0379 0.0000 0.0000 0.0000
# 3 48.6419 59.0379 120.6272 0.0000 0.0000 0.0000
# 4 0.0000 0.0000 0.0000 11.6503 0.0000 0.0000
# 5 0.0000 0.0000 0.0000 0.0000 29.6535 0.0000
# 6 0.0000 0.0000 0.0000 0.0000 0.0000 25.7262
#
#
#
# Elastic Compliance Matrix: (Units=1/GPa)
#
#
# Indices 1 2 3 4 5 6 
#
# 1 0.024791 -0.008490 -0.005842 0.000000 0.000000 0.000000
# 2 -0.008490 0.016364 -0.004586 0.000000 0.000000 0.000000
# 3 -0.005842 -0.004586 0.012890 0.000000 0.000000 0.000000
# 4 0.000000 0.000000 0.000000 0.085835 0.000000 0.000000
# 5 0.000000 0.000000 0.000000 0.000000 0.033723 0.000000
# 6 0.000000 0.000000 0.000000 0.000000 0.000000 0.038871
#
#
# Mechanical properties :
#
#
# Convention : Reuss Voigt Hill
#
# Bulk Modulus (GPa) = 61.68610 67.37424 64.53017
# Shear Modulus (GPa) = 19.55322 22.44363 20.99843
#
# Velocity S-wave (km/s) = 3.15055 3.37539 3.26491
# Velocity P-wave (km/s) = 6.67449 7.02800 6.85352
#
# Compressibility (1/GPa) = 0.01621111
#
# Stress axis : x y z
#
# Youngs Moduli (GPa) = 40.33665 61.10872 77.57985
#
# Poissons Ratio (x) = 0.51881 0.45320
# Poissons Ratio (y) = 0.34245 0.35575
# Poissons Ratio (z) = 0.23564 0.28022
#
# Static dielectric constant tensor:
#      x y z
#    x 1.663660 0.000000 0.000000 
#    y 0.000000 1.696730 0.000000 
#    z 0.000000 0.000000 1.692340 
# 
# From -- ./inp_files/20537.got.cif
#   From: 2010.05.17/outbox.cif.g08.bks.cpg/sg53_11_cif.got.tgz:20537.got - 2010.06.03 12:45:16.
