data_PCOD9417723
_publ_section_title
;
Structure prediction by ZEFSAII (Michael W. Deem and Ramdas Pophale) SiO2 
 PCOD9417723
Probable space group: P M N A
;
_chemical_formula_sum "Si O2"
_cell_formula_units_Z 32
_cell_length_a 15.322125
_cell_length_b 18.579961
_cell_length_c 5.095123
_cell_angle_alpha 90.000000
_cell_angle_beta 90.000000
_cell_angle_gamma 90.000000
_cell_volume 1450.502467
_symmetry_space_group_name_H-M "P M N A"
_symmetry_group_IT_number 53
_symmetry_cell_setting 'orthorhombic'
loop_
_space_group_symop_operation_xyz
x,y,z
1/2-x,-y,1/2+z
x,-y,-z
1/2-x,y,1/2-z
-x,-y,-z
1/2+x,y,1/2-z
-x,y,z
1/2+x,-y,1/2+z
loop_
_atom_site_type_symbol
_atom_site_label
_atom_site_fract_x
_atom_site_fract_y
_atom_site_fract_z
Si Si1 0.099385 0.951373 0.258004
Si Si2 0.694773 0.813618 0.487789
Si Si3 0.392925 0.581908 0.961027
Si Si4 0.395403 0.668656 0.466091
O O1 0.151365 0.882159 0.156816
O O2 0.000000 0.930446 0.336702
O O3 0.135468 0.000000 0.500000
O O4 0.094854 0.000000 0.000000
O O5 0.750000 0.780863 0.250000
O O6 0.628868 0.749483 0.550162
O O7 0.750000 0.832350 0.750000
O O8 0.500000 0.580561 0.960136
O O9 0.363256 0.613805 0.686067
O O10 0.364176 0.500000 0.000000
O O11 0.365616 0.637355 0.187585
O O12 0.500000 0.665964 0.459633
#
# Coordination Sequence:
#
# PCOD9417723 Si02
#       4
#     8   8   8   8
#     4  10  22  42  67  92 118 151 196 248 300 358
#     4  12  25  40  60  88 125 162 197 242 297 362
#     4   9  17  31  56  88 115 146 198 259 306 346
#     4  10  20  36  59  85 117 157 201 248 298 356
#
# _framework density 22.061322000000001
#
# number of rings (size 3 to 8) (size 9 to 14) (size 15 to 20)
#    0.000    1.750    0.000    4.500    0.000    5.000 
#    0.000   10.000    0.000   15.000    0.000    0.000 
#    0.000    0.000    0.000    0.000    0.000    0.000 
#
# Total GULP energy -178655.179855 kJ/mol
# GULP energy per Si atom -5582.974370 kJ/mol
# Density = 2.201111 g / cm^3
# Si number density = 22.061322 Si / 1000 Ang^3
#
#
#
# Elastic Constant Matrix: (Units=GPa)
#
#
# Indices 1 2 3 4 5 6 
#
# 1 18.8759 3.5958 -9.1978 0.0000 0.0000 0.0000
# 2 3.5958 80.2499 -20.3681 0.0000 0.0000 0.0000
# 3 -9.1978 -20.3681 80.0564 0.0000 0.0000 0.0000
# 4 0.0000 0.0000 0.0000 22.3273 0.0000 0.0000
# 5 0.0000 0.0000 0.0000 0.0000 21.8705 0.0000
# 6 0.0000 0.0000 0.0000 0.0000 0.0000 0.8795
#
#
#
# Elastic Compliance Matrix: (Units=1/GPa)
#
#
# Indices 1 2 3 4 5 6 
#
# 1 0.056186 -0.000940 0.006216 0.000000 0.000000 0.000000
# 2 -0.000940 0.013337 0.003285 0.000000 0.000000 0.000000
# 3 0.006216 0.003285 0.014041 0.000000 0.000000 0.000000
# 4 0.000000 0.000000 0.000000 0.044788 0.000000 0.000000
# 5 0.000000 0.000000 0.000000 0.000000 0.045724 0.000000
# 6 0.000000 0.000000 0.000000 0.000000 0.000000 1.137008
#
#
# Mechanical properties :
#
#
# Convention : Reuss Voigt Hill
#
# Bulk Modulus (GPa) = 9.93179 14.13801 12.03490
# Shear Modulus (GPa) = 3.76641 22.69226 13.22934
#
# Velocity S-wave (km/s) = 1.30803 3.21066 2.45146
# Velocity P-wave (km/s) = 2.60633 4.49075 3.67150
#
# Compressibility (1/GPa) = 0.10068683
#
# Stress axis : x y z
#
# Youngs Moduli (GPa) = 17.79817 74.97931 71.21889
#
# Poissons Ratio (x) = 0.07047 -0.44271
# Poissons Ratio (y) = 0.01673 -0.23397
# Poissons Ratio (z) = -0.11064 -0.24633
#
# Static dielectric constant tensor:
#      x y z
#    x 1.903370 0.000000 0.000000 
#    y 0.000000 1.820180 0.000000 
#    z 0.000000 0.000000 1.381670 
# 
# From -- ./inp_files/1953.got.cif
#   From: 2010.05.17/outbox.cif.g08.bks.cpg/sg53_1_cif.got.tgz:1953.got - 2010.06.03 12:45:16.
