data_PCOD9417076
_publ_section_title
;
Structure prediction by ZEFSAII (Michael W. Deem and Ramdas Pophale) SiO2 
 PCOD9417076
Probable space group: P M N A
;
_chemical_formula_sum "Si O2"
_cell_formula_units_Z 48
_cell_length_a 8.647920
_cell_length_b 32.319416
_cell_length_c 9.211443
_cell_angle_alpha 90.000000
_cell_angle_beta 90.000000
_cell_angle_gamma 90.000000
_cell_volume 2574.558931
_symmetry_space_group_name_H-M "P M N A"
_symmetry_group_IT_number 53
_symmetry_cell_setting 'orthorhombic'
loop_
_space_group_symop_operation_xyz
x,y,z
1/2-x,-y,1/2+z
x,-y,-z
1/2-x,y,1/2-z
-x,-y,-z
1/2+x,y,1/2-z
-x,y,z
1/2+x,-y,1/2+z
loop_
_atom_site_type_symbol
_atom_site_label
_atom_site_fract_x
_atom_site_fract_y
_atom_site_fract_z
Si Si1 0.685402 0.369581 0.414682
Si Si2 0.185044 0.284005 0.413712
Si Si3 0.814094 0.123257 0.087269
Si Si4 0.186718 0.459964 0.087221
Si Si5 0.186650 0.959174 0.087352
Si Si6 0.314202 0.201566 0.912549
O O1 0.750000 0.370366 0.250000
O O2 0.500000 0.366437 0.411201
O O3 0.753640 0.327390 0.478374
O O4 0.729065 0.414700 0.477213
O O5 0.250000 0.279398 0.250000
O O6 0.230392 0.244550 0.509266
O O7 0.000000 0.285927 0.404555
O O8 0.750000 0.121768 0.250000
O O9 0.000000 0.124853 0.091540
O O10 0.766721 0.082098 0.999209
O O11 0.750970 0.163397 0.004738
O O12 0.250000 0.462033 0.250000
O O13 0.000000 0.461121 0.092710
O O14 0.241905 0.500000 0.000000
O O15 0.250000 0.959014 0.250000
O O16 0.000000 0.959760 0.093840
O O17 0.237764 0.000000 0.000000
O O18 0.250000 0.199985 0.750000
O O19 0.500000 0.199185 0.909591
#
# Coordination Sequence:
#
# PCOD9417076 Si02
#       6
#     8   8   8   8   8   8
#     4   9  16  28  49  73  99 132 169 212 258 306
#     4  10  20  34  54  79 104 133 172 217 263 314
#     4  11  23  39  61  87 115 148 188 232 276 325
#     4   9  18  32  49  72 101 132 169 211 256 308
#     4  10  22  39  59  86 118 152 190 231 277 328
#     4  11  24  40  58  81 111 146 182 223 273 327
#
# _framework density 18.643969999999999
#
# number of rings (size 3 to 8) (size 9 to 14) (size 15 to 20)
#    0.000    2.000    0.000    4.500    0.000    8.000 
#    0.000    0.833    0.000    4.000    0.000    0.000 
#    0.000    0.000    0.000    0.000    0.000    0.000 
#
# Total GULP energy -267940.897172 kJ/mol
# GULP energy per Si atom -5582.102024 kJ/mol
# Density = 1.860154 g / cm^3
# Si number density = 18.643970 Si / 1000 Ang^3
#
#
#
# Elastic Constant Matrix: (Units=GPa)
#
#
# Indices 1 2 3 4 5 6 
#
# 1 37.7979 53.1098 30.7150 0.0000 0.0000 0.0000
# 2 53.1098 237.1741 102.7369 0.0000 0.0000 0.0000
# 3 30.7150 102.7369 127.4714 0.0000 0.0000 0.0000
# 4 0.0000 0.0000 0.0000 30.8877 0.0000 0.0000
# 5 0.0000 0.0000 0.0000 0.0000 26.8694 0.0000
# 6 0.0000 0.0000 0.0000 0.0000 0.0000 36.0276
#
#
#
# Elastic Compliance Matrix: (Units=1/GPa)
#
#
# Indices 1 2 3 4 5 6 
#
# 1 0.039700 -0.007292 -0.003689 0.000000 0.000000 0.000000
# 2 -0.007292 0.007817 -0.004543 0.000000 0.000000 0.000000
# 3 -0.003689 -0.004543 0.012395 0.000000 0.000000 0.000000
# 4 0.000000 0.000000 0.000000 0.032375 0.000000 0.000000
# 5 0.000000 0.000000 0.000000 0.000000 0.037217 0.000000
# 6 0.000000 0.000000 0.000000 0.000000 0.000000 0.027756
#
#
# Mechanical properties :
#
#
# Convention : Reuss Voigt Hill
#
# Bulk Modulus (GPa) = 34.64480 86.17410 60.40945
# Shear Modulus (GPa) = 25.26125 33.14907 29.20516
#
# Velocity S-wave (km/s) = 3.68493 4.22121 3.96216
# Velocity P-wave (km/s) = 6.06033 8.37135 7.30777
#
# Compressibility (1/GPa) = 0.02886436
#
# Stress axis : x y z
#
# Youngs Moduli (GPa) = 25.18884 127.92248 80.67448
#
# Poissons Ratio (x) = 0.93282 0.29760
# Poissons Ratio (y) = 0.18368 0.36653
# Poissons Ratio (z) = 0.09292 0.58119
#
# Static dielectric constant tensor:
#      x y z
#    x 1.629780 0.000000 0.000000 
#    y 0.000000 1.680460 0.000000 
#    z 0.000000 0.000000 1.606730 
# 
# From -- ./inp_files/6697.got.cif
#   From: 2010.05.17/outbox.cif.g08.bks.cpg/sg53_4_cif.got.tgz:6697.got - 2010.06.03 12:45:16.
