data_PCOD9417734
_publ_section_title
;
Structure prediction by ZEFSAII (Michael W. Deem and Ramdas Pophale) SiO2 
 PCOD9417734
Probable space group: P M N A
;
_chemical_formula_sum "Si O2"
_cell_formula_units_Z 64
_cell_length_a 8.940919
_cell_length_b 21.842346
_cell_length_c 17.634439
_cell_angle_alpha 90.000000
_cell_angle_beta 90.000000
_cell_angle_gamma 90.000000
_cell_volume 3443.840990
_symmetry_space_group_name_H-M "P M N A"
_symmetry_group_IT_number 53
_symmetry_cell_setting 'orthorhombic'
loop_
_space_group_symop_operation_xyz
x,y,z
1/2-x,-y,1/2+z
x,-y,-z
1/2-x,y,1/2-z
-x,-y,-z
1/2+x,y,1/2-z
-x,y,z
1/2+x,-y,1/2+z
loop_
_atom_site_type_symbol
_atom_site_label
_atom_site_fract_x
_atom_site_fract_y
_atom_site_fract_z
Si Si1 0.177699 0.375387 0.173142
Si Si2 0.677964 0.001216 0.171804
Si Si3 0.177923 0.902044 0.068135
Si Si4 0.821591 0.877566 0.889931
Si Si5 0.821979 0.568925 0.526797
Si Si6 0.322086 0.253366 0.112008
Si Si7 0.676430 0.308716 0.944837
Si Si8 0.177864 0.782427 0.167535
O O1 0.250000 0.399970 0.250000
O O2 0.245660 0.307914 0.158354
O O3 0.000000 0.372393 0.178529
O O4 0.229790 0.415218 0.101598
O O5 0.750000 0.977196 0.250000
O O6 0.500000 0.002251 0.177780
O O7 0.743390 0.068503 0.156390
O O8 0.731177 0.958051 0.103216
O O9 0.217067 0.841387 0.115971
O O10 0.000000 0.914174 0.077351
O O11 0.205292 0.890803 0.979404
O O12 0.752157 0.811670 0.871804
O O13 0.000000 0.877790 0.877152
O O14 0.797284 0.500000 0.500000
O O15 0.784476 0.621058 0.464672
O O16 0.000000 0.577042 0.543155
O O17 0.500000 0.252239 0.125785
O O18 0.298611 0.271398 0.023353
O O19 0.500000 0.305506 0.927485
O O20 0.766455 0.276963 0.878014
O O21 0.250000 0.786976 0.250000
O O22 0.000000 0.781046 0.175009
#
# Coordination Sequence:
#
# PCOD9417734 Si02
#       8
#     8   8   8   8   8   8   8   8
#     4  11  22  37  59  88 123 159 201 246 294 346
#     4  12  26  42  59  81 111 150 194 241 295 349
#     4  10  22  40  61  85 113 148 189 237 292 349
#     4  11  22  39  62  88 117 149 189 237 292 351
#     4   9  19  38  63  90 121 158 198 242 293 347
#     4  10  20  36  59  87 117 150 191 235 289 347
#     4   9  18  34  57  84 115 149 185 230 280 339
#     4  11  22  36  56  84 115 150 190 236 290 342
#
# _framework density 18.583901000000001
#
# number of rings (size 3 to 8) (size 9 to 14) (size 15 to 20)
#    0.000    1.625    1.250    4.875    0.000    7.250 
#    0.000    3.125    0.000    0.000    0.000    0.000 
#    0.000    0.000    0.000    0.000    0.000    0.000 
#
# Total GULP energy -357765.519448 kJ/mol
# GULP energy per Si atom -5590.086241 kJ/mol
# Density = 1.854160 g / cm^3
# Si number density = 18.583901 Si / 1000 Ang^3
#
#
#
# Elastic Constant Matrix: (Units=GPa)
#
#
# Indices 1 2 3 4 5 6 
#
# 1 81.1012 38.9099 40.0490 0.0000 0.0000 0.0000
# 2 38.9099 86.9147 6.4235 0.0000 0.0000 0.0000
# 3 40.0490 6.4235 59.2649 0.0000 0.0000 0.0000
# 4 0.0000 0.0000 0.0000 10.3731 0.0000 0.0000
# 5 0.0000 0.0000 0.0000 0.0000 24.1981 0.0000
# 6 0.0000 0.0000 0.0000 0.0000 0.0000 25.7141
#
#
#
# Elastic Compliance Matrix: (Units=1/GPa)
#
#
# Indices 1 2 3 4 5 6 
#
# 1 0.024890 -0.009980 -0.015738 0.000000 0.000000 0.000000
# 2 -0.009980 0.015600 0.005053 0.000000 0.000000 0.000000
# 3 -0.015738 0.005053 0.026961 0.000000 0.000000 0.000000
# 4 0.000000 0.000000 0.000000 0.096404 0.000000 0.000000
# 5 0.000000 0.000000 0.000000 0.000000 0.041326 0.000000
# 6 0.000000 0.000000 0.000000 0.000000 0.000000 0.038889
#
#
# Mechanical properties :
#
#
# Convention : Reuss Voigt Hill
#
# Bulk Modulus (GPa) = 38.28281 44.22730 41.25506
# Shear Modulus (GPa) = 17.00074 21.51693 19.25884
#
# Velocity S-wave (km/s) = 3.02786 3.40638 3.22268
# Velocity P-wave (km/s) = 5.73312 6.27069 6.00792
#
# Compressibility (1/GPa) = 0.02612138
#
# Stress axis : x y z
#
# Youngs Moduli (GPa) = 40.17706 64.10370 37.09079
#
# Poissons Ratio (x) = 0.63972 0.58373
# Poissons Ratio (y) = 0.40095 -0.18742
# Poissons Ratio (z) = 0.63231 -0.32392
#
# Static dielectric constant tensor:
#      x y z
#    x 1.614500 0.000000 0.000000 
#    y 0.000000 1.628470 0.000000 
#    z 0.000000 0.000000 1.637170 
# 
# From -- ./inp_files/20909.got.cif
#   From: 2010.05.17/outbox.cif.g08.bks.cpg/sg53_11_cif.got.tgz:20909.got - 2010.06.03 12:45:16.
