data_PCOD9417702
_publ_section_title
;
Structure prediction by ZEFSAII (Michael W. Deem and Ramdas Pophale) SiO2 
 PCOD9417702
Probable space group: P M N A
;
_chemical_formula_sum "Si O2"
_cell_formula_units_Z 48
_cell_length_a 16.230577
_cell_length_b 5.497973
_cell_length_c 27.385092
_cell_angle_alpha 90.000000
_cell_angle_beta 90.000000
_cell_angle_gamma 90.000000
_cell_volume 2443.716191
_symmetry_space_group_name_H-M "P M N A"
_symmetry_group_IT_number 53
_symmetry_cell_setting 'orthorhombic'
loop_
_space_group_symop_operation_xyz
x,y,z
1/2-x,-y,1/2+z
x,-y,-z
1/2-x,y,1/2-z
-x,-y,-z
1/2+x,y,1/2-z
-x,y,z
1/2+x,-y,1/2+z
loop_
_atom_site_type_symbol
_atom_site_label
_atom_site_fract_x
_atom_site_fract_y
_atom_site_fract_z
Si Si1 0.820947 0.747082 0.529603
Si Si2 0.638620 0.017018 0.198843
Si Si3 0.000000 0.731956 0.578775
Si Si4 0.759321 0.263897 0.132132
Si Si5 0.215545 0.643919 0.204214
Si Si6 0.000000 0.767680 0.359832
Si Si7 0.594329 0.025101 0.304222
O O1 0.801331 0.500000 0.500000
O O2 0.915341 0.716785 0.548256
O O3 0.816158 0.000000 0.500000
O O4 0.758743 0.767328 0.575628
O O5 0.672110 0.200742 0.158408
O O6 0.720319 0.862807 0.207736
O O7 0.576749 0.826191 0.174866
O O8 0.605188 0.130784 0.249107
O O9 0.000000 0.497221 0.615423
O O10 0.000000 0.002537 0.602680
O O11 0.838955 0.129804 0.157032
O O12 0.774432 0.534537 0.150872
O O13 0.250000 0.483482 0.250000
O O14 0.123512 0.747149 0.206366
O O15 0.500000 0.047088 0.319663
#
# Coordination Sequence:
#
# PCOD9417702 Si02
#       7
#     8   8   4   8   8   4   8
#     4  12  27  44  68  96 126 170 222 280 330 385
#     4  10  20  36  58  90 132 172 211 248 307 384
#     4  12  24  43  66  94 138 172 220 263 327 378
#     4  11  22  39  64  85 126 166 216 267 326 386
#     4   9  19  35  58  87 121 165 208 253 312 381
#     4  12  22  37  64  98 138 182 204 254 311 383
#     4  10  21  37  59  92 128 163 209 263 316 391
#
# _framework density 19.642213999999999
#
# number of rings (size 3 to 8) (size 9 to 14) (size 15 to 20)
#    0.000    1.333    2.500    5.000    4.667    0.667 
#    0.000    0.000    0.000    1.000    0.000    0.000 
#    0.000    0.000    0.000    0.000    0.000    0.000 
#
# Total GULP energy -267227.749487 kJ/mol
# GULP energy per Si atom -5567.244781 kJ/mol
# Density = 1.959751 g / cm^3
# Si number density = 19.642214 Si / 1000 Ang^3
#
#
#
# Elastic Constant Matrix: (Units=GPa)
#
#
# Indices 1 2 3 4 5 6 
#
# 1 123.3599 30.5668 56.9467 0.0000 0.0000 0.0000
# 2 30.5668 73.8312 45.7923 0.0000 0.0000 0.0000
# 3 56.9467 45.7923 136.4623 0.0000 0.0000 0.0000
# 4 0.0000 0.0000 0.0000 38.6909 0.0000 0.0000
# 5 0.0000 0.0000 0.0000 0.0000 34.7390 0.0000
# 6 0.0000 0.0000 0.0000 0.0000 0.0000 13.4701
#
#
#
# Elastic Compliance Matrix: (Units=1/GPa)
#
#
# Indices 1 2 3 4 5 6 
#
# 1 0.010272 -0.002013 -0.003611 0.000000 0.000000 0.000000
# 2 -0.002013 0.017499 -0.005032 0.000000 0.000000 0.000000
# 3 -0.003611 -0.005032 0.010524 0.000000 0.000000 0.000000
# 4 0.000000 0.000000 0.000000 0.025846 0.000000 0.000000
# 5 0.000000 0.000000 0.000000 0.000000 0.028786 0.000000
# 6 0.000000 0.000000 0.000000 0.000000 0.000000 0.074239
#
#
# Mechanical properties :
#
#
# Convention : Reuss Voigt Hill
#
# Bulk Modulus (GPa) = 58.88510 66.69613 62.79061
# Shear Modulus (GPa) = 25.75485 30.73651 28.24568
#
# Velocity S-wave (km/s) = 3.62498 3.96007 3.79622
# Velocity P-wave (km/s) = 6.89670 7.41207 7.15903
#
# Compressibility (1/GPa) = 0.01698222
#
# Stress axis : x y z
#
# Youngs Moduli (GPa) = 97.35032 57.14675 95.02496
#
# Poissons Ratio (x) = 0.11504 0.34315
# Poissons Ratio (y) = 0.19597 0.47816
# Poissons Ratio (z) = 0.35155 0.28756
#
# Static dielectric constant tensor:
#      x y z
#    x 1.714640 0.000000 0.000000 
#    y 0.000000 1.812570 0.000000 
#    z 0.000000 0.000000 1.888710 
# 
# From -- ./inp_files/37028.got.cif
#   From: 2010.05.17/outbox.cif.g08.bks.cpg/sg53_19_cif.got.tgz:37028.got - 2010.06.03 12:45:16.
