data_PCOD9417461
_publ_section_title
;
Structure prediction by ZEFSAII (Michael W. Deem and Ramdas Pophale) SiO2 
 PCOD9417461
Probable space group: P M N A
;
_chemical_formula_sum "Si O2"
_cell_formula_units_Z 64
_cell_length_a 8.914441
_cell_length_b 20.874281
_cell_length_c 19.038278
_cell_angle_alpha 90.000000
_cell_angle_beta 90.000000
_cell_angle_gamma 90.000000
_cell_volume 3542.691249
_symmetry_space_group_name_H-M "P M N A"
_symmetry_group_IT_number 53
_symmetry_cell_setting 'orthorhombic'
loop_
_space_group_symop_operation_xyz
x,y,z
1/2-x,-y,1/2+z
x,-y,-z
1/2-x,y,1/2-z
-x,-y,-z
1/2+x,y,1/2-z
-x,y,z
1/2+x,-y,1/2+z
loop_
_atom_site_type_symbol
_atom_site_label
_atom_site_fract_x
_atom_site_fract_y
_atom_site_fract_z
Si Si1 0.821065 0.113944 0.827309
Si Si2 0.675996 0.103267 0.323870
Si Si3 0.321462 0.999795 0.917346
Si Si4 0.179598 0.567516 0.036366
Si Si5 0.320362 0.308405 0.034470
Si Si6 0.821530 0.240393 0.608338
Si Si7 0.678991 0.619816 0.174200
Si Si8 0.676301 0.256796 0.324219
O O1 0.750000 0.107748 0.750000
O O2 0.759278 0.057465 0.876697
O O3 0.769648 0.181581 0.860377
O O4 0.000000 0.110743 0.822376
O O5 0.750000 0.083913 0.250000
O O6 0.500000 0.087067 0.323990
O O7 0.691110 0.179732 0.330625
O O8 0.761456 0.065890 0.384404
O O9 0.500000 0.005472 0.907135
O O10 0.289684 0.000000 0.000000
O O11 0.249659 0.575799 0.113697
O O12 0.000000 0.574087 0.040698
O O13 0.215108 0.500000 0.000000
O O14 0.247312 0.625376 0.990751
O O15 0.500000 0.315091 0.036095
O O16 0.257329 0.287681 0.109296
O O17 0.285662 0.256677 0.972931
O O18 0.792060 0.306396 0.650515
O O19 0.000000 0.226685 0.613549
O O20 0.750000 0.608253 0.250000
O O21 0.500000 0.611231 0.175761
O O22 0.750000 0.275526 0.250000
O O23 0.500000 0.272421 0.324209
#
# Coordination Sequence:
#
# PCOD9417461 Si02
#       8
#     8   8   8   8   8   8   8   8
#     4  12  25  40  60  83 113 149 187 233 283 339
#     4  10  21  38  60  84 110 144 186 233 284 342
#     4  11  25  42  59  80 109 147 187 234 286 339
#     4  10  21  38  60  86 118 156 197 239 283 336
#     4  10  21  37  60  87 118 154 190 235 285 339
#     4   9  20  37  57  85 117 150 188 229 281 339
#     4  10  20  35  58  87 119 155 193 238 285 338
#     4  10  21  37  59  87 117 150 190 238 290 343
#
# _framework density 18.065362
#
# number of rings (size 3 to 8) (size 9 to 14) (size 15 to 20)
#    0.000    1.750    0.000    4.875    1.750    7.500 
#    0.000    0.625    0.000    3.000    0.000    0.000 
#    0.000    0.000    0.000    0.000    0.000    0.000 
#
# Total GULP energy -357677.288152 kJ/mol
# GULP energy per Si atom -5588.707627 kJ/mol
# Density = 1.802424 g / cm^3
# Si number density = 18.065362 Si / 1000 Ang^3
#
#
#
# Elastic Constant Matrix: (Units=GPa)
#
#
# Indices 1 2 3 4 5 6 
#
# 1 110.1932 58.7211 94.8188 0.0000 0.0000 0.0000
# 2 58.7211 57.3150 65.3178 0.0000 0.0000 0.0000
# 3 94.8188 65.3178 183.6401 0.0000 0.0000 0.0000
# 4 0.0000 0.0000 0.0000 19.4189 0.0000 0.0000
# 5 0.0000 0.0000 0.0000 0.0000 35.6362 0.0000
# 6 0.0000 0.0000 0.0000 0.0000 0.0000 26.3665
#
#
#
# Elastic Compliance Matrix: (Units=1/GPa)
#
#
# Indices 1 2 3 4 5 6 
#
# 1 0.023308 -0.017094 -0.005955 0.000000 0.000000 0.000000
# 2 -0.017094 0.041877 -0.006069 0.000000 0.000000 0.000000
# 3 -0.005955 -0.006069 0.010679 0.000000 0.000000 0.000000
# 4 0.000000 0.000000 0.000000 0.051496 0.000000 0.000000
# 5 0.000000 0.000000 0.000000 0.000000 0.028061 0.000000
# 6 0.000000 0.000000 0.000000 0.000000 0.000000 0.037927
#
#
# Mechanical properties :
#
#
# Convention : Reuss Voigt Hill
#
# Bulk Modulus (GPa) = 56.72510 87.65151 72.18830
# Shear Modulus (GPa) = 19.42064 25.10369 22.26217
#
# Velocity S-wave (km/s) = 3.28231 3.73178 3.51424
# Velocity P-wave (km/s) = 6.76999 8.19712 7.51750
#
# Compressibility (1/GPa) = 0.01762888
#
# Stress axis : x y z
#
# Youngs Moduli (GPa) = 42.90415 23.87960 93.64528
#
# Poissons Ratio (x) = 0.40819 0.55762
# Poissons Ratio (y) = 0.73338 0.56833
# Poissons Ratio (z) = 0.25548 0.14492
#
# Static dielectric constant tensor:
#      x y z
#    x 1.600900 0.000000 0.000000 
#    y 0.000000 1.597840 0.000000 
#    z 0.000000 0.000000 1.596390 
# 
# From -- ./inp_files/26998.got.cif
#   From: 2010.05.17/outbox.cif.g08.bks.cpg/sg53_14_cif.got.tgz:26998.got - 2010.06.03 12:45:16.
