data_PCOD9417110
_publ_section_title
;
Structure prediction by ZEFSAII (Michael W. Deem and Ramdas Pophale) SiO2 
 PCOD9417110
Probable space group: P M N A
;
_chemical_formula_sum "Si O2"
_cell_formula_units_Z 48
_cell_length_a 8.305387
_cell_length_b 10.034610
_cell_length_c 24.276801
_cell_angle_alpha 90.000000
_cell_angle_beta 90.000000
_cell_angle_gamma 90.000000
_cell_volume 2023.260627
_symmetry_space_group_name_H-M "P M N A"
_symmetry_group_IT_number 53
_symmetry_cell_setting 'orthorhombic'
loop_
_space_group_symop_operation_xyz
x,y,z
1/2-x,-y,1/2+z
x,-y,-z
1/2-x,y,1/2-z
-x,-y,-z
1/2+x,y,1/2-z
-x,y,z
1/2+x,-y,1/2+z
loop_
_atom_site_type_symbol
_atom_site_label
_atom_site_fract_x
_atom_site_fract_y
_atom_site_fract_z
Si Si1 0.807308 0.583991 0.841837
Si Si2 0.186619 0.310916 0.691376
Si Si3 0.193162 0.245395 0.570295
Si Si4 0.189868 0.890650 0.809723
Si Si5 0.686854 0.333015 0.459127
Si Si6 0.812855 0.051210 0.423970
O O1 0.712775 0.470323 0.810222
O O2 0.785965 0.731209 0.817153
O O3 0.747107 0.590394 0.905481
O O4 0.000000 0.555708 0.840986
O O5 0.250000 0.260075 0.750000
O O6 0.260335 0.270501 0.631771
O O7 0.000000 0.276901 0.689738
O O8 0.244279 0.341272 0.520466
O O9 0.000000 0.251037 0.573380
O O10 0.235812 0.093196 0.554077
O O11 0.250000 0.930544 0.750000
O O12 0.291418 0.957931 0.858072
O O13 0.000000 0.917944 0.817003
O O14 0.500000 0.364856 0.462018
O O15 0.710115 0.178193 0.441553
O O16 0.000000 0.077335 0.437859
#
# Coordination Sequence:
#
# PCOD9417110 Si02
#       6
#     8   8   8   8   8   8
#     4   9  20  38  58  83 113 144 182 229 281 333
#     4  11  24  41  60  82 111 149 191 231 275 329
#     4  10  23  40  57  82 115 151 188 227 276 332
#     4  10  20  34  54  82 113 145 187 237 286 337
#     4  10  21  37  60  89 116 144 183 231 281 333
#     4  10  20  36  57  81 114 152 188 230 280 334
#
# _framework density 23.724080000000001
#
# number of rings (size 3 to 8) (size 9 to 14) (size 15 to 20)
#    0.000    2.000    0.000    4.000    0.000   11.333 
#    0.000    5.000    0.000    0.000    0.000    0.000 
#    0.000    0.000    0.000    0.000    0.000    0.000 
#
# Total GULP energy -268349.927250 kJ/mol
# GULP energy per Si atom -5590.623484 kJ/mol
# Density = 2.367008 g / cm^3
# Si number density = 23.724080 Si / 1000 Ang^3
#
#
#
# Elastic Constant Matrix: (Units=GPa)
#
#
# Indices 1 2 3 4 5 6 
#
# 1 18.3074 4.8032 9.4394 0.0000 0.0000 0.0000
# 2 4.8032 34.2709 9.8799 0.0000 0.0000 0.0000
# 3 9.4394 9.8799 177.8089 0.0000 0.0000 0.0000
# 4 0.0000 0.0000 0.0000 21.8491 0.0000 0.0000
# 5 0.0000 0.0000 0.0000 0.0000 60.1607 0.0000
# 6 0.0000 0.0000 0.0000 0.0000 0.0000 0.8364
#
#
#
# Elastic Compliance Matrix: (Units=1/GPa)
#
#
# Indices 1 2 3 4 5 6 
#
# 1 0.057926 -0.007350 -0.002667 0.000000 0.000000 0.000000
# 2 -0.007350 0.030587 -0.001309 0.000000 0.000000 0.000000
# 3 -0.002667 -0.001309 0.005838 0.000000 0.000000 0.000000
# 4 0.000000 0.000000 0.000000 0.045769 0.000000 0.000000
# 5 0.000000 0.000000 0.000000 0.000000 0.016622 0.000000
# 6 0.000000 0.000000 0.000000 0.000000 0.000000 1.195541
#
#
# Mechanical properties :
#
#
# Convention : Reuss Voigt Hill
#
# Bulk Modulus (GPa) = 13.94711 30.95912 22.45311
# Shear Modulus (GPa) = 3.57440 30.32023 16.94732
#
# Velocity S-wave (km/s) = 1.22879 3.57884 2.67563
# Velocity P-wave (km/s) = 2.81156 5.49140 4.36236
#
# Compressibility (1/GPa) = 0.07169947
#
# Stress axis : x y z
#
# Youngs Moduli (GPa) = 17.26341 32.69376 171.28151
#
# Poissons Ratio (x) = 0.24029 0.45676
# Poissons Ratio (y) = 0.12688 0.22427
# Poissons Ratio (z) = 0.04604 0.04281
#
# Static dielectric constant tensor:
#      x y z
#    x 1.817050 0.000000 0.000000 
#    y 0.000000 1.915520 0.000000 
#    z 0.000000 0.000000 1.973270 
# 
# From -- ./inp_files/33892.got.cif
#   From: 2010.05.17/outbox.cif.g08.bks.cpg/sg53_17_cif.got.tgz:33892.got - 2010.06.03 12:45:16.
