data_PCOD9417780
_publ_section_title
;
Structure prediction by ZEFSAII (Michael W. Deem and Ramdas Pophale) SiO2 
 PCOD9417780
Probable space group: P M N A
;
_chemical_formula_sum "Si O2"
_cell_formula_units_Z 24
_cell_length_a 27.674833
_cell_length_b 5.089546
_cell_length_c 7.441083
_cell_angle_alpha 90.000000
_cell_angle_beta 90.000000
_cell_angle_gamma 90.000000
_cell_volume 1048.093920
_symmetry_space_group_name_H-M "P M N A"
_symmetry_group_IT_number 53
_symmetry_cell_setting 'orthorhombic'
loop_
_space_group_symop_operation_xyz
x,y,z
1/2-x,-y,1/2+z
x,-y,-z
1/2-x,y,1/2-z
-x,-y,-z
1/2+x,y,1/2-z
-x,y,z
1/2+x,-y,1/2+z
loop_
_atom_site_type_symbol
_atom_site_label
_atom_site_fract_x
_atom_site_fract_y
_atom_site_fract_z
Si Si1 0.387849 0.006105 0.716898
Si Si2 0.291213 0.242680 0.887076
Si Si3 0.945728 0.495425 0.219005
O O1 0.337865 0.111550 0.794981
O O2 0.428567 0.216112 0.771460
O O3 0.383922 0.000000 0.500000
O O4 0.406410 0.720624 0.775089
O O5 0.250000 0.330989 0.750000
O O6 0.304722 0.500000 0.000000
O O7 0.269452 0.000000 0.000000
O O8 0.000000 0.432030 0.278362
O O9 0.946290 0.500000 0.000000
#
# Coordination Sequence:
#
# PCOD9417780 Si02
#       3
#     8   8   8
#     4  10  20  36  61  90 122 159 203 252 301 355
#     4  12  26  44  66  91 123 160 205 256 313 375
#     4   9  17  31  56  90 123 158 203 250 292 346
#
# _framework density 22.898710000000001
#
# number of rings (size 3 to 8) (size 9 to 14) (size 15 to 20)
#    0.000    1.667    0.000    5.000    0.000    8.000 
#    0.000    0.000    0.000   20.000    0.000    0.000 
#    0.000    0.000    0.000    0.000    0.000    0.000 
#
# Total GULP energy -134270.546196 kJ/mol
# GULP energy per Si atom -5594.606092 kJ/mol
# Density = 2.284659 g / cm^3
# Si number density = 22.898710 Si / 1000 Ang^3
#
#
#
# Elastic Constant Matrix: (Units=GPa)
#
#
# Indices 1 2 3 4 5 6 
#
# 1 136.6865 33.9780 35.1686 0.0000 0.0000 0.0000
# 2 33.9780 145.8400 34.7049 0.0000 0.0000 0.0000
# 3 35.1686 34.7049 65.0900 0.0000 0.0000 0.0000
# 4 0.0000 0.0000 0.0000 22.7811 0.0000 0.0000
# 5 0.0000 0.0000 0.0000 0.0000 12.3848 0.0000
# 6 0.0000 0.0000 0.0000 0.0000 0.0000 30.3695
#
#
#
# Elastic Compliance Matrix: (Units=1/GPa)
#
#
# Indices 1 2 3 4 5 6 
#
# 1 0.008631 -0.001032 -0.004113 0.000000 0.000000 0.000000
# 2 -0.001032 0.007977 -0.003695 0.000000 0.000000 0.000000
# 3 -0.004113 -0.003695 0.019556 0.000000 0.000000 0.000000
# 4 0.000000 0.000000 0.000000 0.043896 0.000000 0.000000
# 5 0.000000 0.000000 0.000000 0.000000 0.080744 0.000000
# 6 0.000000 0.000000 0.000000 0.000000 0.000000 0.032928
#
#
# Mechanical properties :
#
#
# Convention : Reuss Voigt Hill
#
# Bulk Modulus (GPa) = 54.10525 61.70217 57.90371
# Shear Modulus (GPa) = 22.98080 29.35809 26.16944
#
# Velocity S-wave (km/s) = 3.17138 3.58451 3.38425
# Velocity P-wave (km/s) = 6.09012 6.64348 6.37281
#
# Compressibility (1/GPa) = 0.01848249
#
# Stress axis : x y z
#
# Youngs Moduli (GPa) = 115.86381 125.36582 51.13527
#
# Poissons Ratio (x) = 0.12939 0.21032
# Poissons Ratio (y) = 0.11958 0.18896
# Poissons Ratio (z) = 0.47655 0.46328
#
# Static dielectric constant tensor:
#      x y z
#    x 1.796170 0.000000 0.000000 
#    y 0.000000 1.804710 0.000000 
#    z 0.000000 0.000000 1.925950 
# 
# From -- ./inp_files/11284.got.cif
#   From: 2010.05.17/outbox.cif.g08.bks.cpg/sg53_6_cif.got.tgz:11284.got - 2010.06.03 12:45:16.
