data_PCOD9417745
_publ_section_title
;
Structure prediction by ZEFSAII (Michael W. Deem and Ramdas Pophale) SiO2 
 PCOD9417745
Probable space group: P M N A
;
_chemical_formula_sum "Si O2"
_cell_formula_units_Z 40
_cell_length_a 11.658879
_cell_length_b 10.162226
_cell_length_c 17.708298
_cell_angle_alpha 90.000000
_cell_angle_beta 90.000000
_cell_angle_gamma 90.000000
_cell_volume 2098.082039
_symmetry_space_group_name_H-M "P M N A"
_symmetry_group_IT_number 53
_symmetry_cell_setting 'orthorhombic'
loop_
_space_group_symop_operation_xyz
x,y,z
1/2-x,-y,1/2+z
x,-y,-z
1/2-x,y,1/2-z
-x,-y,-z
1/2+x,y,1/2-z
-x,y,z
1/2+x,-y,1/2+z
loop_
_atom_site_type_symbol
_atom_site_label
_atom_site_fract_x
_atom_site_fract_y
_atom_site_fract_z
Si Si1 0.798852 0.160038 0.833381
Si Si2 0.868328 0.848438 0.475028
Si Si3 0.704239 0.323469 0.430457
Si Si4 0.368975 0.127549 0.301084
Si Si5 0.123953 0.588336 0.092118
O O1 0.750000 0.169057 0.750000
O O2 0.701221 0.162535 0.897417
O O3 0.868276 0.291437 0.850983
O O4 0.862042 0.019605 0.835875
O O5 0.814730 0.754721 0.539207
O O6 0.000000 0.815184 0.462934
O O7 0.858853 0.000000 0.500000
O O8 0.645013 0.233567 0.367788
O O9 0.717248 0.472539 0.399741
O O10 0.635731 0.348758 0.508682
O O11 0.250000 0.139968 0.250000
O O12 0.500000 0.141402 0.267215
O O13 0.000000 0.523233 0.100196
#
# Coordination Sequence:
#
# PCOD9417745 Si02
#       5
#     8   8   8   8   8
#     4  10  22  38  57  89 119 158 202 251 301 364
#     4  10  20  37  62  90 122 161 199 249 310 364
#     4  10  20  38  58  87 114 150 200 246 297 360
#     4  11  23  38  59  87 121 157 205 255 308 367
#     4  10  20  36  60  82 114 154 193 248 309 361
#
# _framework density 19.065031000000001
#
# number of rings (size 3 to 8) (size 9 to 14) (size 15 to 20)
#    0.000    1.800    2.000    3.000    0.000    5.600 
#    0.000   11.000    0.000    2.400    0.000    0.000 
#    0.000    0.000    0.000    0.000    0.000    0.000 
#
# Total GULP energy -222707.316538 kJ/mol
# GULP energy per Si atom -5567.682913 kJ/mol
# Density = 1.902164 g / cm^3
# Si number density = 19.065031 Si / 1000 Ang^3
#
#
#
# Elastic Constant Matrix: (Units=GPa)
#
#
# Indices 1 2 3 4 5 6 
#
# 1 129.9894 32.3170 26.9379 0.0000 0.0000 0.0000
# 2 32.3170 128.5899 42.7442 0.0000 0.0000 0.0000
# 3 26.9379 42.7442 53.7262 0.0000 0.0000 0.0000
# 4 0.0000 0.0000 0.0000 34.8185 0.0000 0.0000
# 5 0.0000 0.0000 0.0000 0.0000 15.9296 0.0000
# 6 0.0000 0.0000 0.0000 0.0000 0.0000 15.7706
#
#
#
# Elastic Compliance Matrix: (Units=1/GPa)
#
#
# Indices 1 2 3 4 5 6 
#
# 1 0.008678 -0.000999 -0.003557 0.000000 0.000000 0.000000
# 2 -0.000999 0.010688 -0.008002 0.000000 0.000000 0.000000
# 3 -0.003557 -0.008002 0.026763 0.000000 0.000000 0.000000
# 4 0.000000 0.000000 0.000000 0.028720 0.000000 0.000000
# 5 0.000000 0.000000 0.000000 0.000000 0.062776 0.000000
# 6 0.000000 0.000000 0.000000 0.000000 0.000000 0.063409
#
#
# Mechanical properties :
#
#
# Convention : Reuss Voigt Hill
#
# Bulk Modulus (GPa) = 47.58875 57.36707 52.47791
# Shear Modulus (GPa) = 21.44502 27.32416 24.38459
#
# Velocity S-wave (km/s) = 3.35750 3.78988 3.58022
# Velocity P-wave (km/s) = 6.32818 7.02186 6.68402
#
# Compressibility (1/GPa) = 0.02101337
#
# Stress axis : x y z
#
# Youngs Moduli (GPa) = 115.23014 93.56569 37.36541
#
# Poissons Ratio (x) = 0.09345 0.13289
# Poissons Ratio (y) = 0.11509 0.29901
# Poissons Ratio (z) = 0.40983 0.74874
#
# Static dielectric constant tensor:
#      x y z
#    x 1.764100 0.000000 0.000000 
#    y 0.000000 1.691700 0.000000 
#    z 0.000000 0.000000 1.643480 
# 
# From -- ./inp_files/27380.got.cif
#   From: 2010.05.17/outbox.cif.g08.bks.cpg/sg53_14_cif.got.tgz:27380.got - 2010.06.03 12:45:16.
