data_PCOD9417271
_publ_section_title
;
Structure prediction by ZEFSAII (Michael W. Deem and Ramdas Pophale) SiO2 
 PCOD9417271
Probable space group: P M N A
;
_chemical_formula_sum "Si O2"
_cell_formula_units_Z 56
_cell_length_a 8.869301
_cell_length_b 17.920054
_cell_length_c 19.955895
_cell_angle_alpha 90.000000
_cell_angle_beta 90.000000
_cell_angle_gamma 90.000000
_cell_volume 3171.757081
_symmetry_space_group_name_H-M "P M N A"
_symmetry_group_IT_number 53
_symmetry_cell_setting 'orthorhombic'
loop_
_space_group_symop_operation_xyz
x,y,z
1/2-x,-y,1/2+z
x,-y,-z
1/2-x,y,1/2-z
-x,-y,-z
1/2+x,y,1/2-z
-x,y,z
1/2+x,-y,1/2+z
loop_
_atom_site_type_symbol
_atom_site_label
_atom_site_fract_x
_atom_site_fract_y
_atom_site_fract_z
Si Si1 0.181165 0.498575 0.175835
Si Si2 0.680302 0.623307 0.920276
Si Si3 0.819369 0.378917 0.934793
Si Si4 0.318790 0.085521 0.676876
Si Si5 0.181360 0.794344 0.067574
Si Si6 0.820365 0.201965 0.423846
Si Si7 0.680422 0.083454 0.323541
O O1 0.250000 0.505146 0.250000
O O2 0.242498 0.426262 0.136614
O O3 0.222649 0.567356 0.126483
O O4 0.000000 0.495668 0.180801
O O5 0.500000 0.613854 0.918231
O O6 0.716216 0.710962 0.910092
O O7 0.740307 0.602309 0.994570
O O8 0.784426 0.292558 0.918107
O O9 0.000000 0.385433 0.945015
O O10 0.250000 0.097022 0.750000
O O11 0.500000 0.089018 0.682160
O O12 0.269753 0.149187 0.625450
O O13 0.279904 0.001229 0.654137
O O14 0.000000 0.800355 0.059932
O O15 0.259490 0.814287 0.997958
O O16 0.744534 0.145839 0.372302
O O17 0.000000 0.194119 0.421299
O O18 0.750000 0.093249 0.250000
O O19 0.500000 0.088794 0.320063
#
# Coordination Sequence:
#
# PCOD9417271 Si02
#       7
#     8   8   8   8   8   8   8
#     4  11  23  37  54  79 109 139 174 214 257 306
#     4  10  21  37  57  79 104 136 174 215 260 311
#     4   9  19  36  57  79 105 139 175 211 255 308
#     4   9  19  34  53  77 105 139 177 214 256 308
#     4   9  18  35  56  78 106 139 174 212 256 306
#     4  10  21  36  54  79 106 134 173 217 261 309
#     4  10  20  35  54  76 104 139 176 214 259 310
#
# _framework density 17.655828
#
# number of rings (size 3 to 8) (size 9 to 14) (size 15 to 20)
#    0.000    2.286    0.000    2.143    0.000    7.429 
#    0.000    2.857    0.000    0.000    0.000    0.000 
#    0.000    0.000    0.000    0.000    0.000    0.000 
#
# Total GULP energy -312572.196426 kJ/mol
# GULP energy per Si atom -5581.646365 kJ/mol
# Density = 1.761564 g / cm^3
# Si number density = 17.655828 Si / 1000 Ang^3
#
#
#
# Elastic Constant Matrix: (Units=GPa)
#
#
# Indices 1 2 3 4 5 6 
#
# 1 37.2885 44.2176 44.6811 0.0000 0.0000 0.0000
# 2 44.2176 98.6075 84.3978 0.0000 0.0000 0.0000
# 3 44.6811 84.3978 118.1722 0.0000 0.0000 0.0000
# 4 0.0000 0.0000 0.0000 64.4366 0.0000 0.0000
# 5 0.0000 0.0000 0.0000 0.0000 36.5532 0.0000
# 6 0.0000 0.0000 0.0000 0.0000 0.0000 21.6342
#
#
#
# Elastic Compliance Matrix: (Units=1/GPa)
#
#
# Indices 1 2 3 4 5 6 
#
# 1 0.060815 -0.019525 -0.009049 0.000000 0.000000 0.000000
# 2 -0.019525 0.032357 -0.015727 0.000000 0.000000 0.000000
# 3 -0.009049 -0.015727 0.023116 0.000000 0.000000 0.000000
# 4 0.000000 0.000000 0.000000 0.015519 0.000000 0.000000
# 5 0.000000 0.000000 0.000000 0.000000 0.027357 0.000000
# 6 0.000000 0.000000 0.000000 0.000000 0.000000 0.046223
#
#
# Mechanical properties :
#
#
# Convention : Reuss Voigt Hill
#
# Bulk Modulus (GPa) = 36.12061 66.74015 51.43038
# Shear Modulus (GPa) = 16.48973 29.90958 23.19966
#
# Velocity S-wave (km/s) = 3.05938 4.12033 3.62884
# Velocity P-wave (km/s) = 5.74303 7.77939 6.83744
#
# Compressibility (1/GPa) = 0.02768502
#
# Stress axis : x y z
#
# Youngs Moduli (GPa) = 16.44332 30.90492 43.26055
#
# Poissons Ratio (x) = 0.60343 0.39148
# Poissons Ratio (y) = 0.32106 0.68035
# Poissons Ratio (z) = 0.14880 0.48604
#
# Static dielectric constant tensor:
#      x y z
#    x 1.588570 0.000000 0.000000 
#    y 0.000000 1.609580 0.000000 
#    z 0.000000 0.000000 1.558570 
# 
# From -- ./inp_files/30834.got.cif
#   From: 2010.05.17/outbox.cif.g08.bks.cpg/sg53_16_cif.got.tgz:30834.got - 2010.06.03 12:45:16.
