data_PCOD9417264
_publ_section_title
;
Structure prediction by ZEFSAII (Michael W. Deem and Ramdas Pophale) SiO2 
 PCOD9417264
Probable space group: P M N A
;
_chemical_formula_sum "Si O2"
_cell_formula_units_Z 48
_cell_length_a 8.698270
_cell_length_b 21.391534
_cell_length_c 14.134371
_cell_angle_alpha 90.000000
_cell_angle_beta 90.000000
_cell_angle_gamma 90.000000
_cell_volume 2629.973061
_symmetry_space_group_name_H-M "P M N A"
_symmetry_group_IT_number 53
_symmetry_cell_setting 'orthorhombic'
loop_
_space_group_symop_operation_xyz
x,y,z
1/2-x,-y,1/2+z
x,-y,-z
1/2-x,y,1/2-z
-x,-y,-z
1/2+x,y,1/2-z
-x,y,z
1/2+x,-y,1/2+z
loop_
_atom_site_type_symbol
_atom_site_label
_atom_site_fract_x
_atom_site_fract_y
_atom_site_fract_z
Si Si1 0.185892 0.352378 0.050044
Si Si2 0.325460 0.484065 0.388392
Si Si3 0.313055 0.904247 0.543598
Si Si4 0.819785 0.612429 0.347571
Si Si5 0.186268 0.222151 0.144484
Si Si6 0.685506 0.968736 0.353000
O O1 0.233193 0.412929 0.112468
O O2 0.233823 0.287319 0.096318
O O3 0.000000 0.355221 0.046223
O O4 0.246410 0.360137 0.943331
O O5 0.336681 0.500000 0.500000
O O6 0.500000 0.488666 0.349628
O O7 0.218378 0.538242 0.349267
O O8 0.500000 0.904053 0.542988
O O9 0.261874 0.837889 0.583795
O O10 0.265048 0.921809 0.436974
O O11 0.267144 0.961872 0.611475
O O12 0.750000 0.638050 0.250000
O O13 0.000000 0.622415 0.349297
O O14 0.250000 0.217747 0.250000
O O15 0.000000 0.221534 0.147725
O O16 0.750000 0.954798 0.250000
O O17 0.500000 0.967839 0.349160
#
# Coordination Sequence:
#
# PCOD9417264 Si02
#       6
#     8   8   8   8   8   8
#     4   9  19  35  52  72 101 133 164 203 250 298
#     4   8  15  30  49  69  95 124 156 198 246 293
#     4   8  16  31  50  72 102 138 168 198 244 299
#     4  11  21  33  52  75  99 129 166 207 251 300
#     4  10  20  35  54  74  99 132 167 204 248 298
#     4   9  16  29  50  75 102 133 169 206 246 289
#
# _framework density 18.251137
#
# number of rings (size 3 to 8) (size 9 to 14) (size 15 to 20)
#    0.000    2.833    0.000    4.000    0.000    4.333 
#    0.000    5.000    0.000    2.000    0.000    0.000 
#    0.000    0.000    0.000    0.000    0.000    0.000 
#
# Total GULP energy -267583.917036 kJ/mol
# GULP energy per Si atom -5574.664938 kJ/mol
# Density = 1.820960 g / cm^3
# Si number density = 18.251137 Si / 1000 Ang^3
#
#
#
# Elastic Constant Matrix: (Units=GPa)
#
#
# Indices 1 2 3 4 5 6 
#
# 1 15.1700 12.3268 15.2397 0.0000 0.0000 0.0000
# 2 12.3268 143.1513 67.7778 0.0000 0.0000 0.0000
# 3 15.2397 67.7778 128.2692 0.0000 0.0000 0.0000
# 4 0.0000 0.0000 0.0000 17.2638 0.0000 0.0000
# 5 0.0000 0.0000 0.0000 0.0000 30.6935 0.0000
# 6 0.0000 0.0000 0.0000 0.0000 0.0000 15.2974
#
#
#
# Elastic Compliance Matrix: (Units=1/GPa)
#
#
# Indices 1 2 3 4 5 6 
#
# 1 0.075820 -0.003019 -0.007413 0.000000 0.000000 0.000000
# 2 -0.003019 0.009437 -0.004628 0.000000 0.000000 0.000000
# 3 -0.007413 -0.004628 0.011122 0.000000 0.000000 0.000000
# 4 0.000000 0.000000 0.000000 0.057925 0.000000 0.000000
# 5 0.000000 0.000000 0.000000 0.000000 0.032580 0.000000
# 6 0.000000 0.000000 0.000000 0.000000 0.000000 0.065371
#
#
# Mechanical properties :
#
#
# Convention : Reuss Voigt Hill
#
# Bulk Modulus (GPa) = 15.09221 53.03101 34.06161
# Shear Modulus (GPa) = 16.42252 25.40067 20.91160
#
# Velocity S-wave (km/s) = 3.00293 3.73464 3.38859
# Velocity P-wave (km/s) = 4.50673 6.90768 5.83210
#
# Compressibility (1/GPa) = 0.06625933
#
# Stress axis : x y z
#
# Youngs Moduli (GPa) = 13.18916 105.96989 89.91107
#
# Poissons Ratio (x) = 0.31993 0.66650
# Poissons Ratio (y) = 0.03982 0.41608
# Poissons Ratio (z) = 0.09777 0.49039
#
# Static dielectric constant tensor:
#      x y z
#    x 1.622110 0.000000 0.000000 
#    y 0.000000 1.642270 0.000000 
#    z 0.000000 0.000000 1.625300 
# 
# From -- ./inp_files/20324.got.cif
#   From: 2010.05.17/outbox.cif.g08.bks.cpg/sg53_11_cif.got.tgz:20324.got - 2010.06.03 12:45:16.
