data_PCOD9417408
_publ_section_title
;
Structure prediction by ZEFSAII (Michael W. Deem and Ramdas Pophale) SiO2 
 PCOD9417408
Probable space group: P M N A
;
_chemical_formula_sum "Si O2"
_cell_formula_units_Z 56
_cell_length_a 7.729628
_cell_length_b 19.588346
_cell_length_c 17.485443
_cell_angle_alpha 90.000000
_cell_angle_beta 90.000000
_cell_angle_gamma 90.000000
_cell_volume 2647.481901
_symmetry_space_group_name_H-M "P M N A"
_symmetry_group_IT_number 53
_symmetry_cell_setting 'orthorhombic'
loop_
_space_group_symop_operation_xyz
x,y,z
1/2-x,-y,1/2+z
x,-y,-z
1/2-x,y,1/2-z
-x,-y,-z
1/2+x,y,1/2-z
-x,y,z
1/2+x,-y,1/2+z
loop_
_atom_site_type_symbol
_atom_site_label
_atom_site_fract_x
_atom_site_fract_y
_atom_site_fract_z
Si Si1 0.209169 0.328447 0.162257
Si Si2 0.209912 0.285605 0.580974
Si Si3 0.200197 0.794909 0.929119
Si Si4 0.293001 0.153932 0.834994
Si Si5 0.300325 0.456467 0.429586
Si Si6 0.795427 0.925631 0.481203
Si Si7 0.206642 0.419870 0.663557
O O1 0.250000 0.344789 0.250000
O O2 0.273068 0.252955 0.138176
O O3 0.276160 0.385915 0.102605
O O4 0.000000 0.328369 0.155037
O O5 0.282685 0.254314 0.503251
O O6 0.262222 0.231402 0.646498
O O7 0.265540 0.360750 0.605226
O O8 0.000000 0.285705 0.574718
O O9 0.278250 0.867404 0.953888
O O10 0.000000 0.808487 0.913255
O O11 0.250000 0.132187 0.750000
O O12 0.500000 0.154088 0.841732
O O13 0.222144 0.106745 0.903048
O O14 0.220436 0.500000 0.500000
O O15 0.500000 0.442590 0.450913
O O16 0.292641 0.509133 0.359196
O O17 0.000000 0.934885 0.468367
O O18 0.721835 0.000000 0.500000
O O19 0.250000 0.400036 0.750000
O O20 0.000000 0.427043 0.656725
#
# Coordination Sequence:
#
# PCOD9417408 Si02
#       7
#     8   8   8   8   8   8   8
#     4  10  22  38  56  79 107 143 185 229 278 329
#     4   9  19  34  51  74 105 140 175 209 254 318
#     4  10  20  35  57  83 106 132 174 222 265 311
#     4   9  17  30  49  74 102 134 171 207 250 306
#     4  10  21  38  57  76 103 139 180 229 283 332
#     4   9  19  37  58  79 108 145 178 210 259 322
#     4  11  22  34  50  75 106 138 175 218 264 316
#
# _framework density 21.152176000000001
#
# number of rings (size 3 to 8) (size 9 to 14) (size 15 to 20)
#    0.000    2.286    0.000    3.429    0.000    8.000 
#    0.000    0.714    0.000    3.429    0.000    0.000 
#    0.000    0.000    0.000    0.000    0.000    0.000 
#
# Total GULP energy -312488.807835 kJ/mol
# GULP energy per Si atom -5580.157283 kJ/mol
# Density = 2.110403 g / cm^3
# Si number density = 21.152176 Si / 1000 Ang^3
#
#
#
# Elastic Constant Matrix: (Units=GPa)
#
#
# Indices 1 2 3 4 5 6 
#
# 1 34.3604 0.9231 -4.7577 0.0000 0.0000 0.0000
# 2 0.9231 134.2101 30.0205 0.0000 0.0000 0.0000
# 3 -4.7577 30.0205 69.0673 0.0000 0.0000 0.0000
# 4 0.0000 0.0000 0.0000 20.0586 0.0000 0.0000
# 5 0.0000 0.0000 0.0000 0.0000 19.8868 0.0000
# 6 0.0000 0.0000 0.0000 0.0000 0.0000 14.3725
#
#
#
# Elastic Compliance Matrix: (Units=1/GPa)
#
#
# Indices 1 2 3 4 5 6 
#
# 1 0.029447 -0.000727 0.002344 0.000000 0.000000 0.000000
# 2 -0.000727 0.008271 -0.003645 0.000000 0.000000 0.000000
# 3 0.002344 -0.003645 0.016225 0.000000 0.000000 0.000000
# 4 0.000000 0.000000 0.000000 0.049854 0.000000 0.000000
# 5 0.000000 0.000000 0.000000 0.000000 0.050285 0.000000
# 6 0.000000 0.000000 0.000000 0.000000 0.000000 0.069577
#
#
# Mechanical properties :
#
#
# Convention : Reuss Voigt Hill
#
# Bulk Modulus (GPa) = 20.04499 32.22331 26.13415
# Shear Modulus (GPa) = 20.46296 24.96038 22.71167
#
# Velocity S-wave (km/s) = 3.11371 3.43890 3.28033
# Velocity P-wave (km/s) = 4.73540 5.57092 5.17006
#
# Compressibility (1/GPa) = 0.04988778
#
# Stress axis : x y z
#
# Youngs Moduli (GPa) = 33.95885 120.89859 61.63490
#
# Poissons Ratio (x) = 0.08789 -0.14450
# Poissons Ratio (y) = 0.02469 0.22468
# Poissons Ratio (z) = -0.07962 0.44071
#
# Static dielectric constant tensor:
#      x y z
#    x 1.903650 0.000000 0.000000 
#    y 0.000000 1.782360 0.000000 
#    z 0.000000 0.000000 1.784380 
# 
# From -- ./inp_files/20469.got.cif
#   From: 2010.05.17/outbox.cif.g08.bks.cpg/sg53_11_cif.got.tgz:20469.got - 2010.06.03 12:45:16.
