data_PCOD9417093
_publ_section_title
;
Structure prediction by ZEFSAII (Michael W. Deem and Ramdas Pophale) SiO2 
 PCOD9417093
Probable space group: P M N A
;
_chemical_formula_sum "Si O2"
_cell_formula_units_Z 40
_cell_length_a 8.735913
_cell_length_b 27.296438
_cell_length_c 9.286896
_cell_angle_alpha 90.000000
_cell_angle_beta 90.000000
_cell_angle_gamma 90.000000
_cell_volume 2214.546790
_symmetry_space_group_name_H-M "P M N A"
_symmetry_group_IT_number 53
_symmetry_cell_setting 'orthorhombic'
loop_
_space_group_symop_operation_xyz
x,y,z
1/2-x,-y,1/2+z
x,-y,-z
1/2-x,y,1/2-z
-x,-y,-z
1/2+x,y,1/2-z
-x,y,z
1/2+x,-y,1/2+z
loop_
_atom_site_type_symbol
_atom_site_label
_atom_site_fract_x
_atom_site_fract_y
_atom_site_fract_z
Si Si1 0.815296 0.453149 0.089492
Si Si2 0.816314 0.138478 0.411878
Si Si3 0.683538 0.951553 0.409754
Si Si4 0.182768 0.247214 0.412109
Si Si5 0.183247 0.345849 0.087215
O O1 0.750000 0.455920 0.250000
O O2 0.775170 0.399414 0.025510
O O3 0.000000 0.454770 0.097330
O O4 0.761486 0.500000 0.000000
O O5 0.750000 0.134316 0.250000
O O6 0.748045 0.096037 0.509724
O O7 0.779440 0.193195 0.471050
O O8 0.000000 0.134255 0.404376
O O9 0.750000 0.954930 0.250000
O O10 0.500000 0.948776 0.403709
O O11 0.726242 0.000000 0.500000
O O12 0.250000 0.246062 0.250000
O O13 0.250624 0.296356 0.482459
O O14 0.000000 0.251927 0.404837
O O15 0.250000 0.347057 0.250000
O O16 0.000000 0.341852 0.094013
#
# Coordination Sequence:
#
# PCOD9417093 Si02
#       5
#     8   8   8   8   8
#     4   9  18  31  46  67  95 125 161 204 248 296
#     4  10  20  34  54  80 109 139 171 209 253 301
#     4  11  24  40  59  82 108 139 173 211 254 299
#     4   9  16  26  43  69  99 128 161 202 245 290
#     4   9  15  24  41  64  91 123 158 199 246 292
#
# _framework density 18.062386
#
# number of rings (size 3 to 8) (size 9 to 14) (size 15 to 20)
#    0.000    2.400    0.000    4.200    0.000    6.800 
#    0.000    0.000    0.000    1.200    0.000    5.600 
#    0.000    0.000    0.000    0.000    0.000    0.000 
#
# Total GULP energy -222900.524811 kJ/mol
# GULP energy per Si atom -5572.513120 kJ/mol
# Density = 1.802128 g / cm^3
# Si number density = 18.062386 Si / 1000 Ang^3
#
#
#
# Elastic Constant Matrix: (Units=GPa)
#
#
# Indices 1 2 3 4 5 6 
#
# 1 54.7768 68.1872 22.8325 0.0000 0.0000 0.0000
# 2 68.1872 237.7984 70.0208 0.0000 0.0000 0.0000
# 3 22.8325 70.0208 59.4611 0.0000 0.0000 0.0000
# 4 0.0000 0.0000 0.0000 24.4781 0.0000 0.0000
# 5 0.0000 0.0000 0.0000 0.0000 17.6924 0.0000
# 6 0.0000 0.0000 0.0000 0.0000 0.0000 36.7228
#
#
#
# Elastic Compliance Matrix: (Units=1/GPa)
#
#
# Indices 1 2 3 4 5 6 
#
# 1 0.028548 -0.007590 -0.002024 0.000000 0.000000 0.000000
# 2 -0.007590 0.008455 -0.007042 0.000000 0.000000 0.000000
# 3 -0.002024 -0.007042 0.025888 0.000000 0.000000 0.000000
# 4 0.000000 0.000000 0.000000 0.040853 0.000000 0.000000
# 5 0.000000 0.000000 0.000000 0.000000 0.056521 0.000000
# 6 0.000000 0.000000 0.000000 0.000000 0.000000 0.027231
#
#
# Mechanical properties :
#
#
# Convention : Reuss Voigt Hill
#
# Bulk Modulus (GPa) = 33.80907 74.90192 54.35549
# Shear Modulus (GPa) = 21.67612 28.51171 25.09392
#
# Velocity S-wave (km/s) = 3.46796 3.97736 3.73136
# Velocity P-wave (km/s) = 5.89866 7.91524 6.98016
#
# Compressibility (1/GPa) = 0.02957786
#
# Stress axis : x y z
#
# Youngs Moduli (GPa) = 35.02922 118.27019 38.62784
#
# Poissons Ratio (x) = 0.89764 0.07820
# Poissons Ratio (y) = 0.26586 0.27203
# Poissons Ratio (z) = 0.07091 0.83290
#
# Static dielectric constant tensor:
#      x y z
#    x 1.605500 0.000000 0.000000 
#    y 0.000000 1.697530 0.000000 
#    z 0.000000 0.000000 1.580370 
# 
# From -- ./inp_files/6424.got.cif
#   From: 2010.05.17/outbox.cif.g08.bks.cpg/sg53_4_cif.got.tgz:6424.got - 2010.06.03 12:45:16.
