data_PCOD9417097
_publ_section_title
;
Structure prediction by ZEFSAII (Michael W. Deem and Ramdas Pophale) SiO2 
 PCOD9417097
Probable space group: P M N A
;
_chemical_formula_sum "Si O2"
_cell_formula_units_Z 56
_cell_length_a 7.553955
_cell_length_b 15.035558
_cell_length_c 21.944272
_cell_angle_alpha 90.000000
_cell_angle_beta 90.000000
_cell_angle_gamma 90.000000
_cell_volume 2492.384957
_symmetry_space_group_name_H-M "P M N A"
_symmetry_group_IT_number 53
_symmetry_cell_setting 'orthorhombic'
loop_
_space_group_symop_operation_xyz
x,y,z
1/2-x,-y,1/2+z
x,-y,-z
1/2-x,y,1/2-z
-x,-y,-z
1/2+x,y,1/2-z
-x,y,z
1/2+x,-y,1/2+z
loop_
_atom_site_type_symbol
_atom_site_label
_atom_site_fract_x
_atom_site_fract_y
_atom_site_fract_z
Si Si1 0.787560 0.373899 0.682458
Si Si2 0.803257 0.571400 0.664641
Si Si3 0.711277 0.737662 0.066677
Si Si4 0.212902 0.954986 0.677481
Si Si5 0.716776 0.060249 0.941865
Si Si6 0.710397 0.234792 0.181035
Si Si7 0.799989 0.406615 0.034003
O O1 0.750000 0.338680 0.750000
O O2 0.718521 0.476018 0.678990
O O3 0.719871 0.312014 0.627698
O O4 0.000000 0.381014 0.674503
O O5 0.713045 0.666014 0.677380
O O6 0.817860 0.578078 0.592346
O O7 0.000000 0.571800 0.693633
O O8 0.500000 0.745137 0.074496
O O9 0.776647 0.837147 0.054303
O O10 0.745363 0.672341 0.010284
O O11 0.250000 0.974105 0.750000
O O12 0.275394 0.857391 0.652086
O O13 0.000000 0.950943 0.675625
O O14 0.270597 0.023589 0.625107
O O15 0.500000 0.059150 0.943009
O O16 0.772486 0.000000 0.000000
O O17 0.750000 0.210315 0.250000
O O18 0.500000 0.243310 0.167338
O O19 0.000000 0.389265 0.054997
O O20 0.798131 0.500000 0.000000
#
# Coordination Sequence:
#
# PCOD9417097 Si02
#       7
#     8   8   8   8   8   8   8
#     4  10  21  35  53  80 111 146 185 227 272 326
#     4  10  20  34  54  80 109 144 185 224 268 324
#     4  10  21  38  59  82 110 145 188 232 277 333
#     4   9  18  34  55  82 111 144 188 231 284 341
#     4   9  19  35  59  87 111 142 190 243 286 333
#     4   9  18  31  51  78 109 143 179 219 267 324
#     4  11  23  37  55  81 111 143 179 222 276 330
#
# _framework density 22.468439
#
# number of rings (size 3 to 8) (size 9 to 14) (size 15 to 20)
#    0.000    2.286    1.429    0.857    2.000    2.857 
#    0.000    0.714    0.000    0.857    0.000    0.000 
#    0.000    0.000    0.000    0.000    0.000    0.000 
#
# Total GULP energy -311954.603501 kJ/mol
# GULP energy per Si atom -5570.617920 kJ/mol
# Density = 2.241730 g / cm^3
# Si number density = 22.468439 Si / 1000 Ang^3
#
#
#
# Elastic Constant Matrix: (Units=GPa)
#
#
# Indices 1 2 3 4 5 6 
#
# 1 46.6685 12.5691 7.8080 0.0000 0.0000 0.0000
# 2 12.5691 165.1974 51.7266 0.0000 0.0000 0.0000
# 3 7.8080 51.7266 114.1455 0.0000 0.0000 0.0000
# 4 0.0000 0.0000 0.0000 32.6129 0.0000 0.0000
# 5 0.0000 0.0000 0.0000 0.0000 18.9697 0.0000
# 6 0.0000 0.0000 0.0000 0.0000 0.0000 40.1304
#
#
#
# Elastic Compliance Matrix: (Units=1/GPa)
#
#
# Indices 1 2 3 4 5 6 
#
# 1 0.021950 -0.001398 -0.000868 0.000000 0.000000 0.000000
# 2 -0.001398 0.007143 -0.003141 0.000000 0.000000 0.000000
# 3 -0.000868 -0.003141 0.010244 0.000000 0.000000 0.000000
# 4 0.000000 0.000000 0.000000 0.030663 0.000000 0.000000
# 5 0.000000 0.000000 0.000000 0.000000 0.052716 0.000000
# 6 0.000000 0.000000 0.000000 0.000000 0.000000 0.024919
#
#
# Mechanical properties :
#
#
# Convention : Reuss Voigt Hill
#
# Bulk Modulus (GPa) = 35.06126 52.24653 43.65389
# Shear Modulus (GPa) = 29.76967 35.26977 32.51972
#
# Velocity S-wave (km/s) = 3.64394 3.96630 3.80853
# Velocity P-wave (km/s) = 5.77434 6.65426 6.22985
#
# Compressibility (1/GPa) = 0.02852151
#
# Stress axis : x y z
#
# Youngs Moduli (GPa) = 45.55909 139.98895 97.62080
#
# Poissons Ratio (x) = 0.19575 0.08471
# Poissons Ratio (y) = 0.06371 0.30667
# Poissons Ratio (z) = 0.03953 0.43977
#
# Static dielectric constant tensor:
#      x y z
#    x 1.872750 0.000000 0.000000 
#    y 0.000000 1.996390 0.000000 
#    z 0.000000 0.000000 1.825930 
# 
# From -- ./inp_files/30849.got.cif
#   From: 2010.05.17/outbox.cif.g08.bks.cpg/sg53_16_cif.got.tgz:30849.got - 2010.06.03 12:45:16.
