data_PCOD9417167
_publ_section_title
;
Structure prediction by ZEFSAII (Michael W. Deem and Ramdas Pophale) SiO2 
 PCOD9417167
Probable space group: P M N A
;
_chemical_formula_sum "Si O2"
_cell_formula_units_Z 56
_cell_length_a 9.036885
_cell_length_b 21.003433
_cell_length_c 15.581515
_cell_angle_alpha 90.000000
_cell_angle_beta 90.000000
_cell_angle_gamma 90.000000
_cell_volume 2957.458938
_symmetry_space_group_name_H-M "P M N A"
_symmetry_group_IT_number 53
_symmetry_cell_setting 'orthorhombic'
loop_
_space_group_symop_operation_xyz
x,y,z
1/2-x,-y,1/2+z
x,-y,-z
1/2-x,y,1/2-z
-x,-y,-z
1/2+x,y,1/2-z
-x,y,z
1/2+x,-y,1/2+z
loop_
_atom_site_type_symbol
_atom_site_label
_atom_site_fract_x
_atom_site_fract_y
_atom_site_fract_z
Si Si1 0.824878 0.014773 0.401104
Si Si2 0.677417 0.212056 0.515992
Si Si3 0.823566 0.348362 0.520638
Si Si4 0.323814 0.856222 0.661037
Si Si5 0.830834 0.468405 0.905055
Si Si6 0.675346 0.409886 0.165420
Si Si7 0.675649 0.873355 0.161264
O O1 0.802476 0.949074 0.350752
O O2 0.000000 0.030919 0.399143
O O3 0.784929 0.000000 0.500000
O O4 0.734705 0.073465 0.363381
O O5 0.500000 0.213029 0.525264
O O6 0.746187 0.280944 0.533217
O O7 0.712886 0.189085 0.419322
O O8 0.748330 0.162331 0.582147
O O9 0.754077 0.402215 0.582068
O O10 0.796248 0.371063 0.422174
O O11 0.000000 0.344616 0.532943
O O12 0.250000 0.835878 0.750000
O O13 0.500000 0.858042 0.671078
O O14 0.744799 0.520173 0.848992
O O15 0.000000 0.459614 0.875962
O O16 0.835538 0.500000 0.000000
O O17 0.750000 0.381067 0.250000
O O18 0.500000 0.414518 0.177066
O O19 0.750000 0.852731 0.250000
O O20 0.500000 0.861102 0.161144
#
# Coordination Sequence:
#
# PCOD9417167 Si02
#       7
#     8   8   8   8   8   8   8
#     4  10  20  37  62  90 118 151 191 241 300 357
#     4  11  24  41  60  85 117 157 203 247 294 352
#     4  10  21  37  58  82 112 152 192 233 284 341
#     4  11  24  39  59  86 119 157 198 246 298 356
#     4   9  17  32  55  81 109 142 180 223 270 323
#     4  10  20  34  55  85 118 150 188 233 282 337
#     4  11  23  40  63  88 117 152 194 244 299 357
#
# _framework density 18.935175000000001
#
# number of rings (size 3 to 8) (size 9 to 14) (size 15 to 20)
#    0.000    1.714    1.429    3.000    0.000    8.286 
#    0.000    3.571    0.000    0.000    0.000    0.000 
#    0.000    0.000    0.000    0.000    0.000    0.000 
#
# Total GULP energy -312911.540088 kJ/mol
# GULP energy per Si atom -5587.706073 kJ/mol
# Density = 1.889208 g / cm^3
# Si number density = 18.935175 Si / 1000 Ang^3
#
#
#
# Elastic Constant Matrix: (Units=GPa)
#
#
# Indices 1 2 3 4 5 6 
#
# 1 57.2355 21.5899 13.3233 0.0000 0.0000 0.0000
# 2 21.5899 60.3307 -14.8979 0.0000 0.0000 0.0000
# 3 13.3233 -14.8979 55.5606 0.0000 0.0000 0.0000
# 4 0.0000 0.0000 0.0000 5.0416 0.0000 0.0000
# 5 0.0000 0.0000 0.0000 0.0000 27.1650 0.0000
# 6 0.0000 0.0000 0.0000 0.0000 0.0000 25.9007
#
#
#
# Elastic Compliance Matrix: (Units=1/GPa)
#
#
# Indices 1 2 3 4 5 6 
#
# 1 0.023363 -0.010435 -0.008401 0.000000 0.000000 0.000000
# 2 -0.010435 0.022412 0.008512 0.000000 0.000000 0.000000
# 3 -0.008401 0.008512 0.022295 0.000000 0.000000 0.000000
# 4 0.000000 0.000000 0.000000 0.198349 0.000000 0.000000
# 5 0.000000 0.000000 0.000000 0.000000 0.036812 0.000000
# 6 0.000000 0.000000 0.000000 0.000000 0.000000 0.038609
#
#
# Mechanical properties :
#
#
# Convention : Reuss Voigt Hill
#
# Bulk Modulus (GPa) = 21.08730 23.68415 22.38572
# Shear Modulus (GPa) = 13.21719 21.82890 17.52305
#
# Velocity S-wave (km/s) = 2.64488 3.39901 3.04538
# Velocity P-wave (km/s) = 4.52636 5.28578 4.92074
#
# Compressibility (1/GPa) = 0.04742191
#
# Stress axis : x y z
#
# Youngs Moduli (GPa) = 42.80189 44.61991 44.85287
#
# Poissons Ratio (x) = 0.46562 0.37679
# Poissons Ratio (y) = 0.44665 -0.38178
# Poissons Ratio (z) = 0.35956 -0.37979
#
# Static dielectric constant tensor:
#      x y z
#    x 1.629870 0.000000 0.000000 
#    y 0.000000 1.624330 0.000000 
#    z 0.000000 0.000000 1.668450 
# 
# From -- ./inp_files/20592.got.cif
#   From: 2010.05.17/outbox.cif.g08.bks.cpg/sg53_11_cif.got.tgz:20592.got - 2010.06.03 12:45:16.
