data_PCOD9417580
_publ_section_title
;
Structure prediction by ZEFSAII (Michael W. Deem and Ramdas Pophale) SiO2 
 PCOD9417580
Probable space group: P M N A
;
_chemical_formula_sum "Si O2"
_cell_formula_units_Z 56
_cell_length_a 9.604241
_cell_length_b 16.345264
_cell_length_c 19.526806
_cell_angle_alpha 90.000000
_cell_angle_beta 90.000000
_cell_angle_gamma 90.000000
_cell_volume 3065.393275
_symmetry_space_group_name_H-M "P M N A"
_symmetry_group_IT_number 53
_symmetry_cell_setting 'orthorhombic'
loop_
_space_group_symop_operation_xyz
x,y,z
1/2-x,-y,1/2+z
x,-y,-z
1/2-x,y,1/2-z
-x,-y,-z
1/2+x,y,1/2-z
-x,y,z
1/2+x,-y,1/2+z
loop_
_atom_site_type_symbol
_atom_site_label
_atom_site_fract_x
_atom_site_fract_y
_atom_site_fract_z
Si Si1 0.834334 0.172713 0.930509
Si Si2 0.164892 0.501136 0.181676
Si Si3 0.336742 0.693236 0.316723
Si Si4 0.664745 0.139502 0.179694
Si Si5 0.836688 0.983847 0.418584
Si Si6 0.161998 0.756936 0.552706
Si Si7 0.660204 0.565815 0.939623
O O1 0.805200 0.248276 0.879898
O O2 0.762918 0.091467 0.901232
O O3 0.000000 0.162855 0.937636
O O4 0.761949 0.194312 0.002190
O O5 0.250000 0.480724 0.250000
O O6 0.189476 0.597864 0.167465
O O7 0.229534 0.452069 0.119158
O O8 0.000000 0.488334 0.190042
O O9 0.250000 0.716001 0.250000
O O10 0.500000 0.701186 0.300913
O O11 0.750000 0.137801 0.250000
O O12 0.500000 0.138520 0.195545
O O13 0.692813 0.218192 0.131177
O O14 0.692987 0.061919 0.129554
O O15 0.000000 0.962926 0.409262
O O16 0.817297 0.000000 0.500000
O O17 0.174266 0.660355 0.538974
O O18 0.000000 0.781462 0.540400
O O19 0.500000 0.555305 0.914717
O O20 0.680449 0.500000 0.000000
#
# Coordination Sequence:
#
# PCOD9417580 Si02
#       7
#     8   8   8   8   8   8   8
#     4  11  22  35  57  88 117 143 186 238 284 332
#     4  10  20  36  57  78 109 150 191 234 286 345
#     4   9  20  36  53  79 113 149 187 232 284 340
#     4  10  22  40  61  84 113 150 190 233 279 339
#     4  10  20  39  62  81 109 149 190 225 277 345
#     4  10  21  39  59  81 114 156 193 229 284 348
#     4  10  21  36  57  86 116 147 193 246 291 342
#
# _framework density 18.268454999999999
#
# number of rings (size 3 to 8) (size 9 to 14) (size 15 to 20)
#    0.000    2.000    1.429    1.714    0.000    5.143 
#    0.000    4.286    0.000    0.000    0.000    0.000 
#    0.000    0.000    0.000    0.000    0.000    0.000 
#
# Total GULP energy -312555.471554 kJ/mol
# GULP energy per Si atom -5581.347706 kJ/mol
# Density = 1.822688 g / cm^3
# Si number density = 18.268455 Si / 1000 Ang^3
#
#
#
# Elastic Constant Matrix: (Units=GPa)
#
#
# Indices 1 2 3 4 5 6 
#
# 1 53.2751 37.9807 35.9767 0.0000 0.0000 0.0000
# 2 37.9807 62.7907 30.7543 0.0000 0.0000 0.0000
# 3 35.9767 30.7543 66.7510 0.0000 0.0000 0.0000
# 4 0.0000 0.0000 0.0000 24.5044 0.0000 0.0000
# 5 0.0000 0.0000 0.0000 0.0000 36.1457 0.0000
# 6 0.0000 0.0000 0.0000 0.0000 0.0000 27.8884
#
#
#
# Elastic Compliance Matrix: (Units=1/GPa)
#
#
# Indices 1 2 3 4 5 6 
#
# 1 0.040881 -0.017998 -0.013741 0.000000 0.000000 0.000000
# 2 -0.017998 0.028490 -0.003426 0.000000 0.000000 0.000000
# 3 -0.013741 -0.003426 0.023966 0.000000 0.000000 0.000000
# 4 0.000000 0.000000 0.000000 0.040809 0.000000 0.000000
# 5 0.000000 0.000000 0.000000 0.000000 0.027666 0.000000
# 6 0.000000 0.000000 0.000000 0.000000 0.000000 0.035857
#
#
# Mechanical properties :
#
#
# Convention : Reuss Voigt Hill
#
# Bulk Modulus (GPa) = 43.46593 43.58224 43.52408
# Shear Modulus (GPa) = 18.13770 22.91469 20.52620
#
# Velocity S-wave (km/s) = 3.15436 3.54550 3.35563
# Velocity P-wave (km/s) = 6.09189 6.37723 6.23619
#
# Compressibility (1/GPa) = 0.02300653
#
# Stress axis : x y z
#
# Youngs Moduli (GPa) = 24.46131 35.09947 41.72599
#
# Poissons Ratio (x) = 0.63170 0.57338
# Poissons Ratio (y) = 0.44024 0.14297
# Poissons Ratio (z) = 0.33613 0.12026
#
# Static dielectric constant tensor:
#      x y z
#    x 1.608440 0.000000 0.000000 
#    y 0.000000 1.648400 0.000000 
#    z 0.000000 0.000000 1.613820 
# 
# From -- ./inp_files/30722.got.cif
#   From: 2010.05.17/outbox.cif.g08.bks.cpg/sg53_16_cif.got.tgz:30722.got - 2010.06.03 12:45:16.
