data_PCOD9417748
_publ_section_title
;
Structure prediction by ZEFSAII (Michael W. Deem and Ramdas Pophale) SiO2 
 PCOD9417748
Probable space group: P M N A
;
_chemical_formula_sum "Si O2"
_cell_formula_units_Z 48
_cell_length_a 8.400729
_cell_length_b 18.079782
_cell_length_c 16.057988
_cell_angle_alpha 90.000000
_cell_angle_beta 90.000000
_cell_angle_gamma 90.000000
_cell_volume 2438.940995
_symmetry_space_group_name_H-M "P M N A"
_symmetry_group_IT_number 53
_symmetry_cell_setting 'orthorhombic'
loop_
_space_group_symop_operation_xyz
x,y,z
1/2-x,-y,1/2+z
x,-y,-z
1/2-x,y,1/2-z
-x,-y,-z
1/2+x,y,1/2-z
-x,y,z
1/2+x,-y,1/2+z
loop_
_atom_site_type_symbol
_atom_site_label
_atom_site_fract_x
_atom_site_fract_y
_atom_site_fract_z
Si Si1 0.692132 0.150613 0.156006
Si Si2 0.194716 0.585402 0.500170
Si Si3 0.688881 0.684051 0.154607
Si Si4 0.178714 0.993053 0.402378
Si Si5 0.307348 0.686529 0.845806
Si Si6 0.186636 0.840938 0.156624
O O1 0.750000 0.154539 0.250000
O O2 0.500000 0.147247 0.148493
O O3 0.752555 0.071403 0.124531
O O4 0.741403 0.231080 0.121930
O O5 0.243827 0.500000 0.500000
O O6 0.248363 0.627090 0.415763
O O7 0.245146 0.627369 0.584942
O O8 0.000000 0.587514 0.499822
O O9 0.750000 0.675008 0.250000
O O10 0.500000 0.676796 0.159494
O O11 0.729628 0.766988 0.123444
O O12 0.000000 0.984850 0.364282
O O13 0.161020 0.000000 0.500000
O O14 0.273752 0.918729 0.384958
O O15 0.250000 0.675150 0.750000
O O16 0.500000 0.685497 0.842291
O O17 0.250000 0.848668 0.250000
O O18 0.000000 0.827122 0.156741
#
# Coordination Sequence:
#
# PCOD9417748 Si02
#       6
#     8   8   8   8   8   8
#     4   9  18  32  51  74 100 137 178 220 262 315
#     4   9  19  35  58  86 113 145 184 226 276 339
#     4  10  20  36  60  84 113 149 189 234 282 337
#     4  10  21  34  52  78 109 143 184 225 273 328
#     4   9  18  34  56  81 110 143 183 223 270 325
#     4  11  22  37  56  78 108 144 188 232 279 330
#
# _framework density 19.680672999999999
#
# number of rings (size 3 to 8) (size 9 to 14) (size 15 to 20)
#    0.000    2.333    0.000    3.500    2.333    3.000 
#    0.000    1.667    0.000    3.500    0.000    0.000 
#    0.000    0.000    0.000    0.000    0.000    0.000 
#
# Total GULP energy -267457.269812 kJ/mol
# GULP energy per Si atom -5572.026454 kJ/mol
# Density = 1.963588 g / cm^3
# Si number density = 19.680673 Si / 1000 Ang^3
#
#
#
# Elastic Constant Matrix: (Units=GPa)
#
#
# Indices 1 2 3 4 5 6 
#
# 1 20.6207 8.9640 10.4903 0.0000 0.0000 0.0000
# 2 8.9640 186.2403 86.8822 0.0000 0.0000 0.0000
# 3 10.4903 86.8822 86.4027 0.0000 0.0000 0.0000
# 4 0.0000 0.0000 0.0000 60.3042 0.0000 0.0000
# 5 0.0000 0.0000 0.0000 0.0000 19.5379 0.0000
# 6 0.0000 0.0000 0.0000 0.0000 0.0000 28.5653
#
#
#
# Elastic Compliance Matrix: (Units=1/GPa)
#
#
# Indices 1 2 3 4 5 6 
#
# 1 0.051755 0.000829 -0.007118 0.000000 0.000000 0.000000
# 2 0.000829 0.010127 -0.010284 0.000000 0.000000 0.000000
# 3 -0.007118 -0.010284 0.022779 0.000000 0.000000 0.000000
# 4 0.000000 0.000000 0.000000 0.016583 0.000000 0.000000
# 5 0.000000 0.000000 0.000000 0.000000 0.051183 0.000000
# 6 0.000000 0.000000 0.000000 0.000000 0.000000 0.035008
#
#
# Mechanical properties :
#
#
# Convention : Reuss Voigt Hill
#
# Bulk Modulus (GPa) = 19.41117 56.21520 37.81319
# Shear Modulus (GPa) = 21.03045 34.14329 27.58687
#
# Velocity S-wave (km/s) = 3.27247 4.16969 3.74802
# Velocity P-wave (km/s) = 4.91561 7.19774 6.16322
#
# Compressibility (1/GPa) = 0.05151672
#
# Stress axis : x y z
#
# Youngs Moduli (GPa) = 19.32169 98.74624 43.90039
#
# Poissons Ratio (x) = -0.08190 0.31247
# Poissons Ratio (y) = -0.01603 0.45147
# Poissons Ratio (z) = 0.13753 1.01549
#
# Static dielectric constant tensor:
#      x y z
#    x 1.763860 0.000000 0.000000 
#    y 0.000000 1.772240 0.000000 
#    z 0.000000 0.000000 1.668100 
# 
# From -- ./inp_files/20232.got.cif
#   From: 2010.05.17/outbox.cif.g08.bks.cpg/sg53_11_cif.got.tgz:20232.got - 2010.06.03 12:45:16.
