data_PCOD9417190
_publ_section_title
;
Structure prediction by ZEFSAII (Michael W. Deem and Ramdas Pophale) SiO2 
 PCOD9417190
Probable space group: P M N A
;
_chemical_formula_sum "Si O2"
_cell_formula_units_Z 64
_cell_length_a 29.906223
_cell_length_b 9.241472
_cell_length_c 11.750978
_cell_angle_alpha 90.000000
_cell_angle_beta 90.000000
_cell_angle_gamma 90.000000
_cell_volume 3247.706186
_symmetry_space_group_name_H-M "P M N A"
_symmetry_group_IT_number 53
_symmetry_cell_setting 'orthorhombic'
loop_
_space_group_symop_operation_xyz
x,y,z
1/2-x,-y,1/2+z
x,-y,-z
1/2-x,y,1/2-z
-x,-y,-z
1/2+x,y,1/2-z
-x,y,z
1/2+x,-y,1/2+z
loop_
_atom_site_type_symbol
_atom_site_label
_atom_site_fract_x
_atom_site_fract_y
_atom_site_fract_z
Si Si1 0.295250 0.625727 0.309402
Si Si2 0.880684 0.692088 0.606453
Si Si3 0.080526 0.839459 0.149547
Si Si4 0.800431 0.711281 0.775957
Si Si5 0.550324 0.354989 0.456488
Si Si6 0.173064 0.841061 0.005705
Si Si7 0.053419 0.150354 0.243968
Si Si8 0.883193 0.360727 0.658725
O O1 0.250000 0.673221 0.250000
O O2 0.294199 0.452550 0.322368
O O3 0.301896 0.716913 0.423405
O O4 0.335984 0.650793 0.223056
O O5 0.832151 0.712892 0.665009
O O6 0.915923 0.811226 0.649022
O O7 0.895745 0.530589 0.647692
O O8 0.878959 0.692758 0.470332
O O9 0.126483 0.855759 0.075888
O O10 0.085934 0.735911 0.259405
O O11 0.063716 0.994440 0.190365
O O12 0.049552 0.756799 0.059966
O O13 0.750000 0.766087 0.750000
O O14 0.827206 0.793399 0.874870
O O15 0.574824 0.500000 0.500000
O O16 0.500000 0.397516 0.422795
O O17 0.568343 0.270660 0.348670
O O18 0.194421 0.000000 0.000000
O O19 0.000000 0.161706 0.264212
#
# Coordination Sequence:
#
# PCOD9417190 Si02
#       8
#     8   8   8   8   8   8   8   8
#     4   9  20  37  60  84 115 148 197 245 290 350
#     4  10  20  40  60  84 121 153 202 249 299 352
#     4  11  21  37  57  83 116 153 195 239 294 354
#     4  10  21  36  61  91 113 151 194 244 295 354
#     4  10  20  34  56  85 114 143 183 240 297 348
#     4  11  22  35  54  82 117 151 187 232 292 346
#     4  11  23  39  61  88 119 160 202 248 303 361
#     4   9  21  37  60  85 113 162 196 247 303 349
#
# _framework density 19.706216000000001
#
# number of rings (size 3 to 8) (size 9 to 14) (size 15 to 20)
#    0.000    1.875    0.000    4.125    1.750    4.000 
#    0.000    3.750    0.000    0.000    0.000    0.000 
#    0.000    0.000    0.000    0.000    0.000    0.000 
#
# Total GULP energy -356977.909837 kJ/mol
# GULP energy per Si atom -5577.779841 kJ/mol
# Density = 1.966136 g / cm^3
# Si number density = 19.706216 Si / 1000 Ang^3
#
#
#
# Elastic Constant Matrix: (Units=GPa)
#
#
# Indices 1 2 3 4 5 6 
#
# 1 59.8245 7.2465 7.3248 0.0000 0.0000 0.0000
# 2 7.2465 42.9090 19.6705 0.0000 0.0000 0.0000
# 3 7.3248 19.6705 106.7550 0.0000 0.0000 0.0000
# 4 0.0000 0.0000 0.0000 28.8488 0.0000 0.0000
# 5 0.0000 0.0000 0.0000 0.0000 12.2279 0.0000
# 6 0.0000 0.0000 0.0000 0.0000 0.0000 18.5598
#
#
#
# Elastic Compliance Matrix: (Units=1/GPa)
#
#
# Indices 1 2 3 4 5 6 
#
# 1 0.017113 -0.002569 -0.000701 0.000000 0.000000 0.000000
# 2 -0.002569 0.025841 -0.004585 0.000000 0.000000 0.000000
# 3 -0.000701 -0.004585 0.010260 0.000000 0.000000 0.000000
# 4 0.000000 0.000000 0.000000 0.034664 0.000000 0.000000
# 5 0.000000 0.000000 0.000000 0.000000 0.081780 0.000000
# 6 0.000000 0.000000 0.000000 0.000000 0.000000 0.053880
#
#
# Mechanical properties :
#
#
# Convention : Reuss Voigt Hill
#
# Bulk Modulus (GPa) = 26.66369 30.88581 28.77475
# Shear Modulus (GPa) = 19.86115 23.61041 21.73578
#
# Velocity S-wave (km/s) = 3.17813 3.46514 3.32473
# Velocity P-wave (km/s) = 5.19878 5.63176 5.41960
#
# Compressibility (1/GPa) = 0.03750418
#
# Stress axis : x y z
#
# Youngs Moduli (GPa) = 58.43679 38.69839 97.46418
#
# Poissons Ratio (x) = 0.09940 0.06831
# Poissons Ratio (y) = 0.15011 0.44689
# Poissons Ratio (z) = 0.04096 0.17744
#
# Static dielectric constant tensor:
#      x y z
#    x 1.721630 0.000000 0.000000 
#    y 0.000000 1.722000 0.000000 
#    z 0.000000 0.000000 1.671310 
# 
# From -- ./inp_files/19038.got.cif
#   From: 2010.05.17/outbox.cif.g08.bks.cpg/sg53_10_cif.got.tgz:19038.got - 2010.06.03 12:45:16.
