data_PCOD9417252
_publ_section_title
;
Structure prediction by ZEFSAII (Michael W. Deem and Ramdas Pophale) SiO2 
 PCOD9417252
Probable space group: P M N A
;
_chemical_formula_sum "Si O2"
_cell_formula_units_Z 64
_cell_length_a 7.571998
_cell_length_b 21.240875
_cell_length_c 17.950519
_cell_angle_alpha 90.000000
_cell_angle_beta 90.000000
_cell_angle_gamma 90.000000
_cell_volume 2887.087215
_symmetry_space_group_name_H-M "P M N A"
_symmetry_group_IT_number 53
_symmetry_cell_setting 'orthorhombic'
loop_
_space_group_symop_operation_xyz
x,y,z
1/2-x,-y,1/2+z
x,-y,-z
1/2-x,y,1/2-z
-x,-y,-z
1/2+x,y,1/2-z
-x,y,z
1/2+x,-y,1/2+z
loop_
_atom_site_type_symbol
_atom_site_label
_atom_site_fract_x
_atom_site_fract_y
_atom_site_fract_z
Si Si1 0.788263 0.838244 0.337748
Si Si2 0.789743 0.357675 0.166653
Si Si3 0.289625 0.595464 0.163696
Si Si4 0.705021 0.763094 0.913418
Si Si5 0.713079 0.888180 0.838245
Si Si6 0.294143 0.473501 0.423757
Si Si7 0.288329 0.025431 0.838542
Si Si8 0.783469 0.716317 0.428400
O O1 0.750000 0.832893 0.250000
O O2 0.725096 0.776697 0.380407
O O3 0.000000 0.839284 0.346430
O O4 0.721143 0.906585 0.365868
O O5 0.750000 0.379012 0.250000
O O6 0.714625 0.288895 0.150862
O O7 0.717151 0.409253 0.108892
O O8 0.000000 0.353387 0.158613
O O9 0.250000 0.608902 0.250000
O O10 0.500000 0.591435 0.155634
O O11 0.215158 0.528736 0.137029
O O12 0.223850 0.651701 0.110164
O O13 0.500000 0.776105 0.930709
O O14 0.782468 0.828887 0.884866
O O15 0.777977 0.729928 0.987613
O O16 0.750000 0.880711 0.750000
O O17 0.500000 0.888708 0.844713
O O18 0.778353 0.957176 0.864445
O O19 0.213653 0.500000 0.500000
O O20 0.500000 0.459831 0.439180
O O21 0.250000 0.025875 0.750000
O O22 0.500000 0.025408 0.849232
O O23 0.000000 0.713710 0.427466
#
# Coordination Sequence:
#
# PCOD9417252 Si02
#       8
#     8   8   8   8   8   8   8   8
#     4   9  16  29  49  71  98 131 168 209 252 300
#     4  11  23  38  57  80 105 134 170 210 250 295
#     4  11  22  36  56  80 106 137 175 215 255 303
#     4  10  20  35  53  73 102 136 170 210 256 306
#     4   9  17  29  47  71  97 127 165 208 252 298
#     4  10  22  40  60  83 111 139 168 207 254 303
#     4   8  14  25  43  68  95 125 163 205 249 296
#     4   9  19  34  51  74 103 135 169 209 258 306
#
# _framework density 22.167670999999999
#
# number of rings (size 3 to 8) (size 9 to 14) (size 15 to 20)
#    0.000    2.375    0.000    2.625    0.000    3.750 
#    0.000    2.500    0.000    3.750    0.000    0.000 
#    0.000   11.000    0.000    0.000    0.000    0.000 
#
# Total GULP energy -357235.826597 kJ/mol
# GULP energy per Si atom -5581.809791 kJ/mol
# Density = 2.211722 g / cm^3
# Si number density = 22.167671 Si / 1000 Ang^3
#
#
#
# Elastic Constant Matrix: (Units=GPa)
#
#
# Indices 1 2 3 4 5 6 
#
# 1 53.6633 -8.6092 -10.9995 0.0000 0.0000 0.0000
# 2 -8.6092 101.7085 -10.9229 0.0000 0.0000 0.0000
# 3 -10.9995 -10.9229 39.0176 0.0000 0.0000 0.0000
# 4 0.0000 0.0000 0.0000 1.8259 0.0000 0.0000
# 5 0.0000 0.0000 0.0000 0.0000 6.2385 0.0000
# 6 0.0000 0.0000 0.0000 0.0000 0.0000 2.1497
#
#
#
# Elastic Compliance Matrix: (Units=1/GPa)
#
#
# Indices 1 2 3 4 5 6 
#
# 1 0.020334 0.002409 0.006407 0.000000 0.000000 0.000000
# 2 0.002409 0.010422 0.003597 0.000000 0.000000 0.000000
# 3 0.006407 0.003597 0.028443 0.000000 0.000000 0.000000
# 4 0.000000 0.000000 0.000000 0.547675 0.000000 0.000000
# 5 0.000000 0.000000 0.000000 0.000000 0.160294 0.000000
# 6 0.000000 0.000000 0.000000 0.000000 0.000000 0.465186
#
#
# Mechanical properties :
#
#
# Convention : Reuss Voigt Hill
#
# Bulk Modulus (GPa) = 11.90110 14.81402 13.35756
# Shear Modulus (GPa) = 4.04682 17.03756 10.54219
#
# Velocity S-wave (km/s) = 1.35260 2.77533 2.18311
# Velocity P-wave (km/s) = 2.79637 4.11912 3.52043
#
# Compressibility (1/GPa) = 0.08402584
#
# Stress axis : x y z
#
# Youngs Moduli (GPa) = 49.17751 95.94867 35.15849
#
# Poissons Ratio (x) = -0.23117 -0.22526
# Poissons Ratio (y) = -0.11848 -0.12646
# Poissons Ratio (z) = -0.31508 -0.34512
#
# Static dielectric constant tensor:
#      x y z
#    x 1.837490 0.000000 0.000000 
#    y 0.000000 1.832740 0.000000 
#    z 0.000000 0.000000 1.790660 
# 
# From -- ./inp_files/26785.got.cif
#   From: 2010.05.17/outbox.cif.g08.bks.cpg/sg53_14_cif.got.tgz:26785.got - 2010.06.03 12:45:16.
