data_PCOD9417541
_publ_section_title
;
Structure prediction by ZEFSAII (Michael W. Deem and Ramdas Pophale) SiO2 
 PCOD9417541
Probable space group: P M N A
;
_chemical_formula_sum "Si O2"
_cell_formula_units_Z 36
_cell_length_a 13.447179
_cell_length_b 20.636661
_cell_length_c 5.337643
_cell_angle_alpha 90.000000
_cell_angle_beta 90.000000
_cell_angle_gamma 90.000000
_cell_volume 1481.221950
_symmetry_space_group_name_H-M "P M N A"
_symmetry_group_IT_number 53
_symmetry_cell_setting 'orthorhombic'
loop_
_space_group_symop_operation_xyz
x,y,z
1/2-x,-y,1/2+z
x,-y,-z
1/2-x,y,1/2-z
-x,-y,-z
1/2+x,y,1/2-z
-x,y,z
1/2+x,-y,1/2+z
loop_
_atom_site_type_symbol
_atom_site_label
_atom_site_fract_x
_atom_site_fract_y
_atom_site_fract_z
Si Si1 0.878916 0.143528 0.087556
Si Si2 0.621893 0.709240 0.601688
Si Si3 0.621423 0.928994 0.087891
Si Si4 0.116629 0.358038 0.605324
Si Si5 0.313599 0.500000 0.000000
O O1 0.850996 0.120175 0.365307
O O2 0.000000 0.143098 0.083738
O O3 0.847596 0.217355 0.042378
O O4 0.848275 0.095473 0.863173
O O5 0.500000 0.709019 0.608042
O O6 0.654328 0.685066 0.874581
O O7 0.654287 0.660992 0.380365
O O8 0.500000 0.931255 0.094936
O O9 0.654911 0.000000 0.000000
O O10 0.128306 0.433610 0.547102
O O11 0.000000 0.343541 0.616479
O O12 0.250000 0.489423 0.250000
#
# Coordination Sequence:
#
# PCOD9417541 Si02
#       5
#     8   8   8   8   4
#     4   9  15  23  35  54  81 113 157 208 245 278
#     4   9  17  29  48  71  93 122 166 217 256 288
#     4   9  15  21  30  47  77 119 162 199 237 286
#     4  10  20  36  56  77 101 132 172 212 251 299
#     4  12  25  40  57  80 108 136 166 202 255 310
#
# _framework density 24.304258999999998
#
# number of rings (size 3 to 8) (size 9 to 14) (size 15 to 20)
#    0.000    2.444    0.000    3.667    0.000    8.000 
#    0.000    4.444    0.000    0.000    0.000    0.000 
#    0.000    0.000    0.000    0.000    0.000  280.000 
#
# Total GULP energy -201619.946041 kJ/mol
# GULP energy per Si atom -5600.554057 kJ/mol
# Density = 2.424894 g / cm^3
# Si number density = 24.304259 Si / 1000 Ang^3
#
#
#
# Elastic Constant Matrix: (Units=GPa)
#
#
# Indices 1 2 3 4 5 6 
#
# 1 66.5181 -13.4919 21.8514 0.0000 0.0000 0.0000
# 2 -13.4919 134.4400 65.1418 0.0000 0.0000 0.0000
# 3 21.8514 65.1418 197.6849 0.0000 0.0000 0.0000
# 4 0.0000 0.0000 0.0000 46.6267 0.0000 0.0000
# 5 0.0000 0.0000 0.0000 0.0000 45.6282 0.0000
# 6 0.0000 0.0000 0.0000 0.0000 0.0000 21.4920
#
#
#
# Elastic Compliance Matrix: (Units=1/GPa)
#
#
# Indices 1 2 3 4 5 6 
#
# 1 0.016580 0.003037 -0.002833 0.000000 0.000000 0.000000
# 2 0.003037 0.009408 -0.003436 0.000000 0.000000 0.000000
# 3 -0.002833 -0.003436 0.006504 0.000000 0.000000 0.000000
# 4 0.000000 0.000000 0.000000 0.021447 0.000000 0.000000
# 5 0.000000 0.000000 0.000000 0.000000 0.021916 0.000000
# 6 0.000000 0.000000 0.000000 0.000000 0.000000 0.046529
#
#
# Mechanical properties :
#
#
# Convention : Reuss Voigt Hill
#
# Bulk Modulus (GPa) = 38.42124 60.62730 49.52427
# Shear Modulus (GPa) = 36.35713 44.42550 40.39131
#
# Velocity S-wave (km/s) = 3.87190 4.28002 4.08107
# Velocity P-wave (km/s) = 5.98595 7.03022 6.52900
#
# Compressibility (1/GPa) = 0.02602727
#
# Stress axis : x y z
#
# Youngs Moduli (GPa) = 60.31265 106.29469 153.75331
#
# Poissons Ratio (x) = -0.32280 0.43565
# Poissons Ratio (y) = -0.18316 0.52826
# Poissons Ratio (z) = 0.17089 0.36521
#
# Static dielectric constant tensor:
#      x y z
#    x 2.039020 0.000000 0.000000 
#    y 0.000000 1.864060 0.000000 
#    z 0.000000 0.000000 1.860760 
# 
# From -- ./inp_files/2870.got.cif
#   From: 2010.05.17/outbox.cif.g08.bks.cpg/sg53_2_cif.got.tgz:2870.got - 2010.06.03 12:45:16.
