data_PCOD9417879
_publ_section_title
;
Structure prediction by ZEFSAII (Michael W. Deem and Ramdas Pophale) SiO2 
 PCOD9417879
Probable space group: P M N A
;
_chemical_formula_sum "Si O2"
_cell_formula_units_Z 48
_cell_length_a 8.718740
_cell_length_b 15.369178
_cell_length_c 19.578305
_cell_angle_alpha 90.000000
_cell_angle_beta 90.000000
_cell_angle_gamma 90.000000
_cell_volume 2623.490266
_symmetry_space_group_name_H-M "P M N A"
_symmetry_group_IT_number 53
_symmetry_cell_setting 'orthorhombic'
loop_
_space_group_symop_operation_xyz
x,y,z
1/2-x,-y,1/2+z
x,-y,-z
1/2-x,y,1/2-z
-x,-y,-z
1/2+x,y,1/2-z
-x,y,z
1/2+x,-y,1/2+z
loop_
_atom_site_type_symbol
_atom_site_label
_atom_site_fract_x
_atom_site_fract_y
_atom_site_fract_z
Si Si1 0.816948 0.127820 0.825357
Si Si2 0.683579 0.609308 0.674151
Si Si3 0.815391 0.455393 0.927431
Si Si4 0.315564 0.060593 0.174742
Si Si5 0.184645 0.229682 0.410956
Si Si6 0.683611 0.736376 0.067464
O O1 0.750000 0.146367 0.750000
O O2 0.761712 0.199944 0.878437
O O3 0.000000 0.124540 0.821624
O O4 0.752302 0.032837 0.845516
O O5 0.750000 0.609246 0.750000
O O6 0.500000 0.612666 0.677141
O O7 0.727587 0.522667 0.632189
O O8 0.742710 0.692404 0.632260
O O9 0.734821 0.362816 0.920992
O O10 0.000000 0.443000 0.926203
O O11 0.776577 0.500000 0.000000
O O12 0.250000 0.081316 0.250000
O O13 0.500000 0.054221 0.178736
O O14 0.274018 0.137474 0.122811
O O15 0.229085 0.237750 0.490127
O O16 0.000000 0.238073 0.407140
O O17 0.500000 0.743822 0.073292
#
# Coordination Sequence:
#
# PCOD9417879 Si02
#       6
#     8   8   8   8   8   8
#     4  11  23  41  63  87 117 154 198 247 297 354
#     4  11  23  38  60  87 120 155 196 247 296 352
#     4  10  21  40  61  84 116 157 200 245 296 348
#     4  10  20  37  59  85 118 156 197 243 294 349
#     4  10  22  38  59  88 122 158 197 240 293 353
#     4  11  23  39  62  90 120 157 197 244 298 356
#
# _framework density 18.296236
#
# number of rings (size 3 to 8) (size 9 to 14) (size 15 to 20)
#    0.000    1.500    1.667    4.500    0.000    6.333 
#    0.000    5.000    0.000    0.000    0.000    0.000 
#    0.000    0.000    0.000    0.000    0.000    0.000 
#
# Total GULP energy -268316.507599 kJ/mol
# GULP energy per Si atom -5589.927242 kJ/mol
# Density = 1.825459 g / cm^3
# Si number density = 18.296236 Si / 1000 Ang^3
#
#
#
# Elastic Constant Matrix: (Units=GPa)
#
#
# Indices 1 2 3 4 5 6 
#
# 1 73.4584 71.4302 61.6604 0.0000 0.0000 0.0000
# 2 71.4302 179.4982 121.0335 0.0000 0.0000 0.0000
# 3 61.6604 121.0335 147.5484 0.0000 0.0000 0.0000
# 4 0.0000 0.0000 0.0000 37.9646 0.0000 0.0000
# 5 0.0000 0.0000 0.0000 0.0000 14.1177 0.0000
# 6 0.0000 0.0000 0.0000 0.0000 0.0000 33.3077
#
#
#
# Elastic Compliance Matrix: (Units=1/GPa)
#
#
# Indices 1 2 3 4 5 6 
#
# 1 0.023657 -0.006149 -0.004842 0.000000 0.000000 0.000000
# 2 -0.006149 0.014065 -0.008968 0.000000 0.000000 0.000000
# 3 -0.004842 -0.008968 0.016157 0.000000 0.000000 0.000000
# 4 0.000000 0.000000 0.000000 0.026340 0.000000 0.000000
# 5 0.000000 0.000000 0.000000 0.000000 0.070833 0.000000
# 6 0.000000 0.000000 0.000000 0.000000 0.000000 0.030023
#
#
# Mechanical properties :
#
#
# Convention : Reuss Voigt Hill
#
# Bulk Modulus (GPa) = 71.62754 100.97256 86.30005
# Shear Modulus (GPa) = 22.15852 26.83672 24.49762
#
# Velocity S-wave (km/s) = 3.48386 3.83402 3.66313
# Velocity P-wave (km/s) = 7.44425 8.65489 8.07229
#
# Compressibility (1/GPa) = 0.01396111
#
# Stress axis : x y z
#
# Youngs Moduli (GPa) = 42.27085 71.09899 61.89240
#
# Poissons Ratio (x) = 0.43720 0.29969
# Poissons Ratio (y) = 0.25993 0.55503
# Poissons Ratio (z) = 0.20468 0.63759
#
# Static dielectric constant tensor:
#      x y z
#    x 1.617980 0.000000 0.000000 
#    y 0.000000 1.598530 0.000000 
#    z 0.000000 0.000000 1.605310 
# 
# From -- ./inp_files/26179.got.cif
#   From: 2010.05.17/outbox.cif.g08.bks.cpg/sg53_14_cif.got.tgz:26179.got - 2010.06.03 12:45:16.
