data_PCOD9417148
_publ_section_title
;
Structure prediction by ZEFSAII (Michael W. Deem and Ramdas Pophale) SiO2 
 PCOD9417148
Probable space group: P M N A
;
_chemical_formula_sum "Si O2"
_cell_formula_units_Z 40
_cell_length_a 8.924819
_cell_length_b 13.771921
_cell_length_c 18.448480
_cell_angle_alpha 90.000000
_cell_angle_beta 90.000000
_cell_angle_gamma 90.000000
_cell_volume 2267.537770
_symmetry_space_group_name_H-M "P M N A"
_symmetry_group_IT_number 53
_symmetry_cell_setting 'orthorhombic'
loop_
_space_group_symop_operation_xyz
x,y,z
1/2-x,-y,1/2+z
x,-y,-z
1/2-x,y,1/2-z
-x,-y,-z
1/2+x,y,1/2-z
-x,y,z
1/2+x,-y,1/2+z
loop_
_atom_site_type_symbol
_atom_site_label
_atom_site_fract_x
_atom_site_fract_y
_atom_site_fract_z
Si Si1 0.677265 0.686177 0.672140
Si Si2 0.178884 0.392405 0.470969
Si Si3 0.821987 0.914969 0.329372
Si Si4 0.324241 0.897630 0.602313
Si Si5 0.320774 0.207909 0.546758
O O1 0.750000 0.669910 0.750000
O O2 0.500000 0.666484 0.673396
O O3 0.755514 0.624148 0.609223
O O4 0.695785 0.799064 0.648555
O O5 0.210225 0.500000 0.500000
O O6 0.254927 0.310520 0.521005
O O7 0.000000 0.377391 0.470055
O O8 0.750000 0.911046 0.250000
O O9 0.500000 0.907211 0.175408
O O10 0.754595 0.832031 0.381078
O O11 0.775127 0.016716 0.366426
O O12 0.500000 0.926323 0.606272
O O13 0.290628 0.867311 0.519556
O O14 0.500000 0.214337 0.554146
#
# Coordination Sequence:
#
# PCOD9417148 Si02
#       5
#     8   8   8   8   8
#     4  10  20  34  55  83 114 145 179 225 275 322
#     4  10  21  38  60  84 110 141 180 225 273 328
#     4  12  24  36  53  78 111 149 186 224 267 317
#     4   9  19  35  55  80 110 144 180 219 266 319
#     4  10  21  38  59  81 108 142 181 225 271 323
#
# _framework density 17.640279
#
# number of rings (size 3 to 8) (size 9 to 14) (size 15 to 20)
#    0.000    1.800    0.000    6.000    0.000   10.400 
#    0.000    1.000    0.000    4.800    0.000    0.000 
#    0.000    0.000    0.000    0.000    0.000    0.000 
#
# Total GULP energy -223546.158498 kJ/mol
# GULP energy per Si atom -5588.653962 kJ/mol
# Density = 1.760013 g / cm^3
# Si number density = 17.640279 Si / 1000 Ang^3
#
#
#
# Elastic Constant Matrix: (Units=GPa)
#
#
# Indices 1 2 3 4 5 6 
#
# 1 130.7094 78.3364 92.0883 0.0000 0.0000 0.0000
# 2 78.3364 88.2439 74.2632 0.0000 0.0000 0.0000
# 3 92.0883 74.2632 119.7460 0.0000 0.0000 0.0000
# 4 0.0000 0.0000 0.0000 14.1307 0.0000 0.0000
# 5 0.0000 0.0000 0.0000 0.0000 31.8008 0.0000
# 6 0.0000 0.0000 0.0000 0.0000 0.0000 24.8471
#
#
#
# Elastic Compliance Matrix: (Units=1/GPa)
#
#
# Indices 1 2 3 4 5 6 
#
# 1 0.020320 -0.010224 -0.009287 0.000000 0.000000 0.000000
# 2 -0.010224 0.028847 -0.010028 0.000000 0.000000 0.000000
# 3 -0.009287 -0.010028 0.021712 0.000000 0.000000 0.000000
# 4 0.000000 0.000000 0.000000 0.070768 0.000000 0.000000
# 5 0.000000 0.000000 0.000000 0.000000 0.031446 0.000000
# 6 0.000000 0.000000 0.000000 0.000000 0.000000 0.040246
#
#
# Mechanical properties :
#
#
# Convention : Reuss Voigt Hill
#
# Bulk Modulus (GPa) = 84.72431 92.00834 88.36632
# Shear Modulus (GPa) = 18.09299 20.42315 19.25807
#
# Velocity S-wave (km/s) = 3.20607 3.40627 3.30769
# Velocity P-wave (km/s) = 7.86374 8.23053 8.04922
#
# Compressibility (1/GPa) = 0.01180299
#
# Stress axis : x y z
#
# Youngs Moduli (GPa) = 49.21148 34.66534 46.05803
#
# Poissons Ratio (x) = 0.35441 0.42772
# Poissons Ratio (y) = 0.50312 0.46187
# Poissons Ratio (z) = 0.45701 0.34762
#
# Static dielectric constant tensor:
#      x y z
#    x 1.583200 0.000000 0.000000 
#    y 0.000000 1.579710 0.000000 
#    z 0.000000 0.000000 1.584150 
# 
# From -- ./inp_files/19884.got.cif
#   From: 2010.05.17/outbox.cif.g08.bks.cpg/sg53_10_cif.got.tgz:19884.got - 2010.06.03 12:45:16.
