data_PCOD9417249
_publ_section_title
;
Structure prediction by ZEFSAII (Michael W. Deem and Ramdas Pophale) SiO2 
 PCOD9417249
Probable space group: P M N A
;
_chemical_formula_sum "Si O2"
_cell_formula_units_Z 56
_cell_length_a 7.181167
_cell_length_b 11.293885
_cell_length_c 28.604289
_cell_angle_alpha 90.000000
_cell_angle_beta 90.000000
_cell_angle_gamma 90.000000
_cell_volume 2319.901496
_symmetry_space_group_name_H-M "P M N A"
_symmetry_group_IT_number 53
_symmetry_cell_setting 'orthorhombic'
loop_
_space_group_symop_operation_xyz
x,y,z
1/2-x,-y,1/2+z
x,-y,-z
1/2-x,y,1/2-z
-x,-y,-z
1/2+x,y,1/2-z
-x,y,z
1/2+x,-y,1/2+z
loop_
_atom_site_type_symbol
_atom_site_label
_atom_site_fract_x
_atom_site_fract_y
_atom_site_fract_z
Si Si1 0.774042 0.614354 0.968889
Si Si2 0.773273 0.875855 0.854796
Si Si3 0.726197 0.638158 0.350558
Si Si4 0.224562 0.250025 0.944427
Si Si5 0.774936 0.990298 0.946982
Si Si6 0.279477 0.116488 0.694854
Si Si7 0.226747 0.618059 0.860583
O O1 0.714583 0.615731 0.915339
O O2 0.000000 0.615382 0.966652
O O3 0.723080 0.500000 0.000000
O O4 0.714930 0.721304 0.003030
O O5 0.714910 0.744506 0.839549
O O6 0.000000 0.876671 0.853362
O O7 0.717017 0.895032 0.909022
O O8 0.710095 0.992669 0.827132
O O9 0.500000 0.638568 0.348317
O O10 0.779532 0.657703 0.404886
O O11 0.790431 0.755949 0.323709
O O12 0.785772 0.505675 0.337062
O O13 0.272851 0.119772 0.927066
O O14 0.000000 0.253168 0.946175
O O15 0.000000 0.978726 0.949798
O O16 0.708727 0.000000 0.000000
O O17 0.250000 0.112128 0.750000
O O18 0.500000 0.117611 0.684212
O O19 0.000000 0.617532 0.860467
#
# Coordination Sequence:
#
# PCOD9417249 Si02
#       7
#     8   8   8   8   8   8   8
#     4   9  13  16  25  46  79 120 157 177 199 253
#     4   9  16  26  39  59  87 118 151 187 226 270
#     4   9  15  25  40  57  81 114 149 183 221 266
#     4   9  13  18  28  45  73 112 152 179 204 251
#     4   9  14  19  29  48  79 117 150 176 210 261
#     4  10  20  35  53  70  89 117 154 194 237 281
#     4   9  15  22  34  55  85 121 155 182 215 265
#
# _framework density 24.138954999999999
#
# number of rings (size 3 to 8) (size 9 to 14) (size 15 to 20)
#    0.000    2.857    2.857    0.857    0.000    3.429 
#    0.000    0.714    0.000    0.000    0.000    0.000 
#    0.000    0.571    0.000    2.571    0.000    3.000 
#
# Total GULP energy -312533.290260 kJ/mol
# GULP energy per Si atom -5580.951612 kJ/mol
# Density = 2.408401 g / cm^3
# Si number density = 24.138955 Si / 1000 Ang^3
#
#
#
# Elastic Constant Matrix: (Units=GPa)
#
#
# Indices 1 2 3 4 5 6 
#
# 1 122.8907 7.5433 -5.4833 0.0000 0.0000 0.0000
# 2 7.5433 235.4974 70.2756 0.0000 0.0000 0.0000
# 3 -5.4833 70.2756 85.6468 0.0000 0.0000 0.0000
# 4 0.0000 0.0000 0.0000 24.3407 0.0000 0.0000
# 5 0.0000 0.0000 0.0000 0.0000 -208.5519 0.0000
# 6 0.0000 0.0000 0.0000 0.0000 0.0000 -40.4618
#
#
#
# Elastic Compliance Matrix: (Units=1/GPa)
#
#
# Indices 1 2 3 4 5 6 
#
# 1 0.008215 -0.000556 0.000982 0.000000 0.000000 0.000000
# 2 -0.000556 0.005661 -0.004681 0.000000 0.000000 0.000000
# 3 0.000982 -0.004681 0.015579 0.000000 0.000000 0.000000
# 4 0.000000 0.000000 0.000000 0.041083 0.000000 0.000000
# 5 0.000000 0.000000 0.000000 0.000000 -0.004795 0.000000
# 6 0.000000 0.000000 0.000000 0.000000 0.000000 -0.024715
#
#
# Mechanical properties :
#
#
# Convention : Reuss Voigt Hill
#
# Bulk Modulus (GPa) = 47.74043 65.41182 56.57613
# Shear Modulus (GPa) = 88.46385 -20.15464 34.15460
#
# Velocity S-wave (km/s) = 6.06031 -2.89267 3.76562
# Velocity P-wave (km/s) = 8.29398 4.00002 6.51115
#
# Compressibility (1/GPa) = 0.02094660
#
# Stress axis : x y z
#
# Youngs Moduli (GPa) = 121.72419 176.65082 64.18790
#
# Poissons Ratio (x) = 0.09827 -0.06306
# Poissons Ratio (y) = 0.06772 0.30043
# Poissons Ratio (z) = -0.11959 0.82682
#
# Static dielectric constant tensor:
#      x y z
#    x 2.013100 0.000000 0.000000 
#    y 0.000000 1.986710 0.000000 
#    z 0.000000 0.000000 1.850530 
# 
# From -- ./inp_files/34984.got.cif
#   From: 2010.05.17/outbox.cif.g08.bks.cpg/sg53_18_cif.got.tgz:34984.got - 2010.06.03 12:45:16.
