data_PCOD9417075
_publ_section_title
;
Structure prediction by ZEFSAII (Michael W. Deem and Ramdas Pophale) SiO2 
 PCOD9417075
Probable space group: P M N A
;
_chemical_formula_sum "Si O2"
_cell_formula_units_Z 64
_cell_length_a 17.641452
_cell_length_b 16.354666
_cell_length_c 12.624393
_cell_angle_alpha 90.000000
_cell_angle_beta 90.000000
_cell_angle_gamma 90.000000
_cell_volume 3642.390565
_symmetry_space_group_name_H-M "P M N A"
_symmetry_group_IT_number 53
_symmetry_cell_setting 'orthorhombic'
loop_
_space_group_symop_operation_xyz
x,y,z
1/2-x,-y,1/2+z
x,-y,-z
1/2-x,y,1/2-z
-x,-y,-z
1/2+x,y,1/2-z
-x,y,z
1/2+x,-y,1/2+z
loop_
_atom_site_type_symbol
_atom_site_label
_atom_site_fract_x
_atom_site_fract_y
_atom_site_fract_z
Si Si1 0.908422 0.493916 0.874714
Si Si2 0.661016 0.255007 0.468062
Si Si3 0.336930 0.916739 0.440245
Si Si4 0.158238 0.090983 0.527036
Si Si5 0.332473 0.329316 0.699185
Si Si6 0.913098 0.666132 0.783824
Si Si7 0.589469 0.164216 0.764500
Si Si8 0.802837 0.786529 0.657855
O O1 0.876186 0.414152 0.816705
O O2 0.885704 0.573844 0.806457
O O3 0.000000 0.491158 0.875847
O O4 0.884685 0.500000 0.000000
O O5 0.644598 0.159564 0.483858
O O6 0.673288 0.293991 0.581100
O O7 0.594709 0.294956 0.400853
O O8 0.740028 0.264209 0.406591
O O9 0.245351 0.916295 0.431481
O O10 0.373049 0.893122 0.327087
O O11 0.359707 0.000000 0.500000
O O12 0.109477 0.129369 0.620540
O O13 0.161891 0.147720 0.422284
O O14 0.131864 0.000000 0.500000
O O15 0.250000 0.340657 0.750000
O O16 0.376419 0.255902 0.758212
O O17 0.862773 0.724546 0.709544
O O18 0.000000 0.664867 0.748265
O O19 0.500000 0.167126 0.745629
O O20 0.750000 0.826676 0.750000
#
# Coordination Sequence:
#
# PCOD9417075 Si02
#       8
#     8   8   8   8   8   8   8   8
#     4  10  20  36  57  83 114 145 180 226 285 346
#     4   9  18  33  53  78 108 140 179 229 280 325
#     4   9  19  36  58  82 110 148 194 241 285 333
#     4  10  21  38  60  82 110 150 195 239 285 339
#     4  11  21  36  59  84 109 144 190 231 280 334
#     4  10  20  34  54  78 107 145 181 219 276 340
#     4  11  23  37  56  83 118 155 189 234 292 351
#     4   9  19  35  54  79 109 142 185 235 282 329
#
# _framework density 17.570878
#
# number of rings (size 3 to 8) (size 9 to 14) (size 15 to 20)
#    0.000    2.125    1.250    3.000    0.000    8.500 
#    0.000    1.250    0.000    0.000    0.000    4.375 
#    0.000    0.000    0.000    0.000    0.000    0.000 
#
# Total GULP energy -356686.305163 kJ/mol
# GULP energy per Si atom -5573.223518 kJ/mol
# Density = 1.753089 g / cm^3
# Si number density = 17.570878 Si / 1000 Ang^3
#
#
#
# Elastic Constant Matrix: (Units=GPa)
#
#
# Indices 1 2 3 4 5 6 
#
# 1 44.3141 42.7623 37.5012 0.0000 0.0000 0.0000
# 2 42.7623 127.7885 58.4277 0.0000 0.0000 0.0000
# 3 37.5012 58.4277 89.2934 0.0000 0.0000 0.0000
# 4 0.0000 0.0000 0.0000 15.7359 0.0000 0.0000
# 5 0.0000 0.0000 0.0000 0.0000 21.6591 0.0000
# 6 0.0000 0.0000 0.0000 0.0000 0.0000 28.7930
#
#
#
# Elastic Compliance Matrix: (Units=1/GPa)
#
#
# Indices 1 2 3 4 5 6 
#
# 1 0.040232 -0.008187 -0.011540 0.000000 0.000000 0.000000
# 2 -0.008187 0.012832 -0.004958 0.000000 0.000000 0.000000
# 3 -0.011540 -0.004958 0.019290 0.000000 0.000000 0.000000
# 4 0.000000 0.000000 0.000000 0.063549 0.000000 0.000000
# 5 0.000000 0.000000 0.000000 0.000000 0.046170 0.000000
# 6 0.000000 0.000000 0.000000 0.000000 0.000000 0.034731
#
#
# Mechanical properties :
#
#
# Convention : Reuss Voigt Hill
#
# Bulk Modulus (GPa) = 43.50765 59.86428 51.68597
# Shear Modulus (GPa) = 18.25931 21.41793 19.83862
#
# Velocity S-wave (km/s) = 3.22713 3.49513 3.36380
# Velocity P-wave (km/s) = 6.22100 7.10155 6.67581
#
# Compressibility (1/GPa) = 0.02298446
#
# Stress axis : x y z
#
# Youngs Moduli (GPa) = 24.85607 77.93045 51.84127
#
# Poissons Ratio (x) = 0.63800 0.59822
# Poissons Ratio (y) = 0.20349 0.25704
# Poissons Ratio (z) = 0.28683 0.38639
#
# Static dielectric constant tensor:
#      x y z
#    x 1.604800 0.000000 0.000000 
#    y 0.000000 1.620210 0.000000 
#    z 0.000000 0.000000 1.613710 
# 
# From -- ./inp_files/17112.got.cif
#   From: 2010.05.17/outbox.cif.g08.bks.cpg/sg53_9_cif.got.tgz:17112.got - 2010.06.03 12:45:16.
