data_PCOD9417079
_publ_section_title
;
Structure prediction by ZEFSAII (Michael W. Deem and Ramdas Pophale) SiO2 
 PCOD9417079
Probable space group: P M N A
;
_chemical_formula_sum "Si O2"
_cell_formula_units_Z 64
_cell_length_a 8.792586
_cell_length_b 22.881524
_cell_length_c 17.984420
_cell_angle_alpha 90.000000
_cell_angle_beta 90.000000
_cell_angle_gamma 90.000000
_cell_volume 3618.245311
_symmetry_space_group_name_H-M "P M N A"
_symmetry_group_IT_number 53
_symmetry_cell_setting 'orthorhombic'
loop_
_space_group_symop_operation_xyz
x,y,z
1/2-x,-y,1/2+z
x,-y,-z
1/2-x,y,1/2-z
-x,-y,-z
1/2+x,y,1/2-z
-x,y,z
1/2+x,-y,1/2+z
loop_
_atom_site_type_symbol
_atom_site_label
_atom_site_fract_x
_atom_site_fract_y
_atom_site_fract_z
Si Si1 0.818998 0.055455 0.332084
Si Si2 0.682150 0.617656 0.528779
Si Si3 0.817845 0.292658 0.672988
Si Si4 0.825578 0.958460 0.073089
Si Si5 0.683467 0.863004 0.538651
Si Si6 0.316925 0.257813 0.991163
Si Si7 0.818999 0.456894 0.174669
Si Si8 0.317434 0.577751 0.123077
O O1 0.750000 0.062628 0.250000
O O2 0.750722 0.102580 0.390460
O O3 0.000000 0.061029 0.329764
O O4 0.772342 0.992177 0.365981
O O5 0.500000 0.622014 0.520220
O O6 0.755749 0.681717 0.525153
O O7 0.716264 0.583859 0.604556
O O8 0.751061 0.581854 0.459885
O O9 0.750000 0.270297 0.750000
O O10 0.773301 0.260169 0.596681
O O11 0.772585 0.360800 0.661383
O O12 0.000000 0.290907 0.677585
O O13 0.000000 0.953121 0.099601
O O14 0.771488 0.897765 0.037213
O O15 0.828222 0.000000 0.000000
O O16 0.500000 0.865027 0.543045
O O17 0.744787 0.797782 0.531170
O O18 0.500000 0.256379 0.995613
O O19 0.750000 0.431763 0.250000
O O20 0.748191 0.520785 0.161867
O O21 0.000000 0.462536 0.180797
O O22 0.500000 0.575336 0.120981
#
# Coordination Sequence:
#
# PCOD9417079 Si02
#       8
#     8   8   8   8   8   8   8   8
#     4  11  21  34  55  83 115 147 181 224 269 312
#     4  10  21  37  55  76 103 137 178 222 269 322
#     4   9  19  33  50  75 104 133 168 212 262 316
#     4   8  16  32  53  78 108 139 171 210 258 311
#     4  10  20  36  58  82 109 143 183 223 266 318
#     4  10  21  37  56  79 106 140 184 226 266 317
#     4  11  23  36  52  76 105 136 172 217 269 325
#     4  10  20  34  54  79 105 134 170 215 268 327
#
# _framework density 17.688132
#
# number of rings (size 3 to 8) (size 9 to 14) (size 15 to 20)
#    0.000    2.125    0.000    5.250    0.000   10.250 
#    0.000    1.250    0.000    3.000    0.000    0.000 
#    0.000    0.000    0.000    0.000    0.000    0.000 
#
# Total GULP energy -357175.526513 kJ/mol
# GULP energy per Si atom -5580.867602 kJ/mol
# Density = 1.764787 g / cm^3
# Si number density = 17.688132 Si / 1000 Ang^3
#
#
#
# Elastic Constant Matrix: (Units=GPa)
#
#
# Indices 1 2 3 4 5 6 
#
# 1 67.6737 30.3956 53.3899 0.0000 0.0000 0.0000
# 2 30.3956 63.7794 41.2919 0.0000 0.0000 0.0000
# 3 53.3899 41.2919 119.9961 0.0000 0.0000 0.0000
# 4 0.0000 0.0000 0.0000 19.5883 0.0000 0.0000
# 5 0.0000 0.0000 0.0000 0.0000 30.6912 0.0000
# 6 0.0000 0.0000 0.0000 0.0000 0.0000 54.0730
#
#
#
# Elastic Compliance Matrix: (Units=1/GPa)
#
#
# Indices 1 2 3 4 5 6 
#
# 1 0.024389 -0.005916 -0.008816 0.000000 0.000000 0.000000
# 2 -0.005916 0.021608 -0.004804 0.000000 0.000000 0.000000
# 3 -0.008816 -0.004804 0.013909 0.000000 0.000000 0.000000
# 4 0.000000 0.000000 0.000000 0.051051 0.000000 0.000000
# 5 0.000000 0.000000 0.000000 0.000000 0.032583 0.000000
# 6 0.000000 0.000000 0.000000 0.000000 0.000000 0.018494
#
#
# Mechanical properties :
#
#
# Convention : Reuss Voigt Hill
#
# Bulk Modulus (GPa) = 47.99350 55.73379 51.86365
# Shear Modulus (GPa) = 24.03293 29.29530 26.66411
#
# Velocity S-wave (km/s) = 3.69006 4.07407 3.88681
# Velocity P-wave (km/s) = 6.73405 7.32860 7.03760
#
# Compressibility (1/GPa) = 0.02083615
#
# Stress axis : x y z
#
# Youngs Moduli (GPa) = 41.00249 46.27877 71.89623
#
# Poissons Ratio (x) = 0.27377 0.63381
# Poissons Ratio (y) = 0.24255 0.34536
# Poissons Ratio (z) = 0.36147 0.22230
#
# Static dielectric constant tensor:
#      x y z
#    x 1.591080 0.000000 0.000000 
#    y 0.000000 1.597060 0.000000 
#    z 0.000000 0.000000 1.615430 
# 
# From -- ./inp_files/26800.got.cif
#   From: 2010.05.17/outbox.cif.g08.bks.cpg/sg53_14_cif.got.tgz:26800.got - 2010.06.03 12:45:16.
