data_PCOD9417562
_publ_section_title
;
Structure prediction by ZEFSAII (Michael W. Deem and Ramdas Pophale) SiO2 
 PCOD9417562
Probable space group: P M N A
;
_chemical_formula_sum "Si O2"
_cell_formula_units_Z 32
_cell_length_a 27.540457
_cell_length_b 12.936328
_cell_length_c 5.011026
_cell_angle_alpha 90.000000
_cell_angle_beta 90.000000
_cell_angle_gamma 90.000000
_cell_volume 1785.290184
_symmetry_space_group_name_H-M "P M N A"
_symmetry_group_IT_number 53
_symmetry_cell_setting 'orthorhombic'
loop_
_space_group_symop_operation_xyz
x,y,z
1/2-x,-y,1/2+z
x,-y,-z
1/2-x,y,1/2-z
-x,-y,-z
1/2+x,y,1/2-z
-x,y,z
1/2+x,-y,1/2+z
loop_
_atom_site_type_symbol
_atom_site_label
_atom_site_fract_x
_atom_site_fract_y
_atom_site_fract_z
Si Si1 0.854597 0.120545 0.412656
Si Si2 0.094896 0.207044 0.888316
Si Si3 0.444809 0.571328 0.242216
Si Si4 0.250000 0.073575 0.250000
Si Si5 0.000000 0.924490 0.247988
O O1 0.862123 0.180723 0.686014
O O2 0.799635 0.132264 0.311440
O O3 0.862646 0.000000 0.500000
O O4 0.890499 0.164263 0.181711
O O5 0.082868 0.326984 0.842624
O O6 0.047931 0.145196 0.778731
O O7 0.448021 0.500000 0.500000
O O8 0.500000 0.602508 0.159406
O O9 0.425000 0.500000 0.000000
O O10 0.260671 0.000000 0.500000
O O11 0.000000 0.000000 0.500000
O O12 0.000000 0.000000 0.000000
#
# Coordination Sequence:
#
# PCOD9417562 Si02
#       5
#     8   8   8   4   4
#     4  11  22  36  57  82 116 148 186 227 271 333
#     4  12  22  37  55  83 111 151 185 224 278 332
#     4  10  21  38  58  78 106 143 191 242 276 314
#     4  10  20  36  56  80 110 148 190 232 270 310
#     4  12  24  34  48  76 118 152 176 204 259 336
#
# _framework density 17.924258999999999
#
# number of rings (size 3 to 8) (size 9 to 14) (size 15 to 20)
#    0.000    1.000    1.250    9.000    0.000    0.000 
#    0.000    0.000    0.000    0.000    0.000   17.500 
#    0.000    0.000    0.000    0.000    0.000    0.000 
#
# Total GULP energy -178549.705622 kJ/mol
# GULP energy per Si atom -5579.678301 kJ/mol
# Density = 1.788346 g / cm^3
# Si number density = 17.924259 Si / 1000 Ang^3
#
#
#
# Elastic Constant Matrix: (Units=GPa)
#
#
# Indices 1 2 3 4 5 6 
#
# 1 58.4527 29.8893 6.9031 0.0000 0.0000 0.0000
# 2 29.8893 125.8975 39.7390 0.0000 0.0000 0.0000
# 3 6.9031 39.7390 119.0419 0.0000 0.0000 0.0000
# 4 0.0000 0.0000 0.0000 26.0422 0.0000 0.0000
# 5 0.0000 0.0000 0.0000 0.0000 51.4209 0.0000
# 6 0.0000 0.0000 0.0000 0.0000 0.0000 25.2188
#
#
#
# Elastic Compliance Matrix: (Units=1/GPa)
#
#
# Indices 1 2 3 4 5 6 
#
# 1 0.019494 -0.004774 0.000463 0.000000 0.000000 0.000000
# 2 -0.004774 0.010048 -0.003077 0.000000 0.000000 0.000000
# 3 0.000463 -0.003077 0.009401 0.000000 0.000000 0.000000
# 4 0.000000 0.000000 0.000000 0.038399 0.000000 0.000000
# 5 0.000000 0.000000 0.000000 0.000000 0.019447 0.000000
# 6 0.000000 0.000000 0.000000 0.000000 0.000000 0.039653
#
#
# Mechanical properties :
#
#
# Convention : Reuss Voigt Hill
#
# Bulk Modulus (GPa) = 41.37996 50.71723 46.04859
# Shear Modulus (GPa) = 31.39226 35.66042 33.52634
#
# Velocity S-wave (km/s) = 4.18949 4.46523 4.32956
# Velocity P-wave (km/s) = 6.82192 7.41222 7.12319
#
# Compressibility (1/GPa) = 0.02416629
#
# Stress axis : x y z
#
# Youngs Moduli (GPa) = 51.29654 99.52407 106.37366
#
# Poissons Ratio (x) = 0.47517 -0.04929
# Poissons Ratio (y) = 0.24491 0.32735
# Poissons Ratio (z) = -0.02377 0.30627
#
# Static dielectric constant tensor:
#      x y z
#    x 1.696390 0.000000 0.000000 
#    y 0.000000 1.647180 0.000000 
#    z 0.000000 0.000000 1.620560 
# 
# From -- ./inp_files/3430.got.cif
#   From: 2010.05.17/outbox.cif.g08.bks.cpg/sg53_2_cif.got.tgz:3430.got - 2010.06.03 12:45:16.
