data_PCOD9417575
_publ_section_title
;
Structure prediction by ZEFSAII (Michael W. Deem and Ramdas Pophale) SiO2 
 PCOD9417575
Probable space group: P M N A
;
_chemical_formula_sum "Si O2"
_cell_formula_units_Z 60
_cell_length_a 23.547631
_cell_length_b 23.510340
_cell_length_c 5.338615
_cell_angle_alpha 90.000000
_cell_angle_beta 90.000000
_cell_angle_gamma 90.000000
_cell_volume 2955.525657
_symmetry_space_group_name_H-M "P M N A"
_symmetry_group_IT_number 53
_symmetry_cell_setting 'orthorhombic'
loop_
_space_group_symop_operation_xyz
x,y,z
1/2-x,-y,1/2+z
x,-y,-z
1/2-x,y,1/2-z
-x,-y,-z
1/2+x,y,1/2-z
-x,y,z
1/2+x,-y,1/2+z
loop_
_atom_site_type_symbol
_atom_site_label
_atom_site_fract_x
_atom_site_fract_y
_atom_site_fract_z
Si Si1 0.750000 0.626615 0.250000
Si Si2 0.565302 0.799436 0.463207
Si Si3 0.364940 0.173847 0.037652
Si Si4 0.064368 0.678449 0.266604
Si Si5 0.788013 0.064332 0.498908
Si Si6 0.850906 0.614453 0.957917
Si Si7 0.436718 0.537759 0.752071
Si Si8 0.669028 0.705807 0.912436
O O1 0.705247 0.590511 0.412704
O O2 0.789936 0.667521 0.417606
O O3 0.500000 0.818644 0.458851
O O4 0.595942 0.819021 0.716286
O O5 0.564175 0.730817 0.430021
O O6 0.599131 0.819605 0.217300
O O7 0.333551 0.114098 0.021901
O O8 0.320871 0.227147 0.063647
O O9 0.104342 0.698740 0.491075
O O10 0.000000 0.666259 0.337810
O O11 0.097349 0.625897 0.146815
O O12 0.750000 0.068237 0.250000
O O13 0.812174 0.000000 0.500000
O O14 0.750000 0.071460 0.750000
O O15 0.881995 0.578655 0.745299
O O16 0.829876 0.675867 0.856160
O O17 0.431438 0.500000 0.500000
O O18 0.500000 0.565525 0.740162
O O19 0.435990 0.500000 0.000000
#
# Coordination Sequence:
#
# PCOD9417575 Si02
#       8
#     4   8   8   8   8   8   8   8
#     4  10  24  38  58  84 124 164 204 250 300 368
#     4  10  20  36  56  87 125 156 199 249 301 371
#     4  11  21  37  60  88 120 165 201 250 314 365
#     4   9  19  33  54  87 122 157 196 242 302 370
#     4  10  22  39  60  87 118 158 211 265 308 355
#     4  11  21  40  62  87 122 162 200 252 307 369
#     4  10  24  44  69  98 125 155 201 262 316 368
#     4  10  22  36  57  87 123 158 204 242 307 370
#
# _framework density 20.300958000000001
#
# number of rings (size 3 to 8) (size 9 to 14) (size 15 to 20)
#    0.000    1.867    1.333    2.000    4.667    2.667 
#    0.000    0.000    2.933    2.400    0.000    0.000 
#    0.000    0.000    0.000    0.000    0.000    0.000 
#
# Total GULP energy -334949.339083 kJ/mol
# GULP energy per Si atom -5582.488985 kJ/mol
# Density = 2.025475 g / cm^3
# Si number density = 20.300958 Si / 1000 Ang^3
#
#
#
# Elastic Constant Matrix: (Units=GPa)
#
#
# Indices 1 2 3 4 5 6 
#
# 1 119.4353 34.8740 36.0091 0.0000 0.0000 0.0000
# 2 34.8740 68.6676 24.4236 0.0000 0.0000 0.0000
# 3 36.0091 24.4236 108.1293 0.0000 0.0000 0.0000
# 4 0.0000 0.0000 0.0000 30.3017 0.0000 0.0000
# 5 0.0000 0.0000 0.0000 0.0000 28.6296 0.0000
# 6 0.0000 0.0000 0.0000 0.0000 0.0000 23.4812
#
#
#
# Elastic Compliance Matrix: (Units=1/GPa)
#
#
# Indices 1 2 3 4 5 6 
#
# 1 0.010404 -0.004405 -0.002470 0.000000 0.000000 0.000000
# 2 -0.004405 0.017700 -0.002531 0.000000 0.000000 0.000000
# 3 -0.002470 -0.002531 0.010642 0.000000 0.000000 0.000000
# 4 0.000000 0.000000 0.000000 0.033001 0.000000 0.000000
# 5 0.000000 0.000000 0.000000 0.000000 0.034929 0.000000
# 6 0.000000 0.000000 0.000000 0.000000 0.000000 0.042587
#
#
# Mechanical properties :
#
#
# Convention : Reuss Voigt Hill
#
# Bulk Modulus (GPa) = 50.16404 54.09396 52.12900
# Shear Modulus (GPa) = 28.61714 29.87754 29.24734
#
# Velocity S-wave (km/s) = 3.75860 3.84048 3.79976
# Velocity P-wave (km/s) = 6.60302 6.80952 6.70706
#
# Compressibility (1/GPa) = 0.01993460
#
# Stress axis : x y z
#
# Youngs Moduli (GPa) = 96.12062 56.49576 93.96478
#
# Poissons Ratio (x) = 0.24888 0.23205
# Poissons Ratio (y) = 0.42344 0.23783
# Poissons Ratio (z) = 0.23738 0.14299
#
# Static dielectric constant tensor:
#      x y z
#    x 1.724430 0.000000 0.000000 
#    y 0.000000 1.763360 0.000000 
#    z 0.000000 0.000000 1.765400 
# 
# From -- ./inp_files/3096.got.cif
#   From: 2010.05.17/outbox.cif.g08.bks.cpg/sg53_2_cif.got.tgz:3096.got - 2010.06.03 12:45:16.
