data_PCOD9417801
_publ_section_title
;
Structure prediction by ZEFSAII (Michael W. Deem and Ramdas Pophale) SiO2 
 PCOD9417801
Probable space group: P M N A
;
_chemical_formula_sum "Si O2"
_cell_formula_units_Z 56
_cell_length_a 14.963808
_cell_length_b 16.575185
_cell_length_c 10.918822
_cell_angle_alpha 90.000000
_cell_angle_beta 90.000000
_cell_angle_gamma 90.000000
_cell_volume 2708.172337
_symmetry_space_group_name_H-M "P M N A"
_symmetry_group_IT_number 53
_symmetry_cell_setting 'orthorhombic'
loop_
_space_group_symop_operation_xyz
x,y,z
1/2-x,-y,1/2+z
x,-y,-z
1/2-x,y,1/2-z
-x,-y,-z
1/2+x,y,1/2-z
-x,y,z
1/2+x,-y,1/2+z
loop_
_atom_site_type_symbol
_atom_site_label
_atom_site_fract_x
_atom_site_fract_y
_atom_site_fract_z
Si Si1 0.272045 0.910129 0.951468
Si Si2 0.405831 0.284095 0.164266
Si Si3 0.774858 0.742378 0.446885
Si Si4 0.145911 0.552966 0.764837
Si Si5 0.105234 0.126649 0.216769
Si Si6 0.399778 0.357237 0.506248
Si Si7 0.601297 0.621116 0.205411
O O1 0.348710 0.896964 0.847226
O O2 0.174971 0.902065 0.885635
O O3 0.277321 0.840105 0.056212
O O4 0.281925 0.000000 0.000000
O O5 0.500000 0.258270 0.107435
O O6 0.407299 0.375430 0.202350
O O7 0.391663 0.224167 0.277269
O O8 0.328003 0.274811 0.070113
O O9 0.676674 0.709762 0.476768
O O10 0.828480 0.687760 0.345894
O O11 0.250000 0.569500 0.750000
O O12 0.129011 0.471663 0.686413
O O13 0.124156 0.572295 0.908555
O O14 0.000000 0.102862 0.205675
O O15 0.500000 0.328330 0.475798
O O16 0.402630 0.384954 0.647239
O O17 0.500000 0.638157 0.160930
#
# Coordination Sequence:
#
# PCOD9417801 Si02
#       7
#     8   8   8   8   8   8   8
#     4  10  22  40  67  96 129 171 216 271 343 408
#     4  10  20  36  63  92 121 162 209 268 324 369
#     4  11  22  42  64  89 127 165 214 272 329 394
#     4  12  22  37  62  92 126 165 219 267 312 369
#     4   9  20  40  65  97 132 165 217 275 325 395
#     4  11  23  41  62  88 125 175 220 258 313 384
#     4  11  25  42  60  88 128 173 216 260 315 385
#
# _framework density 20.678152999999998
#
# number of rings (size 3 to 8) (size 9 to 14) (size 15 to 20)
#    0.000    1.429    1.429    4.286    2.000    4.571 
#    5.143    1.429    0.000    0.000    0.000    0.000 
#    0.000    0.000    0.000    0.000    0.000    0.000 
#
# Total GULP energy -311823.678006 kJ/mol
# GULP energy per Si atom -5568.279964 kJ/mol
# Density = 2.063109 g / cm^3
# Si number density = 20.678153 Si / 1000 Ang^3
#
#
#
# Elastic Constant Matrix: (Units=GPa)
#
#
# Indices 1 2 3 4 5 6 
#
# 1 157.7404 36.6298 24.2802 0.0000 0.0000 0.0000
# 2 36.6298 149.9740 30.4436 0.0000 0.0000 0.0000
# 3 24.2802 30.4436 50.3111 0.0000 0.0000 0.0000
# 4 0.0000 0.0000 0.0000 31.6377 0.0000 0.0000
# 5 0.0000 0.0000 0.0000 0.0000 42.4706 0.0000
# 6 0.0000 0.0000 0.0000 0.0000 0.0000 23.0086
#
#
#
# Elastic Compliance Matrix: (Units=1/GPa)
#
#
# Indices 1 2 3 4 5 6 
#
# 1 0.007024 -0.001171 -0.002681 0.000000 0.000000 0.000000
# 2 -0.001171 0.007797 -0.004153 0.000000 0.000000 0.000000
# 3 -0.002681 -0.004153 0.023683 0.000000 0.000000 0.000000
# 4 0.000000 0.000000 0.000000 0.031608 0.000000 0.000000
# 5 0.000000 0.000000 0.000000 0.000000 0.023546 0.000000
# 6 0.000000 0.000000 0.000000 0.000000 0.000000 0.043462
#
#
# Mechanical properties :
#
#
# Convention : Reuss Voigt Hill
#
# Bulk Modulus (GPa) = 44.45649 60.08142 52.26896
# Shear Modulus (GPa) = 31.12784 37.20148 34.16466
#
# Velocity S-wave (km/s) = 3.88409 4.24615 4.06915
# Velocity P-wave (km/s) = 6.45452 7.29097 6.88546
#
# Compressibility (1/GPa) = 0.02249390
#
# Stress axis : x y z
#
# Youngs Moduli (GPa) = 142.36437 128.25658 42.22437
#
# Poissons Ratio (x) = 0.15023 0.11321
# Poissons Ratio (y) = 0.16676 0.17534
# Poissons Ratio (z) = 0.38169 0.53260
#
# Static dielectric constant tensor:
#      x y z
#    x 1.729280 0.000000 0.000000 
#    y 0.000000 1.821510 0.000000 
#    z 0.000000 0.000000 1.784920 
# 
# From -- ./inp_files/16066.got.cif
#   From: 2010.05.17/outbox.cif.g08.bks.cpg/sg53_9_cif.got.tgz:16066.got - 2010.06.03 12:45:16.
