data_PCOD9417527
_publ_section_title
;
Structure prediction by ZEFSAII (Michael W. Deem and Ramdas Pophale) SiO2 
 PCOD9417527
Probable space group: P M N A
;
_chemical_formula_sum "Si O2"
_cell_formula_units_Z 64
_cell_length_a 8.382442
_cell_length_b 20.371290
_cell_length_c 20.955885
_cell_angle_alpha 90.000000
_cell_angle_beta 90.000000
_cell_angle_gamma 90.000000
_cell_volume 3578.451166
_symmetry_space_group_name_H-M "P M N A"
_symmetry_group_IT_number 53
_symmetry_cell_setting 'orthorhombic'
loop_
_space_group_symop_operation_xyz
x,y,z
1/2-x,-y,1/2+z
x,-y,-z
1/2-x,y,1/2-z
-x,-y,-z
1/2+x,y,1/2-z
-x,y,z
1/2+x,-y,1/2+z
loop_
_atom_site_type_symbol
_atom_site_label
_atom_site_fract_x
_atom_site_fract_y
_atom_site_fract_z
Si Si1 0.192704 0.073877 0.320229
Si Si2 0.807110 0.575268 0.679372
Si Si3 0.307067 0.826866 0.929690
Si Si4 0.692819 0.424646 0.820617
Si Si5 0.689374 0.824525 0.428400
Si Si6 0.808872 0.077172 0.679668
Si Si7 0.807120 0.322871 0.572479
Si Si8 0.194478 0.676595 0.572166
O O1 0.250000 0.094339 0.250000
O O2 0.248662 0.122268 0.376045
O O3 0.000000 0.074482 0.320341
O O4 0.244950 0.998415 0.330698
O O5 0.750000 0.594087 0.750000
O O6 0.755265 0.499948 0.667401
O O7 0.749892 0.625323 0.625171
O O8 0.000000 0.575835 0.679018
O O9 0.500000 0.827633 0.930246
O O10 0.256577 0.751874 0.915144
O O11 0.250667 0.843214 0.000987
O O12 0.750000 0.405791 0.750000
O O13 0.500000 0.424130 0.820975
O O14 0.749512 0.374489 0.874767
O O15 0.500000 0.822594 0.429317
O O16 0.746950 0.875278 0.375176
O O17 0.753450 0.751348 0.414253
O O18 0.750000 0.097264 0.750000
O O19 0.000000 0.078072 0.679199
O O20 0.755713 0.340041 0.500209
O O21 0.000000 0.323516 0.572877
O O22 0.000000 0.675495 0.573047
#
# Coordination Sequence:
#
# PCOD9417527 Si02
#       8
#     8   8   8   8   8   8   8   8
#     4   9  19  34  54  77 103 134 169 207 249 294
#     4   9  17  30  47  71  99 128 161 199 241 289
#     4   9  18  35  54  74 102 137 171 205 246 296
#     4   9  18  31  49  71  97 127 161 199 242 290
#     4  11  22  35  52  76 102 131 166 209 254 299
#     4  10  20  36  55  76 102 133 167 206 249 298
#     4   9  18  34  52  70  94 128 165 205 248 293
#     4   8  15  29  50  71  95 126 163 202 239 281
#
# _framework density 17.884831999999999
#
# number of rings (size 3 to 8) (size 9 to 14) (size 15 to 20)
#    0.000    2.750    0.000    2.250    0.000    3.500 
#    0.000    8.750    0.000    0.000    0.000    7.000 
#    0.000    0.000    0.000    0.000    0.000    0.000 
#
# Total GULP energy -356904.692118 kJ/mol
# GULP energy per Si atom -5576.635814 kJ/mol
# Density = 1.784413 g / cm^3
# Si number density = 17.884832 Si / 1000 Ang^3
#
#
#
# Elastic Constant Matrix: (Units=GPa)
#
#
# Indices 1 2 3 4 5 6 
#
# 1 13.4553 17.8431 21.4478 0.0000 0.0000 0.0000
# 2 17.8431 119.0668 138.2827 0.0000 0.0000 0.0000
# 3 21.4478 138.2827 191.8843 0.0000 0.0000 0.0000
# 4 0.0000 0.0000 0.0000 44.8277 0.0000 0.0000
# 5 0.0000 0.0000 0.0000 0.0000 29.3115 0.0000
# 6 0.0000 0.0000 0.0000 0.0000 0.0000 12.5790
#
#
#
# Elastic Compliance Matrix: (Units=1/GPa)
#
#
# Indices 1 2 3 4 5 6 
#
# 1 0.092897 -0.011421 -0.002153 0.000000 0.000000 0.000000
# 2 -0.011421 0.052917 -0.036859 0.000000 0.000000 0.000000
# 3 -0.002153 -0.036859 0.032015 0.000000 0.000000 0.000000
# 4 0.000000 0.000000 0.000000 0.022308 0.000000 0.000000
# 5 0.000000 0.000000 0.000000 0.000000 0.034116 0.000000
# 6 0.000000 0.000000 0.000000 0.000000 0.000000 0.079498
#
#
# Mechanical properties :
#
#
# Convention : Reuss Voigt Hill
#
# Bulk Modulus (GPa) = 12.99307 75.50595 44.24951
# Shear Modulus (GPa) = 11.35664 27.13250 19.24457
#
# Velocity S-wave (km/s) = 2.52263 3.89918 3.28384
# Velocity P-wave (km/s) = 3.97058 7.91082 6.25885
#
# Compressibility (1/GPa) = 0.07696411
#
# Stress axis : x y z
#
# Youngs Moduli (GPa) = 10.76456 18.89735 31.23574
#
# Poissons Ratio (x) = 0.21583 0.06725
# Poissons Ratio (y) = 0.12294 1.15131
# Poissons Ratio (z) = 0.02317 0.69653
#
# Static dielectric constant tensor:
#      x y z
#    x 1.620030 0.000000 0.000000 
#    y 0.000000 1.607400 0.000000 
#    z 0.000000 0.000000 1.589250 
# 
# From -- ./inp_files/31175.got.cif
#   From: 2010.05.17/outbox.cif.g08.bks.cpg/sg53_16_cif.got.tgz:31175.got - 2010.06.03 12:45:16.
