data_PCOD9417387
_publ_section_title
;
Structure prediction by ZEFSAII (Michael W. Deem and Ramdas Pophale) SiO2 
 PCOD9417387
Probable space group: P M N A
;
_chemical_formula_sum "Si O2"
_cell_formula_units_Z 64
_cell_length_a 9.201772
_cell_length_b 17.346210
_cell_length_c 19.649005
_cell_angle_alpha 90.000000
_cell_angle_beta 90.000000
_cell_angle_gamma 90.000000
_cell_volume 3136.293018
_symmetry_space_group_name_H-M "P M N A"
_symmetry_group_IT_number 53
_symmetry_cell_setting 'orthorhombic'
loop_
_space_group_symop_operation_xyz
x,y,z
1/2-x,-y,1/2+z
x,-y,-z
1/2-x,y,1/2-z
-x,-y,-z
1/2+x,y,1/2-z
-x,y,z
1/2+x,-y,1/2+z
loop_
_atom_site_type_symbol
_atom_site_label
_atom_site_fract_x
_atom_site_fract_y
_atom_site_fract_z
Si Si1 0.170616 0.208533 0.821727
Si Si2 0.837954 0.796157 0.645356
Si Si3 0.672430 0.618290 0.820516
Si Si4 0.671437 0.416647 0.464299
Si Si5 0.162903 0.948803 0.088100
Si Si6 0.827975 0.294856 0.563323
Si Si7 0.666560 0.830142 0.517842
Si Si8 0.340978 0.035698 0.187884
O O1 0.250000 0.199418 0.750000
O O2 0.178139 0.128770 0.865057
O O3 0.249377 0.276039 0.865259
O O4 0.000000 0.226001 0.813240
O O5 0.818121 0.711953 0.676567
O O6 0.705721 0.814653 0.595156
O O7 0.845059 0.871748 0.691784
O O8 0.000000 0.793883 0.611698
O O9 0.750000 0.592947 0.750000
O O10 0.500000 0.598466 0.820938
O O11 0.750766 0.588832 0.890057
O O12 0.679252 0.500000 0.500000
O O13 0.500000 0.396053 0.456689
O O14 0.752686 0.360146 0.517179
O O15 0.000000 0.979187 0.098281
O O16 0.275578 0.009015 0.116922
O O17 0.177200 0.915719 0.012231
O O18 0.788547 0.218601 0.520714
O O19 0.000000 0.306991 0.570440
O O20 0.500000 0.805089 0.502356
O O21 0.250000 0.004602 0.250000
O O22 0.500000 0.003247 0.193900
#
# Coordination Sequence:
#
# PCOD9417387 Si02
#       8
#     8   8   8   8   8   8   8   8
#     4  10  20  35  56  84 117 156 205 258 312 369
#     4  10  22  38  57  85 118 155 200 251 308 364
#     4  11  23  41  67  97 130 168 209 254 305 364
#     4  11  24  43  68  98 130 164 203 247 298 360
#     4   9  20  36  53  77 110 151 200 252 309 367
#     4  11  21  36  60  89 122 158 199 246 297 361
#     4  10  20  35  58  84 112 151 197 247 302 362
#     4  11  23  37  53  75 108 151 199 251 311 370
#
# _framework density 20.406257
#
# number of rings (size 3 to 8) (size 9 to 14) (size 15 to 20)
#    0.000    1.625    1.250    4.500    0.000    7.000 
#    0.000    3.125    0.000    3.000    0.000    0.000 
#    0.000    0.000    0.000    0.000    0.000    0.000 
#
# Total GULP energy -357079.197676 kJ/mol
# GULP energy per Si atom -5579.362464 kJ/mol
# Density = 2.035981 g / cm^3
# Si number density = 20.406257 Si / 1000 Ang^3
#
#
#
# Elastic Constant Matrix: (Units=GPa)
#
#
# Indices 1 2 3 4 5 6 
#
# 1 167.3611 36.3273 73.2642 0.0000 0.0000 0.0000
# 2 36.3273 51.2337 14.7990 0.0000 0.0000 0.0000
# 3 73.2642 14.7990 110.2449 0.0000 0.0000 0.0000
# 4 0.0000 0.0000 0.0000 11.2726 0.0000 0.0000
# 5 0.0000 0.0000 0.0000 0.0000 34.0560 0.0000
# 6 0.0000 0.0000 0.0000 0.0000 0.0000 22.7489
#
#
#
# Elastic Compliance Matrix: (Units=1/GPa)
#
#
# Indices 1 2 3 4 5 6 
#
# 1 0.009577 -0.005152 -0.005673 0.000000 0.000000 0.000000
# 2 -0.005152 0.023077 0.000326 0.000000 0.000000 0.000000
# 3 -0.005673 0.000326 0.012797 0.000000 0.000000 0.000000
# 4 0.000000 0.000000 0.000000 0.088711 0.000000 0.000000
# 5 0.000000 0.000000 0.000000 0.000000 0.029363 0.000000
# 6 0.000000 0.000000 0.000000 0.000000 0.000000 0.043958
#
#
# Mechanical properties :
#
#
# Convention : Reuss Voigt Hill
#
# Bulk Modulus (GPa) = 40.89416 64.18007 52.53712
# Shear Modulus (GPa) = 21.12991 27.24545 24.18768
#
# Velocity S-wave (km/s) = 3.22135 3.65794 3.44656
# Velocity P-wave (km/s) = 5.82406 7.02568 6.45290
#
# Compressibility (1/GPa) = 0.02445337
#
# Stress axis : x y z
#
# Youngs Moduli (GPa) = 104.42118 43.33299 78.14461
#
# Poissons Ratio (x) = 0.22324 0.44329
# Poissons Ratio (y) = 0.53795 -0.02546
# Poissons Ratio (z) = 0.59235 -0.01412
#
# Static dielectric constant tensor:
#      x y z
#    x 1.718770 0.000000 0.000000 
#    y 0.000000 1.751930 0.000000 
#    z 0.000000 0.000000 1.760820 
# 
# From -- ./inp_files/31235.got.cif
#   From: 2010.05.17/outbox.cif.g08.bks.cpg/sg53_16_cif.got.tgz:31235.got - 2010.06.03 12:45:16.
