data_PCOD9417783
_publ_section_title
;
Structure prediction by ZEFSAII (Michael W. Deem and Ramdas Pophale) SiO2 
 PCOD9417783
Probable space group: P M N A
;
_chemical_formula_sum "Si O2"
_cell_formula_units_Z 64
_cell_length_a 14.070259
_cell_length_b 12.449179
_cell_length_c 17.555814
_cell_angle_alpha 90.000000
_cell_angle_beta 90.000000
_cell_angle_gamma 90.000000
_cell_volume 3075.132083
_symmetry_space_group_name_H-M "P M N A"
_symmetry_group_IT_number 53
_symmetry_cell_setting 'orthorhombic'
loop_
_space_group_symop_operation_xyz
x,y,z
1/2-x,-y,1/2+z
x,-y,-z
1/2-x,y,1/2-z
-x,-y,-z
1/2+x,y,1/2-z
-x,y,z
1/2+x,-y,1/2+z
loop_
_atom_site_type_symbol
_atom_site_label
_atom_site_fract_x
_atom_site_fract_y
_atom_site_fract_z
Si Si1 0.884692 0.365898 0.870633
Si Si2 0.715641 0.416592 0.335356
Si Si3 0.613668 0.231622 0.775431
Si Si4 0.386473 0.192640 0.365687
Si Si5 0.397262 0.596653 0.940517
Si Si6 0.814830 0.833609 0.036178
Si Si7 0.885740 0.033244 0.819460
Si Si8 0.607959 0.202754 0.947483
O O1 0.847927 0.487180 0.869630
O O2 0.854981 0.315208 0.788649
O O3 0.836160 0.287751 0.932781
O O4 0.000000 0.360475 0.878978
O O5 0.750000 0.440029 0.250000
O O6 0.661264 0.303452 0.340901
O O7 0.810434 0.406727 0.384538
O O8 0.500000 0.233742 0.769747
O O9 0.645105 0.113579 0.747735
O O10 0.633013 0.249990 0.863693
O O11 0.500000 0.203155 0.359359
O O12 0.360607 0.163624 0.453073
O O13 0.352542 0.089192 0.317396
O O14 0.500000 0.587954 0.900659
O O15 0.390398 0.500000 0.000000
O O16 0.396003 0.704099 0.990346
O O17 0.859186 0.910158 0.100621
O O18 0.702829 0.861969 0.032089
O O19 0.000000 0.029619 0.816814
O O20 0.500000 0.155233 0.942803
#
# Coordination Sequence:
#
# PCOD9417783 Si02
#       8
#     8   8   8   8   8   8   8   8
#     4  10  22  37  58  92 131 163 203 264 322 375
#     4  12  27  42  61  88 126 170 216 256 319 385
#     4   8  17  35  60  93 125 157 201 257 320 372
#     4  11  23  42  65  90 125 169 212 254 307 380
#     4  10  22  41  64  89 121 167 217 263 312 379
#     4  11  20  36  65  96 127 159 207 259 321 380
#     4   9  19  37  63  95 127 161 203 255 316 381
#     4  10  20  36  61  91 124 163 208 265 320 367
#
# _framework density 20.812114999999999
#
# number of rings (size 3 to 8) (size 9 to 14) (size 15 to 20)
#    0.000    1.875    1.250    3.375    3.500    3.500 
#    2.250    1.250    0.000    2.250    0.000    0.000 
#    0.000    0.000    0.000    0.000    0.000    0.000 
#
# Total GULP energy -357352.702540 kJ/mol
# GULP energy per Si atom -5583.635977 kJ/mol
# Density = 2.076475 g / cm^3
# Si number density = 20.812115 Si / 1000 Ang^3
#
#
#
# Elastic Constant Matrix: (Units=GPa)
#
#
# Indices 1 2 3 4 5 6 
#
# 1 116.0278 24.5178 28.2666 0.0000 0.0000 0.0000
# 2 24.5178 94.3984 4.7564 0.0000 0.0000 0.0000
# 3 28.2666 4.7564 46.2174 0.0000 0.0000 0.0000
# 4 0.0000 0.0000 0.0000 -30.0935 0.0000 0.0000
# 5 0.0000 0.0000 0.0000 0.0000 26.0828 0.0000
# 6 0.0000 0.0000 0.0000 0.0000 0.0000 16.0758
#
#
#
# Elastic Compliance Matrix: (Units=1/GPa)
#
#
# Indices 1 2 3 4 5 6 
#
# 1 0.010665 -0.002454 -0.006270 0.000000 0.000000 0.000000
# 2 -0.002454 0.011213 0.000347 0.000000 0.000000 0.000000
# 3 -0.006270 0.000347 0.025436 0.000000 0.000000 0.000000
# 4 0.000000 0.000000 0.000000 -0.033230 0.000000 0.000000
# 5 0.000000 0.000000 0.000000 0.000000 0.038339 0.000000
# 6 0.000000 0.000000 0.000000 0.000000 0.000000 0.062205
#
#
# Mechanical properties :
#
#
# Convention : Reuss Voigt Hill
#
# Bulk Modulus (GPa) = 32.72289 41.30282 37.01286
# Shear Modulus (GPa) = 35.31827 15.68652 25.50240
#
# Velocity S-wave (km/s) = 4.12394 2.74838 3.50432
# Velocity P-wave (km/s) = 6.19944 5.47358 5.84778
#
# Compressibility (1/GPa) = 0.03055964
#
# Stress axis : x y z
#
# Youngs Moduli (GPa) = 93.76768 89.17995 39.31453
#
# Poissons Ratio (x) = 0.21885 0.24650
# Poissons Ratio (y) = 0.23010 -0.01364
# Poissons Ratio (z) = 0.58792 -0.03093
#
# Static dielectric constant tensor:
#      x y z
#    x 1.771660 0.000000 0.000000 
#    y 0.000000 1.750890 0.000000 
#    z 0.000000 0.000000 1.628250 
# 
# From -- ./inp_files/28548.got.cif
#   From: 2010.05.17/outbox.cif.g08.bks.cpg/sg53_15_cif.got.tgz:28548.got - 2010.06.03 12:45:16.
