data_PCOD9417623
_publ_section_title
;
Structure prediction by ZEFSAII (Michael W. Deem and Ramdas Pophale) SiO2 
 PCOD9417623
Probable space group: P M N A
;
_chemical_formula_sum "Si O2"
_cell_formula_units_Z 56
_cell_length_a 8.708119
_cell_length_b 22.101246
_cell_length_c 14.951586
_cell_angle_alpha 90.000000
_cell_angle_beta 90.000000
_cell_angle_gamma 90.000000
_cell_volume 2877.586431
_symmetry_space_group_name_H-M "P M N A"
_symmetry_group_IT_number 53
_symmetry_cell_setting 'orthorhombic'
loop_
_space_group_symop_operation_xyz
x,y,z
1/2-x,-y,1/2+z
x,-y,-z
1/2-x,y,1/2-z
-x,-y,-z
1/2+x,y,1/2-z
-x,y,z
1/2+x,-y,1/2+z
loop_
_atom_site_type_symbol
_atom_site_label
_atom_site_fract_x
_atom_site_fract_y
_atom_site_fract_z
Si Si1 0.683386 0.605666 0.843172
Si Si2 0.684524 0.633601 0.038237
Si Si3 0.683011 0.470594 0.655620
Si Si4 0.315688 0.247621 0.849763
Si Si5 0.816200 0.136227 0.961675
Si Si6 0.683802 0.031184 0.845205
Si Si7 0.683680 0.895901 0.657003
O O1 0.750000 0.629860 0.750000
O O2 0.500000 0.601928 0.835306
O O3 0.748451 0.537682 0.855253
O O4 0.723050 0.641162 0.933669
O O5 0.500000 0.625391 0.044447
O O6 0.764019 0.574173 0.077952
O O7 0.727756 0.691199 0.097623
O O8 0.750000 0.446790 0.750000
O O9 0.500000 0.474036 0.660417
O O10 0.250000 0.248161 0.750000
O O11 0.500000 0.243975 0.846129
O O12 0.251520 0.190953 0.904737
O O13 0.745902 0.074462 0.922458
O O14 0.000000 0.134050 0.951858
O O15 0.779875 0.140696 0.067094
O O16 0.750000 0.054065 0.750000
O O17 0.500000 0.031288 0.843101
O O18 0.745574 0.962988 0.854888
O O19 0.750000 0.871010 0.750000
O O20 0.500000 0.901823 0.664694
#
# Coordination Sequence:
#
# PCOD9417623 Si02
#       7
#     8   8   8   8   8   8   8
#     4  10  20  36  57  82 114 148 184 228 277 329
#     4  10  22  39  58  81 111 148 187 230 279 329
#     4  11  21  33  54  84 116 149 185 227 277 333
#     4  11  24  42  62  84 111 144 185 230 276 328
#     4  11  23  39  58  82 113 149 188 230 278 329
#     4  11  21  34  56  85 117 151 186 228 278 332
#     4  10  21  37  58  84 115 148 184 229 277 329
#
# _framework density 19.460754999999999
#
# number of rings (size 3 to 8) (size 9 to 14) (size 15 to 20)
#    0.000    1.429    0.000    7.714    0.000    9.143 
#    0.000    0.714    0.000    3.429    0.000    0.000 
#    0.000    0.000    0.000    0.000    0.000    0.000 
#
# Total GULP energy -313092.542257 kJ/mol
# GULP energy per Si atom -5590.938255 kJ/mol
# Density = 1.941646 g / cm^3
# Si number density = 19.460755 Si / 1000 Ang^3
#
#
#
# Elastic Constant Matrix: (Units=GPa)
#
#
# Indices 1 2 3 4 5 6 
#
# 1 83.3822 26.0873 66.6458 0.0000 0.0000 0.0000
# 2 26.0873 40.5062 52.8092 0.0000 0.0000 0.0000
# 3 66.6458 52.8092 194.8478 0.0000 0.0000 0.0000
# 4 0.0000 0.0000 0.0000 33.2693 0.0000 0.0000
# 5 0.0000 0.0000 0.0000 0.0000 31.6475 0.0000
# 6 0.0000 0.0000 0.0000 0.0000 0.0000 -78.4801
#
#
#
# Elastic Compliance Matrix: (Units=1/GPa)
#
#
# Indices 1 2 3 4 5 6 
#
# 1 0.017203 -0.005270 -0.004456 0.000000 0.000000 0.000000
# 2 -0.005270 0.039792 -0.008982 0.000000 0.000000 0.000000
# 3 -0.004456 -0.008982 0.009091 0.000000 0.000000 0.000000
# 4 0.000000 0.000000 0.000000 0.030058 0.000000 0.000000
# 5 0.000000 0.000000 0.000000 0.000000 0.031598 0.000000
# 6 0.000000 0.000000 0.000000 0.000000 0.000000 -0.012742
#
#
# Mechanical properties :
#
#
# Convention : Reuss Voigt Hill
#
# Bulk Modulus (GPa) = 34.88016 67.75789 51.31902
# Shear Modulus (GPa) = 30.86940 8.83359 19.85149
#
# Velocity S-wave (km/s) = 3.98708 2.13285 3.19733
# Velocity P-wave (km/s) = 6.25764 6.39990 6.32917
#
# Compressibility (1/GPa) = 0.02866960
#
# Stress axis : x y z
#
# Youngs Moduli (GPa) = 58.12839 25.13067 110.00261
#
# Poissons Ratio (x) = 0.13244 0.49015
# Poissons Ratio (y) = 0.30635 0.98806
# Poissons Ratio (z) = 0.25901 0.22573
#
# Static dielectric constant tensor:
#      x y z
#    x 1.649540 0.000000 0.000000 
#    y 0.000000 1.645740 0.000000 
#    z 0.000000 0.000000 1.713510 
# 
# From -- ./inp_files/20580.got.cif
#   From: 2010.05.17/outbox.cif.g08.bks.cpg/sg53_11_cif.got.tgz:20580.got - 2010.06.03 12:45:16.
