data_PCOD9417677
_publ_section_title
;
Structure prediction by ZEFSAII (Michael W. Deem and Ramdas Pophale) SiO2 
 PCOD9417677
Probable space group: P M N A
;
_chemical_formula_sum "Si O2"
_cell_formula_units_Z 40
_cell_length_a 11.455714
_cell_length_b 8.987419
_cell_length_c 18.299162
_cell_angle_alpha 90.000000
_cell_angle_beta 90.000000
_cell_angle_gamma 90.000000
_cell_volume 1884.032342
_symmetry_space_group_name_H-M "P M N A"
_symmetry_group_IT_number 53
_symmetry_cell_setting 'orthorhombic'
loop_
_space_group_symop_operation_xyz
x,y,z
1/2-x,-y,1/2+z
x,-y,-z
1/2-x,y,1/2-z
-x,-y,-z
1/2+x,y,1/2-z
-x,y,z
1/2+x,-y,1/2+z
loop_
_atom_site_type_symbol
_atom_site_label
_atom_site_fract_x
_atom_site_fract_y
_atom_site_fract_z
Si Si1 0.871556 0.621743 0.657667
Si Si2 0.801240 0.581557 0.068685
Si Si3 0.134631 0.037488 0.298837
Si Si4 0.865569 0.859569 0.448419
Si Si5 0.375306 0.366492 0.726530
O O1 0.783007 0.541954 0.604467
O O2 0.850813 0.794160 0.671119
O O3 0.872379 0.528105 0.733701
O O4 0.000000 0.604389 0.625385
O O5 0.723140 0.722928 0.045123
O O6 0.875189 0.627898 0.139280
O O7 0.859089 0.500000 0.000000
O O8 0.250000 0.014623 0.250000
O O9 0.000000 0.034591 0.267372
O O10 0.137580 0.923548 0.366261
O O11 0.000000 0.814893 0.464528
O O12 0.836598 0.000000 0.500000
O O13 0.250000 0.300700 0.750000
O O14 0.500000 0.299576 0.751162
#
# Coordination Sequence:
#
# PCOD9417677 Si02
#       5
#     8   8   8   8   8
#     4   9  18  34  57  83 111 146 188 232 277 331
#     4  11  21  33  55  84 113 147 189 235 286 336
#     4  10  20  36  58  83 113 148 185 228 281 338
#     4  10  22  38  55  79 114 153 192 235 281 333
#     4   9  19  36  58  86 117 146 183 231 280 332
#
# _framework density 21.231058000000001
#
# number of rings (size 3 to 8) (size 9 to 14) (size 15 to 20)
#    0.000    2.200    0.000    3.600    0.000    6.800 
#    0.000    5.000    0.000    4.800    0.000    0.000 
#    0.000    0.000    0.000    0.000    0.000    0.000 
#
# Total GULP energy -223100.897900 kJ/mol
# GULP energy per Si atom -5577.522448 kJ/mol
# Density = 2.118274 g / cm^3
# Si number density = 21.231058 Si / 1000 Ang^3
#
#
#
# Elastic Constant Matrix: (Units=GPa)
#
#
# Indices 1 2 3 4 5 6 
#
# 1 167.2675 30.4614 41.7613 0.0000 0.0000 0.0000
# 2 30.4614 110.0374 18.6544 0.0000 0.0000 0.0000
# 3 41.7613 18.6544 96.4268 0.0000 0.0000 0.0000
# 4 0.0000 0.0000 0.0000 27.4616 0.0000 0.0000
# 5 0.0000 0.0000 0.0000 0.0000 -14.9314 0.0000
# 6 0.0000 0.0000 0.0000 0.0000 0.0000 -388.7091
#
#
#
# Elastic Compliance Matrix: (Units=1/GPa)
#
#
# Indices 1 2 3 4 5 6 
#
# 1 0.006922 -0.001456 -0.002716 0.000000 0.000000 0.000000
# 2 -0.001456 0.009702 -0.001247 0.000000 0.000000 0.000000
# 3 -0.002716 -0.001247 0.011788 0.000000 0.000000 0.000000
# 4 0.000000 0.000000 0.000000 0.036414 0.000000 0.000000
# 5 0.000000 0.000000 0.000000 0.000000 -0.066973 0.000000
# 6 0.000000 0.000000 0.000000 0.000000 0.000000 -0.002573
#
#
# Mechanical properties :
#
#
# Convention : Reuss Voigt Hill
#
# Bulk Modulus (GPa) = 56.89808 61.72064 59.30936
# Shear Modulus (GPa) = 417.51378 -56.37880 180.56749
#
# Velocity S-wave (km/s) = 14.03849 -5.15873 9.23219
# Velocity P-wave (km/s) = 17.01852 2.51979 11.90127
#
# Compressibility (1/GPa) = 0.01757529
#
# Stress axis : x y z
#
# Youngs Moduli (GPa) = 144.47411 103.07047 84.83196
#
# Poissons Ratio (x) = 0.15003 0.23041
# Poissons Ratio (y) = 0.21030 0.10574
# Poissons Ratio (z) = 0.39240 0.12848
#
# Static dielectric constant tensor:
#      x y z
#    x 1.794630 0.000000 0.000000 
#    y 0.000000 1.743300 0.000000 
#    z 0.000000 0.000000 1.804150 
# 
# From -- ./inp_files/27368.got.cif
#   From: 2010.05.17/outbox.cif.g08.bks.cpg/sg53_14_cif.got.tgz:27368.got - 2010.06.03 12:45:16.
