data_PCOD9417246
_publ_section_title
;
Structure prediction by ZEFSAII (Michael W. Deem and Ramdas Pophale) SiO2 
 PCOD9417246
Probable space group: P M N A
;
_chemical_formula_sum "Si O2"
_cell_formula_units_Z 48
_cell_length_a 19.272648
_cell_length_b 8.011356
_cell_length_c 13.321229
_cell_angle_alpha 90.000000
_cell_angle_beta 90.000000
_cell_angle_gamma 90.000000
_cell_volume 2056.798346
_symmetry_space_group_name_H-M "P M N A"
_symmetry_group_IT_number 53
_symmetry_cell_setting 'orthorhombic'
loop_
_space_group_symop_operation_xyz
x,y,z
1/2-x,-y,1/2+z
x,-y,-z
1/2-x,y,1/2-z
-x,-y,-z
1/2+x,y,1/2-z
-x,y,z
1/2+x,-y,1/2+z
loop_
_atom_site_type_symbol
_atom_site_label
_atom_site_fract_x
_atom_site_fract_y
_atom_site_fract_z
Si Si1 0.274963 0.822107 0.581598
Si Si2 0.702316 0.505020 0.879846
Si Si3 0.578555 0.899410 0.255622
Si Si4 0.923864 0.204385 0.084790
Si Si5 0.078160 0.518122 0.229546
Si Si6 0.789216 0.863429 0.378637
O O1 0.257397 0.651934 0.636913
O O2 0.350113 0.811556 0.529981
O O3 0.214747 0.841642 0.499109
O O4 0.266125 0.991467 0.643842
O O5 0.633577 0.528592 0.814487
O O6 0.731160 0.324104 0.850139
O O7 0.688078 0.500000 0.000000
O O8 0.500000 0.902360 0.213082
O O9 0.587869 0.712310 0.301718
O O10 0.637620 0.909506 0.170496
O O11 0.580077 0.053777 0.333492
O O12 0.919698 0.382887 0.140583
O O13 0.000000 0.192943 0.034341
O O14 0.000000 0.506284 0.271417
#
# Coordination Sequence:
#
# PCOD9417246 Si02
#       6
#     8   8   8   8   8   8
#     4  10  20  35  52  75 108 140 178 223 266 319
#     4   9  18  32  51  75 104 136 169 209 257 309
#     4   9  18  34  55  80 110 142 178 217 261 317
#     4  10  21  36  55  78 105 139 179 225 273 319
#     4   9  18  32  50  75 105 136 171 209 254 310
#     4   9  19  35  53  76 107 143 179 217 263 315
#
# _framework density 23.337242
#
# number of rings (size 3 to 8) (size 9 to 14) (size 15 to 20)
#    0.000    2.667    0.000    1.000    0.000    4.333 
#    0.000    9.167    0.000    4.500    0.000    0.000 
#    0.000    0.000    0.000    0.000    0.000    0.000 
#
# Total GULP energy -267645.220142 kJ/mol
# GULP energy per Si atom -5575.942086 kJ/mol
# Density = 2.328413 g / cm^3
# Si number density = 23.337242 Si / 1000 Ang^3
#
#
#
# Elastic Constant Matrix: (Units=GPa)
#
#
# Indices 1 2 3 4 5 6 
#
# 1 136.5184 50.6688 7.4051 0.0000 0.0000 0.0000
# 2 50.6688 103.4441 -16.1610 0.0000 0.0000 0.0000
# 3 7.4051 -16.1610 53.7694 0.0000 0.0000 0.0000
# 4 0.0000 0.0000 0.0000 1.5809 0.0000 0.0000
# 5 0.0000 0.0000 0.0000 0.0000 25.5294 0.0000
# 6 0.0000 0.0000 0.0000 0.0000 0.0000 41.2119
#
#
#
# Elastic Compliance Matrix: (Units=1/GPa)
#
#
# Indices 1 2 3 4 5 6 
#
# 1 0.009335 -0.005009 -0.002791 0.000000 0.000000 0.000000
# 2 -0.005009 0.012831 0.004546 0.000000 0.000000 0.000000
# 3 -0.002791 0.004546 0.020349 0.000000 0.000000 0.000000
# 4 0.000000 0.000000 0.000000 0.632558 0.000000 0.000000
# 5 0.000000 0.000000 0.000000 0.000000 0.039170 0.000000
# 6 0.000000 0.000000 0.000000 0.000000 0.000000 0.024265
#
#
# Mechanical properties :
#
#
# Convention : Reuss Voigt Hill
#
# Bulk Modulus (GPa) = 27.77190 41.95085 34.86138
# Shear Modulus (GPa) = 6.60486 30.45238 18.52862
#
# Velocity S-wave (km/s) = 1.68414 3.61624 2.82077
# Velocity P-wave (km/s) = 3.96331 5.95409 5.05762
#
# Compressibility (1/GPa) = 0.03600762
#
# Stress axis : x y z
#
# Youngs Moduli (GPa) = 107.11928 77.93837 49.14308
#
# Poissons Ratio (x) = 0.39037 0.13716
# Poissons Ratio (y) = 0.53653 -0.22341
# Poissons Ratio (z) = 0.29898 -0.35432
#
# Static dielectric constant tensor:
#      x y z
#    x 1.868920 0.000000 0.000000 
#    y 0.000000 1.983110 0.000000 
#    z 0.000000 0.000000 1.897770 
# 
# From -- ./inp_files/28263.got.cif
#   From: 2010.05.17/outbox.cif.g08.bks.cpg/sg53_15_cif.got.tgz:28263.got - 2010.06.03 12:45:16.
