data_PCOD9417531
_publ_section_title
;
Structure prediction by ZEFSAII (Michael W. Deem and Ramdas Pophale) SiO2 
 PCOD9417531
Probable space group: P M N A
;
_chemical_formula_sum "Si O2"
_cell_formula_units_Z 48
_cell_length_a 8.077892
_cell_length_b 19.581183
_cell_length_c 13.862152
_cell_angle_alpha 90.000000
_cell_angle_beta 90.000000
_cell_angle_gamma 90.000000
_cell_volume 2192.641478
_symmetry_space_group_name_H-M "P M N A"
_symmetry_group_IT_number 53
_symmetry_cell_setting 'orthorhombic'
loop_
_space_group_symop_operation_xyz
x,y,z
1/2-x,-y,1/2+z
x,-y,-z
1/2-x,y,1/2-z
-x,-y,-z
1/2+x,y,1/2-z
-x,y,z
1/2+x,-y,1/2+z
loop_
_atom_site_type_symbol
_atom_site_label
_atom_site_fract_x
_atom_site_fract_y
_atom_site_fract_z
Si Si1 0.200120 0.537152 0.863062
Si Si2 0.797176 0.101389 0.558354
Si Si3 0.698819 0.311097 0.360831
Si Si4 0.198698 0.039602 0.355229
Si Si5 0.803977 0.609732 0.139039
Si Si6 0.306431 0.750576 0.046728
O O1 0.250000 0.535275 0.750000
O O2 0.256802 0.612586 0.894272
O O3 0.260440 0.463485 0.901953
O O4 0.000000 0.538922 0.872638
O O5 0.746526 0.082435 0.448709
O O6 0.737084 0.177195 0.583422
O O7 0.000000 0.102298 0.559707
O O8 0.743618 0.038561 0.625499
O O9 0.750000 0.302231 0.250000
O O10 0.500000 0.308533 0.368214
O O11 0.775819 0.256147 0.432358
O O12 0.250000 0.064168 0.250000
O O13 0.000000 0.039101 0.358370
O O14 0.750000 0.613628 0.250000
O O15 0.761861 0.681086 0.090764
O O16 0.000000 0.603380 0.134545
O O17 0.500000 0.750398 0.066973
#
# Coordination Sequence:
#
# PCOD9417531 Si02
#       6
#     8   8   8   8   8   8
#     4   8  16  31  52  73  98 132 176 225 270 311
#     4   8  18  36  55  75 107 141 170 205 252 307
#     4  10  20  36  55  77 104 139 180 225 271 318
#     4   9  17  35  60  82 102 133 171 209 252 302
#     4  10  20  36  55  77 104 139 180 225 271 318
#     4  11  22  36  53  78 110 145 178 214 260 315
#
# _framework density 21.891404999999999
#
# number of rings (size 3 to 8) (size 9 to 14) (size 15 to 20)
#    0.000    2.667    0.000    2.500    0.000    3.333 
#    0.000   11.667    0.000    0.000    0.000    0.000 
#    0.000    0.000    0.000    0.000    0.000    0.000 
#
# Total GULP energy -267733.908243 kJ/mol
# GULP energy per Si atom -5577.789755 kJ/mol
# Density = 2.184158 g / cm^3
# Si number density = 21.891405 Si / 1000 Ang^3
#
#
#
# Elastic Constant Matrix: (Units=GPa)
#
#
# Indices 1 2 3 4 5 6 
#
# 1 12.8914 4.3902 -8.7414 0.0000 0.0000 0.0000
# 2 4.3902 78.8228 -11.4915 0.0000 0.0000 0.0000
# 3 -8.7414 -11.4915 38.6106 0.0000 0.0000 0.0000
# 4 0.0000 0.0000 0.0000 15.8066 0.0000 0.0000
# 5 0.0000 0.0000 0.0000 0.0000 25.5317 0.0000
# 6 0.0000 0.0000 0.0000 0.0000 0.0000 8.3901
#
#
#
# Elastic Compliance Matrix: (Units=1/GPa)
#
#
# Indices 1 2 3 4 5 6 
#
# 1 0.091997 -0.002182 0.020179 0.000000 0.000000 0.000000
# 2 -0.002182 0.013314 0.003469 0.000000 0.000000 0.000000
# 3 0.020179 0.003469 0.031500 0.000000 0.000000 0.000000
# 4 0.000000 0.000000 0.000000 0.063265 0.000000 0.000000
# 5 0.000000 0.000000 0.000000 0.000000 0.039167 0.000000
# 6 0.000000 0.000000 0.000000 0.000000 0.000000 0.119188
#
#
# Mechanical properties :
#
#
# Convention : Reuss Voigt Hill
#
# Bulk Modulus (GPa) = 5.56354 10.95991 8.26172
# Shear Modulus (GPa) = 13.31860 19.69020 16.50440
#
# Velocity S-wave (km/s) = 2.46924 3.00233 2.74874
# Velocity P-wave (km/s) = 3.26749 4.12747 3.72240
#
# Compressibility (1/GPa) = 0.17974183
#
# Stress axis : x y z
#
# Youngs Moduli (GPa) = 10.86989 75.10951 31.74564
#
# Poissons Ratio (x) = 0.16390 -0.64059
# Poissons Ratio (y) = 0.02372 -0.11011
# Poissons Ratio (z) = -0.21934 -0.26052
#
# Static dielectric constant tensor:
#      x y z
#    x 1.807380 0.000000 0.000000 
#    y 0.000000 1.859240 0.000000 
#    z 0.000000 0.000000 1.811460 
# 
# From -- ./inp_files/20242.got.cif
#   From: 2010.05.17/outbox.cif.g08.bks.cpg/sg53_11_cif.got.tgz:20242.got - 2010.06.03 12:45:16.
