data_PCOD9417020
_publ_section_title
;
Structure prediction by ZEFSAII (Michael W. Deem and Ramdas Pophale) SiO2 
 PCOD9417020
Probable space group: P M N A
;
_chemical_formula_sum "Si O2"
_cell_formula_units_Z 64
_cell_length_a 8.592034
_cell_length_b 24.064310
_cell_length_c 17.807732
_cell_angle_alpha 90.000000
_cell_angle_beta 90.000000
_cell_angle_gamma 90.000000
_cell_volume 3681.951060
_symmetry_space_group_name_H-M "P M N A"
_symmetry_group_IT_number 53
_symmetry_cell_setting 'orthorhombic'
loop_
_space_group_symop_operation_xyz
x,y,z
1/2-x,-y,1/2+z
x,-y,-z
1/2-x,y,1/2-z
-x,-y,-z
1/2+x,y,1/2-z
-x,y,z
1/2+x,-y,1/2+z
loop_
_atom_site_type_symbol
_atom_site_label
_atom_site_fract_x
_atom_site_fract_y
_atom_site_fract_z
Si Si1 0.311001 0.432206 0.167093
Si Si2 0.186665 0.930320 0.592554
Si Si3 0.321105 0.464314 0.922707
Si Si4 0.313827 0.868903 0.446108
Si Si5 0.809305 0.634704 0.517791
Si Si6 0.686036 0.040055 0.666666
Si Si7 0.313614 0.181125 0.170614
Si Si8 0.811887 0.761480 0.516646
O O1 0.250000 0.418882 0.250000
O O2 0.500000 0.432969 0.168439
O O3 0.254605 0.493508 0.139170
O O4 0.265387 0.389747 0.099918
O O5 0.251222 0.906714 0.514540
O O6 0.230858 0.882777 0.653234
O O7 0.000000 0.932801 0.588218
O O8 0.252261 0.989420 0.616187
O O9 0.500000 0.453380 0.899898
O O10 0.326490 0.500000 0.000000
O O11 0.251384 0.406351 0.951623
O O12 0.500000 0.866987 0.450339
O O13 0.267186 0.901476 0.370970
O O14 0.248613 0.807230 0.458340
O O15 0.761299 0.698125 0.506277
O O16 0.000000 0.632574 0.516279
O O17 0.750000 0.034125 0.750000
O O18 0.500000 0.037140 0.667932
O O19 0.250000 0.200065 0.250000
O O20 0.500000 0.183551 0.172560
O O21 0.261200 0.217057 0.099161
O O22 0.000000 0.762969 0.515181
#
# Coordination Sequence:
#
# PCOD9417020 Si02
#       8
#     8   8   8   8   8   8   8   8
#     4   9  16  26  43  69  99 125 150 185 230 278
#     4  10  20  34  53  75  98 126 161 198 237 286
#     4   7  11  22  42  65  86 114 153 189 218 255
#     4  10  21  36  52  72  99 128 159 198 243 289
#     4   8  14  27  47  67  87 118 162 201 226 265
#     4  11  23  36  52  75 100 125 155 195 244 295
#     4   9  18  29  41  62  91 121 151 184 224 272
#     4   9  18  32  49  68  89 119 163 205 237 275
#
# _framework density 17.382088
#
# number of rings (size 3 to 8) (size 9 to 14) (size 15 to 20)
#    0.000    2.875    0.000    4.125    0.000    7.500 
#    0.000    0.625    0.000    4.875    0.000    3.500 
#    0.000    0.000    0.000    0.000    0.000    0.000 
#
# Total GULP energy -356506.562106 kJ/mol
# GULP energy per Si atom -5570.415033 kJ/mol
# Density = 1.734253 g / cm^3
# Si number density = 17.382088 Si / 1000 Ang^3
#
#
#
# Elastic Constant Matrix: (Units=GPa)
#
#
# Indices 1 2 3 4 5 6 
#
# 1 11.0914 21.1097 5.9774 0.0000 0.0000 0.0000
# 2 21.1097 143.5832 28.8667 0.0000 0.0000 0.0000
# 3 5.9774 28.8667 27.4305 0.0000 0.0000 0.0000
# 4 0.0000 0.0000 0.0000 11.3912 0.0000 0.0000
# 5 0.0000 0.0000 0.0000 0.0000 14.9297 0.0000
# 6 0.0000 0.0000 0.0000 0.0000 0.0000 11.1451
#
#
#
# Elastic Compliance Matrix: (Units=1/GPa)
#
#
# Indices 1 2 3 4 5 6 
#
# 1 0.127406 -0.016678 -0.010212 0.000000 0.000000 0.000000
# 2 -0.016678 0.011017 -0.007959 0.000000 0.000000 0.000000
# 3 -0.010212 -0.007959 0.047057 0.000000 0.000000 0.000000
# 4 0.000000 0.000000 0.000000 0.087787 0.000000 0.000000
# 5 0.000000 0.000000 0.000000 0.000000 0.066980 0.000000
# 6 0.000000 0.000000 0.000000 0.000000 0.000000 0.089726
#
#
# Mechanical properties :
#
#
# Convention : Reuss Voigt Hill
#
# Bulk Modulus (GPa) = 8.63698 32.66807 20.65253
# Shear Modulus (GPa) = 9.28909 15.90328 12.59619
#
# Velocity S-wave (km/s) = 2.31423 3.02805 2.69488
# Velocity P-wave (km/s) = 3.48146 5.57318 4.64655
#
# Compressibility (1/GPa) = 0.11578114
#
# Stress axis : x y z
#
# Youngs Moduli (GPa) = 7.84893 90.77040 21.25079
#
# Poissons Ratio (x) = 1.51389 0.21701
# Poissons Ratio (y) = 0.13091 0.16914
# Poissons Ratio (z) = 0.08015 0.72246
#
# Static dielectric constant tensor:
#      x y z
#    x 1.593460 0.000000 0.000000 
#    y 0.000000 1.618560 0.000000 
#    z 0.000000 0.000000 1.578130 
# 
# From -- ./inp_files/27035.got.cif
#   From: 2010.05.17/outbox.cif.g08.bks.cpg/sg53_14_cif.got.tgz:27035.got - 2010.06.03 12:45:16.
