data_PCOD9417873
_publ_section_title
;
Structure prediction by ZEFSAII (Michael W. Deem and Ramdas Pophale) SiO2 
 PCOD9417873
Probable space group: P M N A
;
_chemical_formula_sum "Si O2"
_cell_formula_units_Z 56
_cell_length_a 23.078795
_cell_length_b 7.543131
_cell_length_c 14.118906
_cell_angle_alpha 90.000000
_cell_angle_beta 90.000000
_cell_angle_gamma 90.000000
_cell_volume 2457.909150
_symmetry_space_group_name_H-M "P M N A"
_symmetry_group_IT_number 53
_symmetry_cell_setting 'orthorhombic'
loop_
_space_group_symop_operation_xyz
x,y,z
1/2-x,-y,1/2+z
x,-y,-z
1/2-x,y,1/2-z
-x,-y,-z
1/2+x,y,1/2-z
-x,y,z
1/2+x,-y,1/2+z
loop_
_atom_site_type_symbol
_atom_site_label
_atom_site_fract_x
_atom_site_fract_y
_atom_site_fract_z
Si Si1 0.683823 0.799117 0.875072
Si Si2 0.272143 0.503590 0.385252
Si Si3 0.102088 0.633689 0.122156
Si Si4 0.438168 0.777030 0.182918
Si Si5 0.319339 0.205124 0.896933
Si Si6 0.935106 0.252414 0.066753
Si Si7 0.566354 0.816899 0.777917
O O1 0.739300 0.675380 0.853884
O O2 0.623202 0.733564 0.827745
O O3 0.689585 0.008961 0.853170
O O4 0.680595 0.798421 0.989230
O O5 0.278041 0.500000 0.500000
O O6 0.335672 0.553779 0.349920
O O7 0.229933 0.664527 0.362250
O O8 0.071774 0.731281 0.207698
O O9 0.065938 0.459035 0.096381
O O10 0.104473 0.753836 0.026923
O O11 0.500000 0.706771 0.149872
O O12 0.381610 0.716348 0.129326
O O13 0.438521 0.989822 0.175270
O O14 0.919546 0.160387 0.165831
O O15 0.000000 0.199276 0.039276
O O16 0.500000 0.738877 0.782931
#
# Coordination Sequence:
#
# PCOD9417873 Si02
#       7
#     8   8   8   8   8   8   8
#     4   9  19  39  61  87 121 157 194 245 296 349
#     4  10  20  39  60  85 117 154 205 240 289 352
#     4  11  21  37  57  82 115 155 198 240 295 347
#     4  10  21  38  59  88 120 152 195 248 300 356
#     4   9  20  38  62  86 121 156 194 242 298 351
#     4  10  20  37  59  85 114 152 195 240 296 354
#     4   9  20  38  60  88 119 152 198 246 301 359
#
# _framework density 22.783594000000001
#
# number of rings (size 3 to 8) (size 9 to 14) (size 15 to 20)
#    0.000    2.286    1.429    1.714    2.000    1.714 
#    2.571    6.429    0.000    2.571    0.000    0.000 
#    0.000    0.000    0.000    0.000    0.000    0.000 
#
# Total GULP energy -312497.592193 kJ/mol
# GULP energy per Si atom -5580.314146 kJ/mol
# Density = 2.273174 g / cm^3
# Si number density = 22.783594 Si / 1000 Ang^3
#
#
#
# Elastic Constant Matrix: (Units=GPa)
#
#
# Indices 1 2 3 4 5 6 
#
# 1 159.1479 35.2706 14.7276 0.0000 0.0000 0.0000
# 2 35.2706 57.3843 0.8379 0.0000 0.0000 0.0000
# 3 14.7276 0.8379 40.6874 0.0000 0.0000 0.0000
# 4 0.0000 0.0000 0.0000 15.8332 0.0000 0.0000
# 5 0.0000 0.0000 0.0000 0.0000 45.0114 0.0000
# 6 0.0000 0.0000 0.0000 0.0000 0.0000 13.8544
#
#
#
# Elastic Compliance Matrix: (Units=1/GPa)
#
#
# Indices 1 2 3 4 5 6 
#
# 1 0.007547 -0.004600 -0.002637 0.000000 0.000000 0.000000
# 2 -0.004600 0.020236 0.001248 0.000000 0.000000 0.000000
# 3 -0.002637 0.001248 0.025506 0.000000 0.000000 0.000000
# 4 0.000000 0.000000 0.000000 0.063158 0.000000 0.000000
# 5 0.000000 0.000000 0.000000 0.000000 0.022217 0.000000
# 6 0.000000 0.000000 0.000000 0.000000 0.000000 0.072179
#
#
# Mechanical properties :
#
#
# Convention : Reuss Voigt Hill
#
# Bulk Modulus (GPa) = 24.20642 39.87687 32.04165
# Shear Modulus (GPa) = 21.13351 28.69872 24.91612
#
# Velocity S-wave (km/s) = 3.04892 3.55297 3.31055
# Velocity P-wave (km/s) = 4.80022 5.86275 5.35789
#
# Compressibility (1/GPa) = 0.04131135
#
# Stress axis : x y z
#
# Youngs Moduli (GPa) = 132.50315 49.41795 39.20580
#
# Poissons Ratio (x) = 0.22733 0.10339
# Poissons Ratio (y) = 0.60954 -0.04894
# Poissons Ratio (z) = 0.34942 -0.06169
#
# Static dielectric constant tensor:
#      x y z
#    x 1.884720 0.000000 0.000000 
#    y 0.000000 1.878410 0.000000 
#    z 0.000000 0.000000 1.894820 
# 
# From -- ./inp_files/24312.got.cif
#   From: 2010.05.17/outbox.cif.g08.bks.cpg/sg53_13_cif.got.tgz:24312.got - 2010.06.03 12:45:16.
