data_PCOD9417600
_publ_section_title
;
Structure prediction by ZEFSAII (Michael W. Deem and Ramdas Pophale) SiO2 
 PCOD9417600
Probable space group: P M N A
;
_chemical_formula_sum "Si O2"
_cell_formula_units_Z 32
_cell_length_a 8.586860
_cell_length_b 21.252622
_cell_length_c 9.387468
_cell_angle_alpha 90.000000
_cell_angle_beta 90.000000
_cell_angle_gamma 90.000000
_cell_volume 1713.149918
_symmetry_space_group_name_H-M "P M N A"
_symmetry_group_IT_number 53
_symmetry_cell_setting 'orthorhombic'
loop_
_space_group_symop_operation_xyz
x,y,z
1/2-x,-y,1/2+z
x,-y,-z
1/2-x,y,1/2-z
-x,-y,-z
1/2+x,y,1/2-z
-x,y,z
1/2+x,-y,1/2+z
loop_
_atom_site_type_symbol
_atom_site_label
_atom_site_fract_x
_atom_site_fract_y
_atom_site_fract_z
Si Si1 0.812176 0.440863 0.408992
Si Si2 0.311880 0.938760 0.589453
Si Si3 0.186893 0.183763 0.909898
Si Si4 0.187141 0.700212 0.588983
O O1 0.755350 0.500000 0.500000
O O2 0.750000 0.447221 0.250000
O O3 0.767407 0.370622 0.459235
O O4 0.000000 0.442571 0.407011
O O5 0.250000 0.939750 0.750000
O O6 0.500000 0.939174 0.595135
O O7 0.262664 0.876027 0.505128
O O8 0.261412 0.000000 0.500000
O O9 0.250000 0.178461 0.750000
O O10 0.000000 0.184375 0.905627
O O11 0.246445 0.246782 0.986019
O O12 0.250000 0.709033 0.750000
O O13 0.000000 0.704225 0.592314
#
# Coordination Sequence:
#
# PCOD9417600 Si02
#       4
#     8   8   8   8
#     4   9  19  35  54  78 107 140 179 222 269 321
#     4  10  22  39  59  84 112 144 182 223 269 320
#     4  11  23  38  57  82 112 145 183 226 273 325
#     4  10  20  36  57  80 109 144 183 226 272 325
#
# _framework density 18.679043
#
# number of rings (size 3 to 8) (size 9 to 14) (size 15 to 20)
#    0.000    2.000    0.000    3.000    0.000    7.000 
#    0.000    2.500    0.000    0.000    0.000    0.000 
#    0.000    0.000    0.000    0.000    0.000    0.000 
#
# Total GULP energy -178711.933799 kJ/mol
# GULP energy per Si atom -5584.747931 kJ/mol
# Density = 1.863653 g / cm^3
# Si number density = 18.679043 Si / 1000 Ang^3
#
#
#
# Elastic Constant Matrix: (Units=GPa)
#
#
# Indices 1 2 3 4 5 6 
#
# 1 30.3798 43.8446 33.7308 0.0000 0.0000 0.0000
# 2 43.8446 216.1004 128.8500 0.0000 0.0000 0.0000
# 3 33.7308 128.8500 157.0620 0.0000 0.0000 0.0000
# 4 0.0000 0.0000 0.0000 42.2941 0.0000 0.0000
# 5 0.0000 0.0000 0.0000 0.0000 37.6977 0.0000
# 6 0.0000 0.0000 0.0000 0.0000 0.0000 27.1815
#
#
#
# Elastic Compliance Matrix: (Units=1/GPa)
#
#
# Indices 1 2 3 4 5 6 
#
# 1 0.048154 -0.007055 -0.004554 0.000000 0.000000 0.000000
# 2 -0.007055 0.010092 -0.006764 0.000000 0.000000 0.000000
# 3 -0.004554 -0.006764 0.012894 0.000000 0.000000 0.000000
# 4 0.000000 0.000000 0.000000 0.023644 0.000000 0.000000
# 5 0.000000 0.000000 0.000000 0.000000 0.026527 0.000000
# 6 0.000000 0.000000 0.000000 0.000000 0.000000 0.036790
#
#
# Mechanical properties :
#
#
# Convention : Reuss Voigt Hill
#
# Bulk Modulus (GPa) = 29.07437 90.71033 59.89235
# Shear Modulus (GPa) = 24.23517 34.57578 29.40547
#
# Velocity S-wave (km/s) = 3.60592 4.30705 3.97199
# Velocity P-wave (km/s) = 5.73898 8.56751 7.29171
#
# Compressibility (1/GPa) = 0.03439455
#
# Stress axis : x y z
#
# Youngs Moduli (GPa) = 20.76649 99.08968 77.55486
#
# Poissons Ratio (x) = 0.69903 0.35321
# Poissons Ratio (y) = 0.14650 0.52459
# Poissons Ratio (z) = 0.09458 0.67025
#
# Static dielectric constant tensor:
#      x y z
#    x 1.637100 0.000000 0.000000 
#    y 0.000000 1.662000 0.000000 
#    z 0.000000 0.000000 1.590420 
# 
# From -- ./inp_files/6007.got.cif
#   From: 2010.05.17/outbox.cif.g08.bks.cpg/sg53_4_cif.got.tgz:6007.got - 2010.06.03 12:45:16.
