data_PCOD9417678
_publ_section_title
;
Structure prediction by ZEFSAII (Michael W. Deem and Ramdas Pophale) SiO2 
 PCOD9417678
Probable space group: P M N A
;
_chemical_formula_sum "Si O2"
_cell_formula_units_Z 48
_cell_length_a 8.742417
_cell_length_b 31.438391
_cell_length_c 9.318220
_cell_angle_alpha 90.000000
_cell_angle_beta 90.000000
_cell_angle_gamma 90.000000
_cell_volume 2561.089694
_symmetry_space_group_name_H-M "P M N A"
_symmetry_group_IT_number 53
_symmetry_cell_setting 'orthorhombic'
loop_
_space_group_symop_operation_xyz
x,y,z
1/2-x,-y,1/2+z
x,-y,-z
1/2-x,y,1/2-z
-x,-y,-z
1/2+x,y,1/2-z
-x,y,z
1/2+x,-y,1/2+z
loop_
_atom_site_type_symbol
_atom_site_label
_atom_site_fract_x
_atom_site_fract_y
_atom_site_fract_z
Si Si1 0.683487 0.121132 0.910251
Si Si2 0.684148 0.621473 0.407620
Si Si3 0.316624 0.957451 0.589692
Si Si4 0.316740 0.205174 0.091474
Si Si5 0.684690 0.458908 0.408131
Si Si6 0.683788 0.718479 0.409254
O O1 0.750000 0.120145 0.750000
O O2 0.500000 0.117729 0.903397
O O3 0.749207 0.082579 0.004249
O O4 0.723247 0.165208 0.990005
O O5 0.750000 0.613138 0.250000
O O6 0.500000 0.620008 0.399418
O O7 0.735440 0.584708 0.515256
O O8 0.726540 0.669808 0.448739
O O9 0.250000 0.959668 0.750000
O O10 0.500000 0.953690 0.597833
O O11 0.279150 0.000000 0.500000
O O12 0.250000 0.198899 0.250000
O O13 0.500000 0.207947 0.099588
O O14 0.250378 0.247599 0.019450
O O15 0.732031 0.500000 0.500000
O O16 0.750000 0.461853 0.250000
O O17 0.500000 0.458678 0.402302
O O18 0.750000 0.726659 0.250000
O O19 0.500000 0.721675 0.404604
#
# Coordination Sequence:
#
# PCOD9417678 Si02
#       6
#     8   8   8   8   8   8
#     4  11  24  41  63  89 118 153 193 238 287 340
#     4   9  19  35  55  81 110 142 182 226 273 328
#     4  11  24  41  63  91 123 158 196 239 286 338
#     4  11  24  40  59  85 116 151 191 236 286 338
#     4  10  21  36  54  78 108 141 180 225 273 327
#     4  10  20  36  58  83 113 148 187 231 279 334
#
# _framework density 18.742021999999999
#
# number of rings (size 3 to 8) (size 9 to 14) (size 15 to 20)
#    0.000    1.667    0.000    4.000    0.000   10.333 
#    0.000    1.667    0.000    0.000    0.000    0.000 
#    0.000    0.000    0.000    0.000    0.000    0.000 
#
# Total GULP energy -268318.834808 kJ/mol
# GULP energy per Si atom -5589.975725 kJ/mol
# Density = 1.869936 g / cm^3
# Si number density = 18.742022 Si / 1000 Ang^3
#
#
#
# Elastic Constant Matrix: (Units=GPa)
#
#
# Indices 1 2 3 4 5 6 
#
# 1 40.7810 57.0667 56.8871 0.0000 0.0000 0.0000
# 2 57.0667 159.0191 124.5789 0.0000 0.0000 0.0000
# 3 56.8871 124.5789 193.0111 0.0000 0.0000 0.0000
# 4 0.0000 0.0000 0.0000 42.4259 0.0000 0.0000
# 5 0.0000 0.0000 0.0000 0.0000 40.4727 0.0000
# 6 0.0000 0.0000 0.0000 0.0000 0.0000 31.1480
#
#
#
# Elastic Compliance Matrix: (Units=1/GPa)
#
#
# Indices 1 2 3 4 5 6 
#
# 1 0.053342 -0.013808 -0.006809 0.000000 0.000000 0.000000
# 2 -0.013808 0.016295 -0.006448 0.000000 0.000000 0.000000
# 3 -0.006809 -0.006448 0.011350 0.000000 0.000000 0.000000
# 4 0.000000 0.000000 0.000000 0.023571 0.000000 0.000000
# 5 0.000000 0.000000 0.000000 0.000000 0.024708 0.000000
# 6 0.000000 0.000000 0.000000 0.000000 0.000000 0.032105
#
#
# Mechanical properties :
#
#
# Convention : Reuss Voigt Hill
#
# Bulk Modulus (GPa) = 37.23517 96.65297 66.94407
# Shear Modulus (GPa) = 22.27623 33.09454 27.68539
#
# Velocity S-wave (km/s) = 3.45131 4.20669 3.84758
# Velocity P-wave (km/s) = 5.98267 8.67624 7.45217
#
# Compressibility (1/GPa) = 0.02685633
#
# Stress axis : x y z
#
# Youngs Moduli (GPa) = 18.74685 61.36678 88.10621
#
# Poissons Ratio (x) = 0.84737 0.59995
# Poissons Ratio (y) = 0.25886 0.56812
# Poissons Ratio (z) = 0.12765 0.39570
#
# Static dielectric constant tensor:
#      x y z
#    x 1.630160 0.000000 0.000000 
#    y 0.000000 1.645620 0.000000 
#    z 0.000000 0.000000 1.595790 
# 
# From -- ./inp_files/6575.got.cif
#   From: 2010.05.17/outbox.cif.g08.bks.cpg/sg53_4_cif.got.tgz:6575.got - 2010.06.03 12:45:16.
