data_PCOD9417769
_publ_section_title
;
Structure prediction by ZEFSAII (Michael W. Deem and Ramdas Pophale) SiO2 
 PCOD9417769
Probable space group: P M N A
;
_chemical_formula_sum "Si O2"
_cell_formula_units_Z 64
_cell_length_a 14.500610
_cell_length_b 13.107341
_cell_length_c 14.780444
_cell_angle_alpha 90.000000
_cell_angle_beta 90.000000
_cell_angle_gamma 90.000000
_cell_volume 2809.236811
_symmetry_space_group_name_H-M "P M N A"
_symmetry_group_IT_number 53
_symmetry_cell_setting 'orthorhombic'
loop_
_space_group_symop_operation_xyz
x,y,z
1/2-x,-y,1/2+z
x,-y,-z
1/2-x,y,1/2-z
-x,-y,-z
1/2+x,y,1/2-z
-x,y,z
1/2+x,-y,1/2+z
loop_
_atom_site_type_symbol
_atom_site_label
_atom_site_fract_x
_atom_site_fract_y
_atom_site_fract_z
Si Si1 0.826188 0.608311 0.476036
Si Si2 0.610789 0.921935 0.580532
Si Si3 0.890544 0.334974 0.327111
Si Si4 0.387813 0.107764 0.217458
Si Si5 0.720885 0.804889 0.456242
Si Si6 0.606199 0.444512 0.783652
Si Si7 0.607194 0.911008 0.106532
Si Si8 0.108232 0.228570 0.785945
O O1 0.783305 0.500000 0.500000
O O2 0.876517 0.649509 0.565417
O O3 0.750748 0.688982 0.449786
O O4 0.890017 0.588080 0.389444
O O5 0.500000 0.919065 0.580309
O O6 0.641196 0.934193 0.683920
O O7 0.656684 0.820076 0.542494
O O8 0.638332 0.000000 0.500000
O O9 0.854224 0.223259 0.299287
O O10 0.854336 0.440130 0.280547
O O11 0.000000 0.333281 0.309411
O O12 0.500000 0.111493 0.218916
O O13 0.367371 0.023122 0.142260
O O14 0.815292 0.869166 0.460229
O O15 0.664809 0.826402 0.364516
O O16 0.500000 0.452397 0.755713
O O17 0.642215 0.344675 0.731291
O O18 0.500000 0.908552 0.074928
O O19 0.613319 0.834906 0.193021
O O20 0.000000 0.230143 0.811788
#
# Coordination Sequence:
#
# PCOD9417769 Si02
#       8
#     8   8   8   8   8   8   8   8
#     4  10  21  36  54  84 126 162 201 247 304 372
#     4  10  22  42  66  90 119 162 214 260 302 365
#     4   9  18  35  61  87 116 162 206 247 304 372
#     4   9  19  39  63  89 123 159 204 257 310 368
#     4  12  23  37  61  91 124 160 207 254 312 364
#     4   9  17  33  59  87 116 156 205 251 302 366
#     4  10  21  37  62  93 127 163 200 252 312 366
#     4  10  20  36  60  91 119 154 207 263 309 354
#
# _framework density 22.781988999999999
#
# number of rings (size 3 to 8) (size 9 to 14) (size 15 to 20)
#    0.000    2.125    1.250    1.875    0.000    5.000 
#    2.250    1.875    0.000    3.375    0.000    0.875 
#    0.000    0.000    0.000    0.000    0.000    0.000 
#
# Total GULP energy -357436.056992 kJ/mol
# GULP energy per Si atom -5584.938390 kJ/mol
# Density = 2.273014 g / cm^3
# Si number density = 22.781989 Si / 1000 Ang^3
#
#
#
# Elastic Constant Matrix: (Units=GPa)
#
#
# Indices 1 2 3 4 5 6 
#
# 1 47.0207 9.1442 7.2687 0.0000 0.0000 0.0000
# 2 9.1442 154.0621 34.1465 0.0000 0.0000 0.0000
# 3 7.2687 34.1465 57.4849 0.0000 0.0000 0.0000
# 4 0.0000 0.0000 0.0000 24.2579 0.0000 0.0000
# 5 0.0000 0.0000 0.0000 0.0000 15.7608 0.0000
# 6 0.0000 0.0000 0.0000 0.0000 0.0000 7.1292
#
#
#
# Elastic Compliance Matrix: (Units=1/GPa)
#
#
# Indices 1 2 3 4 5 6 
#
# 1 0.021773 -0.000786 -0.002287 0.000000 0.000000 0.000000
# 2 -0.000786 0.007503 -0.004358 0.000000 0.000000 0.000000
# 3 -0.002287 -0.004358 0.020274 0.000000 0.000000 0.000000
# 4 0.000000 0.000000 0.000000 0.041224 0.000000 0.000000
# 5 0.000000 0.000000 0.000000 0.000000 0.063448 0.000000
# 6 0.000000 0.000000 0.000000 0.000000 0.000000 0.140267
#
#
# Mechanical properties :
#
#
# Convention : Reuss Voigt Hill
#
# Bulk Modulus (GPa) = 28.82617 39.96519 34.39568
# Shear Modulus (GPa) = 15.58055 23.29682 19.43869
#
# Velocity S-wave (km/s) = 2.61798 3.20128 2.92421
# Velocity P-wave (km/s) = 4.67108 5.58970 5.15091
#
# Compressibility (1/GPa) = 0.03469070
#
# Stress axis : x y z
#
# Youngs Moduli (GPa) = 45.92743 133.27355 49.32545
#
# Poissons Ratio (x) = 0.10469 0.11278
# Poissons Ratio (y) = 0.03608 0.21495
# Poissons Ratio (z) = 0.10502 0.58077
#
# Static dielectric constant tensor:
#      x y z
#    x 1.845250 0.000000 0.000000 
#    y 0.000000 1.917710 0.000000 
#    z 0.000000 0.000000 1.858290 
# 
# From -- ./inp_files/28582.got.cif
#   From: 2010.05.17/outbox.cif.g08.bks.cpg/sg53_15_cif.got.tgz:28582.got - 2010.06.03 12:45:16.
