data_PCOD9417294
_publ_section_title
;
Structure prediction by ZEFSAII (Michael W. Deem and Ramdas Pophale) SiO2 
 PCOD9417294
Probable space group: P M N A
;
_chemical_formula_sum "Si O2"
_cell_formula_units_Z 56
_cell_length_a 14.850648
_cell_length_b 12.173443
_cell_length_c 11.989203
_cell_angle_alpha 90.000000
_cell_angle_beta 90.000000
_cell_angle_gamma 90.000000
_cell_volume 2167.450284
_symmetry_space_group_name_H-M "P M N A"
_symmetry_group_IT_number 53
_symmetry_cell_setting 'orthorhombic'
loop_
_space_group_symop_operation_xyz
x,y,z
1/2-x,-y,1/2+z
x,-y,-z
1/2-x,y,1/2-z
-x,-y,-z
1/2+x,y,1/2-z
-x,y,z
1/2+x,-y,1/2+z
loop_
_atom_site_type_symbol
_atom_site_label
_atom_site_fract_x
_atom_site_fract_y
_atom_site_fract_z
Si Si1 0.601800 0.410349 0.746547
Si Si2 0.905003 0.610120 0.878486
Si Si3 0.606877 0.170033 0.788075
Si Si4 0.400101 0.173050 0.476852
Si Si5 0.604608 0.932872 0.765379
Si Si6 0.786310 0.420531 0.398443
Si Si7 0.807846 0.819347 0.523929
O O1 0.500000 0.401046 0.790216
O O2 0.595342 0.478399 0.631099
O O3 0.641826 0.288109 0.744601
O O4 0.654579 0.494879 0.826522
O O5 0.908524 0.695259 0.979322
O O6 0.803254 0.629467 0.840633
O O7 0.000000 0.636961 0.816039
O O8 0.500000 0.175806 0.773178
O O9 0.635224 0.055879 0.732248
O O10 0.632122 0.155174 0.916813
O O11 0.500000 0.131138 0.519067
O O12 0.396325 0.138405 0.346696
O O13 0.296110 0.154066 0.510874
O O14 0.500000 0.937785 0.804429
O O15 0.664335 0.884860 0.865001
O O16 0.757174 0.500000 0.500000
O O17 0.827761 0.309459 0.448355
#
# Coordination Sequence:
#
# PCOD9417294 Si02
#       7
#     8   8   8   8   8   8   8
#     4  10  20  35  54  80 114 149 182 221 277 335
#     4   9  19  36  58  81 108 146 189 230 270 322
#     4  10  21  36  56  83 115 147 180 228 284 343
#     4   9  19  36  58  84 109 142 190 237 275 320
#     4  10  20  35  57  83 111 143 184 232 282 333
#     4  11  21  34  53  82 115 148 180 227 277 327
#     4  11  20  34  56  82 115 144 185 229 283 330
#
# _framework density 25.836808000000001
#
# number of rings (size 3 to 8) (size 9 to 14) (size 15 to 20)
#    0.000    2.000    1.429    2.571    0.000    6.286 
#    0.000    2.857    0.000    1.714    0.000    0.000 
#    0.000    0.000    0.000    0.000    0.000    0.000 
#
# Total GULP energy -311917.685850 kJ/mol
# GULP energy per Si atom -5569.958676 kJ/mol
# Density = 2.577800 g / cm^3
# Si number density = 25.836808 Si / 1000 Ang^3
#
#
#
# Elastic Constant Matrix: (Units=GPa)
#
#
# Indices 1 2 3 4 5 6 
#
# 1 116.8478 29.5543 32.8638 0.0000 0.0000 0.0000
# 2 29.5543 150.9643 44.5964 0.0000 0.0000 0.0000
# 3 32.8638 44.5964 85.5187 0.0000 0.0000 0.0000
# 4 0.0000 0.0000 0.0000 25.2305 0.0000 0.0000
# 5 0.0000 0.0000 0.0000 0.0000 10.9815 0.0000
# 6 0.0000 0.0000 0.0000 0.0000 0.0000 12.3963
#
#
#
# Elastic Compliance Matrix: (Units=1/GPa)
#
#
# Indices 1 2 3 4 5 6 
#
# 1 0.009708 -0.000944 -0.003238 0.000000 0.000000 0.000000
# 2 -0.000944 0.007922 -0.003769 0.000000 0.000000 0.000000
# 3 -0.003238 -0.003769 0.014903 0.000000 0.000000 0.000000
# 4 0.000000 0.000000 0.000000 0.039635 0.000000 0.000000
# 5 0.000000 0.000000 0.000000 0.000000 0.091062 0.000000
# 6 0.000000 0.000000 0.000000 0.000000 0.000000 0.080669
#
#
# Mechanical properties :
#
#
# Convention : Reuss Voigt Hill
#
# Bulk Modulus (GPa) = 60.12726 63.03996 61.58361
# Shear Modulus (GPa) = 18.84347 26.14276 22.49312
#
# Velocity S-wave (km/s) = 2.70353 3.18440 2.95377
# Velocity P-wave (km/s) = 5.75047 6.16220 5.95989
#
# Compressibility (1/GPa) = 0.01663139
#
# Stress axis : x y z
#
# Youngs Moduli (GPa) = 103.01147 126.22883 67.10043
#
# Poissons Ratio (x) = 0.11914 0.21729
# Poissons Ratio (y) = 0.09723 0.25287
# Poissons Ratio (z) = 0.33359 0.47570
#
# Static dielectric constant tensor:
#      x y z
#    x 2.067640 0.000000 0.000000 
#    y 0.000000 2.061990 0.000000 
#    z 0.000000 0.000000 2.118880 
# 
# From -- ./inp_files/22785.got.cif
#   From: 2010.05.17/outbox.cif.g08.bks.cpg/sg53_12_cif.got.tgz:22785.got - 2010.06.03 12:45:16.
