data_PCOD9417698
_publ_section_title
;
Structure prediction by ZEFSAII (Michael W. Deem and Ramdas Pophale) SiO2 
 PCOD9417698
Probable space group: P M N A
;
_chemical_formula_sum "Si O2"
_cell_formula_units_Z 40
_cell_length_a 8.610125
_cell_length_b 14.898811
_cell_length_c 15.954907
_cell_angle_alpha 90.000000
_cell_angle_beta 90.000000
_cell_angle_gamma 90.000000
_cell_volume 2046.705443
_symmetry_space_group_name_H-M "P M N A"
_symmetry_group_IT_number 53
_symmetry_cell_setting 'orthorhombic'
loop_
_space_group_symop_operation_xyz
x,y,z
1/2-x,-y,1/2+z
x,-y,-z
1/2-x,y,1/2-z
-x,-y,-z
1/2+x,y,1/2-z
-x,y,z
1/2+x,-y,1/2+z
loop_
_atom_site_type_symbol
_atom_site_label
_atom_site_fract_x
_atom_site_fract_y
_atom_site_fract_z
Si Si1 0.812417 0.213402 0.338163
Si Si2 0.187403 0.601637 0.399781
Si Si3 0.187948 0.403388 0.401613
Si Si4 0.812285 0.896140 0.496982
Si Si5 0.183930 0.212401 0.838877
O O1 0.750000 0.179099 0.250000
O O2 0.756113 0.315841 0.353045
O O3 0.763928 0.154912 0.418187
O O4 0.000000 0.213984 0.336287
O O5 0.240672 0.501957 0.372754
O O6 0.222723 0.607939 0.499438
O O7 0.263216 0.684788 0.353469
O O8 0.000000 0.607709 0.391111
O O9 0.000000 0.404777 0.396452
O O10 0.748241 0.845358 0.416065
O O11 0.000000 0.892153 0.493010
O O12 0.765145 0.000000 0.500000
O O13 0.250000 0.180673 0.750000
O O14 0.000000 0.207777 0.837548
#
# Coordination Sequence:
#
# PCOD9417698 Si02
#       5
#     8   8   8   8   8
#     4  10  20  36  58  87 120 152 190 234 290 354
#     4   9  16  33  59  85 116 155 200 241 291 349
#     4   8  15  30  57  85 115 157 195 238 291 347
#     4  10  22  43  68  89 114 151 196 249 306 359
#     4  12  25  40  61  89 122 159 200 248 298 353
#
# _framework density 19.543603999999998
#
# number of rings (size 3 to 8) (size 9 to 14) (size 15 to 20)
#    0.000    2.200    2.000    3.000    0.000    2.800 
#    0.000    7.000    0.000    0.000    0.000    0.000 
#    0.000    0.000    0.000    0.000    0.000    0.000 
#
# Total GULP energy -223354.162144 kJ/mol
# GULP energy per Si atom -5583.854054 kJ/mol
# Density = 1.949912 g / cm^3
# Si number density = 19.543604 Si / 1000 Ang^3
#
#
#
# Elastic Constant Matrix: (Units=GPa)
#
#
# Indices 1 2 3 4 5 6 
#
# 1 22.7947 35.2989 33.2860 0.0000 0.0000 0.0000
# 2 35.2989 141.2074 87.7746 0.0000 0.0000 0.0000
# 3 33.2860 87.7746 158.3809 0.0000 0.0000 0.0000
# 4 0.0000 0.0000 0.0000 -3.8540 0.0000 0.0000
# 5 0.0000 0.0000 0.0000 0.0000 26.9218 0.0000
# 6 0.0000 0.0000 0.0000 0.0000 0.0000 21.6381
#
#
#
# Elastic Compliance Matrix: (Units=1/GPa)
#
#
# Indices 1 2 3 4 5 6 
#
# 1 0.078547 -0.014300 -0.008583 0.000000 0.000000 0.000000
# 2 -0.014300 0.013407 -0.004425 0.000000 0.000000 0.000000
# 3 -0.008583 -0.004425 0.010570 0.000000 0.000000 0.000000
# 4 0.000000 0.000000 0.000000 -0.259474 0.000000 0.000000
# 5 0.000000 0.000000 0.000000 0.000000 0.037145 0.000000
# 6 0.000000 0.000000 0.000000 0.000000 0.000000 0.046215
#
#
# Mechanical properties :
#
#
# Convention : Reuss Voigt Hill
#
# Bulk Modulus (GPa) = 20.87293 70.56689 45.71991
# Shear Modulus (GPa) = -1663.76256 20.00943 -821.87656
#
# Velocity S-wave (km/s) = -29.20884 3.20321 -20.52919
# Velocity P-wave (km/s) = 33.56841 7.06163 23.20530
#
# Compressibility (1/GPa) = 0.04790895
#
# Stress axis : x y z
#
# Youngs Moduli (GPa) = 12.73117 74.58815 94.60876
#
# Poissons Ratio (x) = 1.06663 0.81199
# Poissons Ratio (y) = 0.18206 0.41862
# Poissons Ratio (z) = 0.10927 0.33003
#
# Static dielectric constant tensor:
#      x y z
#    x 1.656360 0.000000 0.000000 
#    y 0.000000 1.693350 0.000000 
#    z 0.000000 0.000000 1.674490 
# 
# From -- ./inp_files/19879.got.cif
#   From: 2010.05.17/outbox.cif.g08.bks.cpg/sg53_10_cif.got.tgz:19879.got - 2010.06.03 12:45:16.
