data_PCOD9417071
_publ_section_title
;
Structure prediction by ZEFSAII (Michael W. Deem and Ramdas Pophale) SiO2 
 PCOD9417071
Probable space group: P M N A
;
_chemical_formula_sum "Si O2"
_cell_formula_units_Z 48
_cell_length_a 8.964545
_cell_length_b 18.533529
_cell_length_c 16.711127
_cell_angle_alpha 90.000000
_cell_angle_beta 90.000000
_cell_angle_gamma 90.000000
_cell_volume 2776.464426
_symmetry_space_group_name_H-M "P M N A"
_symmetry_group_IT_number 53
_symmetry_cell_setting 'orthorhombic'
loop_
_space_group_symop_operation_xyz
x,y,z
1/2-x,-y,1/2+z
x,-y,-z
1/2-x,y,1/2-z
-x,-y,-z
1/2+x,y,1/2-z
-x,y,z
1/2+x,-y,1/2+z
loop_
_atom_site_type_symbol
_atom_site_label
_atom_site_fract_x
_atom_site_fract_y
_atom_site_fract_z
Si Si1 0.677229 0.582375 0.667927
Si Si2 0.820138 0.908077 0.165595
Si Si3 0.170286 0.950338 0.920006
Si Si4 0.671295 0.546699 0.082181
Si Si5 0.322200 0.673652 0.507338
Si Si6 0.677483 0.170695 0.987271
O O1 0.750000 0.608661 0.750000
O O2 0.500000 0.575533 0.676529
O O3 0.747569 0.504892 0.645270
O O4 0.706745 0.635524 0.593159
O O5 0.750000 0.886780 0.250000
O O6 0.751714 0.861484 0.093375
O O7 0.000000 0.901655 0.164848
O O8 0.783448 0.992419 0.147333
O O9 0.000000 0.925844 0.905897
O O10 0.273580 0.883209 0.941165
O O11 0.167843 0.000000 0.000000
O O12 0.500000 0.561034 0.104801
O O13 0.758285 0.619340 0.059822
O O14 0.669999 0.500000 0.000000
O O15 0.500000 0.681573 0.498283
O O16 0.241861 0.750116 0.502311
O O17 0.500000 0.171519 0.979264
#
# Coordination Sequence:
#
# PCOD9417071 Si02
#       6
#     8   8   8   8   8   8
#     4  10  20  34  54  78 104 136 173 215 261 307
#     4  10  20  35  55  78 105 136 172 215 262 309
#     4   8  16  32  52  73  99 132 168 207 251 300
#     4   9  17  31  52  76 101 130 167 208 249 300
#     4  10  20  35  54  76 105 140 176 213 258 310
#     4  11  21  33  53  79 106 138 176 214 257 311
#
# _framework density 17.288174000000001
#
# number of rings (size 3 to 8) (size 9 to 14) (size 15 to 20)
#    0.000    2.333    0.000    4.500    0.000    7.667 
#    0.000    1.667    0.000    0.000    0.000    0.000 
#    0.000    0.000    0.000    0.000    0.000    0.000 
#
# Total GULP energy -267691.749240 kJ/mol
# GULP energy per Si atom -5576.911443 kJ/mol
# Density = 1.724883 g / cm^3
# Si number density = 17.288174 Si / 1000 Ang^3
#
#
#
# Elastic Constant Matrix: (Units=GPa)
#
#
# Indices 1 2 3 4 5 6 
#
# 1 122.6255 78.9899 50.2044 0.0000 0.0000 0.0000
# 2 78.9899 119.1403 31.3267 0.0000 0.0000 0.0000
# 3 50.2044 31.3267 66.8680 0.0000 0.0000 0.0000
# 4 0.0000 0.0000 0.0000 13.3357 0.0000 0.0000
# 5 0.0000 0.0000 0.0000 0.0000 22.6418 0.0000
# 6 0.0000 0.0000 0.0000 0.0000 0.0000 28.9470
#
#
#
# Elastic Compliance Matrix: (Units=1/GPa)
#
#
# Indices 1 2 3 4 5 6 
#
# 1 0.018025 -0.009571 -0.009049 0.000000 0.000000 0.000000
# 2 -0.009571 0.014655 0.000320 0.000000 0.000000 0.000000
# 3 -0.009049 0.000320 0.021599 0.000000 0.000000 0.000000
# 4 0.000000 0.000000 0.000000 0.074987 0.000000 0.000000
# 5 0.000000 0.000000 0.000000 0.000000 0.044166 0.000000
# 6 0.000000 0.000000 0.000000 0.000000 0.000000 0.034546
#
#
# Mechanical properties :
#
#
# Convention : Reuss Voigt Hill
#
# Bulk Modulus (GPa) = 56.56476 69.96398 63.26437
# Shear Modulus (GPa) = 19.96241 22.85908 21.41074
#
# Velocity S-wave (km/s) = 3.40175 3.64020 3.52300
# Velocity P-wave (km/s) = 6.94399 7.63055 7.29535
#
# Compressibility (1/GPa) = 0.01767885
#
# Stress axis : x y z
#
# Youngs Moduli (GPa) = 55.47800 68.23640 46.29867
#
# Poissons Ratio (x) = 0.65311 0.41897
# Poissons Ratio (y) = 0.53099 -0.01484
# Poissons Ratio (z) = 0.50204 -0.02187
#
# Static dielectric constant tensor:
#      x y z
#    x 1.575400 0.000000 0.000000 
#    y 0.000000 1.573940 0.000000 
#    z 0.000000 0.000000 1.596720 
# 
# From -- ./inp_files/26396.got.cif
#   From: 2010.05.17/outbox.cif.g08.bks.cpg/sg53_14_cif.got.tgz:26396.got - 2010.06.03 12:45:16.
