data_PCOD9417032
_publ_section_title
;
Structure prediction by ZEFSAII (Michael W. Deem and Ramdas Pophale) SiO2 
 PCOD9417032
Probable space group: P M N A
;
_chemical_formula_sum "Si O2"
_cell_formula_units_Z 48
_cell_length_a 7.653161
_cell_length_b 10.729946
_cell_length_c 27.368611
_cell_angle_alpha 90.000000
_cell_angle_beta 90.000000
_cell_angle_gamma 90.000000
_cell_volume 2247.455715
_symmetry_space_group_name_H-M "P M N A"
_symmetry_group_IT_number 53
_symmetry_cell_setting 'orthorhombic'
loop_
_space_group_symop_operation_xyz
x,y,z
1/2-x,-y,1/2+z
x,-y,-z
1/2-x,y,1/2-z
-x,-y,-z
1/2+x,y,1/2-z
-x,y,z
1/2+x,-y,1/2+z
loop_
_atom_site_type_symbol
_atom_site_label
_atom_site_fract_x
_atom_site_fract_y
_atom_site_fract_z
Si Si1 0.711353 0.372434 0.474302
Si Si2 0.789812 0.382021 0.807303
Si Si3 0.706323 0.118141 0.969102
Si Si4 0.210121 0.879175 0.807155
Si Si5 0.714210 0.631003 0.638280
Si Si6 0.794575 0.869791 0.143697
O O1 0.772225 0.500000 0.500000
O O2 0.500000 0.375307 0.474518
O O3 0.763874 0.247488 0.502642
O O4 0.769278 0.368611 0.418091
O O5 0.750000 0.381383 0.750000
O O6 0.725920 0.507228 0.833675
O O7 0.720819 0.257436 0.833582
O O8 0.000000 0.383179 0.812722
O O9 0.500000 0.099005 0.963324
O O10 0.780436 0.126084 0.914600
O O11 0.776437 0.000000 0.000000
O O12 0.250000 0.877201 0.750000
O O13 0.274421 0.754963 0.834012
O O14 0.000000 0.878597 0.812811
O O15 0.279773 0.004921 0.832231
O O16 0.500000 0.630753 0.638574
O O17 0.000000 0.868955 0.156193
#
# Coordination Sequence:
#
# PCOD9417032 Si02
#       6
#     8   8   8   8   8   8
#     4  10  20  37  62  86 110 147 192 234 277 328
#     4  10  20  35  55  80 109 140 178 222 269 323
#     4  11  24  39  56  83 117 149 184 231 285 337
#     4  10  20  34  53  77 105 138 177 221 269 322
#     4   9  18  33  53  78 107 139 178 221 265 322
#     4  10  21  37  57  79 105 142 185 226 270 326
#
# _framework density 21.357485
#
# number of rings (size 3 to 8) (size 9 to 14) (size 15 to 20)
#    0.000    2.000    0.000    3.500    0.000    7.000 
#    0.000    1.667    0.000    0.000    0.000    0.000 
#    0.000    0.000    0.000    0.000    0.000    0.000 
#
# Total GULP energy -268331.907381 kJ/mol
# GULP energy per Si atom -5590.248070 kJ/mol
# Density = 2.130887 g / cm^3
# Si number density = 21.357485 Si / 1000 Ang^3
#
#
#
# Elastic Constant Matrix: (Units=GPa)
#
#
# Indices 1 2 3 4 5 6 
#
# 1 36.1041 -0.3029 -21.5978 0.0000 0.0000 0.0000
# 2 -0.3029 237.8314 117.4414 0.0000 0.0000 0.0000
# 3 -21.5978 117.4414 174.6920 0.0000 0.0000 0.0000
# 4 0.0000 0.0000 0.0000 50.4561 0.0000 0.0000
# 5 0.0000 0.0000 0.0000 0.0000 28.2369 0.0000
# 6 0.0000 0.0000 0.0000 0.0000 0.0000 4.5283
#
#
#
# Elastic Compliance Matrix: (Units=1/GPa)
#
#
# Indices 1 2 3 4 5 6 
#
# 1 0.031093 -0.002782 0.005715 0.000000 0.000000 0.000000
# 2 -0.002782 0.006543 -0.004743 0.000000 0.000000 0.000000
# 3 0.005715 -0.004743 0.009619 0.000000 0.000000 0.000000
# 4 0.000000 0.000000 0.000000 0.019819 0.000000 0.000000
# 5 0.000000 0.000000 0.000000 0.000000 0.035415 0.000000
# 6 0.000000 0.000000 0.000000 0.000000 0.000000 0.220832
#
#
# Mechanical properties :
#
#
# Convention : Reuss Voigt Hill
#
# Bulk Modulus (GPa) = 22.91770 71.07877 46.99824
# Shear Modulus (GPa) = 14.64183 40.18338 27.41261
#
# Velocity S-wave (km/s) = 2.62116 4.34229 3.58650
# Velocity P-wave (km/s) = 4.46256 7.64810 6.26130
#
# Compressibility (1/GPa) = 0.04363440
#
# Stress axis : x y z
#
# Youngs Moduli (GPa) = 32.16172 152.83286 103.95740
#
# Poissons Ratio (x) = 0.42522 -0.59407
# Poissons Ratio (y) = 0.08948 0.49304
# Poissons Ratio (z) = -0.18379 0.72485
#
# Static dielectric constant tensor:
#      x y z
#    x 1.804790 0.000000 0.000000 
#    y 0.000000 1.770710 0.000000 
#    z 0.000000 0.000000 1.701210 
# 
# From -- ./inp_files/37755.got.cif
#   From: 2010.05.17/outbox.cif.g08.bks.cpg/sg53_19_cif.got.tgz:37755.got - 2010.06.03 12:45:16.
