data_PCOD9417705
_publ_section_title
;
Structure prediction by ZEFSAII (Michael W. Deem and Ramdas Pophale) SiO2 
 PCOD9417705
Probable space group: P M N A
;
_chemical_formula_sum "Si O2"
_cell_formula_units_Z 42
_cell_length_a 7.771796
_cell_length_b 10.130728
_cell_length_c 25.031287
_cell_angle_alpha 90.000000
_cell_angle_beta 90.000000
_cell_angle_gamma 90.000000
_cell_volume 1970.812133
_symmetry_space_group_name_H-M "P M N A"
_symmetry_group_IT_number 53
_symmetry_cell_setting 'orthorhombic'
loop_
_space_group_symop_operation_xyz
x,y,z
1/2-x,-y,1/2+z
x,-y,-z
1/2-x,y,1/2-z
-x,-y,-z
1/2+x,y,1/2-z
-x,y,z
1/2+x,-y,1/2+z
loop_
_atom_site_type_symbol
_atom_site_label
_atom_site_fract_x
_atom_site_fract_y
_atom_site_fract_z
Si Si1 0.806220 0.033392 0.423953
Si Si2 0.793276 0.664519 0.308558
Si Si3 0.793060 0.549538 0.420597
Si Si4 0.804777 0.286056 0.020902
Si Si5 0.704716 0.965378 0.192623
Si Si6 0.500000 0.000000 0.500000
O O1 0.809305 0.178238 0.449954
O O2 0.752822 0.039533 0.361890
O O3 0.000000 0.974976 0.428110
O O4 0.655841 0.963100 0.456173
O O5 0.750000 0.609287 0.250000
O O6 0.735447 0.586323 0.361004
O O7 0.000000 0.669928 0.312617
O O8 0.724635 0.815312 0.310153
O O9 0.749810 0.666125 0.462383
O O10 0.704335 0.419083 0.443952
O O11 0.000000 0.529455 0.421919
O O12 0.000000 0.227009 0.021370
O O13 0.750000 0.025077 0.250000
O O14 0.500000 0.954088 0.192771
#
# Coordination Sequence:
#
# PCOD9417705 Si02
#       6
#     8   8   8   8   8   2
#     4  11  24  42  61  89 126 160 202 250 305 361
#     4   9  19  35  55  83 112 145 190 236 288 348
#     4  10  20  36  59  82 114 156 192 235 298 352
#     4  11  22  38  57  86 116 152 198 242 293 359
#     4   9  20  37  60  85 118 159 199 248 302 357
#     4  12  26  40  60  96 124 160 202 254 298 366
#
# _framework density 21.311012000000002
#
# number of rings (size 3 to 8) (size 9 to 14) (size 15 to 20)
#    0.000    1.905    0.952    3.714    4.000    1.524 
#    0.000    0.952    0.000    0.000    0.000    0.000 
#    0.000    0.000    0.000    0.000    0.000    0.000 
#
# Total GULP energy -234119.022675 kJ/mol
# GULP energy per Si atom -5574.262445 kJ/mol
# Density = 2.126251 g / cm^3
# Si number density = 21.311012 Si / 1000 Ang^3
#
#
#
# Elastic Constant Matrix: (Units=GPa)
#
#
# Indices 1 2 3 4 5 6 
#
# 1 106.0707 8.7498 36.5205 0.0000 0.0000 0.0000
# 2 8.7498 44.6845 38.7848 0.0000 0.0000 0.0000
# 3 36.5205 38.7848 222.7294 0.0000 0.0000 0.0000
# 4 0.0000 0.0000 0.0000 26.1420 0.0000 0.0000
# 5 0.0000 0.0000 0.0000 0.0000 34.7729 0.0000
# 6 0.0000 0.0000 0.0000 0.0000 0.0000 25.9274
#
#
#
# Elastic Compliance Matrix: (Units=1/GPa)
#
#
# Indices 1 2 3 4 5 6 
#
# 1 0.010007 -0.000631 -0.001531 0.000000 0.000000 0.000000
# 2 -0.000631 0.026404 -0.004494 0.000000 0.000000 0.000000
# 3 -0.001531 -0.004494 0.005523 0.000000 0.000000 0.000000
# 4 0.000000 0.000000 0.000000 0.038253 0.000000 0.000000
# 5 0.000000 0.000000 0.000000 0.000000 0.028758 0.000000
# 6 0.000000 0.000000 0.000000 0.000000 0.000000 0.038569
#
#
# Mechanical properties :
#
#
# Convention : Reuss Voigt Hill
#
# Bulk Modulus (GPa) = 34.93830 60.17721 47.55775
# Shear Modulus (GPa) = 29.34854 36.66378 33.00616
#
# Velocity S-wave (km/s) = 3.71503 4.15229 3.93973
# Velocity P-wave (km/s) = 5.90186 7.16153 6.56200
#
# Compressibility (1/GPa) = 0.02862188
#
# Stress axis : x y z
#
# Youngs Moduli (GPa) = 99.93193 37.87363 181.04758
#
# Poissons Ratio (x) = 0.02388 0.27718
# Poissons Ratio (y) = 0.06302 0.81370
# Poissons Ratio (z) = 0.15299 0.17022
#
# Static dielectric constant tensor:
#      x y z
#    x 1.785700 0.000000 0.000000 
#    y 0.000000 1.662620 0.000000 
#    z 0.000000 0.000000 1.783280 
# 
# From -- ./inp_files/33803.got.cif
#   From: 2010.05.17/outbox.cif.g08.bks.cpg/sg53_17_cif.got.tgz:33803.got - 2010.06.03 12:45:16.
