data_PCOD9417396
_publ_section_title
;
Structure prediction by ZEFSAII (Michael W. Deem and Ramdas Pophale) SiO2 
 PCOD9417396
Probable space group: P M N A
;
_chemical_formula_sum "Si O2"
_cell_formula_units_Z 36
_cell_length_a 18.547440
_cell_length_b 5.106493
_cell_length_c 19.010118
_cell_angle_alpha 90.000000
_cell_angle_beta 90.000000
_cell_angle_gamma 90.000000
_cell_volume 1800.493378
_symmetry_space_group_name_H-M "P M N A"
_symmetry_group_IT_number 53
_symmetry_cell_setting 'orthorhombic'
loop_
_space_group_symop_operation_xyz
x,y,z
1/2-x,-y,1/2+z
x,-y,-z
1/2-x,y,1/2-z
-x,-y,-z
1/2+x,y,1/2-z
-x,y,z
1/2+x,-y,1/2+z
loop_
_atom_site_type_symbol
_atom_site_label
_atom_site_fract_x
_atom_site_fract_y
_atom_site_fract_z
Si Si1 0.179205 0.000000 0.000000
Si Si2 0.918506 0.954982 0.270377
Si Si3 0.919487 0.456048 0.365007
Si Si4 0.732627 0.671252 0.903335
Si Si5 0.689390 0.846935 0.354732
O O1 0.143985 0.913280 0.073237
O O2 0.230559 0.236651 0.024383
O O3 0.913349 0.747102 0.333921
O O4 0.859924 0.881784 0.212440
O O5 0.000000 0.926205 0.241298
O O6 0.912416 0.247944 0.300736
O O7 0.850676 0.394091 0.412096
O O8 0.000000 0.420171 0.395145
O O9 0.774356 0.434033 0.865675
O O10 0.748090 0.931894 0.856541
#
# Coordination Sequence:
#
# PCOD9417396 Si02
#       5
#     4   8   8   8   8
#     4   8  22  36  54  80 106 140 184 230 254 304
#     4  10  21  36  54  81 114 141 173 220 273 323
#     4  10  21  36  54  81 114 141 173 220 273 323
#     4  10  20  35  57  78 109 140 180 223 265 309
#     4  10  20  35  57  78 109 140 180 223 265 309
#
# _framework density 19.994519
#
# number of rings (size 3 to 8) (size 9 to 14) (size 15 to 20)
#    1.333    0.889    0.000    3.333    0.000    5.333 
#    0.000    1.111    0.000    2.667    0.000    0.000 
#    0.000    0.000    0.000    0.000    0.000    0.000 
#
# Total GULP energy -200484.295503 kJ/mol
# GULP energy per Si atom -5569.008208 kJ/mol
# Density = 1.994901 g / cm^3
# Si number density = 19.994519 Si / 1000 Ang^3
#
#
#
# Elastic Constant Matrix: (Units=GPa)
#
#
# Indices 1 2 3 4 5 6 
#
# 1 33.5529 1.1762 -2.9484 0.0000 0.0000 0.0000
# 2 1.1762 96.3914 -3.4732 0.0000 0.0000 0.0000
# 3 -2.9484 -3.4732 18.9271 0.0000 0.0000 0.0000
# 4 0.0000 0.0000 0.0000 19.8638 0.0000 0.0000
# 5 0.0000 0.0000 0.0000 0.0000 -4.7247 0.0000
# 6 0.0000 0.0000 0.0000 0.0000 0.0000 14.1153
#
#
#
# Elastic Compliance Matrix: (Units=1/GPa)
#
#
# Indices 1 2 3 4 5 6 
#
# 1 0.030221 -0.000200 0.004671 0.000000 0.000000 0.000000
# 2 -0.000200 0.010445 0.001885 0.000000 0.000000 0.000000
# 3 0.004671 0.001885 0.053908 0.000000 0.000000 0.000000
# 4 0.000000 0.000000 0.000000 0.050343 0.000000 0.000000
# 5 0.000000 0.000000 0.000000 0.000000 -0.211655 0.000000
# 6 0.000000 0.000000 0.000000 0.000000 0.000000 0.070845
#
#
# Mechanical properties :
#
#
# Convention : Reuss Voigt Hill
#
# Bulk Modulus (GPa) = 9.32091 15.37564 12.34828
# Shear Modulus (GPa) = 184.12082 16.12536 100.12309
#
# Velocity S-wave (km/s) = 9.60654 2.84296 7.08406
# Velocity P-wave (km/s) = 11.30129 4.29920 8.54992
#
# Compressibility (1/GPa) = 0.10728561
#
# Stress axis : x y z
#
# Youngs Moduli (GPa) = 33.08944 95.74189 18.55014
#
# Poissons Ratio (x) = 0.01919 -0.08665
# Poissons Ratio (y) = 0.00663 -0.03497
# Poissons Ratio (z) = -0.15456 -0.18051
#
# Static dielectric constant tensor:
#      x y z
#    x 1.704780 0.000000 0.000000 
#    y 0.000000 1.711770 0.000000 
#    z 0.000000 0.000000 1.725110 
# 
# From -- ./inp_files/29188.got.cif
#   From: 2010.05.17/outbox.cif.g08.bks.cpg/sg53_15_cif.got.tgz:29188.got - 2010.06.03 12:45:16.
