data_PCOD9417033
_publ_section_title
;
Structure prediction by ZEFSAII (Michael W. Deem and Ramdas Pophale) SiO2 
 PCOD9417033
Probable space group: P M N A
;
_chemical_formula_sum "Si O2"
_cell_formula_units_Z 64
_cell_length_a 19.190361
_cell_length_b 23.107850
_cell_length_c 8.240504
_cell_angle_alpha 90.000000
_cell_angle_beta 90.000000
_cell_angle_gamma 90.000000
_cell_volume 3654.234881
_symmetry_space_group_name_H-M "P M N A"
_symmetry_group_IT_number 53
_symmetry_cell_setting 'orthorhombic'
loop_
_space_group_symop_operation_xyz
x,y,z
1/2-x,-y,1/2+z
x,-y,-z
1/2-x,y,1/2-z
-x,-y,-z
1/2+x,y,1/2-z
-x,y,z
1/2+x,-y,1/2+z
loop_
_atom_site_type_symbol
_atom_site_label
_atom_site_fract_x
_atom_site_fract_y
_atom_site_fract_z
Si Si1 0.083887 0.673290 0.931481
Si Si2 0.332243 0.565099 0.444225
Si Si3 0.415433 0.252265 0.746508
Si Si4 0.826352 0.985164 0.184525
Si Si5 0.667501 0.564968 0.057056
Si Si6 0.416128 0.326338 0.062809
Si Si7 0.423620 0.057440 0.113308
Si Si8 0.417490 0.121604 0.796949
O O1 0.099528 0.693949 0.747322
O O2 0.000000 0.666192 0.942125
O O3 0.121954 0.612584 0.964443
O O4 0.105518 0.715152 0.080753
O O5 0.349019 0.500000 0.500000
O O6 0.249815 0.574595 0.476475
O O7 0.343312 0.569971 0.250673
O O8 0.500000 0.251696 0.748368
O O9 0.393198 0.185452 0.750598
O O10 0.394072 0.285112 0.912410
O O11 0.750000 0.972969 0.250000
O O12 0.861729 0.040786 0.269373
O O13 0.875122 0.929698 0.213515
O O14 0.820513 0.000000 0.000000
O O15 0.650722 0.500000 0.000000
O O16 0.621375 0.612597 0.967561
O O17 0.500000 0.332886 0.052013
O O18 0.500000 0.064188 0.191969
O O19 0.410906 0.109894 0.990392
O O20 0.427870 0.000000 0.000000
O O21 0.500000 0.115479 0.760286
#
# Coordination Sequence:
#
# PCOD9417033 Si02
#       8
#     8   8   8   8   8   8   8   8
#     4  10  20  35  56  80 107 139 179 221 266 324
#     4  10  20  34  53  77 105 138 177 222 276 326
#     4   9  18  36  57  79 112 145 176 222 270 315
#     4  11  21  34  54  79 111 146 178 218 266 313
#     4  10  20  34  53  77 105 139 177 222 274 328
#     4  10  20  35  56  80 105 140 179 218 271 324
#     4   8  15  30  52  77 104 134 170 210 256 308
#     4   9  18  35  57  80 108 142 176 216 265 314
#
# _framework density 17.513926000000001
#
# number of rings (size 3 to 8) (size 9 to 14) (size 15 to 20)
#    0.000    2.375    1.250    3.000    0.000    3.000 
#    2.250    1.250    0.000    0.000    0.000    0.000 
#    0.000    0.000    0.000    0.000    0.000    0.000 
#
# Total GULP energy -356677.115564 kJ/mol
# GULP energy per Si atom -5573.079931 kJ/mol
# Density = 1.747406 g / cm^3
# Si number density = 17.513926 Si / 1000 Ang^3
#
#
#
# Elastic Constant Matrix: (Units=GPa)
#
#
# Indices 1 2 3 4 5 6 
#
# 1 46.0883 39.4248 46.1576 0.0000 0.0000 0.0000
# 2 39.4248 101.2541 58.3716 0.0000 0.0000 0.0000
# 3 46.1576 58.3716 121.6652 0.0000 0.0000 0.0000
# 4 0.0000 0.0000 0.0000 28.2021 0.0000 0.0000
# 5 0.0000 0.0000 0.0000 0.0000 21.2488 0.0000
# 6 0.0000 0.0000 0.0000 0.0000 0.0000 -21.9076
#
#
#
# Elastic Compliance Matrix: (Units=1/GPa)
#
#
# Indices 1 2 3 4 5 6 
#
# 1 0.040815 -0.009628 -0.010865 0.000000 0.000000 0.000000
# 2 -0.009628 0.015923 -0.003987 0.000000 0.000000 0.000000
# 3 -0.010865 -0.003987 0.014254 0.000000 0.000000 0.000000
# 4 0.000000 0.000000 0.000000 0.035458 0.000000 0.000000
# 5 0.000000 0.000000 0.000000 0.000000 0.047062 0.000000
# 6 0.000000 0.000000 0.000000 0.000000 0.000000 -0.045646
#
#
# Mechanical properties :
#
#
# Convention : Reuss Voigt Hill
#
# Bulk Modulus (GPa) = 45.38832 61.87950 53.63391
# Shear Modulus (GPa) = 30.45601 13.84555 22.15078
#
# Velocity S-wave (km/s) = 4.17461 2.81471 3.56019
# Velocity P-wave (km/s) = 7.01486 6.78025 6.89855
#
# Compressibility (1/GPa) = 0.02203210
#
# Stress axis : x y z
#
# Youngs Moduli (GPa) = 24.50062 62.80054 70.15550
#
# Poissons Ratio (x) = 0.60467 0.76225
# Poissons Ratio (y) = 0.23590 0.27969
# Poissons Ratio (z) = 0.26620 0.25037
#
# Static dielectric constant tensor:
#      x y z
#    x 1.572060 0.000000 0.000000 
#    y 0.000000 1.579260 0.000000 
#    z 0.000000 0.000000 1.628930 
# 
# From -- ./inp_files/10256.got.cif
#   From: 2010.05.17/outbox.cif.g08.bks.cpg/sg53_6_cif.got.tgz:10256.got - 2010.06.03 12:45:16.
