data_PCOD9417139
_publ_section_title
;
Structure prediction by ZEFSAII (Michael W. Deem and Ramdas Pophale) SiO2 
 PCOD9417139
Probable space group: P M N A
;
_chemical_formula_sum "Si O2"
_cell_formula_units_Z 64
_cell_length_a 15.323256
_cell_length_b 9.735805
_cell_length_c 24.912033
_cell_angle_alpha 90.000000
_cell_angle_beta 90.000000
_cell_angle_gamma 90.000000
_cell_volume 3716.482520
_symmetry_space_group_name_H-M "P M N A"
_symmetry_group_IT_number 53
_symmetry_cell_setting 'orthorhombic'
loop_
_space_group_symop_operation_xyz
x,y,z
1/2-x,-y,1/2+z
x,-y,-z
1/2-x,y,1/2-z
-x,-y,-z
1/2+x,y,1/2-z
-x,y,z
1/2+x,-y,1/2+z
loop_
_atom_site_type_symbol
_atom_site_label
_atom_site_fract_x
_atom_site_fract_y
_atom_site_fract_z
Si Si1 0.101334 0.087655 0.554681
Si Si2 0.749954 0.680124 0.053544
Si Si3 0.819403 0.973007 0.202159
Si Si4 0.262343 0.632516 0.569637
Si Si5 0.681325 0.127112 0.132839
Si Si6 0.600781 0.273082 0.639154
Si Si7 0.899453 0.225926 0.257374
Si Si8 0.101680 0.410656 0.162208
O O1 0.169523 0.213868 0.557057
O O2 0.000000 0.132093 0.555054
O O3 0.116201 0.000000 0.500000
O O4 0.119816 0.985159 0.604572
O O5 0.725975 0.523799 0.071231
O O6 0.830519 0.728099 0.090295
O O7 0.781546 0.666178 0.992131
O O8 0.750000 0.944182 0.250000
O O9 0.867870 0.839636 0.181321
O O10 0.766546 0.044662 0.153446
O O11 0.886348 0.083918 0.225511
O O12 0.200294 0.752226 0.590996
O O13 0.344357 0.633942 0.609997
O O14 0.646315 0.201458 0.186150
O O15 0.500000 0.250117 0.622761
O O16 0.605891 0.425154 0.664340
O O17 0.863238 0.340586 0.216533
O O18 0.000000 0.257102 0.267486
O O19 0.000000 0.370196 0.156689
#
# Coordination Sequence:
#
# PCOD9417139 Si02
#       8
#     8   8   8   8   8   8   8   8
#     4  11  22  38  60  82 111 152 192 239 295 345
#     4  10  21  38  58  86 114 150 190 235 289 344
#     4  10  20  34  55  82 110 149 185 230 285 334
#     4  10  20  36  58  81 115 150 187 236 284 343
#     4  11  20  36  57  82 109 147 192 237 281 337
#     4  10  20  37  59  85 119 153 188 231 286 346
#     4  10  20  35  54  80 110 142 187 233 278 337
#     4   9  19  35  55  82 115 151 187 227 282 342
#
# _framework density 17.220583999999999
#
# number of rings (size 3 to 8) (size 9 to 14) (size 15 to 20)
#    0.000    1.875    3.750    0.750    0.000    0.500 
#    4.500    5.000    0.000    1.125    0.000    0.000 
#    0.000    0.000    0.000    0.000    0.000    0.000 
#
# Total GULP energy -356733.251948 kJ/mol
# GULP energy per Si atom -5573.957062 kJ/mol
# Density = 1.718139 g / cm^3
# Si number density = 17.220584 Si / 1000 Ang^3
#
#
#
# Elastic Constant Matrix: (Units=GPa)
#
#
# Indices 1 2 3 4 5 6 
#
# 1 70.2610 46.9377 23.9051 0.0000 0.0000 0.0000
# 2 46.9377 85.0843 45.8721 0.0000 0.0000 0.0000
# 3 23.9051 45.8721 85.9945 0.0000 0.0000 0.0000
# 4 0.0000 0.0000 0.0000 30.5625 0.0000 0.0000
# 5 0.0000 0.0000 0.0000 0.0000 20.3456 0.0000
# 6 0.0000 0.0000 0.0000 0.0000 0.0000 17.0625
#
#
#
# Elastic Compliance Matrix: (Units=1/GPa)
#
#
# Indices 1 2 3 4 5 6 
#
# 1 0.022555 -0.012721 0.000516 0.000000 0.000000 0.000000
# 2 -0.012721 0.023672 -0.009091 0.000000 0.000000 0.000000
# 3 0.000516 -0.009091 0.016335 0.000000 0.000000 0.000000
# 4 0.000000 0.000000 0.000000 0.032720 0.000000 0.000000
# 5 0.000000 0.000000 0.000000 0.000000 0.049151 0.000000
# 6 0.000000 0.000000 0.000000 0.000000 0.000000 0.058608
#
#
# Mechanical properties :
#
#
# Convention : Reuss Voigt Hill
#
# Bulk Modulus (GPa) = 50.07661 52.75218 51.41440
# Shear Modulus (GPa) = 19.81845 21.90245 20.86045
#
# Velocity S-wave (km/s) = 3.39611 3.57021 3.48425
# Velocity P-wave (km/s) = 6.67239 6.90615 6.79027
#
# Compressibility (1/GPa) = 0.01996940
#
# Stress axis : x y z
#
# Youngs Moduli (GPa) = 44.33532 42.24384 61.21901
#
# Poissons Ratio (x) = 0.53738 -0.03157
# Poissons Ratio (y) = 0.56399 0.55655
# Poissons Ratio (z) = -0.02286 0.38405
#
# Static dielectric constant tensor:
#      x y z
#    x 1.581050 0.000000 0.000000 
#    y 0.000000 1.580360 0.000000 
#    z 0.000000 0.000000 1.579720 
# 
# From -- ./inp_files/35317.got.cif
#   From: 2010.05.17/outbox.cif.g08.bks.cpg/sg53_18_cif.got.tgz:35317.got - 2010.06.03 12:45:16.
