data_PCOD9417165
_publ_section_title
;
Structure prediction by ZEFSAII (Michael W. Deem and Ramdas Pophale) SiO2 
 PCOD9417165
Probable space group: P M N A
;
_chemical_formula_sum "Si O2"
_cell_formula_units_Z 56
_cell_length_a 9.232251
_cell_length_b 20.293670
_cell_length_c 14.812705
_cell_angle_alpha 90.000000
_cell_angle_beta 90.000000
_cell_angle_gamma 90.000000
_cell_volume 2775.252937
_symmetry_space_group_name_H-M "P M N A"
_symmetry_group_IT_number 53
_symmetry_cell_setting 'orthorhombic'
loop_
_space_group_symop_operation_xyz
x,y,z
1/2-x,-y,1/2+z
x,-y,-z
1/2-x,y,1/2-z
-x,-y,-z
1/2+x,y,1/2-z
-x,y,z
1/2+x,-y,1/2+z
loop_
_atom_site_type_symbol
_atom_site_label
_atom_site_fract_x
_atom_site_fract_y
_atom_site_fract_z
Si Si1 0.834275 0.757452 0.158348
Si Si2 0.672507 0.529336 0.159299
Si Si3 0.326209 0.374828 0.159102
Si Si4 0.173870 0.349826 0.539103
Si Si5 0.667032 0.874309 0.840819
Si Si6 0.833795 0.879496 0.021605
Si Si7 0.333288 0.966109 0.158874
O O1 0.750000 0.771582 0.250000
O O2 0.754598 0.699754 0.104474
O O3 0.834316 0.820679 0.093693
O O4 0.000000 0.739135 0.178658
O O5 0.750000 0.554020 0.250000
O O6 0.500000 0.531908 0.172993
O O7 0.711153 0.452624 0.147600
O O8 0.705582 0.576400 0.075229
O O9 0.250000 0.350646 0.250000
O O10 0.500000 0.370114 0.168542
O O11 0.283174 0.341180 0.065220
O O12 0.000000 0.340754 0.544770
O O13 0.750000 0.853226 0.750000
O O14 0.500000 0.851926 0.841791
O O15 0.666249 0.954498 0.841624
O O16 0.752804 0.856465 0.931306
O O17 0.747775 0.937773 0.071807
O O18 0.000000 0.898481 0.001085
O O19 0.250000 0.945312 0.250000
O O20 0.500000 0.943229 0.160465
#
# Coordination Sequence:
#
# PCOD9417165 Si02
#       7
#     8   8   8   8   8   8   8
#     4  11  25  42  59  81 109 141 180 225 269 317
#     4   9  17  30  50  78 110 141 175 217 267 323
#     4   9  18  33  53  79 110 142 177 220 269 321
#     4  10  20  35  56  79 106 144 184 222 269 321
#     4  10  21  37  58  85 116 147 181 224 273 326
#     4  11  23  38  57  81 110 147 188 229 274 323
#     4  10  20  34  55  85 117 148 182 223 274 329
#
# _framework density 20.178341
#
# number of rings (size 3 to 8) (size 9 to 14) (size 15 to 20)
#    0.000    2.000    0.000    3.429    0.000   10.857 
#    0.000    0.714    0.000    6.000    0.000    0.000 
#    0.000    0.000    0.000    0.000    0.000    0.000 
#
# Total GULP energy -312909.518290 kJ/mol
# GULP energy per Si atom -5587.669969 kJ/mol
# Density = 2.013241 g / cm^3
# Si number density = 20.178341 Si / 1000 Ang^3
#
#
#
# Elastic Constant Matrix: (Units=GPa)
#
#
# Indices 1 2 3 4 5 6 
#
# 1 113.9447 12.4131 75.6136 0.0000 0.0000 0.0000
# 2 12.4131 12.9825 5.8526 0.0000 0.0000 0.0000
# 3 75.6136 5.8526 163.7867 0.0000 0.0000 0.0000
# 4 0.0000 0.0000 0.0000 21.6668 0.0000 0.0000
# 5 0.0000 0.0000 0.0000 0.0000 38.6344 0.0000
# 6 0.0000 0.0000 0.0000 0.0000 0.0000 57.2527
#
#
#
# Elastic Compliance Matrix: (Units=1/GPa)
#
#
# Indices 1 2 3 4 5 6 
#
# 1 0.013956 -0.010610 -0.006064 0.000000 0.000000 0.000000
# 2 -0.010610 0.086355 0.001813 0.000000 0.000000 0.000000
# 3 -0.006064 0.001813 0.008840 0.000000 0.000000 0.000000
# 4 0.000000 0.000000 0.000000 0.046154 0.000000 0.000000
# 5 0.000000 0.000000 0.000000 0.000000 0.025884 0.000000
# 6 0.000000 0.000000 0.000000 0.000000 0.000000 0.017466
#
#
# Mechanical properties :
#
#
# Convention : Reuss Voigt Hill
#
# Bulk Modulus (GPa) = 12.59000 53.16361 32.87680
# Shear Modulus (GPa) = 19.61910 36.63308 28.12609
#
# Velocity S-wave (km/s) = 3.12153 4.26545 3.73751
# Velocity P-wave (km/s) = 4.38690 7.11778 5.91218
#
# Compressibility (1/GPa) = 0.07942809
#
# Stress axis : x y z
#
# Youngs Moduli (GPa) = 71.65380 11.58011 113.12056
#
# Poissons Ratio (x) = 0.12287 0.68594
# Poissons Ratio (y) = 0.76027 -0.20505
# Poissons Ratio (z) = 0.43449 -0.02099
#
# Static dielectric constant tensor:
#      x y z
#    x 1.689950 0.000000 0.000000 
#    y 0.000000 1.730420 0.000000 
#    z 0.000000 0.000000 1.700070 
# 
# From -- ./inp_files/20459.got.cif
#   From: 2010.05.17/outbox.cif.g08.bks.cpg/sg53_11_cif.got.tgz:20459.got - 2010.06.03 12:45:16.
