data_PCOD9417400
_publ_section_title
;
Structure prediction by ZEFSAII (Michael W. Deem and Ramdas Pophale) SiO2 
 PCOD9417400
Probable space group: P M N A
;
_chemical_formula_sum "Si O2"
_cell_formula_units_Z 32
_cell_length_a 17.735191
_cell_length_b 6.737775
_cell_length_c 14.022041
_cell_angle_alpha 90.000000
_cell_angle_beta 90.000000
_cell_angle_gamma 90.000000
_cell_volume 1675.573977
_symmetry_space_group_name_H-M "P M N A"
_symmetry_group_IT_number 53
_symmetry_cell_setting 'orthorhombic'
loop_
_space_group_symop_operation_xyz
x,y,z
1/2-x,-y,1/2+z
x,-y,-z
1/2-x,y,1/2-z
-x,-y,-z
1/2+x,y,1/2-z
-x,y,z
1/2+x,-y,1/2+z
loop_
_atom_site_type_symbol
_atom_site_label
_atom_site_fract_x
_atom_site_fract_y
_atom_site_fract_z
Si Si1 0.325656 0.894063 0.901317
Si Si2 0.319369 0.121970 0.598877
Si Si3 0.784013 0.554731 0.855065
Si Si4 0.586993 0.851957 0.714372
O O1 0.259931 0.037960 0.860563
O O2 0.391403 0.866545 0.825559
O O3 0.280479 0.685100 0.907848
O O4 0.348091 0.000000 0.000000
O O5 0.309942 0.356152 0.592731
O O6 0.387914 0.058285 0.665777
O O7 0.328244 0.000000 0.500000
O O8 0.750000 0.505225 0.750000
O O9 0.856302 0.693179 0.833440
O O10 0.500000 0.807005 0.699480
#
# Coordination Sequence:
#
# PCOD9417400 Si02
#       4
#     8   8   8   8
#     4   9  19  34  56  83 107 138 182 228 272 320
#     4  10  20  35  57  81 105 140 186 231 273 317
#     4   9  18  36  58  79 110 146 182 227 276 326
#     4  10  21  35  52  80 115 147 179 218 271 331
#
# _framework density 19.097933999999999
#
# number of rings (size 3 to 8) (size 9 to 14) (size 15 to 20)
#    0.000    2.500    0.000    3.750    0.000   11.000 
#    0.000    1.250    0.000    0.000    0.000   21.000 
#    0.000    0.000    0.000    0.000    0.000    0.000 
#
# Total GULP energy -178400.533083 kJ/mol
# GULP energy per Si atom -5575.016659 kJ/mol
# Density = 1.905447 g / cm^3
# Si number density = 19.097934 Si / 1000 Ang^3
#
#
#
# Elastic Constant Matrix: (Units=GPa)
#
#
# Indices 1 2 3 4 5 6 
#
# 1 70.4098 10.9642 4.4195 0.0000 0.0000 0.0000
# 2 10.9642 134.8932 42.8388 0.0000 0.0000 0.0000
# 3 4.4195 42.8388 84.5626 0.0000 0.0000 0.0000
# 4 0.0000 0.0000 0.0000 28.4229 0.0000 0.0000
# 5 0.0000 0.0000 0.0000 0.0000 15.3249 0.0000
# 6 0.0000 0.0000 0.0000 0.0000 0.0000 7.3780
#
#
#
# Elastic Compliance Matrix: (Units=1/GPa)
#
#
# Indices 1 2 3 4 5 6 
#
# 1 0.014387 -0.001109 -0.000190 0.000000 0.000000 0.000000
# 2 -0.001109 0.008920 -0.004461 0.000000 0.000000 0.000000
# 3 -0.000190 -0.004461 0.014095 0.000000 0.000000 0.000000
# 4 0.000000 0.000000 0.000000 0.035183 0.000000 0.000000
# 5 0.000000 0.000000 0.000000 0.000000 0.065253 0.000000
# 6 0.000000 0.000000 0.000000 0.000000 0.000000 0.135538
#
#
# Mechanical properties :
#
#
# Convention : Reuss Voigt Hill
#
# Bulk Modulus (GPa) = 38.63600 45.14563 41.89081
# Shear Modulus (GPa) = 17.03436 25.66804 21.35120
#
# Velocity S-wave (km/s) = 2.98979 3.67007 3.34726
# Velocity P-wave (km/s) = 5.67387 6.45364 6.07628
#
# Compressibility (1/GPa) = 0.02588260
#
# Stress axis : x y z
#
# Youngs Moduli (GPa) = 69.50624 112.10654 70.94539
#
# Poissons Ratio (x) = 0.12433 0.01349
# Poissons Ratio (y) = 0.07708 0.31648
# Poissons Ratio (z) = 0.01321 0.50010
#
# Static dielectric constant tensor:
#      x y z
#    x 1.622580 0.000000 0.000000 
#    y 0.000000 1.697020 0.000000 
#    z 0.000000 0.000000 1.758270 
# 
# From -- ./inp_files/23168.got.cif
#   From: 2010.05.17/outbox.cif.g08.bks.cpg/sg53_12_cif.got.tgz:23168.got - 2010.06.03 12:45:16.
