data_PCOD9417620
_publ_section_title
;
Structure prediction by ZEFSAII (Michael W. Deem and Ramdas Pophale) SiO2 
 PCOD9417620
Probable space group: P M N A
;
_chemical_formula_sum "Si O2"
_cell_formula_units_Z 48
_cell_length_a 8.625156
_cell_length_b 15.498356
_cell_length_c 19.648371
_cell_angle_alpha 90.000000
_cell_angle_beta 90.000000
_cell_angle_gamma 90.000000
_cell_volume 2626.510499
_symmetry_space_group_name_H-M "P M N A"
_symmetry_group_IT_number 53
_symmetry_cell_setting 'orthorhombic'
loop_
_space_group_symop_operation_xyz
x,y,z
1/2-x,-y,1/2+z
x,-y,-z
1/2-x,y,1/2-z
-x,-y,-z
1/2+x,y,1/2-z
-x,y,z
1/2+x,-y,1/2+z
loop_
_atom_site_type_symbol
_atom_site_label
_atom_site_fract_x
_atom_site_fract_y
_atom_site_fract_z
Si Si1 0.312899 0.227836 0.586242
Si Si2 0.313520 0.936630 0.325615
Si Si3 0.812791 0.537451 0.574150
Si Si4 0.185702 0.394383 0.826127
Si Si5 0.812869 0.264748 0.437037
Si Si6 0.686436 0.124662 0.174486
O O1 0.500000 0.229182 0.583050
O O2 0.266264 0.139219 0.623182
O O3 0.262604 0.309464 0.631952
O O4 0.247829 0.237377 0.510758
O O5 0.250000 0.917742 0.250000
O O6 0.500000 0.940343 0.322672
O O7 0.248938 0.030279 0.345732
O O8 0.768554 0.500000 0.500000
O O9 0.742747 0.477552 0.632375
O O10 0.763311 0.637117 0.578397
O O11 0.000000 0.533706 0.578829
O O12 0.250000 0.392919 0.750000
O O13 0.000000 0.393996 0.823604
O O14 0.764020 0.197425 0.379060
O O15 0.000000 0.264725 0.439126
O O16 0.750000 0.142840 0.250000
O O17 0.500000 0.121781 0.177115
#
# Coordination Sequence:
#
# PCOD9417620 Si02
#       6
#     8   8   8   8   8   8
#     4  10  22  37  56  84 116 149 187 230 280 337
#     4  10  20  36  57  82 112 149 189 231 281 333
#     4  10  20  38  61  83 112 150 189 232 284 337
#     4  11  23  38  58  86 117 150 190 235 282 336
#     4  10  22  38  59  85 113 148 188 230 282 339
#     4  10  21  38  58  82 111 145 188 233 280 334
#
# _framework density 18.275199000000001
#
# number of rings (size 3 to 8) (size 9 to 14) (size 15 to 20)
#    0.000    1.833    1.667    3.000    0.000    5.667 
#    0.000    5.000    0.000    0.000    0.000    0.000 
#    0.000    0.000    0.000    0.000    0.000    0.000 
#
# Total GULP energy -268146.433786 kJ/mol
# GULP energy per Si atom -5586.384037 kJ/mol
# Density = 1.823360 g / cm^3
# Si number density = 18.275199 Si / 1000 Ang^3
#
#
#
# Elastic Constant Matrix: (Units=GPa)
#
#
# Indices 1 2 3 4 5 6 
#
# 1 32.0396 43.8323 37.1431 0.0000 0.0000 0.0000
# 2 43.8323 204.4147 135.0498 0.0000 0.0000 0.0000
# 3 37.1431 135.0498 159.9655 0.0000 0.0000 0.0000
# 4 0.0000 0.0000 0.0000 40.0130 0.0000 0.0000
# 5 0.0000 0.0000 0.0000 0.0000 32.4755 0.0000
# 6 0.0000 0.0000 0.0000 0.0000 0.0000 27.1428
#
#
#
# Elastic Compliance Matrix: (Units=1/GPa)
#
#
# Indices 1 2 3 4 5 6 
#
# 1 0.046096 -0.006361 -0.005333 0.000000 0.000000 0.000000
# 2 -0.006361 0.011940 -0.008603 0.000000 0.000000 0.000000
# 3 -0.005333 -0.008603 0.014753 0.000000 0.000000 0.000000
# 4 0.000000 0.000000 0.000000 0.024992 0.000000 0.000000
# 5 0.000000 0.000000 0.000000 0.000000 0.030792 0.000000
# 6 0.000000 0.000000 0.000000 0.000000 0.000000 0.036842
#
#
# Mechanical properties :
#
#
# Convention : Reuss Voigt Hill
#
# Bulk Modulus (GPa) = 31.06129 92.05226 61.55677
# Shear Modulus (GPa) = 23.06903 31.95256 27.51079
#
# Velocity S-wave (km/s) = 3.55676 4.18594 3.88411
# Velocity P-wave (km/s) = 5.82243 8.59315 7.33972
#
# Compressibility (1/GPa) = 0.03219442
#
# Stress axis : x y z
#
# Youngs Moduli (GPa) = 21.69380 83.75403 67.78402
#
# Poissons Ratio (x) = 0.53275 0.36150
# Poissons Ratio (y) = 0.13799 0.58315
# Poissons Ratio (z) = 0.11570 0.72054
#
# Static dielectric constant tensor:
#      x y z
#    x 1.624960 0.000000 0.000000 
#    y 0.000000 1.622910 0.000000 
#    z 0.000000 0.000000 1.585080 
# 
# From -- ./inp_files/26248.got.cif
#   From: 2010.05.17/outbox.cif.g08.bks.cpg/sg53_14_cif.got.tgz:26248.got - 2010.06.03 12:45:16.
