data_PCOD9417089
_publ_section_title
;
Structure prediction by ZEFSAII (Michael W. Deem and Ramdas Pophale) SiO2 
 PCOD9417089
Probable space group: P M N A
;
_chemical_formula_sum "Si O2"
_cell_formula_units_Z 40
_cell_length_a 8.699773
_cell_length_b 26.966524
_cell_length_c 9.220550
_cell_angle_alpha 90.000000
_cell_angle_beta 90.000000
_cell_angle_gamma 90.000000
_cell_volume 2163.165348
_symmetry_space_group_name_H-M "P M N A"
_symmetry_group_IT_number 53
_symmetry_cell_setting 'orthorhombic'
loop_
_space_group_symop_operation_xyz
x,y,z
1/2-x,-y,1/2+z
x,-y,-z
1/2-x,y,1/2-z
-x,-y,-z
1/2+x,y,1/2-z
-x,y,z
1/2+x,-y,1/2+z
loop_
_atom_site_type_symbol
_atom_site_label
_atom_site_fract_x
_atom_site_fract_y
_atom_site_fract_z
Si Si1 0.815454 0.642787 0.911855
Si Si2 0.814482 0.047851 0.587957
Si Si3 0.315658 0.156273 0.914018
Si Si4 0.183985 0.741587 0.086966
Si Si5 0.315630 0.549786 0.088106
O O1 0.750000 0.641078 0.750000
O O2 0.000000 0.639666 0.907359
O O3 0.772713 0.694285 0.990847
O O4 0.750698 0.597173 0.004566
O O5 0.750000 0.045366 0.750000
O O6 0.773489 0.102139 0.523228
O O7 0.000000 0.046324 0.594811
O O8 0.760036 0.000000 0.500000
O O9 0.250000 0.155204 0.750000
O O10 0.500000 0.160347 0.909735
O O11 0.246620 0.206645 0.977869
O O12 0.250000 0.735812 0.250000
O O13 0.000000 0.744378 0.097120
O O14 0.250000 0.547464 0.250000
O O15 0.500000 0.553384 0.094100
O O16 0.274585 0.500000 0.000000
#
# Coordination Sequence:
#
# PCOD9417089 Si02
#       5
#     8   8   8   8   8
#     4  11  24  40  59  83 113 149 186 226 273 324
#     4   9  18  32  49  72 101 132 170 214 260 313
#     4   9  16  28  49  73  99 133 171 214 262 312
#     4  10  20  34  54  80 106 135 175 221 267 317
#     4  11  24  41  63  90 119 151 187 228 272 320
#
# _framework density 18.491419
#
# number of rings (size 3 to 8) (size 9 to 14) (size 15 to 20)
#    0.000    2.000    0.000    4.800    0.000    9.200 
#    0.000    1.000    0.000    4.800    0.000    0.000 
#    0.000    0.000    0.000    0.000    0.000    0.000 
#
# Total GULP energy -223237.553609 kJ/mol
# GULP energy per Si atom -5580.938840 kJ/mol
# Density = 1.844933 g / cm^3
# Si number density = 18.491419 Si / 1000 Ang^3
#
#
#
# Elastic Constant Matrix: (Units=GPa)
#
#
# Indices 1 2 3 4 5 6 
#
# 1 46.5531 64.4327 34.0967 0.0000 0.0000 0.0000
# 2 64.4327 235.5119 94.7115 0.0000 0.0000 0.0000
# 3 34.0967 94.7115 108.3931 0.0000 0.0000 0.0000
# 4 0.0000 0.0000 0.0000 29.0845 0.0000 0.0000
# 5 0.0000 0.0000 0.0000 0.0000 22.1520 0.0000
# 6 0.0000 0.0000 0.0000 0.0000 0.0000 35.7237
#
#
#
# Elastic Compliance Matrix: (Units=1/GPa)
#
#
# Indices 1 2 3 4 5 6 
#
# 1 0.035750 -0.008107 -0.004162 0.000000 0.000000 0.000000
# 2 -0.008107 0.008385 -0.004776 0.000000 0.000000 0.000000
# 3 -0.004162 -0.004776 0.014708 0.000000 0.000000 0.000000
# 4 0.000000 0.000000 0.000000 0.034383 0.000000 0.000000
# 5 0.000000 0.000000 0.000000 0.000000 0.045143 0.000000
# 6 0.000000 0.000000 0.000000 0.000000 0.000000 0.027993
#
#
# Mechanical properties :
#
#
# Convention : Reuss Voigt Hill
#
# Bulk Modulus (GPa) = 40.40015 86.32665 63.36340
# Shear Modulus (GPa) = 23.95766 30.53988 27.24877
#
# Velocity S-wave (km/s) = 3.60336 4.06836 3.84290
# Velocity P-wave (km/s) = 6.26161 8.29788 7.35060
#
# Compressibility (1/GPa) = 0.02475238
#
# Stress axis : x y z
#
# Youngs Moduli (GPa) = 27.97238 119.26389 67.98866
#
# Poissons Ratio (x) = 0.96685 0.28297
# Poissons Ratio (y) = 0.22677 0.32473
# Poissons Ratio (z) = 0.11642 0.56964
#
# Static dielectric constant tensor:
#      x y z
#    x 1.621070 0.000000 0.000000 
#    y 0.000000 1.679390 0.000000 
#    z 0.000000 0.000000 1.599980 
# 
# From -- ./inp_files/6299.got.cif
#   From: 2010.05.17/outbox.cif.g08.bks.cpg/sg53_4_cif.got.tgz:6299.got - 2010.06.03 12:45:16.
