data_PCOD9417775
_publ_section_title
;
Structure prediction by ZEFSAII (Michael W. Deem and Ramdas Pophale) SiO2 
 PCOD9417775
Probable space group: P M N A
;
_chemical_formula_sum "Si O2"
_cell_formula_units_Z 56
_cell_length_a 14.650057
_cell_length_b 20.527082
_cell_length_c 10.011731
_cell_angle_alpha 90.000000
_cell_angle_beta 90.000000
_cell_angle_gamma 90.000000
_cell_volume 3010.756994
_symmetry_space_group_name_H-M "P M N A"
_symmetry_group_IT_number 53
_symmetry_cell_setting 'orthorhombic'
loop_
_space_group_symop_operation_xyz
x,y,z
1/2-x,-y,1/2+z
x,-y,-z
1/2-x,y,1/2-z
-x,-y,-z
1/2+x,y,1/2-z
-x,y,z
1/2+x,-y,1/2+z
loop_
_atom_site_type_symbol
_atom_site_label
_atom_site_fract_x
_atom_site_fract_y
_atom_site_fract_z
Si Si1 0.176696 0.751213 0.366092
Si Si2 0.102190 0.172118 0.173056
Si Si3 0.397692 0.868611 0.979155
Si Si4 0.270374 0.053106 0.402289
Si Si5 0.106416 0.389206 0.678330
Si Si6 0.295038 0.426586 0.546936
Si Si7 0.200085 0.300368 0.108965
O O1 0.250000 0.763352 0.250000
O O2 0.123175 0.815537 0.407934
O O3 0.115380 0.689440 0.324944
O O4 0.232567 0.727904 0.496183
O O5 0.110199 0.166758 0.333952
O O6 0.171226 0.119183 0.113650
O O7 0.123958 0.245046 0.127058
O O8 0.000000 0.153752 0.135856
O O9 0.500000 0.893813 0.991737
O O10 0.322988 0.924671 0.973227
O O11 0.250000 0.030342 0.250000
O O12 0.314301 0.000000 0.500000
O O13 0.186497 0.414670 0.578191
O O14 0.145498 0.413216 0.820515
O O15 0.000000 0.407345 0.654861
O O16 0.307454 0.500000 0.500000
O O17 0.326253 0.371986 0.441111
O O18 0.250000 0.305626 0.250000
#
# Coordination Sequence:
#
# PCOD9417775 Si02
#       7
#     8   8   8   8   8   8   8
#     4  11  19  37  60  89 119 153 195 248 305 354
#     4  10  20  37  61  90 121 155 200 248 297 352
#     4  10  20  36  61  87 119 159 201 244 295 357
#     4  10  21  39  61  85 121 161 198 247 297 352
#     4  10  21  39  59  84 118 156 198 249 309 360
#     4  10  23  40  60  85 118 162 202 250 304 363
#     4  11  19  37  63  85 114 156 203 248 297 355
#
# _framework density 18.599974
#
# number of rings (size 3 to 8) (size 9 to 14) (size 15 to 20)
#    0.000    1.714    5.714    0.857    2.000    2.286 
#    0.000    0.000    0.000    0.000    0.000    0.000 
#    0.000    0.000    0.000    0.000    0.000    0.000 
#
# Total GULP energy -312286.137163 kJ/mol
# GULP energy per Si atom -5576.538164 kJ/mol
# Density = 1.855764 g / cm^3
# Si number density = 18.599974 Si / 1000 Ang^3
#
#
#
# Elastic Constant Matrix: (Units=GPa)
#
#
# Indices 1 2 3 4 5 6 
#
# 1 68.7721 22.2598 13.5571 0.0000 0.0000 0.0000
# 2 22.2598 88.6893 35.2557 0.0000 0.0000 0.0000
# 3 13.5571 35.2557 70.8413 0.0000 0.0000 0.0000
# 4 0.0000 0.0000 0.0000 27.2638 0.0000 0.0000
# 5 0.0000 0.0000 0.0000 0.0000 15.3117 0.0000
# 6 0.0000 0.0000 0.0000 0.0000 0.0000 -2.4998
#
#
#
# Elastic Compliance Matrix: (Units=1/GPa)
#
#
# Indices 1 2 3 4 5 6 
#
# 1 0.015925 -0.003472 -0.001319 0.000000 0.000000 0.000000
# 2 -0.003472 0.014813 -0.006708 0.000000 0.000000 0.000000
# 3 -0.001319 -0.006708 0.017707 0.000000 0.000000 0.000000
# 4 0.000000 0.000000 0.000000 0.036679 0.000000 0.000000
# 5 0.000000 0.000000 0.000000 0.000000 0.065310 0.000000
# 6 0.000000 0.000000 0.000000 0.000000 0.000000 -0.400037
#
#
# Mechanical properties :
#
#
# Convention : Reuss Voigt Hill
#
# Bulk Modulus (GPa) = 39.29911 41.16088 40.22999
# Shear Modulus (GPa) = -22.92283 18.49713 -2.21285
#
# Velocity S-wave (km/s) = -3.51438 3.15694 -1.09192
# Velocity P-wave (km/s) = 2.16947 5.95533 4.48177
#
# Compressibility (1/GPa) = 0.02544587
#
# Stress axis : x y z
#
# Youngs Moduli (GPa) = 62.79510 67.50712 56.47556
#
# Poissons Ratio (x) = 0.23441 0.07452
# Poissons Ratio (y) = 0.21805 0.37882
# Poissons Ratio (z) = 0.08286 0.45281
#
# Static dielectric constant tensor:
#      x y z
#    x 1.647440 0.000000 0.000000 
#    y 0.000000 1.642990 0.000000 
#    z 0.000000 0.000000 1.638430 
# 
# From -- ./inp_files/8818.got.cif
#   From: 2010.05.17/outbox.cif.g08.bks.cpg/sg53_5_cif.got.tgz:8818.got - 2010.06.03 12:45:16.
