data_PCOD9417017
_publ_section_title
;
Structure prediction by ZEFSAII (Michael W. Deem and Ramdas Pophale) SiO2 
 PCOD9417017
Probable space group: P M N A
;
_chemical_formula_sum "Si O2"
_cell_formula_units_Z 28
_cell_length_a 21.329857
_cell_length_b 13.080432
_cell_length_c 5.122707
_cell_angle_alpha 90.000000
_cell_angle_beta 90.000000
_cell_angle_gamma 90.000000
_cell_volume 1429.254433
_symmetry_space_group_name_H-M "P M N A"
_symmetry_group_IT_number 53
_symmetry_cell_setting 'orthorhombic'
loop_
_space_group_symop_operation_xyz
x,y,z
1/2-x,-y,1/2+z
x,-y,-z
1/2-x,y,1/2-z
-x,-y,-z
1/2+x,y,1/2-z
-x,y,z
1/2+x,-y,1/2+z
loop_
_atom_site_type_symbol
_atom_site_label
_atom_site_fract_x
_atom_site_fract_y
_atom_site_fract_z
Si Si1 0.322217 0.786109 0.676501
Si Si2 0.500000 0.427847 0.751518
Si Si3 0.398000 0.253534 0.808596
Si Si4 0.289916 0.000000 0.500000
Si Si5 0.500000 0.074384 0.750326
O O1 0.250000 0.766577 0.750000
O O2 0.342919 0.740420 0.402559
O O3 0.327153 0.908224 0.630479
O O4 0.368648 0.752716 0.904615
O O5 0.500000 0.500000 0.500000
O O6 0.441206 0.351647 0.766577
O O7 0.500000 0.500000 0.000000
O O8 0.440454 0.152003 0.759019
O O9 0.250000 0.958154 0.250000
O O10 0.500000 0.000000 0.500000
O O11 0.500000 0.000000 0.000000
#
# Coordination Sequence:
#
# PCOD9417017 Si02
#       5
#     8   4   8   4   4
#     4  11  22  38  60  90 134 170 208 251 293 369
#     4  11  24  47  74  91 115 153 215 278 324 381
#     4  11  24  40  64  94 120 163 215 251 322 372
#     4  10  20  34  52  83 126 185 224 228 274 350
#     4  11  24  39  56  86 126 167 199 256 306 351
#
# _framework density 19.590634000000001
#
# number of rings (size 3 to 8) (size 9 to 14) (size 15 to 20)
#    0.000    1.143    0.000    7.714    6.000    4.571 
#    0.000    0.000    0.000   17.143    0.000    0.000 
#    0.000    0.000    0.000    0.000    0.000    0.000 
#
# Total GULP energy -156496.989684 kJ/mol
# GULP energy per Si atom -5589.178203 kJ/mol
# Density = 1.954605 g / cm^3
# Si number density = 19.590634 Si / 1000 Ang^3
#
#
#
# Elastic Constant Matrix: (Units=GPa)
#
#
# Indices 1 2 3 4 5 6 
#
# 1 54.5951 32.7801 2.2626 0.0000 0.0000 0.0000
# 2 32.7801 122.9989 47.1711 0.0000 0.0000 0.0000
# 3 2.2626 47.1711 129.6342 0.0000 0.0000 0.0000
# 4 0.0000 0.0000 0.0000 29.1201 0.0000 0.0000
# 5 0.0000 0.0000 0.0000 0.0000 40.2108 0.0000
# 6 0.0000 0.0000 0.0000 0.0000 0.0000 15.8604
#
#
#
# Elastic Compliance Matrix: (Units=1/GPa)
#
#
# Indices 1 2 3 4 5 6 
#
# 1 0.022269 -0.006724 0.002058 0.000000 0.000000 0.000000
# 2 -0.006724 0.011479 -0.004060 0.000000 0.000000 0.000000
# 3 0.002058 -0.004060 0.009155 0.000000 0.000000 0.000000
# 4 0.000000 0.000000 0.000000 0.034341 0.000000 0.000000
# 5 0.000000 0.000000 0.000000 0.000000 0.024869 0.000000
# 6 0.000000 0.000000 0.000000 0.000000 0.000000 0.063050
#
#
# Mechanical properties :
#
#
# Convention : Reuss Voigt Hill
#
# Bulk Modulus (GPa) = 39.28996 52.40620 45.84808
# Shear Modulus (GPa) = 26.16464 32.03922 29.10193
#
# Velocity S-wave (km/s) = 3.65851 4.04844 3.85840
# Velocity P-wave (km/s) = 6.15997 6.97581 6.58054
#
# Compressibility (1/GPa) = 0.02545179
#
# Stress axis : x y z
#
# Youngs Moduli (GPa) = 44.90623 87.11514 109.22628
#
# Poissons Ratio (x) = 0.58577 -0.22479
# Poissons Ratio (y) = 0.30195 0.44342
# Poissons Ratio (z) = -0.09242 0.35365
#
# Static dielectric constant tensor:
#      x y z
#    x 1.776970 0.000000 0.000000 
#    y 0.000000 1.703770 0.000000 
#    z 0.000000 0.000000 1.637310 
# 
# From -- ./inp_files/2590.got.cif
#   From: 2010.05.17/outbox.cif.g08.bks.cpg/sg53_2_cif.got.tgz:2590.got - 2010.06.03 12:45:16.
