data_PCOD9417812
_publ_section_title
;
Structure prediction by ZEFSAII (Michael W. Deem and Ramdas Pophale) SiO2 
 PCOD9417812
Probable space group: P M N A
;
_chemical_formula_sum "Si O2"
_cell_formula_units_Z 28
_cell_length_a 12.853256
_cell_length_b 8.807560
_cell_length_c 13.530472
_cell_angle_alpha 90.000000
_cell_angle_beta 90.000000
_cell_angle_gamma 90.000000
_cell_volume 1531.728224
_symmetry_space_group_name_H-M "P M N A"
_symmetry_group_IT_number 53
_symmetry_cell_setting 'orthorhombic'
loop_
_space_group_symop_operation_xyz
x,y,z
1/2-x,-y,1/2+z
x,-y,-z
1/2-x,y,1/2-z
-x,-y,-z
1/2+x,y,1/2-z
-x,y,z
1/2+x,-y,1/2+z
loop_
_atom_site_type_symbol
_atom_site_label
_atom_site_fract_x
_atom_site_fract_y
_atom_site_fract_z
Si Si1 0.750000 0.902733 0.250000
Si Si2 0.877841 0.318598 0.890592
Si Si3 0.119027 0.820367 0.684161
Si Si4 0.817513 0.668532 0.887137
O O1 0.685024 0.799080 0.324505
O O2 0.828557 0.014019 0.308759
O O3 0.835011 0.489151 0.874586
O O4 0.000000 0.316095 0.866928
O O5 0.862725 0.285843 0.006974
O O6 0.196504 0.715680 0.620280
O O7 0.128112 0.753812 0.795773
O O8 0.000000 0.822330 0.652155
#
# Coordination Sequence:
#
# PCOD9417812 Si02
#       4
#     4   8   8   8
#     4  10  22  34  52  82 108 138 182 214 258 322
#     4  11  20  36  57  81 107 136 174 226 267 307
#     4  10  20  37  54  77 111 145 173 216 263 310
#     4   9  20  35  58  82 104 136 183 216 261 323
#
# _framework density 18.280004000000002
#
# number of rings (size 3 to 8) (size 9 to 14) (size 15 to 20)
#    0.000    2.286    0.000    6.000    0.000    4.571 
#    0.000   15.714    0.000    0.000    0.000    0.000 
#    0.000    0.000    0.000    0.000    0.000    0.000 
#
# Total GULP energy -156294.683441 kJ/mol
# GULP energy per Si atom -5581.952980 kJ/mol
# Density = 1.823840 g / cm^3
# Si number density = 18.280004 Si / 1000 Ang^3
#
#
#
# Elastic Constant Matrix: (Units=GPa)
#
#
# Indices 1 2 3 4 5 6 
#
# 1 175.2964 67.7217 25.1681 0.0000 0.0000 0.0000
# 2 67.7217 102.9898 53.6863 0.0000 0.0000 0.0000
# 3 25.1681 53.6863 46.8834 0.0000 0.0000 0.0000
# 4 0.0000 0.0000 0.0000 -21.7085 0.0000 0.0000
# 5 0.0000 0.0000 0.0000 0.0000 16.0483 0.0000
# 6 0.0000 0.0000 0.0000 0.0000 0.0000 9.8115
#
#
#
# Elastic Compliance Matrix: (Units=1/GPa)
#
#
# Indices 1 2 3 4 5 6 
#
# 1 0.007979 -0.007477 0.004279 0.000000 0.000000 0.000000
# 2 -0.007477 0.031095 -0.031593 0.000000 0.000000 0.000000
# 3 0.004279 -0.031593 0.055210 0.000000 0.000000 0.000000
# 4 0.000000 0.000000 0.000000 -0.046065 0.000000 0.000000
# 5 0.000000 0.000000 0.000000 0.000000 0.062312 0.000000
# 6 0.000000 0.000000 0.000000 0.000000 0.000000 0.101921
#
#
# Mechanical properties :
#
#
# Convention : Reuss Voigt Hill
#
# Bulk Modulus (GPa) = 40.48428 68.70243 54.59335
# Shear Modulus (GPa) = 17.22545 12.73652 14.98098
#
# Velocity S-wave (km/s) = 3.07304 2.64246 2.86585
# Velocity P-wave (km/s) = 5.89799 6.85384 6.39380
#
# Compressibility (1/GPa) = 0.02470095
#
# Stress axis : x y z
#
# Youngs Moduli (GPa) = 125.33148 32.15956 18.11262
#
# Poissons Ratio (x) = 0.24045 -0.07750
# Poissons Ratio (y) = 0.93708 0.57223
# Poissons Ratio (z) = -0.53623 1.01602
#
# Static dielectric constant tensor:
#      x y z
#    x 1.629860 0.000000 0.000000 
#    y 0.000000 1.621450 0.000000 
#    z 0.000000 0.000000 1.616950 
# 
# From -- ./inp_files/21273.got.cif
#   From: 2010.05.17/outbox.cif.g08.bks.cpg/sg53_11_cif.got.tgz:21273.got - 2010.06.03 12:45:16.
