data_PCOD9417382
_publ_section_title
;
Structure prediction by ZEFSAII (Michael W. Deem and Ramdas Pophale) SiO2 
 PCOD9417382
Probable space group: P M N A
;
_chemical_formula_sum "Si O2"
_cell_formula_units_Z 40
_cell_length_a 8.628060
_cell_length_b 13.355615
_cell_length_c 19.268776
_cell_angle_alpha 90.000000
_cell_angle_beta 90.000000
_cell_angle_gamma 90.000000
_cell_volume 2220.399781
_symmetry_space_group_name_H-M "P M N A"
_symmetry_group_IT_number 53
_symmetry_cell_setting 'orthorhombic'
loop_
_space_group_symop_operation_xyz
x,y,z
1/2-x,-y,1/2+z
x,-y,-z
1/2-x,y,1/2-z
-x,-y,-z
1/2+x,y,1/2-z
-x,y,z
1/2+x,-y,1/2+z
loop_
_atom_site_type_symbol
_atom_site_label
_atom_site_fract_x
_atom_site_fract_y
_atom_site_fract_z
Si Si1 0.314546 0.606811 0.079383
Si Si2 0.314491 0.993742 0.171518
Si Si3 0.685001 0.213481 0.671445
Si Si4 0.813843 0.216230 0.328495
Si Si5 0.314820 0.391742 0.423929
O O1 0.500000 0.604253 0.080087
O O2 0.251997 0.695386 0.127268
O O3 0.248644 0.498825 0.102175
O O4 0.255125 0.622372 0.000806
O O5 0.250000 0.997086 0.250000
O O6 0.500000 0.981958 0.172954
O O7 0.239909 0.893704 0.140571
O O8 0.277922 0.104205 0.142757
O O9 0.750000 0.219801 0.750000
O O10 0.500000 0.216808 0.673465
O O11 0.750000 0.222794 0.250000
O O12 0.739888 0.302279 0.374875
O O13 0.000000 0.226390 0.326912
O O14 0.500000 0.395644 0.428322
#
# Coordination Sequence:
#
# PCOD9417382 Si02
#       5
#     8   8   8   8   8
#     4  11  22  39  59  79 107 143 181 221 270 323
#     4   9  17  31  52  78 109 143 178 217 265 318
#     4  11  21  35  56  83 112 142 180 223 268 318
#     4  10  20  35  56  83 112 144 182 223 267 316
#     4  11  22  38  58  81 109 142 180 221 270 324
#
# _framework density 18.014773000000002
#
# number of rings (size 3 to 8) (size 9 to 14) (size 15 to 20)
#    0.000    1.600    0.000    9.000    0.000    3.200 
#    0.000    5.000    0.000    6.000    0.000    0.000 
#    0.000    0.000    0.000    0.000    0.000    0.000 
#
# Total GULP energy -223335.923499 kJ/mol
# GULP energy per Si atom -5583.398087 kJ/mol
# Density = 1.797377 g / cm^3
# Si number density = 18.014773 Si / 1000 Ang^3
#
#
#
# Elastic Constant Matrix: (Units=GPa)
#
#
# Indices 1 2 3 4 5 6 
#
# 1 173.6362 92.8968 38.2229 0.0000 0.0000 0.0000
# 2 92.8968 209.4617 75.4768 0.0000 0.0000 0.0000
# 3 38.2229 75.4768 45.2900 0.0000 0.0000 0.0000
# 4 0.0000 0.0000 0.0000 -444.4675 0.0000 0.0000
# 5 0.0000 0.0000 0.0000 0.0000 27.3117 0.0000
# 6 0.0000 0.0000 0.0000 0.0000 0.0000 33.9974
#
#
#
# Elastic Compliance Matrix: (Units=1/GPa)
#
#
# Indices 1 2 3 4 5 6 
#
# 1 0.007623 -0.002660 -0.002001 0.000000 0.000000 0.000000
# 2 -0.002660 0.012879 -0.019218 0.000000 0.000000 0.000000
# 3 -0.002001 -0.019218 0.055795 0.000000 0.000000 0.000000
# 4 0.000000 0.000000 0.000000 -0.002250 0.000000 0.000000
# 5 0.000000 0.000000 0.000000 0.000000 0.036614 0.000000
# 6 0.000000 0.000000 0.000000 0.000000 0.000000 0.029414
#
#
# Mechanical properties :
#
#
# Convention : Reuss Voigt Hill
#
# Bulk Modulus (GPa) = 35.03837 93.50899 64.27368
# Shear Modulus (GPa) = 25.33637 -61.84559 -18.25461
#
# Velocity S-wave (km/s) = 3.75430 -5.86558 -3.18671
# Velocity P-wave (km/s) = 6.18749 2.47915 4.71334
#
# Compressibility (1/GPa) = 0.02854014
#
# Stress axis : x y z
#
# Youngs Moduli (GPa) = 131.18979 77.64806 17.92263
#
# Poissons Ratio (x) = 0.20652 0.03586
# Poissons Ratio (y) = 0.34893 0.34443
# Poissons Ratio (z) = 0.26247 1.49223
#
# Static dielectric constant tensor:
#      x y z
#    x 1.596310 0.000000 0.000000 
#    y 0.000000 1.646040 0.000000 
#    z 0.000000 0.000000 1.580460 
# 
# From -- ./inp_files/30340.got.cif
#   From: 2010.05.17/outbox.cif.g08.bks.cpg/sg53_16_cif.got.tgz:30340.got - 2010.06.03 12:45:16.
