data_PCOD9417486
_publ_section_title
;
Structure prediction by ZEFSAII (Michael W. Deem and Ramdas Pophale) SiO2 
 PCOD9417486
Probable space group: P M N A
;
_chemical_formula_sum "Si O2"
_cell_formula_units_Z 32
_cell_length_a 17.701530
_cell_length_b 10.283982
_cell_length_c 9.025849
_cell_angle_alpha 90.000000
_cell_angle_beta 90.000000
_cell_angle_gamma 90.000000
_cell_volume 1643.085552
_symmetry_space_group_name_H-M "P M N A"
_symmetry_group_IT_number 53
_symmetry_cell_setting 'orthorhombic'
loop_
_space_group_symop_operation_xyz
x,y,z
1/2-x,-y,1/2+z
x,-y,-z
1/2-x,y,1/2-z
-x,-y,-z
1/2+x,y,1/2-z
-x,y,z
1/2+x,-y,1/2+z
loop_
_atom_site_type_symbol
_atom_site_label
_atom_site_fract_x
_atom_site_fract_y
_atom_site_fract_z
Si Si1 0.750000 0.783295 0.750000
Si Si2 0.500000 0.358261 0.419205
Si Si3 0.250000 0.215331 0.750000
Si Si4 0.000000 0.650354 0.561375
Si Si5 0.365715 0.141883 0.009946
Si Si6 0.342234 0.346576 0.505336
O O1 0.683693 0.855973 0.838441
O O2 0.711916 0.697019 0.625107
O O3 0.500000 0.500000 0.500000
O O4 0.500000 0.365120 0.240881
O O5 0.424543 0.289464 0.473978
O O6 0.196483 0.149639 0.624069
O O7 0.308686 0.300728 0.658371
O O8 0.000000 0.500000 0.500000
O O9 0.925959 0.737864 0.514631
O O10 0.403664 0.000000 0.000000
O O11 0.346933 0.500000 0.500000
#
# Coordination Sequence:
#
# PCOD9417486 Si02
#       6
#     4   4   4   4   8   8
#     4  10  20  38  62  90 127 170 219 262 317 386
#     4  10  22  39  61  88 131 167 205 262 325 378
#     4  10  24  38  64  96 123 172 217 266 319 388
#     4  12  27  43  69  98 130 174 220 270 327 385
#     4  11  24  44  67  94 133 173 219 267 325 386
#     4  10  20  35  59  90 131 166 210 264 325 377
#
# _framework density 19.475555
#
# number of rings (size 3 to 8) (size 9 to 14) (size 15 to 20)
#    0.000    1.500    2.500    1.875    7.000    4.000 
#    0.000    0.000    0.000    1.500    0.000    0.000 
#    0.000    0.000    0.000    0.000    0.000    0.000 
#
# Total GULP energy -178175.939200 kJ/mol
# GULP energy per Si atom -5567.998100 kJ/mol
# Density = 1.943123 g / cm^3
# Si number density = 19.475555 Si / 1000 Ang^3
#
#
#
# Elastic Constant Matrix: (Units=GPa)
#
#
# Indices 1 2 3 4 5 6 
#
# 1 102.5114 40.7331 27.2549 0.0000 0.0000 0.0000
# 2 40.7331 111.5713 28.9320 0.0000 0.0000 0.0000
# 3 27.2549 28.9320 113.4046 0.0000 0.0000 0.0000
# 4 0.0000 0.0000 0.0000 0.3365 0.0000 0.0000
# 5 0.0000 0.0000 0.0000 0.0000 -20.7704 0.0000
# 6 0.0000 0.0000 0.0000 0.0000 0.0000 24.8145
#
#
#
# Elastic Compliance Matrix: (Units=1/GPa)
#
#
# Indices 1 2 3 4 5 6 
#
# 1 0.011763 -0.003814 -0.001854 0.000000 0.000000 0.000000
# 2 -0.003814 0.010834 -0.001847 0.000000 0.000000 0.000000
# 3 -0.001854 -0.001847 0.009735 0.000000 0.000000 0.000000
# 4 0.000000 0.000000 0.000000 2.971477 0.000000 0.000000
# 5 0.000000 0.000000 0.000000 0.000000 -0.048145 0.000000
# 6 0.000000 0.000000 0.000000 0.000000 0.000000 0.040299
#
#
# Mechanical properties :
#
#
# Convention : Reuss Voigt Hill
#
# Bulk Modulus (GPa) = 57.79767 57.92525 57.86146
# Shear Modulus (GPa) = 1.65741 16.24728 8.95234
#
# Velocity S-wave (km/s) = 0.92351 2.89145 2.14632
# Velocity P-wave (km/s) = 5.55685 6.39957 5.99304
#
# Compressibility (1/GPa) = 0.01730173
#
# Stress axis : x y z
#
# Youngs Moduli (GPa) = 85.00930 92.29906 102.72294
#
# Poissons Ratio (x) = 0.35202 0.19046
# Poissons Ratio (y) = 0.32421 0.18978
# Poissons Ratio (z) = 0.15762 0.17052
#
# Static dielectric constant tensor:
#      x y z
#    x 1.745580 0.000000 0.000000 
#    y 0.000000 1.627100 0.000000 
#    z 0.000000 0.000000 1.673210 
# 
# From -- ./inp_files/8200.got.cif
#   From: 2010.05.17/outbox.cif.g08.bks.cpg/sg53_5_cif.got.tgz:8200.got - 2010.06.03 12:45:16.
