data_PCOD9417444
_publ_section_title
;
Structure prediction by ZEFSAII (Michael W. Deem and Ramdas Pophale) SiO2 
 PCOD9417444
Probable space group: P M N A
;
_chemical_formula_sum "Si O2"
_cell_formula_units_Z 48
_cell_length_a 8.553072
_cell_length_b 9.742988
_cell_length_c 31.325814
_cell_angle_alpha 90.000000
_cell_angle_beta 90.000000
_cell_angle_gamma 90.000000
_cell_volume 2610.457702
_symmetry_space_group_name_H-M "P M N A"
_symmetry_group_IT_number 53
_symmetry_cell_setting 'orthorhombic'
loop_
_space_group_symop_operation_xyz
x,y,z
1/2-x,-y,1/2+z
x,-y,-z
1/2-x,y,1/2-z
-x,-y,-z
1/2+x,y,1/2-z
-x,y,z
1/2+x,-y,1/2+z
loop_
_atom_site_type_symbol
_atom_site_label
_atom_site_fract_x
_atom_site_fract_y
_atom_site_fract_z
Si Si1 0.813039 0.843725 0.374702
Si Si2 0.812238 0.654308 0.796974
Si Si3 0.189114 0.341828 0.950584
Si Si4 0.187807 0.650235 0.297064
Si Si5 0.809789 0.656450 0.951822
Si Si6 0.189103 0.848266 0.874759
O O1 0.757109 0.762109 0.416431
O O2 0.760800 0.757614 0.333057
O O3 0.000000 0.847812 0.374239
O O4 0.748991 0.997409 0.374174
O O5 0.750000 0.690518 0.750000
O O6 0.750018 0.502122 0.807438
O O7 0.763084 0.762684 0.832862
O O8 0.000000 0.648654 0.795803
O O9 0.236650 0.499727 0.941357
O O10 0.000000 0.335915 0.948740
O O11 0.237043 0.311603 0.999515
O O12 0.250000 0.686213 0.250000
O O13 0.000000 0.645691 0.295768
O O14 0.756438 0.764389 0.916563
O O15 0.000000 0.656769 0.951534
O O16 0.000000 0.850638 0.875597
#
# Coordination Sequence:
#
# PCOD9417444 Si02
#       6
#     8   8   8   8   8   8
#     4  11  24  37  50  76 112 144 174 213 264 315
#     4  10  20  35  58  84 107 135 174 218 264 314
#     4   9  17  34  60  82 103 134 174 221 265 309
#     4  10  21  37  57  79 104 136 175 218 261 308
#     4   8  16  33  58  84 103 129 177 226 261 301
#     4  10  21  36  54  77 106 142 180 214 255 311
#
# _framework density 18.38758
#
# number of rings (size 3 to 8) (size 9 to 14) (size 15 to 20)
#    0.000    2.333    0.000    4.500    0.000    6.667 
#    0.000   10.000    0.000    0.000    0.000    0.000 
#    0.000    0.000    0.000    0.000    0.000    0.000 
#
# Total GULP energy -267970.707779 kJ/mol
# GULP energy per Si atom -5582.723079 kJ/mol
# Density = 1.834573 g / cm^3
# Si number density = 18.387580 Si / 1000 Ang^3
#
#
#
# Elastic Constant Matrix: (Units=GPa)
#
#
# Indices 1 2 3 4 5 6 
#
# 1 25.4012 33.0752 34.5503 0.0000 0.0000 0.0000
# 2 33.0752 177.4809 150.6184 0.0000 0.0000 0.0000
# 3 34.5503 150.6184 167.5342 0.0000 0.0000 0.0000
# 4 0.0000 0.0000 0.0000 -70.9176 0.0000 0.0000
# 5 0.0000 0.0000 0.0000 0.0000 11.2098 0.0000
# 6 0.0000 0.0000 0.0000 0.0000 0.0000 -31.6532
#
#
#
# Elastic Compliance Matrix: (Units=1/GPa)
#
#
# Indices 1 2 3 4 5 6 
#
# 1 0.055007 -0.002633 -0.008977 0.000000 0.000000 0.000000
# 2 -0.002633 0.023896 -0.020940 0.000000 0.000000 0.000000
# 3 -0.008977 -0.020940 0.026646 0.000000 0.000000 0.000000
# 4 0.000000 0.000000 0.000000 -0.014101 0.000000 0.000000
# 5 0.000000 0.000000 0.000000 0.000000 0.089207 0.000000
# 6 0.000000 0.000000 0.000000 0.000000 0.000000 -0.031592
#
#
# Mechanical properties :
#
#
# Convention : Reuss Voigt Hill
#
# Bulk Modulus (GPa) = 24.72260 89.65603 57.18932
# Shear Modulus (GPa) = 21.96399 -8.12736 6.91831
#
# Velocity S-wave (km/s) = 3.45991 -2.10467 1.94182
# Velocity P-wave (km/s) = 5.42547 6.55429 6.01641
#
# Compressibility (1/GPa) = 0.04044881
#
# Stress axis : x y z
#
# Youngs Moduli (GPa) = 18.17960 41.84847 37.52895
#
# Poissons Ratio (x) = 0.11017 0.33691
# Poissons Ratio (y) = 0.04786 0.78586
# Poissons Ratio (z) = 0.16320 0.87631
#
# Static dielectric constant tensor:
#      x y z
#    x 1.628610 0.000000 0.000000 
#    y 0.000000 1.598620 0.000000 
#    z 0.000000 0.000000 1.630890 
# 
# From -- ./inp_files/37746.got.cif
#   From: 2010.05.17/outbox.cif.g08.bks.cpg/sg53_19_cif.got.tgz:37746.got - 2010.06.03 12:45:16.
