data_PCOD9417696
_publ_section_title
;
Structure prediction by ZEFSAII (Michael W. Deem and Ramdas Pophale) SiO2 
 PCOD9417696
Probable space group: P M N A
;
_chemical_formula_sum "Si O2"
_cell_formula_units_Z 40
_cell_length_a 18.131355
_cell_length_b 12.976410
_cell_length_c 8.621169
_cell_angle_alpha 90.000000
_cell_angle_beta 90.000000
_cell_angle_gamma 90.000000
_cell_volume 2028.387749
_symmetry_space_group_name_H-M "P M N A"
_symmetry_group_IT_number 53
_symmetry_cell_setting 'orthorhombic'
loop_
_space_group_symop_operation_xyz
x,y,z
1/2-x,-y,1/2+z
x,-y,-z
1/2-x,y,1/2-z
-x,-y,-z
1/2+x,y,1/2-z
-x,y,z
1/2+x,-y,1/2+z
loop_
_atom_site_type_symbol
_atom_site_label
_atom_site_fract_x
_atom_site_fract_y
_atom_site_fract_z
Si Si1 0.912749 0.768302 0.707039
Si Si2 0.319335 0.225931 0.657852
Si Si3 0.588821 0.891248 0.089800
Si Si4 0.088998 0.383272 0.032364
Si Si5 0.691098 0.909289 0.617098
O O1 0.895739 0.797118 0.530123
O O2 0.881205 0.864337 0.803476
O O3 0.000000 0.768817 0.716326
O O4 0.887901 0.666087 0.800349
O O5 0.250000 0.269359 0.750000
O O6 0.361960 0.138551 0.760777
O O7 0.377967 0.308958 0.599131
O O8 0.283567 0.179159 0.501335
O O9 0.500000 0.894769 0.123105
O O10 0.606730 0.000000 0.000000
O O11 0.000000 0.380587 0.025801
O O12 0.112788 0.500000 0.000000
O O13 0.750000 0.932019 0.750000
O O14 0.676667 0.000000 0.500000
#
# Coordination Sequence:
#
# PCOD9417696 Si02
#       5
#     8   8   8   8   8
#     4   9  19  35  56  82 109 140 183 234 283 330
#     4  11  22  35  54  82 116 148 185 231 284 344
#     4  10  20  36  58  85 118 152 188 231 279 336
#     4   9  19  39  62  80 104 145 195 242 287 335
#     4  11  22  35  53  77 111 152 189 223 269 333
#
# _framework density 19.720095000000001
#
# number of rings (size 3 to 8) (size 9 to 14) (size 15 to 20)
#    0.000    2.000    0.000    3.600    0.000    2.800 
#    0.000    7.000    0.000    4.800    0.000    0.000 
#    0.000    0.000    0.000    0.000    0.000    0.000 
#
# Total GULP energy -222885.546059 kJ/mol
# GULP energy per Si atom -5572.138651 kJ/mol
# Density = 1.967521 g / cm^3
# Si number density = 19.720095 Si / 1000 Ang^3
#
#
#
# Elastic Constant Matrix: (Units=GPa)
#
#
# Indices 1 2 3 4 5 6 
#
# 1 29.9768 15.7630 26.5563 0.0000 0.0000 0.0000
# 2 15.7630 78.5734 27.4103 0.0000 0.0000 0.0000
# 3 26.5563 27.4103 105.4269 0.0000 0.0000 0.0000
# 4 0.0000 0.0000 0.0000 205.8922 0.0000 0.0000
# 5 0.0000 0.0000 0.0000 0.0000 33.4625 0.0000
# 6 0.0000 0.0000 0.0000 0.0000 0.0000 13.2387
#
#
#
# Elastic Compliance Matrix: (Units=1/GPa)
#
#
# Indices 1 2 3 4 5 6 
#
# 1 0.045067 -0.005588 -0.009899 0.000000 0.000000 0.000000
# 2 -0.005588 0.014689 -0.002412 0.000000 0.000000 0.000000
# 3 -0.009899 -0.002412 0.012606 0.000000 0.000000 0.000000
# 4 0.000000 0.000000 0.000000 0.004857 0.000000 0.000000
# 5 0.000000 0.000000 0.000000 0.000000 0.029884 0.000000
# 6 0.000000 0.000000 0.000000 0.000000 0.000000 0.075536
#
#
# Mechanical properties :
#
#
# Convention : Reuss Voigt Hill
#
# Bulk Modulus (GPa) = 27.34868 39.27072 33.30970
# Shear Modulus (GPa) = 21.68018 60.13516 40.90767
#
# Velocity S-wave (km/s) = 3.31931 5.52816 4.55952
# Velocity P-wave (km/s) = 5.34687 7.79132 6.68183
#
# Compressibility (1/GPa) = 0.03656484
#
# Stress axis : x y z
#
# Youngs Moduli (GPa) = 22.18909 68.07712 79.32850
#
# Poissons Ratio (x) = 0.38040 0.78530
# Poissons Ratio (y) = 0.12399 0.19131
# Poissons Ratio (z) = 0.21966 0.16417
#
# Static dielectric constant tensor:
#      x y z
#    x 1.699230 0.000000 0.000000 
#    y 0.000000 1.719410 0.000000 
#    z 0.000000 0.000000 1.745080 
# 
# From -- ./inp_files/9620.got.cif
#   From: 2010.05.17/outbox.cif.g08.bks.cpg/sg53_5_cif.got.tgz:9620.got - 2010.06.03 12:45:16.
