data_PCOD9417442
_publ_section_title
;
Structure prediction by ZEFSAII (Michael W. Deem and Ramdas Pophale) SiO2 
 PCOD9417442
Probable space group: P M N A
;
_chemical_formula_sum "Si O2"
_cell_formula_units_Z 64
_cell_length_a 18.343900
_cell_length_b 11.791260
_cell_length_c 16.236155
_cell_angle_alpha 90.000000
_cell_angle_beta 90.000000
_cell_angle_gamma 90.000000
_cell_volume 3511.842891
_symmetry_space_group_name_H-M "P M N A"
_symmetry_group_IT_number 53
_symmetry_cell_setting 'orthorhombic'
loop_
_space_group_symop_operation_xyz
x,y,z
1/2-x,-y,1/2+z
x,-y,-z
1/2-x,y,1/2-z
-x,-y,-z
1/2+x,y,1/2-z
-x,y,z
1/2+x,-y,1/2+z
loop_
_atom_site_type_symbol
_atom_site_label
_atom_site_fract_x
_atom_site_fract_y
_atom_site_fract_z
Si Si1 0.211022 0.422790 0.422597
Si Si2 0.314885 0.012655 0.901959
Si Si3 0.712070 0.808499 0.563429
Si Si4 0.578351 0.774207 0.675736
Si Si5 0.417156 0.558484 0.791753
Si Si6 0.812385 0.417705 0.817544
Si Si7 0.316602 0.167498 0.618101
Si Si8 0.583621 0.027399 0.747105
O O1 0.195001 0.500000 0.500000
O O2 0.233896 0.297094 0.450482
O O3 0.140754 0.425725 0.364372
O O4 0.277583 0.484064 0.374278
O O5 0.258702 0.907090 0.892499
O O6 0.266571 0.122165 0.876519
O O7 0.380759 0.016950 0.837834
O O8 0.334306 0.000000 0.000000
O O9 0.647789 0.762874 0.619211
O O10 0.673858 0.853187 0.479867
O O11 0.500000 0.762024 0.631910
O O12 0.581164 0.678180 0.744655
O O13 0.581844 0.899378 0.713334
O O14 0.500000 0.529846 0.816414
O O15 0.382860 0.465880 0.729460
O O16 0.750000 0.392821 0.750000
O O17 0.825083 0.300852 0.865217
O O18 0.367395 0.100325 0.682790
O O19 0.500000 0.069858 0.750272
#
# Coordination Sequence:
#
# PCOD9417442 Si02
#       8
#     8   8   8   8   8   8   8   8
#     4  11  21  37  61  89 115 153 201 252 298 347
#     4  10  22  38  60  88 113 149 197 249 293 346
#     4  11  21  37  62  90 115 152 200 250 295 346
#     4  10  21  37  59  88 118 147 189 244 296 347
#     4  10  22  38  59  88 121 157 198 244 302 360
#     4  10  20  35  58  83 114 152 194 241 286 352
#     4  11  22  37  59  87 120 154 199 243 295 359
#     4  11  23  38  59  85 117 157 194 237 300 359
#
# _framework density 18.224049999999998
#
# number of rings (size 3 to 8) (size 9 to 14) (size 15 to 20)
#    0.000    1.500    3.750    1.875    0.000    2.500 
#    0.000    1.250    0.000    3.000    0.000    0.000 
#    0.000    0.000    0.000    0.000    0.000    0.000 
#
# Total GULP energy -356748.253303 kJ/mol
# GULP energy per Si atom -5574.191458 kJ/mol
# Density = 1.818257 g / cm^3
# Si number density = 18.224050 Si / 1000 Ang^3
#
#
#
# Elastic Constant Matrix: (Units=GPa)
#
#
# Indices 1 2 3 4 5 6 
#
# 1 102.5821 36.8771 55.6088 0.0000 0.0000 0.0000
# 2 36.8771 50.3229 17.6304 0.0000 0.0000 0.0000
# 3 55.6088 17.6304 78.7679 0.0000 0.0000 0.0000
# 4 0.0000 0.0000 0.0000 19.1029 0.0000 0.0000
# 5 0.0000 0.0000 0.0000 0.0000 31.4507 0.0000
# 6 0.0000 0.0000 0.0000 0.0000 0.0000 22.7334
#
#
#
# Elastic Compliance Matrix: (Units=1/GPa)
#
#
# Indices 1 2 3 4 5 6 
#
# 1 0.019820 -0.010441 -0.011656 0.000000 0.000000 0.000000
# 2 -0.010441 0.027063 0.001314 0.000000 0.000000 0.000000
# 3 -0.011656 0.001314 0.020630 0.000000 0.000000 0.000000
# 4 0.000000 0.000000 0.000000 0.052348 0.000000 0.000000
# 5 0.000000 0.000000 0.000000 0.000000 0.031796 0.000000
# 6 0.000000 0.000000 0.000000 0.000000 0.000000 0.043988
#
#
# Mechanical properties :
#
#
# Convention : Reuss Voigt Hill
#
# Bulk Modulus (GPa) = 38.53979 50.21172 44.37575
# Shear Modulus (GPa) = 20.33680 22.76116 21.54898
#
# Velocity S-wave (km/s) = 3.34418 3.53790 3.44240
# Velocity P-wave (km/s) = 6.00875 6.65592 6.34060
#
# Compressibility (1/GPa) = 0.02594721
#
# Stress axis : x y z
#
# Youngs Moduli (GPa) = 50.45386 36.95149 48.47260
#
# Poissons Ratio (x) = 0.38580 0.56498
# Poissons Ratio (y) = 0.52678 -0.06368
# Poissons Ratio (z) = 0.58808 -0.04854
#
# Static dielectric constant tensor:
#      x y z
#    x 1.628660 0.000000 0.000000 
#    y 0.000000 1.635710 0.000000 
#    z 0.000000 0.000000 1.656430 
# 
# From -- ./inp_files/23903.got.cif
#   From: 2010.05.17/outbox.cif.g08.bks.cpg/sg53_12_cif.got.tgz:23903.got - 2010.06.03 12:45:16.
