data_PCOD9417868
_publ_section_title
;
Structure prediction by ZEFSAII (Michael W. Deem and Ramdas Pophale) SiO2 
 PCOD9417868
Probable space group: P M N A
;
_chemical_formula_sum "Si O2"
_cell_formula_units_Z 48
_cell_length_a 8.744917
_cell_length_b 15.280338
_cell_length_c 19.798591
_cell_angle_alpha 90.000000
_cell_angle_beta 90.000000
_cell_angle_gamma 90.000000
_cell_volume 2645.592415
_symmetry_space_group_name_H-M "P M N A"
_symmetry_group_IT_number 53
_symmetry_cell_setting 'orthorhombic'
loop_
_space_group_symop_operation_xyz
x,y,z
1/2-x,-y,1/2+z
x,-y,-z
1/2-x,y,1/2-z
-x,-y,-z
1/2+x,y,1/2-z
-x,y,z
1/2+x,-y,1/2+z
loop_
_atom_site_type_symbol
_atom_site_label
_atom_site_fract_x
_atom_site_fract_y
_atom_site_fract_z
Si Si1 0.316080 0.868135 0.322922
Si Si2 0.315690 0.544011 0.072248
Si Si3 0.815753 0.607704 0.675069
Si Si4 0.183545 0.735497 0.059645
Si Si5 0.183600 0.070769 0.176366
Si Si6 0.816281 0.222903 0.412880
O O1 0.250000 0.843335 0.250000
O O2 0.500000 0.865107 0.318981
O O3 0.266677 0.803315 0.382223
O O4 0.273181 0.969380 0.336569
O O5 0.500000 0.554958 0.074095
O O6 0.270010 0.477072 0.131323
O O7 0.237980 0.637930 0.077270
O O8 0.278623 0.500000 0.000000
O O9 0.750000 0.607210 0.750000
O O10 0.769633 0.694538 0.633842
O O11 0.000000 0.607906 0.678634
O O12 0.000000 0.738018 0.054969
O O13 0.253878 0.761855 0.987782
O O14 0.250000 0.094712 0.250000
O O15 0.250664 0.135638 0.120886
O O16 0.000000 0.077264 0.177857
O O17 0.000000 0.219921 0.414450
#
# Coordination Sequence:
#
# PCOD9417868 Si02
#       6
#     8   8   8   8   8   8
#     4   9  21  40  60  83 116 152 192 239 291 343
#     4  10  20  40  61  79 111 153 190 230 284 344
#     4  10  22  38  58  83 114 149 187 232 284 339
#     4  11  23  38  59  88 116 149 192 242 291 342
#     4  10  20  37  59  84 115 154 193 238 289 342
#     4  11  22  38  58  84 117 156 194 235 288 350
#
# _framework density 18.143383
#
# number of rings (size 3 to 8) (size 9 to 14) (size 15 to 20)
#    0.000    1.833    1.667    2.000    0.000    7.000 
#    0.000    6.667    0.000    0.000    0.000    0.000 
#    0.000    0.000    0.000    0.000    0.000    0.000 
#
# Total GULP energy -268161.056054 kJ/mol
# GULP energy per Si atom -5586.688668 kJ/mol
# Density = 1.810209 g / cm^3
# Si number density = 18.143383 Si / 1000 Ang^3
#
#
#
# Elastic Constant Matrix: (Units=GPa)
#
#
# Indices 1 2 3 4 5 6 
#
# 1 37.2836 43.5698 47.2610 0.0000 0.0000 0.0000
# 2 43.5698 133.4657 112.4426 0.0000 0.0000 0.0000
# 3 47.2610 112.4426 187.8943 0.0000 0.0000 0.0000
# 4 0.0000 0.0000 0.0000 38.5936 0.0000 0.0000
# 5 0.0000 0.0000 0.0000 0.0000 32.1501 0.0000
# 6 0.0000 0.0000 0.0000 0.0000 0.0000 34.2136
#
#
#
# Elastic Compliance Matrix: (Units=1/GPa)
#
#
# Indices 1 2 3 4 5 6 
#
# 1 0.045736 -0.010565 -0.005181 0.000000 0.000000 0.000000
# 2 -0.010565 0.017552 -0.007846 0.000000 0.000000 0.000000
# 3 -0.005181 -0.007846 0.011321 0.000000 0.000000 0.000000
# 4 0.000000 0.000000 0.000000 0.025911 0.000000 0.000000
# 5 0.000000 0.000000 0.000000 0.000000 0.031104 0.000000
# 6 0.000000 0.000000 0.000000 0.000000 0.000000 0.029228
#
#
# Mechanical properties :
#
#
# Convention : Reuss Voigt Hill
#
# Bulk Modulus (GPa) = 36.46559 85.02116 60.74338
# Shear Modulus (GPa) = 23.02252 31.34948 27.18600
#
# Velocity S-wave (km/s) = 3.56606 4.16128 3.87511
# Velocity P-wave (km/s) = 6.09080 8.36963 7.31945
#
# Compressibility (1/GPa) = 0.02742311
#
# Stress axis : x y z
#
# Youngs Moduli (GPa) = 21.86458 56.97394 88.33299
#
# Poissons Ratio (x) = 0.60195 0.45768
# Poissons Ratio (y) = 0.23101 0.69307
# Poissons Ratio (z) = 0.11329 0.44703
#
# Static dielectric constant tensor:
#      x y z
#    x 1.612690 0.000000 0.000000 
#    y 0.000000 1.610400 0.000000 
#    z 0.000000 0.000000 1.587880 
# 
# From -- ./inp_files/26150.got.cif
#   From: 2010.05.17/outbox.cif.g08.bks.cpg/sg53_14_cif.got.tgz:26150.got - 2010.06.03 12:45:16.
