data_PCOD9417205
_publ_section_title
;
Structure prediction by ZEFSAII (Michael W. Deem and Ramdas Pophale) SiO2 
 PCOD9417205
Probable space group: P M N A
;
_chemical_formula_sum "Si O2"
_cell_formula_units_Z 40
_cell_length_a 15.341028
_cell_length_b 23.252070
_cell_length_c 5.108369
_cell_angle_alpha 90.000000
_cell_angle_beta 90.000000
_cell_angle_gamma 90.000000
_cell_volume 1822.209662
_symmetry_space_group_name_H-M "P M N A"
_symmetry_group_IT_number 53
_symmetry_cell_setting 'orthorhombic'
loop_
_space_group_symop_operation_xyz
x,y,z
1/2-x,-y,1/2+z
x,-y,-z
1/2-x,y,1/2-z
-x,-y,-z
1/2+x,y,1/2-z
-x,y,z
1/2+x,-y,1/2+z
loop_
_atom_site_type_symbol
_atom_site_label
_atom_site_fract_x
_atom_site_fract_y
_atom_site_fract_z
Si Si1 0.106808 0.435730 0.567154
Si Si2 0.311726 0.754405 0.499300
Si Si3 0.105047 0.632495 0.934389
Si Si4 0.599484 0.942690 0.129898
Si Si5 0.151902 0.876381 0.859710
O O1 0.135852 0.500000 0.500000
O O2 0.134927 0.389625 0.348823
O O3 0.000000 0.436789 0.565433
O O4 0.134323 0.413691 0.850144
O O5 0.250000 0.763650 0.250000
O O6 0.364014 0.695365 0.482941
O O7 0.368432 0.811828 0.544488
O O8 0.250000 0.748423 0.750000
O O9 0.000000 0.632712 0.930691
O O10 0.500000 0.956553 0.207243
O O11 0.643712 0.917834 0.389552
O O12 0.598793 0.897447 0.891541
O O13 0.639779 0.000000 0.000000
O O14 0.250000 0.876089 0.750000
#
# Coordination Sequence:
#
# PCOD9417205 Si02
#       5
#     8   8   8   8   8
#     4   9  17  31  53  82 114 144 181 235 289 337
#     4  11  23  41  60  81 117 157 191 238 297 345
#     4  10  20  34  57  86 109 142 194 238 280 343
#     4  11  24  42  65  94 128 160 193 245 310 359
#     4  11  23  42  64  90 121 162 210 246 289 357
#
# _framework density 21.951371000000002
#
# number of rings (size 3 to 8) (size 9 to 14) (size 15 to 20)
#    0.000    1.600    0.000    6.000    0.000    7.200 
#    0.000    3.000    0.000   12.000    0.000    0.000 
#    0.000    0.000    0.000    0.000    0.000    0.000 
#
# Total GULP energy -223656.235073 kJ/mol
# GULP energy per Si atom -5591.405877 kJ/mol
# Density = 2.190141 g / cm^3
# Si number density = 21.951371 Si / 1000 Ang^3
#
#
#
# Elastic Constant Matrix: (Units=GPa)
#
#
# Indices 1 2 3 4 5 6 
#
# 1 19.4075 6.1010 3.0384 0.0000 0.0000 0.0000
# 2 6.1010 97.8051 11.8538 0.0000 0.0000 0.0000
# 3 3.0384 11.8538 122.1682 0.0000 0.0000 0.0000
# 4 0.0000 0.0000 0.0000 41.8459 0.0000 0.0000
# 5 0.0000 0.0000 0.0000 0.0000 -14.9993 0.0000
# 6 0.0000 0.0000 0.0000 0.0000 0.0000 28.4198
#
#
#
# Elastic Compliance Matrix: (Units=1/GPa)
#
#
# Indices 1 2 3 4 5 6 
#
# 1 0.052678 -0.003164 -0.001003 0.000000 0.000000 0.000000
# 2 -0.003164 0.010536 -0.000944 0.000000 0.000000 0.000000
# 3 -0.001003 -0.000944 0.008302 0.000000 0.000000 0.000000
# 4 0.000000 0.000000 0.000000 0.023897 0.000000 0.000000
# 5 0.000000 0.000000 0.000000 0.000000 -0.066670 0.000000
# 6 0.000000 0.000000 0.000000 0.000000 0.000000 0.035187
#
#
# Mechanical properties :
#
#
# Convention : Reuss Voigt Hill
#
# Bulk Modulus (GPa) = 16.31480 31.26302 23.78891
# Shear Modulus (GPa) = 52.86308 25.61247 39.23778
#
# Velocity S-wave (km/s) = 4.91266 3.41953 4.23245
# Velocity P-wave (km/s) = 6.29502 5.46477 5.89453
#
# Compressibility (1/GPa) = 0.06129405
#
# Stress axis : x y z
#
# Youngs Moduli (GPa) = 18.98316 94.91108 120.45381
#
# Poissons Ratio (x) = 0.30034 0.12083
# Poissons Ratio (y) = 0.06007 0.11366
# Poissons Ratio (z) = 0.01904 0.08956
#
# Static dielectric constant tensor:
#      x y z
#    x 1.824720 0.000000 0.000000 
#    y 0.000000 1.815170 0.000000 
#    z 0.000000 0.000000 1.760390 
# 
# From -- ./inp_files/1383.got.cif
#   From: 2010.05.17/outbox.cif.g08.bks.cpg/sg53_1_cif.got.tgz:1383.got - 2010.06.03 12:45:16.
