data_PCOD9417429
_publ_section_title
;
Structure prediction by ZEFSAII (Michael W. Deem and Ramdas Pophale) SiO2 
 PCOD9417429
Probable space group: P M N A
;
_chemical_formula_sum "Si O2"
_cell_formula_units_Z 48
_cell_length_a 8.796542
_cell_length_b 10.838374
_cell_length_c 23.638158
_cell_angle_alpha 90.000000
_cell_angle_beta 90.000000
_cell_angle_gamma 90.000000
_cell_volume 2253.666997
_symmetry_space_group_name_H-M "P M N A"
_symmetry_group_IT_number 53
_symmetry_cell_setting 'orthorhombic'
loop_
_space_group_symop_operation_xyz
x,y,z
1/2-x,-y,1/2+z
x,-y,-z
1/2-x,y,1/2-z
-x,-y,-z
1/2+x,y,1/2-z
-x,y,z
1/2+x,-y,1/2+z
loop_
_atom_site_type_symbol
_atom_site_label
_atom_site_fract_x
_atom_site_fract_y
_atom_site_fract_z
Si Si1 0.180744 0.169084 0.687569
Si Si2 0.822032 0.189129 0.482748
Si Si3 0.677054 0.699182 0.411125
Si Si4 0.327814 0.547625 0.919318
Si Si5 0.678679 0.299141 0.189873
Si Si6 0.681441 0.067938 0.375663
O O1 0.250000 0.179616 0.750000
O O2 0.230131 0.279949 0.646428
O O3 0.000000 0.159240 0.691093
O O4 0.249229 0.049774 0.655796
O O5 0.735696 0.205306 0.541601
O O6 0.810994 0.324839 0.453399
O O7 0.750888 0.094787 0.437729
O O8 0.000000 0.162275 0.491496
O O9 0.500000 0.717229 0.400922
O O10 0.712659 0.561209 0.432455
O O11 0.500000 0.501290 0.929407
O O12 0.311149 0.589139 0.854334
O O13 0.750000 0.329130 0.250000
O O14 0.500000 0.265849 0.194670
O O15 0.768828 0.185086 0.162356
O O16 0.500000 0.058701 0.379081
#
# Coordination Sequence:
#
# PCOD9417429 Si02
#       6
#     8   8   8   8   8   8
#     4  12  26  46  67  88 119 160 204 247 297 355
#     4  10  21  40  65  93 124 159 200 246 299 354
#     4  12  25  40  61  91 124 160 202 246 297 357
#     4   9  20  38  59  85 121 163 204 247 298 356
#     4  10  20  35  57  86 119 157 202 250 302 357
#     4  11  22  39  63  92 123 154 196 249 304 358
#
# _framework density 21.298622000000002
#
# number of rings (size 3 to 8) (size 9 to 14) (size 15 to 20)
#    0.000    1.333    0.000    7.500    0.000    7.333 
#    0.000    5.000    0.000    0.000    0.000    0.000 
#    0.000    0.000    0.000    0.000    0.000    0.000 
#
# Total GULP energy -268655.778084 kJ/mol
# GULP energy per Si atom -5596.995377 kJ/mol
# Density = 2.125015 g / cm^3
# Si number density = 21.298622 Si / 1000 Ang^3
#
#
#
# Elastic Constant Matrix: (Units=GPa)
#
#
# Indices 1 2 3 4 5 6 
#
# 1 144.9243 21.3378 19.1645 0.0000 0.0000 0.0000
# 2 21.3378 57.6901 9.5144 0.0000 0.0000 0.0000
# 3 19.1645 9.5144 88.9108 0.0000 0.0000 0.0000
# 4 0.0000 0.0000 0.0000 15.4664 0.0000 0.0000
# 5 0.0000 0.0000 0.0000 0.0000 -78.2456 0.0000
# 6 0.0000 0.0000 0.0000 0.0000 0.0000 4.2296
#
#
#
# Elastic Compliance Matrix: (Units=1/GPa)
#
#
# Indices 1 2 3 4 5 6 
#
# 1 0.007450 -0.002535 -0.001334 0.000000 0.000000 0.000000
# 2 -0.002535 0.018508 -0.001434 0.000000 0.000000 0.000000
# 3 -0.001334 -0.001434 0.011688 0.000000 0.000000 0.000000
# 4 0.000000 0.000000 0.000000 0.064656 0.000000 0.000000
# 5 0.000000 0.000000 0.000000 0.000000 -0.012780 0.000000
# 6 0.000000 0.000000 0.000000 0.000000 0.000000 0.236431
#
#
# Mechanical properties :
#
#
# Convention : Reuss Voigt Hill
#
# Bulk Modulus (GPa) = 36.98418 43.50649 40.24533
# Shear Modulus (GPa) = 14.46867 4.39063 9.42965
#
# Velocity S-wave (km/s) = 2.60921 1.43734 2.10641
# Velocity P-wave (km/s) = 5.14583 4.81932 4.98525
#
# Compressibility (1/GPa) = 0.02703859
#
# Stress axis : x y z
#
# Youngs Moduli (GPa) = 134.22953 54.02985 85.55536
#
# Poissons Ratio (x) = 0.13699 0.11417
# Poissons Ratio (y) = 0.34033 0.12269
# Poissons Ratio (z) = 0.17913 0.07748
#
# Static dielectric constant tensor:
#      x y z
#    x 1.712600 0.000000 0.000000 
#    y 0.000000 1.791670 0.000000 
#    z 0.000000 0.000000 1.772170 
# 
# From -- ./inp_files/33928.got.cif
#   From: 2010.05.17/outbox.cif.g08.bks.cpg/sg53_17_cif.got.tgz:33928.got - 2010.06.03 12:45:16.
