data_PCOD9417240
_publ_section_title
;
Structure prediction by ZEFSAII (Michael W. Deem and Ramdas Pophale) SiO2 
 PCOD9417240
Probable space group: P M N A
;
_chemical_formula_sum "Si O2"
_cell_formula_units_Z 40
_cell_length_a 28.584714
_cell_length_b 8.142014
_cell_length_c 7.771695
_cell_angle_alpha 90.000000
_cell_angle_beta 90.000000
_cell_angle_gamma 90.000000
_cell_volume 1808.762079
_symmetry_space_group_name_H-M "P M N A"
_symmetry_group_IT_number 53
_symmetry_cell_setting 'orthorhombic'
loop_
_space_group_symop_operation_xyz
x,y,z
1/2-x,-y,1/2+z
x,-y,-z
1/2-x,y,1/2-z
-x,-y,-z
1/2+x,y,1/2-z
-x,y,z
1/2+x,-y,1/2+z
loop_
_atom_site_type_symbol
_atom_site_label
_atom_site_fract_x
_atom_site_fract_y
_atom_site_fract_z
Si Si1 0.445179 0.815865 0.809181
Si Si2 0.901204 0.870661 0.311103
Si Si3 0.101087 0.498728 0.696862
Si Si4 0.800931 0.929836 0.190706
Si Si5 0.299998 0.536760 0.304159
O O1 0.500000 0.795925 0.838591
O O2 0.424405 0.653939 0.719049
O O3 0.434304 0.992579 0.726406
O O4 0.418449 0.836828 0.993378
O O5 0.903486 0.686589 0.231624
O O6 0.849079 0.948965 0.297205
O O7 0.083330 0.500000 0.500000
O O8 0.156786 0.530057 0.695593
O O9 0.750000 0.997476 0.250000
O O10 0.796625 0.732980 0.201553
O O11 0.809176 0.000000 0.000000
O O12 0.310687 0.500000 0.500000
O O13 0.250000 0.465313 0.250000
#
# Coordination Sequence:
#
# PCOD9417240 Si02
#       5
#     8   8   8   8   8
#     4  10  20  34  61  90 111 150 202 247 297 345
#     4   9  19  35  54  84 120 146 188 242 288 339
#     4   9  19  35  55  84 117 149 187 242 289 344
#     4  10  23  38  56  87 121 157 195 234 288 354
#     4  10  21  37  56  84 117 152 194 235 287 355
#
# _framework density 22.114574000000001
#
# number of rings (size 3 to 8) (size 9 to 14) (size 15 to 20)
#    0.000    2.400    0.000    1.800    5.600    6.800 
#    0.000    0.000    0.000    3.000    0.000    0.000 
#    0.000    0.000    0.000    0.000    0.000    0.000 
#
# Total GULP energy -222702.898729 kJ/mol
# GULP energy per Si atom -5567.572468 kJ/mol
# Density = 2.206424 g / cm^3
# Si number density = 22.114574 Si / 1000 Ang^3
#
#
#
# Elastic Constant Matrix: (Units=GPa)
#
#
# Indices 1 2 3 4 5 6 
#
# 1 166.5122 68.5426 31.0704 0.0000 0.0000 0.0000
# 2 68.5426 114.6816 -2.4884 0.0000 0.0000 0.0000
# 3 31.0704 -2.4884 44.8753 0.0000 0.0000 0.0000
# 4 0.0000 0.0000 0.0000 6.6122 0.0000 0.0000
# 5 0.0000 0.0000 0.0000 0.0000 16.8656 0.0000
# 6 0.0000 0.0000 0.0000 0.0000 0.0000 340.6527
#
#
#
# Elastic Compliance Matrix: (Units=1/GPa)
#
#
# Indices 1 2 3 4 5 6 
#
# 1 0.009814 -0.006020 -0.007129 0.000000 0.000000 0.000000
# 2 -0.006020 0.012423 0.004857 0.000000 0.000000 0.000000
# 3 -0.007129 0.004857 0.027489 0.000000 0.000000 0.000000
# 4 0.000000 0.000000 0.000000 0.151235 0.000000 0.000000
# 5 0.000000 0.000000 0.000000 0.000000 0.059292 0.000000
# 6 0.000000 0.000000 0.000000 0.000000 0.000000 0.002936
#
#
# Mechanical properties :
#
#
# Convention : Reuss Voigt Hill
#
# Bulk Modulus (GPa) = 30.17260 57.81313 43.99287
# Shear Modulus (GPa) = 17.19273 88.08908 52.64091
#
# Velocity S-wave (km/s) = 2.79128 6.31819 4.88420
# Velocity P-wave (km/s) = 4.90528 8.91209 7.19330
#
# Compressibility (1/GPa) = 0.03314265
#
# Stress axis : x y z
#
# Youngs Moduli (GPa) = 101.89647 80.49377 36.37819
#
# Poissons Ratio (x) = 0.48459 0.25933
# Poissons Ratio (y) = 0.61344 -0.17669
# Poissons Ratio (z) = 0.72639 -0.39097
#
# Static dielectric constant tensor:
#      x y z
#    x 1.840460 0.000000 0.000000 
#    y 0.000000 1.921220 0.000000 
#    z 0.000000 0.000000 1.827740 
# 
# From -- ./inp_files/11582.got.cif
#   From: 2010.05.17/outbox.cif.g08.bks.cpg/sg53_6_cif.got.tgz:11582.got - 2010.06.03 12:45:16.
