data_PCOD9417607
_publ_section_title
;
Structure prediction by ZEFSAII (Michael W. Deem and Ramdas Pophale) SiO2 
 PCOD9417607
Probable space group: P M N A
;
_chemical_formula_sum "Si O2"
_cell_formula_units_Z 48
_cell_length_a 8.807051
_cell_length_b 12.918715
_cell_length_c 24.208668
_cell_angle_alpha 90.000000
_cell_angle_beta 90.000000
_cell_angle_gamma 90.000000
_cell_volume 2754.360129
_symmetry_space_group_name_H-M "P M N A"
_symmetry_group_IT_number 53
_symmetry_cell_setting 'orthorhombic'
loop_
_space_group_symop_operation_xyz
x,y,z
1/2-x,-y,1/2+z
x,-y,-z
1/2-x,y,1/2-z
-x,-y,-z
1/2+x,y,1/2-z
-x,y,z
1/2+x,-y,1/2+z
loop_
_atom_site_type_symbol
_atom_site_label
_atom_site_fract_x
_atom_site_fract_y
_atom_site_fract_z
Si Si1 0.682180 0.376850 0.809983
Si Si2 0.182603 0.615556 0.690517
Si Si3 0.181502 0.198242 0.882560
Si Si4 0.816530 0.807731 0.617910
Si Si5 0.818172 0.004745 0.188879
Si Si6 0.817107 0.121739 0.503503
O O1 0.750000 0.348581 0.750000
O O2 0.500000 0.370491 0.807574
O O3 0.726534 0.496592 0.820980
O O4 0.745129 0.299627 0.855788
O O5 0.250000 0.645506 0.750000
O O6 0.228712 0.697793 0.644107
O O7 0.000000 0.618163 0.694689
O O8 0.241241 0.173508 0.943590
O O9 0.000000 0.208127 0.882890
O O10 0.222222 0.100107 0.843885
O O11 0.746293 0.898665 0.654691
O O12 0.773376 0.824702 0.554209
O O13 0.000000 0.816048 0.620796
O O14 0.750000 0.003321 0.250000
O O15 0.000000 0.011907 0.192006
O O16 0.000000 0.127446 0.509472
O O17 0.776173 0.000000 0.500000
#
# Coordination Sequence:
#
# PCOD9417607 Si02
#       6
#     8   8   8   8   8   8
#     4  10  20  36  58  82 110 143 181 224 274 327
#     4   9  19  35  56  82 110 142 178 222 272 326
#     4  11  23  37  55  80 110 145 185 228 273 324
#     4  10  20  36  57  81 110 142 182 224 271 328
#     4  11  23  35  51  78 110 141 175 220 273 325
#     4  10  20  36  58  81 107 147 188 226 273 325
#
# _framework density 17.426915000000001
#
# number of rings (size 3 to 8) (size 9 to 14) (size 15 to 20)
#    0.000    1.833    1.667    2.500    0.000    7.000 
#    0.000    0.833    0.000    5.000    0.000    0.000 
#    0.000    0.000    0.000    0.000    0.000    0.000 
#
# Total GULP energy -268097.042640 kJ/mol
# GULP energy per Si atom -5585.355055 kJ/mol
# Density = 1.738725 g / cm^3
# Si number density = 17.426915 Si / 1000 Ang^3
#
#
#
# Elastic Constant Matrix: (Units=GPa)
#
#
# Indices 1 2 3 4 5 6 
#
# 1 27.2739 39.1935 50.3371 0.0000 0.0000 0.0000
# 2 39.1935 113.3866 95.7141 0.0000 0.0000 0.0000
# 3 50.3371 95.7141 182.6841 0.0000 0.0000 0.0000
# 4 0.0000 0.0000 0.0000 22.5375 0.0000 0.0000
# 5 0.0000 0.0000 0.0000 0.0000 33.2139 0.0000
# 6 0.0000 0.0000 0.0000 0.0000 0.0000 24.0000
#
#
#
# Elastic Compliance Matrix: (Units=1/GPa)
#
#
# Indices 1 2 3 4 5 6 
#
# 1 0.092550 -0.018762 -0.015671 0.000000 0.000000 0.000000
# 2 -0.018762 0.019617 -0.005108 0.000000 0.000000 0.000000
# 3 -0.015671 -0.005108 0.012468 0.000000 0.000000 0.000000
# 4 0.000000 0.000000 0.000000 0.044371 0.000000 0.000000
# 5 0.000000 0.000000 0.000000 0.000000 0.030108 0.000000
# 6 0.000000 0.000000 0.000000 0.000000 0.000000 0.041667
#
#
# Mechanical properties :
#
#
# Convention : Reuss Voigt Hill
#
# Bulk Modulus (GPa) = 21.95297 77.09266 49.52281
# Shear Modulus (GPa) = 14.92325 25.15694 20.04010
#
# Velocity S-wave (km/s) = 2.92949 3.80355 3.39477
# Velocity P-wave (km/s) = 4.90582 7.97641 6.62156
#
# Compressibility (1/GPa) = 0.04555193
#
# Stress axis : x y z
#
# Youngs Moduli (GPa) = 10.80493 50.97698 80.20371
#
# Poissons Ratio (x) = 0.95645 1.25689
# Poissons Ratio (y) = 0.20273 0.40968
# Poissons Ratio (z) = 0.16933 0.26039
#
# Static dielectric constant tensor:
#      x y z
#    x 1.585660 0.000000 0.000000 
#    y 0.000000 1.586150 0.000000 
#    z 0.000000 0.000000 1.559400 
# 
# From -- ./inp_files/33863.got.cif
#   From: 2010.05.17/outbox.cif.g08.bks.cpg/sg53_17_cif.got.tgz:33863.got - 2010.06.03 12:45:16.
