data_PCOD9417881
_publ_section_title
;
Structure prediction by ZEFSAII (Michael W. Deem and Ramdas Pophale) SiO2 
 PCOD9417881
Probable space group: P M N A
;
_chemical_formula_sum "Si O2"
_cell_formula_units_Z 24
_cell_length_a 13.538931
_cell_length_b 4.919519
_cell_length_c 13.825553
_cell_angle_alpha 90.000000
_cell_angle_beta 90.000000
_cell_angle_gamma 90.000000
_cell_volume 920.851349
_symmetry_space_group_name_H-M "P M N A"
_symmetry_group_IT_number 53
_symmetry_cell_setting 'orthorhombic'
loop_
_space_group_symop_operation_xyz
x,y,z
1/2-x,-y,1/2+z
x,-y,-z
1/2-x,y,1/2-z
-x,-y,-z
1/2+x,y,1/2-z
-x,y,z
1/2+x,-y,1/2+z
loop_
_atom_site_type_symbol
_atom_site_label
_atom_site_fract_x
_atom_site_fract_y
_atom_site_fract_z
Si Si1 0.637778 0.144599 0.282383
Si Si2 0.831769 0.637551 0.101707
Si Si3 0.893401 0.187888 0.595304
O O1 0.750000 0.156271 0.250000
O O2 0.632001 0.939399 0.373401
O O3 0.595958 0.007813 0.187443
O O4 0.617554 0.446233 0.317852
O O5 0.710318 0.649034 0.107334
O O6 0.855307 0.500000 0.000000
O O7 0.000000 0.336839 0.588401
O O8 0.881213 0.000000 0.500000
#
# Coordination Sequence:
#
# PCOD9417881 Si02
#       3
#     8   8   8
#     4  10  20  37  59  85 119 159 203 243 291 360
#     4  11  21  38  62  88 117 158 207 248 292 355
#     4  10  22  39  62  95 130 159 195 253 319 369
#
# _framework density 26.062836999999998
#
# number of rings (size 3 to 8) (size 9 to 14) (size 15 to 20)
#    0.000    1.667    0.000    8.000    0.000    0.667 
#    0.000   18.333    0.000    6.000    0.000    0.000 
#    0.000    1.333    0.000    0.000    0.000    0.000 
#
# Total GULP energy -134085.750121 kJ/mol
# GULP energy per Si atom -5586.906255 kJ/mol
# Density = 2.600352 g / cm^3
# Si number density = 26.062837 Si / 1000 Ang^3
#
#
#
# Elastic Constant Matrix: (Units=GPa)
#
#
# Indices 1 2 3 4 5 6 
#
# 1 107.6425 8.8391 18.4179 0.0000 0.0000 0.0000
# 2 8.8391 118.2922 31.5654 0.0000 0.0000 0.0000
# 3 18.4179 31.5654 142.8501 0.0000 0.0000 0.0000
# 4 0.0000 0.0000 0.0000 58.1154 0.0000 0.0000
# 5 0.0000 0.0000 0.0000 0.0000 -62.0407 0.0000
# 6 0.0000 0.0000 0.0000 0.0000 0.0000 -134.7702
#
#
#
# Elastic Compliance Matrix: (Units=1/GPa)
#
#
# Indices 1 2 3 4 5 6 
#
# 1 0.009518 -0.000408 -0.001137 0.000000 0.000000 0.000000
# 2 -0.000408 0.009001 -0.001936 0.000000 0.000000 0.000000
# 3 -0.001137 -0.001936 0.007575 0.000000 0.000000 0.000000
# 4 0.000000 0.000000 0.000000 0.017207 0.000000 0.000000
# 5 0.000000 0.000000 0.000000 0.000000 -0.016118 0.000000
# 6 0.000000 0.000000 0.000000 0.000000 0.000000 -0.007420
#
#
# Mechanical properties :
#
#
# Convention : Reuss Voigt Hill
#
# Bulk Modulus (GPa) = 52.27034 54.04773 53.15903
# Shear Modulus (GPa) = 151.04924 -7.07493 71.98715
#
# Velocity S-wave (km/s) = 7.62113 -1.64938 5.26123
# Velocity P-wave (km/s) = 9.87629 4.14188 7.57286
#
# Compressibility (1/GPa) = 0.01913131
#
# Stress axis : x y z
#
# Youngs Moduli (GPa) = 105.06349 111.10111 132.01646
#
# Poissons Ratio (x) = 0.04531 0.15011
# Poissons Ratio (y) = 0.04284 0.25563
# Poissons Ratio (z) = 0.11946 0.21513
#
# Static dielectric constant tensor:
#      x y z
#    x 2.326410 0.000000 0.000000 
#    y 0.000000 1.995490 0.000000 
#    z 0.000000 0.000000 2.026940 
# 
# From -- ./inp_files/21990.got.cif
#   From: 2010.05.17/outbox.cif.g08.bks.cpg/sg53_11_cif.got.tgz:21990.got - 2010.06.03 12:45:16.
