data_PCOD9417257
_publ_section_title
;
Structure prediction by ZEFSAII (Michael W. Deem and Ramdas Pophale) SiO2 
 PCOD9417257
Probable space group: P M N A
;
_chemical_formula_sum "Si O2"
_cell_formula_units_Z 64
_cell_length_a 9.319657
_cell_length_b 17.746932
_cell_length_c 20.395907
_cell_angle_alpha 90.000000
_cell_angle_beta 90.000000
_cell_angle_gamma 90.000000
_cell_volume 3373.387545
_symmetry_space_group_name_H-M "P M N A"
_symmetry_group_IT_number 53
_symmetry_cell_setting 'orthorhombic'
loop_
_space_group_symop_operation_xyz
x,y,z
1/2-x,-y,1/2+z
x,-y,-z
1/2-x,y,1/2-z
-x,-y,-z
1/2+x,y,1/2-z
-x,y,z
1/2+x,-y,1/2+z
loop_
_atom_site_type_symbol
_atom_site_label
_atom_site_fract_x
_atom_site_fract_y
_atom_site_fract_z
Si Si1 0.668358 0.018390 0.576213
Si Si2 0.838377 0.557790 0.188352
Si Si3 0.833248 0.574918 0.042772
Si Si4 0.329255 0.919834 0.817327
Si Si5 0.827254 0.704570 0.537954
Si Si6 0.660175 0.738270 0.310227
Si Si7 0.329608 0.740410 0.816570
Si Si8 0.828594 0.192222 0.943904
O O1 0.500000 0.004581 0.591391
O O2 0.696765 0.107452 0.579886
O O3 0.691089 0.000000 0.500000
O O4 0.764388 0.968115 0.623524
O O5 0.750000 0.527337 0.250000
O O6 0.776960 0.552078 0.114963
O O7 0.847654 0.648334 0.197515
O O8 0.000000 0.526687 0.188613
O O9 0.000000 0.601797 0.051725
O O10 0.836358 0.500000 0.000000
O O11 0.742731 0.637449 0.004433
O O12 0.250000 0.941871 0.750000
O O13 0.500000 0.930759 0.812024
O O14 0.302894 0.830147 0.826508
O O15 0.500000 0.730614 0.807428
O O16 0.788210 0.700565 0.615065
O O17 0.760833 0.780483 0.506323
O O18 0.750000 0.769372 0.250000
O O19 0.500000 0.769913 0.307581
O O20 0.715949 0.755929 0.382414
O O21 0.250000 0.716602 0.750000
O O22 0.500000 0.704761 0.967228
O O23 0.000000 0.200532 0.957032
#
# Coordination Sequence:
#
# PCOD9417257 Si02
#       8
#     8   8   8   8   8   8   8   8
#     4  10  21  35  52  77 108 143 185 231 280 334
#     4   9  17  32  54  79 106 139 179 216 254 308
#     4  10  21  39  61  84 113 150 188 221 269 338
#     4  10  20  36  57  78 108 146 188 234 282 337
#     4  11  22  36  57  85 114 139 178 232 281 328
#     4   9  17  30  48  71 100 132 171 215 256 305
#     4   9  20  37  57  83 109 142 185 230 279 334
#     4  10  20  35  53  75 107 145 184 225 271 329
#
# _framework density 18.972026
#
# number of rings (size 3 to 8) (size 9 to 14) (size 15 to 20)
#    0.000    2.250    1.250    1.500    0.000    4.000 
#    0.000    1.875    0.000    3.000    0.000    0.000 
#    0.000    0.000    0.000    0.000    0.000    0.000 
#
# Total GULP energy -356912.917704 kJ/mol
# GULP energy per Si atom -5576.764339 kJ/mol
# Density = 1.892885 g / cm^3
# Si number density = 18.972026 Si / 1000 Ang^3
#
#
#
# Elastic Constant Matrix: (Units=GPa)
#
#
# Indices 1 2 3 4 5 6 
#
# 1 55.2224 16.3459 60.6386 0.0000 0.0000 0.0000
# 2 16.3459 19.3466 18.5225 0.0000 0.0000 0.0000
# 3 60.6386 18.5225 153.9398 0.0000 0.0000 0.0000
# 4 0.0000 0.0000 0.0000 21.1871 0.0000 0.0000
# 5 0.0000 0.0000 0.0000 0.0000 36.9572 0.0000
# 6 0.0000 0.0000 0.0000 0.0000 0.0000 215.8406
#
#
#
# Elastic Compliance Matrix: (Units=1/GPa)
#
#
# Indices 1 2 3 4 5 6 
#
# 1 0.037662 -0.019911 -0.012440 0.000000 0.000000 0.000000
# 2 -0.019911 0.068944 -0.000453 0.000000 0.000000 0.000000
# 3 -0.012440 -0.000453 0.011451 0.000000 0.000000 0.000000
# 4 0.000000 0.000000 0.000000 0.047198 0.000000 0.000000
# 5 0.000000 0.000000 0.000000 0.000000 0.027058 0.000000
# 6 0.000000 0.000000 0.000000 0.000000 0.000000 0.004633
#
#
# Mechanical properties :
#
#
# Convention : Reuss Voigt Hill
#
# Bulk Modulus (GPa) = 19.06539 46.61361 32.83950
# Shear Modulus (GPa) = 17.85482 63.66380 40.75931
#
# Velocity S-wave (km/s) = 3.07108 5.79910 4.64010
# Velocity P-wave (km/s) = 4.75883 8.33441 6.78634
#
# Compressibility (1/GPa) = 0.05245107
#
# Stress axis : x y z
#
# Youngs Moduli (GPa) = 26.55192 14.50446 87.33114
#
# Poissons Ratio (x) = 0.28879 1.08638
# Poissons Ratio (y) = 0.52867 0.03952
# Poissons Ratio (z) = 0.33030 0.00656
#
# Static dielectric constant tensor:
#      x y z
#    x 1.654770 0.000000 0.000000 
#    y 0.000000 1.679280 0.000000 
#    z 0.000000 0.000000 1.670090 
# 
# From -- ./inp_files/27010.got.cif
#   From: 2010.05.17/outbox.cif.g08.bks.cpg/sg53_14_cif.got.tgz:27010.got - 2010.06.03 12:45:16.
