data_PCOD9417831
_publ_section_title
;
Structure prediction by ZEFSAII (Michael W. Deem and Ramdas Pophale) SiO2 
 PCOD9417831
Probable space group: P M N A
;
_chemical_formula_sum "Si O2"
_cell_formula_units_Z 64
_cell_length_a 20.209204
_cell_length_b 18.336019
_cell_length_c 9.877027
_cell_angle_alpha 90.000000
_cell_angle_beta 90.000000
_cell_angle_gamma 90.000000
_cell_volume 3659.995059
_symmetry_space_group_name_H-M "P M N A"
_symmetry_group_IT_number 53
_symmetry_cell_setting 'orthorhombic'
loop_
_space_group_symop_operation_xyz
x,y,z
1/2-x,-y,1/2+z
x,-y,-z
1/2-x,y,1/2-z
-x,-y,-z
1/2+x,y,1/2-z
-x,y,z
1/2+x,-y,1/2+z
loop_
_atom_site_type_symbol
_atom_site_label
_atom_site_fract_x
_atom_site_fract_y
_atom_site_fract_z
Si Si1 0.667795 0.572302 0.410211
Si Si2 0.814604 0.089540 0.340458
Si Si3 0.685478 0.083561 0.840311
Si Si4 0.575680 0.811166 0.276714
Si Si5 0.426475 0.694615 0.041949
Si Si6 0.676202 0.428949 0.909244
Si Si7 0.576199 0.206729 0.221698
Si Si8 0.921025 0.293561 0.013497
O O1 0.655085 0.500000 0.500000
O O2 0.746044 0.590337 0.422485
O O3 0.658694 0.558598 0.249295
O O4 0.622341 0.638526 0.462737
O O5 0.750000 0.105195 0.250000
O O6 0.804042 0.103056 0.501349
O O7 0.874279 0.139105 0.286314
O O8 0.828211 0.002972 0.329721
O O9 0.750000 0.099320 0.750000
O O10 0.625201 0.129137 0.779445
O O11 0.500000 0.837962 0.276666
O O12 0.592644 0.777825 0.422101
O O13 0.578705 0.741039 0.178740
O O14 0.500000 0.660768 0.036092
O O15 0.421338 0.752248 0.921286
O O16 0.369580 0.635583 0.037824
O O17 0.664967 0.500000 0.000000
O O18 0.500000 0.183627 0.247278
O O19 0.593374 0.266996 0.334801
O O20 0.000000 0.309886 0.000775
#
# Coordination Sequence:
#
# PCOD9417831 Si02
#       8
#     8   8   8   8   8   8   8   8
#     4  10  22  39  57  80 113 149 184 226 278 337
#     4  10  22  39  57  84 117 151 189 233 283 338
#     4  10  22  38  59  84 115 151 190 234 282 338
#     4  10  20  37  60  85 111 146 191 236 280 333
#     4  10  20  37  58  81 111 143 185 234 278 328
#     4  10  22  38  57  83 112 144 186 233 277 329
#     4  10  22  39  58  84 116 149 188 237 284 333
#     4  10  22  39  58  83 115 148 186 231 282 339
#
# _framework density 17.486362
#
# number of rings (size 3 to 8) (size 9 to 14) (size 15 to 20)
#    0.000    2.000    2.500    0.000    3.500    3.000 
#    0.000    1.250    0.000    2.250    0.000    0.000 
#    0.000    0.000    0.000    0.000    0.000    0.000 
#
# Total GULP energy -357010.788225 kJ/mol
# GULP energy per Si atom -5578.293566 kJ/mol
# Density = 1.744656 g / cm^3
# Si number density = 17.486362 Si / 1000 Ang^3
#
#
#
# Elastic Constant Matrix: (Units=GPa)
#
#
# Indices 1 2 3 4 5 6 
#
# 1 98.2325 71.7488 23.9603 0.0000 0.0000 0.0000
# 2 71.7488 66.9343 17.4187 0.0000 0.0000 0.0000
# 3 23.9603 17.4187 36.4117 0.0000 0.0000 0.0000
# 4 0.0000 0.0000 0.0000 24.4959 0.0000 0.0000
# 5 0.0000 0.0000 0.0000 0.0000 23.6679 0.0000
# 6 0.0000 0.0000 0.0000 0.0000 0.0000 58.5231
#
#
#
# Elastic Compliance Matrix: (Units=1/GPa)
#
#
# Indices 1 2 3 4 5 6 
#
# 1 0.048910 -0.050317 -0.008114 0.000000 0.000000 0.000000
# 2 -0.050317 0.068828 0.000184 0.000000 0.000000 0.000000
# 3 -0.008114 0.000184 0.032715 0.000000 0.000000 0.000000
# 4 0.000000 0.000000 0.000000 0.040823 0.000000 0.000000
# 5 0.000000 0.000000 0.000000 0.000000 0.042251 0.000000
# 6 0.000000 0.000000 0.000000 0.000000 0.000000 0.017087
#
#
# Mechanical properties :
#
#
# Convention : Reuss Voigt Hill
#
# Bulk Modulus (GPa) = 29.44650 47.53713 38.49182
# Shear Modulus (GPa) = 13.21253 27.23411 20.22332
#
# Velocity S-wave (km/s) = 2.75178 3.95073 3.40445
# Velocity P-wave (km/s) = 5.19352 6.93220 6.12487
#
# Compressibility (1/GPa) = 0.03395989
#
# Stress axis : x y z
#
# Youngs Moduli (GPa) = 20.44556 14.52895 30.56699
#
# Poissons Ratio (x) = 0.73105 0.24803
# Poissons Ratio (y) = 1.02876 -0.00563
# Poissons Ratio (z) = 0.16590 -0.00268
#
# Static dielectric constant tensor:
#      x y z
#    x 1.587530 0.000000 0.000000 
#    y 0.000000 1.556010 0.000000 
#    z 0.000000 0.000000 1.596070 
# 
# From -- ./inp_files/11213.got.cif
#   From: 2010.05.17/outbox.cif.g08.bks.cpg/sg53_6_cif.got.tgz:11213.got - 2010.06.03 12:45:16.
