data_PCOD9417555
_publ_section_title
;
Structure prediction by ZEFSAII (Michael W. Deem and Ramdas Pophale) SiO2 
 PCOD9417555
Probable space group: P M N A
;
_chemical_formula_sum "Si O2"
_cell_formula_units_Z 48
_cell_length_a 8.527908
_cell_length_b 9.330067
_cell_length_c 31.786749
_cell_angle_alpha 90.000000
_cell_angle_beta 90.000000
_cell_angle_gamma 90.000000
_cell_volume 2529.142977
_symmetry_space_group_name_H-M "P M N A"
_symmetry_group_IT_number 53
_symmetry_cell_setting 'orthorhombic'
loop_
_space_group_symop_operation_xyz
x,y,z
1/2-x,-y,1/2+z
x,-y,-z
1/2-x,y,1/2-z
-x,-y,-z
1/2+x,y,1/2-z
-x,y,z
1/2+x,-y,1/2+z
loop_
_atom_site_type_symbol
_atom_site_label
_atom_site_fract_x
_atom_site_fract_y
_atom_site_fract_z
Si Si1 0.813518 0.414102 0.623422
Si Si2 0.311095 0.913548 0.704447
Si Si3 0.188185 0.418921 0.204084
Si Si4 0.191294 0.913821 0.958706
Si Si5 0.189978 0.417027 0.042377
Si Si6 0.809861 0.908322 0.123408
O O1 0.752003 0.485563 0.666357
O O2 0.751418 0.504020 0.583693
O O3 0.752648 0.251893 0.620288
O O4 0.000000 0.415461 0.623416
O O5 0.250000 0.959887 0.750000
O O6 0.500000 0.915405 0.705179
O O7 0.262755 0.747670 0.697665
O O8 0.258277 0.013653 0.666301
O O9 0.250000 0.463512 0.250000
O O10 0.000000 0.424456 0.203986
O O11 0.241581 0.748559 0.958984
O O12 0.000000 0.912754 0.959192
O O13 0.239418 0.996800 0.916611
O O14 0.243153 0.000000 0.000000
O O15 0.000000 0.418962 0.043930
O O16 0.238183 0.500000 0.000000
O O17 0.000000 0.903212 0.123411
#
# Coordination Sequence:
#
# PCOD9417555 Si02
#       6
#     8   8   8   8   8   8
#     4  12  25  38  54  81 117 155 193 233 279 331
#     4   9  19  35  58  84 110 142 182 230 280 333
#     4  10  20  38  62  87 114 146 187 233 284 339
#     4   9  17  32  58  88 111 136 179 231 281 336
#     4  10  20  37  63  89 113 146 187 232 284 339
#     4  10  20  36  56  79 110 147 187 232 279 327
#
# _framework density 18.978759
#
# number of rings (size 3 to 8) (size 9 to 14) (size 15 to 20)
#    0.000    2.000    0.000    4.000    0.000    7.667 
#    0.000    4.167    0.000    2.000    0.000    0.000 
#    0.000    0.000    0.000    0.000    0.000    0.000 
#
# Total GULP energy -268185.177407 kJ/mol
# GULP energy per Si atom -5587.191196 kJ/mol
# Density = 1.893556 g / cm^3
# Si number density = 18.978759 Si / 1000 Ang^3
#
#
#
# Elastic Constant Matrix: (Units=GPa)
#
#
# Indices 1 2 3 4 5 6 
#
# 1 27.4503 33.9541 38.4058 0.0000 0.0000 0.0000
# 2 33.9541 186.6564 142.0952 0.0000 0.0000 0.0000
# 3 38.4058 142.0952 214.0165 0.0000 0.0000 0.0000
# 4 0.0000 0.0000 0.0000 43.0052 0.0000 0.0000
# 5 0.0000 0.0000 0.0000 0.0000 29.4438 0.0000
# 6 0.0000 0.0000 0.0000 0.0000 0.0000 29.5325
#
#
#
# Elastic Compliance Matrix: (Units=1/GPa)
#
#
# Indices 1 2 3 4 5 6 
#
# 1 0.050546 -0.004629 -0.005997 0.000000 0.000000 0.000000
# 2 -0.004629 0.011257 -0.006643 0.000000 0.000000 0.000000
# 3 -0.005997 -0.006643 0.010159 0.000000 0.000000 0.000000
# 4 0.000000 0.000000 0.000000 0.023253 0.000000 0.000000
# 5 0.000000 0.000000 0.000000 0.000000 0.033963 0.000000
# 6 0.000000 0.000000 0.000000 0.000000 0.000000 0.033861
#
#
# Mechanical properties :
#
#
# Convention : Reuss Voigt Hill
#
# Bulk Modulus (GPa) = 26.72140 95.22593 60.97367
# Shear Modulus (GPa) = 23.80359 34.64083 29.22221
#
# Velocity S-wave (km/s) = 3.54534 4.27692 3.92820
# Velocity P-wave (km/s) = 5.55603 8.64137 7.26439
#
# Compressibility (1/GPa) = 0.03742319
#
# Stress axis : x y z
#
# Youngs Moduli (GPa) = 19.78398 88.83580 98.43148
#
# Poissons Ratio (x) = 0.41126 0.59029
# Poissons Ratio (y) = 0.09159 0.65389
# Poissons Ratio (z) = 0.11864 0.59014
#
# Static dielectric constant tensor:
#      x y z
#    x 1.648000 0.000000 0.000000 
#    y 0.000000 1.635210 0.000000 
#    z 0.000000 0.000000 1.629190 
# 
# From -- ./inp_files/37780.got.cif
#   From: 2010.05.17/outbox.cif.g08.bks.cpg/sg53_19_cif.got.tgz:37780.got - 2010.06.03 12:45:16.
