data_PCOD9417472
_publ_section_title
;
Structure prediction by ZEFSAII (Michael W. Deem and Ramdas Pophale) SiO2 
 PCOD9417472
Probable space group: P M N A
;
_chemical_formula_sum "Si O2"
_cell_formula_units_Z 56
_cell_length_a 13.986460
_cell_length_b 13.469858
_cell_length_c 14.638986
_cell_angle_alpha 90.000000
_cell_angle_beta 90.000000
_cell_angle_gamma 90.000000
_cell_volume 2757.920992
_symmetry_space_group_name_H-M "P M N A"
_symmetry_group_IT_number 53
_symmetry_cell_setting 'orthorhombic'
loop_
_space_group_symop_operation_xyz
x,y,z
1/2-x,-y,1/2+z
x,-y,-z
1/2-x,y,1/2-z
-x,-y,-z
1/2+x,y,1/2-z
-x,y,z
1/2+x,-y,1/2+z
loop_
_atom_site_type_symbol
_atom_site_label
_atom_site_fract_x
_atom_site_fract_y
_atom_site_fract_z
Si Si1 0.891673 0.436475 0.227598
Si Si2 0.141746 0.121384 0.217275
Si Si3 0.197580 0.263890 0.885442
Si Si4 0.612147 0.655721 0.202519
Si Si5 0.100254 0.260447 0.375543
Si Si6 0.812130 0.703303 0.916961
Si Si7 0.392571 0.939180 0.407138
O O1 0.867116 0.540262 0.274423
O O2 0.893813 0.353507 0.306310
O O3 0.825950 0.392852 0.147047
O O4 0.000000 0.445311 0.190713
O O5 0.250000 0.110434 0.250000
O O6 0.096408 0.166064 0.308430
O O7 0.136673 0.207081 0.138711
O O8 0.108659 0.018912 0.174455
O O9 0.305117 0.301922 0.863791
O O10 0.132731 0.291064 0.798817
O O11 0.186126 0.145689 0.896566
O O12 0.156833 0.309961 0.979219
O O13 0.500000 0.665585 0.175552
O O14 0.201237 0.263753 0.425188
O O15 0.000000 0.267059 0.428282
O O16 0.500000 0.895489 0.413093
O O17 0.375420 0.000000 0.500000
#
# Coordination Sequence:
#
# PCOD9417472 Si02
#       7
#     8   8   8   8   8   8   8
#     4   9  19  37  61  85 116 153 192 239 295 357
#     4   9  18  34  58  86 119 156 194 240 294 356
#     4  11  24  39  60  87 118 157 200 256 297 361
#     4  10  24  44  61  82 117 164 203 243 301 361
#     4   9  18  33  58  88 119 152 191 239 294 360
#     4  10  20  35  58  91 120 147 194 249 300 348
#     4  11  22  37  60  88 122 156 197 248 303 360
#
# _framework density 20.305150999999999
#
# number of rings (size 3 to 8) (size 9 to 14) (size 15 to 20)
#    0.000    2.143    1.429    2.143    6.000    2.857 
#    0.000    1.429    0.000    3.000    0.000    0.000 
#    0.000    0.000    0.000    0.000    0.000    0.000 
#
# Total GULP energy -312198.217259 kJ/mol
# GULP energy per Si atom -5574.968165 kJ/mol
# Density = 2.025894 g / cm^3
# Si number density = 20.305151 Si / 1000 Ang^3
#
#
#
# Elastic Constant Matrix: (Units=GPa)
#
#
# Indices 1 2 3 4 5 6 
#
# 1 94.2897 34.4119 -7.4141 0.0000 0.0000 0.0000
# 2 34.4119 97.2913 16.4954 0.0000 0.0000 0.0000
# 3 -7.4141 16.4954 51.2312 0.0000 0.0000 0.0000
# 4 0.0000 0.0000 0.0000 18.7164 0.0000 0.0000
# 5 0.0000 0.0000 0.0000 0.0000 -5.5933 0.0000
# 6 0.0000 0.0000 0.0000 0.0000 0.0000 4.5244
#
#
#
# Elastic Compliance Matrix: (Units=1/GPa)
#
#
# Indices 1 2 3 4 5 6 
#
# 1 0.012740 -0.005097 0.003485 0.000000 0.000000 0.000000
# 2 -0.005097 0.012911 -0.004895 0.000000 0.000000 0.000000
# 3 0.003485 -0.004895 0.021600 0.000000 0.000000 0.000000
# 4 0.000000 0.000000 0.000000 0.053429 0.000000 0.000000
# 5 0.000000 0.000000 0.000000 0.000000 -0.178785 0.000000
# 6 0.000000 0.000000 0.000000 0.000000 0.000000 0.221022
#
#
# Mechanical properties :
#
#
# Convention : Reuss Voigt Hill
#
# Bulk Modulus (GPa) = 29.20829 36.64428 32.92628
# Shear Modulus (GPa) = 29.87883 16.81745 23.34814
#
# Velocity S-wave (km/s) = 3.84016 2.88103 3.39464
# Velocity P-wave (km/s) = 5.83767 5.39936 5.62279
#
# Compressibility (1/GPa) = 0.03423686
#
# Stress axis : x y z
#
# Youngs Moduli (GPa) = 78.49436 77.45305 46.29705
#
# Poissons Ratio (x) = 0.39477 -0.16133
# Poissons Ratio (y) = 0.40008 0.22661
# Poissons Ratio (z) = -0.27353 0.37911
#
# Static dielectric constant tensor:
#      x y z
#    x 1.559300 0.000000 0.000000 
#    y 0.000000 1.728340 0.000000 
#    z 0.000000 0.000000 1.699450 
# 
# From -- ./inp_files/22813.got.cif
#   From: 2010.05.17/outbox.cif.g08.bks.cpg/sg53_12_cif.got.tgz:22813.got - 2010.06.03 12:45:16.
