data_PCOD9417023
_publ_section_title
;
Structure prediction by ZEFSAII (Michael W. Deem and Ramdas Pophale) SiO2 
 PCOD9417023
Probable space group: P M N A
;
_chemical_formula_sum "Si O2"
_cell_formula_units_Z 56
_cell_length_a 7.584193
_cell_length_b 21.741128
_cell_length_c 15.881412
_cell_angle_alpha 90.000000
_cell_angle_beta 90.000000
_cell_angle_gamma 90.000000
_cell_volume 2618.668726
_symmetry_space_group_name_H-M "P M N A"
_symmetry_group_IT_number 53
_symmetry_cell_setting 'orthorhombic'
loop_
_space_group_symop_operation_xyz
x,y,z
1/2-x,-y,1/2+z
x,-y,-z
1/2-x,y,1/2-z
-x,-y,-z
1/2+x,y,1/2-z
-x,y,z
1/2+x,-y,1/2+z
loop_
_atom_site_type_symbol
_atom_site_label
_atom_site_fract_x
_atom_site_fract_y
_atom_site_fract_z
Si Si1 0.288596 0.354485 0.345715
Si Si2 0.711602 0.904458 0.841710
Si Si3 0.711120 0.618927 0.342713
Si Si4 0.785058 0.488906 0.097530
Si Si5 0.297059 0.029381 0.905593
Si Si6 0.711852 0.149939 0.983082
Si Si7 0.288400 0.709867 0.487374
O O1 0.250000 0.336675 0.250000
O O2 0.500000 0.356508 0.352647
O O3 0.222803 0.423729 0.366271
O O4 0.223198 0.309406 0.419661
O O5 0.750000 0.878467 0.750000
O O6 0.500000 0.908209 0.849714
O O7 0.783019 0.974550 0.850355
O O8 0.775959 0.866151 0.922233
O O9 0.750000 0.643116 0.250000
O O10 0.500000 0.616116 0.352230
O O11 0.777157 0.549002 0.352484
O O12 0.779006 0.662119 0.417462
O O13 0.000000 0.487141 0.100088
O O14 0.737138 0.500000 0.000000
O O15 0.500000 0.037337 0.877393
O O16 0.218907 0.097122 0.919671
O O17 0.300714 0.000000 0.000000
O O18 0.500000 0.142408 0.983486
O O19 0.749491 0.220195 0.963883
O O20 0.500000 0.703965 0.488879
#
# Coordination Sequence:
#
# PCOD9417023 Si02
#       7
#     8   8   8   8   8   8   8
#     4  10  20  34  53  76 103 136 172 212 258 309
#     4   9  17  30  50  76 102 127 160 203 250 299
#     4  10  20  35  56  78 100 131 172 216 262 310
#     4   9  15  30  56  78  98 130 170 210 259 315
#     4   7  12  27  49  69  89 118 156 193 232 280
#     4   9  18  33  53  72  95 132 171 205 245 294
#     4  10  21  36  52  73 104 141 176 210 253 308
#
# _framework density 21.384912
#
# number of rings (size 3 to 8) (size 9 to 14) (size 15 to 20)
#    0.000    2.857    1.429    2.143    0.000    2.286 
#    0.000    4.286    0.000    6.857    0.000    0.000 
#    0.000    0.000    0.000    0.000    0.000    0.000 
#
# Total GULP energy -312295.920378 kJ/mol
# GULP energy per Si atom -5576.712864 kJ/mol
# Density = 2.133624 g / cm^3
# Si number density = 21.384912 Si / 1000 Ang^3
#
#
#
# Elastic Constant Matrix: (Units=GPa)
#
#
# Indices 1 2 3 4 5 6 
#
# 1 47.6009 1.5392 -3.6489 0.0000 0.0000 0.0000
# 2 1.5392 86.6180 -6.7193 0.0000 0.0000 0.0000
# 3 -3.6489 -6.7193 57.3546 0.0000 0.0000 0.0000
# 4 0.0000 0.0000 0.0000 13.2329 0.0000 0.0000
# 5 0.0000 0.0000 0.0000 0.0000 -89.3149 0.0000
# 6 0.0000 0.0000 0.0000 0.0000 0.0000 16.7134
#
#
#
# Elastic Compliance Matrix: (Units=1/GPa)
#
#
# Indices 1 2 3 4 5 6 
#
# 1 0.021117 -0.000274 0.001311 0.000000 0.000000 0.000000
# 2 -0.000274 0.011654 0.001348 0.000000 0.000000 0.000000
# 3 0.001311 0.001348 0.017677 0.000000 0.000000 0.000000
# 4 0.000000 0.000000 0.000000 0.075569 0.000000 0.000000
# 5 0.000000 0.000000 0.000000 0.000000 -0.011196 0.000000
# 6 0.000000 0.000000 0.000000 0.000000 0.000000 0.059832
#
#
# Mechanical properties :
#
#
# Convention : Reuss Voigt Hill
#
# Bulk Modulus (GPa) = 18.10929 19.32393 18.71661
# Shear Modulus (GPa) = 26.55494 1.48644 14.02069
#
# Velocity S-wave (km/s) = 3.52768 0.83462 2.56331
# Velocity P-wave (km/s) = 5.00793 3.15985 4.18713
#
# Compressibility (1/GPa) = 0.05522027
#
# Stress axis : x y z
#
# Youngs Moduli (GPa) = 47.35433 85.80467 56.57151
#
# Poissons Ratio (x) = 0.02347 -0.07419
# Poissons Ratio (y) = 0.01295 -0.07626
# Poissons Ratio (z) = -0.06210 -0.11566
#
# Static dielectric constant tensor:
#      x y z
#    x 1.826830 0.000000 0.000000 
#    y 0.000000 1.783190 0.000000 
#    z 0.000000 0.000000 1.771380 
# 
# From -- ./inp_files/14978.got.cif
#   From: 2010.05.17/outbox.cif.g08.bks.cpg/sg53_8_cif.got.tgz:14978.got - 2010.06.03 12:45:16.
