data_PCOD9417533
_publ_section_title
;
Structure prediction by ZEFSAII (Michael W. Deem and Ramdas Pophale) SiO2 
 PCOD9417533
Probable space group: P M N A
;
_chemical_formula_sum "Si O2"
_cell_formula_units_Z 48
_cell_length_a 8.607397
_cell_length_b 9.672770
_cell_length_c 31.445778
_cell_angle_alpha 90.000000
_cell_angle_beta 90.000000
_cell_angle_gamma 90.000000
_cell_volume 2618.092820
_symmetry_space_group_name_H-M "P M N A"
_symmetry_group_IT_number 53
_symmetry_cell_setting 'orthorhombic'
loop_
_space_group_symop_operation_xyz
x,y,z
1/2-x,-y,1/2+z
x,-y,-z
1/2-x,y,1/2-z
-x,-y,-z
1/2+x,y,1/2-z
-x,y,z
1/2+x,-y,1/2+z
loop_
_atom_site_type_symbol
_atom_site_label
_atom_site_fract_x
_atom_site_fract_y
_atom_site_fract_z
Si Si1 0.812876 0.339089 0.296339
Si Si2 0.188212 0.341453 0.549846
Si Si3 0.688731 0.659668 0.952746
Si Si4 0.811437 0.149681 0.375188
Si Si5 0.684672 0.839990 0.373606
Si Si6 0.813469 0.341461 0.703369
O O1 0.750000 0.299778 0.250000
O O2 0.762212 0.237409 0.333825
O O3 0.766414 0.498477 0.305002
O O4 0.000000 0.336668 0.294946
O O5 0.233486 0.501626 0.557783
O O6 0.235003 0.308215 0.501226
O O7 0.259376 0.240761 0.584412
O O8 0.000000 0.333693 0.552476
O O9 0.500000 0.660190 0.952581
O O10 0.740758 0.767609 0.917320
O O11 0.000000 0.145623 0.375533
O O12 0.748940 0.995275 0.374033
O O13 0.500000 0.842104 0.371917
O O14 0.749377 0.757404 0.332966
O O15 0.750000 0.304424 0.750000
O O16 0.000000 0.335267 0.703535
#
# Coordination Sequence:
#
# PCOD9417533 Si02
#       6
#     8   8   8   8   8   8
#     4   9  19  35  59  85 108 135 174 220 269 320
#     4   9  17  35  61  85 106 135 177 229 278 326
#     4   8  16  33  61  87 104 131 181 232 277 327
#     4  10  20  36  55  78 108 145 183 223 269 321
#     4  12  25  37  50  77 114 152 186 219 263 320
#     4  10  20  38  62  86 109 138 177 225 273 322
#
# _framework density 18.333957999999999
#
# number of rings (size 3 to 8) (size 9 to 14) (size 15 to 20)
#    0.000    2.333    0.000    4.000    0.000    5.333 
#    0.000   10.000    0.000    0.000    0.000    0.000 
#    0.000    0.000    0.000    0.000    0.000    0.000 
#
# Total GULP energy -267979.713532 kJ/mol
# GULP energy per Si atom -5582.910699 kJ/mol
# Density = 1.829223 g / cm^3
# Si number density = 18.333958 Si / 1000 Ang^3
#
#
#
# Elastic Constant Matrix: (Units=GPa)
#
#
# Indices 1 2 3 4 5 6 
#
# 1 40.8103 41.4244 46.6635 0.0000 0.0000 0.0000
# 2 41.4244 158.1477 145.9819 0.0000 0.0000 0.0000
# 3 46.6635 145.9819 186.8376 0.0000 0.0000 0.0000
# 4 0.0000 0.0000 0.0000 -10.9806 0.0000 0.0000
# 5 0.0000 0.0000 0.0000 0.0000 28.0651 0.0000
# 6 0.0000 0.0000 0.0000 0.0000 0.0000 34.1790
#
#
#
# Elastic Compliance Matrix: (Units=1/GPa)
#
#
# Indices 1 2 3 4 5 6 
#
# 1 0.034969 -0.003938 -0.005657 0.000000 0.000000 0.000000
# 2 -0.003938 0.023126 -0.017085 0.000000 0.000000 0.000000
# 3 -0.005657 -0.017085 0.020114 0.000000 0.000000 0.000000
# 4 0.000000 0.000000 0.000000 -0.091070 0.000000 0.000000
# 5 0.000000 0.000000 0.000000 0.000000 0.035631 0.000000
# 6 0.000000 0.000000 0.000000 0.000000 0.000000 0.029258
#
#
# Mechanical properties :
#
#
# Convention : Reuss Voigt Hill
#
# Bulk Modulus (GPa) = 40.24332 94.88173 67.56252
# Shear Modulus (GPa) = 43.98658 20.36775 32.17717
#
# Velocity S-wave (km/s) = 4.90346 3.33668 4.19389
# Velocity P-wave (km/s) = 7.35231 8.16755 7.77062
#
# Compressibility (1/GPa) = 0.02484885
#
# Stress axis : x y z
#
# Youngs Moduli (GPa) = 28.59681 43.24218 49.71601
#
# Poissons Ratio (x) = 0.17028 0.28123
# Poissons Ratio (y) = 0.11261 0.84941
# Poissons Ratio (z) = 0.16177 0.73880
#
# Static dielectric constant tensor:
#      x y z
#    x 1.622010 0.000000 0.000000 
#    y 0.000000 1.604310 0.000000 
#    z 0.000000 0.000000 1.616030 
# 
# From -- ./inp_files/37682.got.cif
#   From: 2010.05.17/outbox.cif.g08.bks.cpg/sg53_19_cif.got.tgz:37682.got - 2010.06.03 12:45:16.
