data_PCOD9417234
_publ_section_title
;
Structure prediction by ZEFSAII (Michael W. Deem and Ramdas Pophale) SiO2 
 PCOD9417234
Probable space group: P M N A
;
_chemical_formula_sum "Si O2"
_cell_formula_units_Z 48
_cell_length_a 30.771040
_cell_length_b 8.727730
_cell_length_c 9.176811
_cell_angle_alpha 90.000000
_cell_angle_beta 90.000000
_cell_angle_gamma 90.000000
_cell_volume 2464.536558
_symmetry_space_group_name_H-M "P M N A"
_symmetry_group_IT_number 53
_symmetry_cell_setting 'orthorhombic'
loop_
_space_group_symop_operation_xyz
x,y,z
1/2-x,-y,1/2+z
x,-y,-z
1/2-x,y,1/2-z
-x,-y,-z
1/2+x,y,1/2-z
-x,y,z
1/2+x,-y,1/2+z
loop_
_atom_site_type_symbol
_atom_site_label
_atom_site_fract_x
_atom_site_fract_y
_atom_site_fract_z
Si Si1 0.370787 0.268421 0.200040
Si Si2 0.450456 0.330207 0.573741
Si Si3 0.183488 0.500000 0.500000
Si Si4 0.141615 0.182308 0.985002
Si Si5 0.202058 0.767561 0.291568
Si Si6 0.848973 0.000000 0.500000
Si Si7 0.950719 0.467725 0.331899
O O1 0.347391 0.248955 0.355227
O O2 0.374493 0.110180 0.111163
O O3 0.417630 0.342195 0.224987
O O4 0.345449 0.387426 0.098367
O O5 0.446889 0.500000 0.500000
O O6 0.500000 0.274532 0.544547
O O7 0.409154 0.225842 0.538907
O O8 0.446327 0.374763 0.743802
O O9 0.207167 0.610675 0.384505
O O10 0.171150 0.244476 0.851728
O O11 0.146805 0.000000 0.000000
O O12 0.250000 0.821203 0.250000
O O13 0.179777 0.890006 0.398510
O O14 0.942456 0.500000 0.500000
O O15 0.000000 0.414340 0.312498
#
# Coordination Sequence:
#
# PCOD9417234 Si02
#       7
#     8   8   4   8   8   4   8
#     4  11  21  40  64  91 130 164 219 264 320 385
#     4  10  21  38  61  92 127 168 216 267 322 377
#     4  10  24  42  65  96 120 166 203 276 320 370
#     4  12  25  40  63  98 129 176 213 264 323 392
#     4  11  26  45  68  96 129 166 217 263 333 388
#     4  10  24  42  65  88 128 172 205 262 324 400
#     4  10  20  34  59  91 125 169 218 267 318 374
#
# _framework density 19.476278000000001
#
# number of rings (size 3 to 8) (size 9 to 14) (size 15 to 20)
#    0.000    1.333    4.167    1.000    3.500    1.667 
#    0.000    3.750    0.000    0.000    0.000    0.000 
#    0.000    0.000    0.000    0.000    0.000    0.000 
#
# Total GULP energy -267766.343728 kJ/mol
# GULP energy per Si atom -5578.465494 kJ/mol
# Density = 1.943195 g / cm^3
# Si number density = 19.476278 Si / 1000 Ang^3
#
#
#
# Elastic Constant Matrix: (Units=GPa)
#
#
# Indices 1 2 3 4 5 6 
#
# 1 70.1450 7.5299 19.1701 0.0000 0.0000 0.0000
# 2 7.5299 55.1728 20.6302 0.0000 0.0000 0.0000
# 3 19.1701 20.6302 136.7265 0.0000 0.0000 0.0000
# 4 0.0000 0.0000 0.0000 28.3988 0.0000 0.0000
# 5 0.0000 0.0000 0.0000 0.0000 20.6672 0.0000
# 6 0.0000 0.0000 0.0000 0.0000 0.0000 10.4928
#
#
#
# Elastic Compliance Matrix: (Units=1/GPa)
#
#
# Indices 1 2 3 4 5 6 
#
# 1 0.014916 -0.001329 -0.001891 0.000000 0.000000 0.000000
# 2 -0.001329 0.019327 -0.002730 0.000000 0.000000 0.000000
# 3 -0.001891 -0.002730 0.007991 0.000000 0.000000 0.000000
# 4 0.000000 0.000000 0.000000 0.035213 0.000000 0.000000
# 5 0.000000 0.000000 0.000000 0.000000 0.048386 0.000000
# 6 0.000000 0.000000 0.000000 0.000000 0.000000 0.095303
#
#
# Mechanical properties :
#
#
# Convention : Reuss Voigt Hill
#
# Bulk Modulus (GPa) = 32.96550 39.63384 36.29967
# Shear Modulus (GPa) = 20.56381 26.22604 23.39492
#
# Velocity S-wave (km/s) = 3.25289 3.67354 3.46959
# Velocity P-wave (km/s) = 5.57415 6.19574 5.89314
#
# Compressibility (1/GPa) = 0.03033474
#
# Stress axis : x y z
#
# Youngs Moduli (GPa) = 67.04410 51.74115 125.14269
#
# Poissons Ratio (x) = 0.06875 0.23662
# Poissons Ratio (y) = 0.08908 0.34163
# Poissons Ratio (z) = 0.12677 0.14125
#
# Static dielectric constant tensor:
#      x y z
#    x 1.665120 0.000000 0.000000 
#    y 0.000000 1.667050 0.000000 
#    z 0.000000 0.000000 1.755560 
# 
# From -- ./inp_files/13072.got.cif
#   From: 2010.05.17/outbox.cif.g08.bks.cpg/sg53_7_cif.got.tgz:13072.got - 2010.06.03 12:45:16.
