data_PCOD9417631
_publ_section_title
;
Structure prediction by ZEFSAII (Michael W. Deem and Ramdas Pophale) SiO2 
 PCOD9417631
Probable space group: P M N A
;
_chemical_formula_sum "Si O2"
_cell_formula_units_Z 64
_cell_length_a 8.319560
_cell_length_b 24.577016
_cell_length_c 15.945200
_cell_angle_alpha 90.000000
_cell_angle_beta 90.000000
_cell_angle_gamma 90.000000
_cell_volume 3260.314394
_symmetry_space_group_name_H-M "P M N A"
_symmetry_group_IT_number 53
_symmetry_cell_setting 'orthorhombic'
loop_
_space_group_symop_operation_xyz
x,y,z
1/2-x,-y,1/2+z
x,-y,-z
1/2-x,y,1/2-z
-x,-y,-z
1/2+x,y,1/2-z
-x,y,z
1/2+x,-y,1/2+z
loop_
_atom_site_type_symbol
_atom_site_label
_atom_site_fract_x
_atom_site_fract_y
_atom_site_fract_z
Si Si1 0.807329 0.250758 0.596777
Si Si2 0.693851 0.366553 0.341192
Si Si3 0.691963 0.366707 0.658916
Si Si4 0.305628 0.062423 0.000702
Si Si5 0.305673 0.750369 0.595556
Si Si6 0.307746 0.867617 0.658237
Si Si7 0.303409 0.562564 0.499751
Si Si8 0.306101 0.866885 0.158514
O O1 0.747220 0.305104 0.641523
O O2 0.748499 0.250686 0.500857
O O3 0.750579 0.194964 0.640360
O O4 0.000000 0.250852 0.597404
O O5 0.750000 0.384629 0.250000
O O6 0.500000 0.366096 0.342425
O O7 0.750490 0.304830 0.359558
O O8 0.748228 0.405161 0.417061
O O9 0.750000 0.384876 0.750000
O O10 0.500000 0.367399 0.657668
O O11 0.750188 0.404846 0.582879
O O12 0.500000 0.062498 0.999637
O O13 0.251448 0.093727 0.083880
O O14 0.250411 0.095020 0.917952
O O15 0.250412 0.000000 0.000000
O O16 0.500000 0.750222 0.596792
O O17 0.248750 0.806051 0.638617
O O18 0.250000 0.884739 0.750000
O O19 0.500000 0.866952 0.657323
O O20 0.251464 0.500000 0.500000
O O21 0.500000 0.562924 0.499334
O O22 0.250000 0.884852 0.250000
O O23 0.500000 0.866860 0.157478
#
# Coordination Sequence:
#
# PCOD9417631 Si02
#       8
#     8   8   8   8   8   8   8   8
#     4  11  21  35  59  88 117 150 190 236 289 346
#     4  10  20  36  57  84 114 147 188 230 283 340
#     4  11  22  38  59  85 118 152 192 237 286 347
#     4  10  22  42  63  84 116 155 198 247 293 339
#     4  10  20  36  58  86 117 153 189 233 291 347
#     4  11  23  38  61  89 121 156 194 240 292 351
#     4   9  19  37  59  80 110 154 195 235 286 340
#     4  10  22  38  58  86 115 149 188 233 288 343
#
# _framework density 19.630008
#
# number of rings (size 3 to 8) (size 9 to 14) (size 15 to 20)
#    0.000    1.750    2.500    1.875    0.000    4.750 
#    0.000    1.250    0.000    2.625    0.000    0.000 
#    0.000    0.000    0.000    0.000    0.000    0.000 
#
# Total GULP energy -357627.148789 kJ/mol
# GULP energy per Si atom -5587.924200 kJ/mol
# Density = 1.958533 g / cm^3
# Si number density = 19.630008 Si / 1000 Ang^3
#
#
#
# Elastic Constant Matrix: (Units=GPa)
#
#
# Indices 1 2 3 4 5 6 
#
# 1 6.0888 20.2896 11.7883 0.0000 0.0000 0.0000
# 2 20.2896 168.2860 97.8092 0.0000 0.0000 0.0000
# 3 11.7883 97.8092 203.6140 0.0000 0.0000 0.0000
# 4 0.0000 0.0000 0.0000 4.4157 0.0000 0.0000
# 5 0.0000 0.0000 0.0000 0.0000 33.4185 0.0000
# 6 0.0000 0.0000 0.0000 0.0000 0.0000 18.6295
#
#
#
# Elastic Compliance Matrix: (Units=1/GPa)
#
#
# Indices 1 2 3 4 5 6 
#
# 1 0.274534 -0.033104 0.000008 0.000000 0.000000 0.000000
# 2 -0.033104 0.012236 -0.003961 0.000000 0.000000 0.000000
# 3 0.000008 -0.003961 0.006814 0.000000 0.000000 0.000000
# 4 0.000000 0.000000 0.000000 0.226467 0.000000 0.000000
# 5 0.000000 0.000000 0.000000 0.000000 0.029924 0.000000
# 6 0.000000 0.000000 0.000000 0.000000 0.000000 0.053678
#
#
# Mechanical properties :
#
#
# Convention : Reuss Voigt Hill
#
# Bulk Modulus (GPa) = 4.55646 70.86258 37.70952
# Shear Modulus (GPa) = 6.65847 27.83284 17.24565
#
# Velocity S-wave (km/s) = 1.84373 3.76955 2.96722
# Velocity P-wave (km/s) = 2.61891 7.42452 5.56696
#
# Compressibility (1/GPa) = 0.21946875
#
# Stress axis : x y z
#
# Youngs Moduli (GPa) = 3.64253 81.72805 146.76645
#
# Poissons Ratio (x) = 2.70554 -0.00115
# Poissons Ratio (y) = 0.12058 0.58135
# Poissons Ratio (z) = -0.00003 0.32373
#
# Static dielectric constant tensor:
#      x y z
#    x 1.687980 0.000000 0.000000 
#    y 0.000000 1.685010 0.000000 
#    z 0.000000 0.000000 1.664160 
# 
# From -- ./inp_files/20932.got.cif
#   From: 2010.05.17/outbox.cif.g08.bks.cpg/sg53_11_cif.got.tgz:20932.got - 2010.06.03 12:45:16.
