data_PCOD9417602
_publ_section_title
;
Structure prediction by ZEFSAII (Michael W. Deem and Ramdas Pophale) SiO2 
 PCOD9417602
Probable space group: P M N A
;
_chemical_formula_sum "Si O2"
_cell_formula_units_Z 48
_cell_length_a 10.202549
_cell_length_b 28.781716
_cell_length_c 8.802798
_cell_angle_alpha 90.000000
_cell_angle_beta 90.000000
_cell_angle_gamma 90.000000
_cell_volume 2584.914061
_symmetry_space_group_name_H-M "P M N A"
_symmetry_group_IT_number 53
_symmetry_cell_setting 'orthorhombic'
loop_
_space_group_symop_operation_xyz
x,y,z
1/2-x,-y,1/2+z
x,-y,-z
1/2-x,y,1/2-z
-x,-y,-z
1/2+x,y,1/2-z
-x,y,z
1/2+x,-y,1/2+z
loop_
_atom_site_type_symbol
_atom_site_label
_atom_site_fract_x
_atom_site_fract_y
_atom_site_fract_z
Si Si1 0.245825 0.895911 0.931311
Si Si2 0.843705 0.192333 0.898324
Si Si3 0.500000 0.447215 0.061056
Si Si4 0.344678 0.700338 0.395471
Si Si5 0.754055 0.610979 0.932206
Si Si6 0.000000 0.550161 0.928277
Si Si7 0.500000 0.050745 0.571075
Si Si8 0.500000 0.052939 0.936247
O O1 0.250000 0.900868 0.750000
O O2 0.216610 0.842966 0.979776
O O3 0.126522 0.923640 0.006202
O O4 0.375308 0.918427 0.003373
O O5 0.750000 0.187368 0.750000
O O6 0.837547 0.246104 0.948844
O O7 0.000000 0.182031 0.868576
O O8 0.624496 0.415995 0.015056
O O9 0.500000 0.451773 0.244733
O O10 0.500000 0.500000 0.000000
O O11 0.250000 0.697582 0.250000
O O12 0.500000 0.690881 0.365038
O O13 0.285359 0.662100 0.507659
O O14 0.750000 0.613041 0.750000
O O15 0.873799 0.578461 0.979090
O O16 0.000000 0.500000 0.000000
O O17 0.500000 0.050550 0.753503
O O18 0.500000 0.000000 0.500000
O O19 0.500000 0.000000 0.000000
#
# Coordination Sequence:
#
# PCOD9417602 Si02
#       8
#     8   8   4   8   8   4   4   4
#     4  12  25  42  65  97 130 166 213 264 314 376
#     4  10  22  42  66  93 126 166 209 258 316 377
#     4  10  22  36  55  86 117 150 199 250 300 366
#     4  10  22  40  63  92 124 160 205 254 305 367
#     4  10  21  38  59  84 118 159 198 247 307 364
#     4  10  20  36  57  80 113 156 199 246 304 362
#     4  12  24  44  67  92 129 170 215 262 316 378
#     4  12  26  44  67  96 129 172 213 260 320 376
#
# _framework density 18.569284
#
# number of rings (size 3 to 8) (size 9 to 14) (size 15 to 20)
#    0.000    1.333    1.667    4.000    2.333    2.000 
#    0.000    0.000    0.000    0.000    0.000    0.000 
#    0.000    0.000    0.000    0.000    0.000    0.000 
#
# Total GULP energy -267945.622977 kJ/mol
# GULP energy per Si atom -5582.200479 kJ/mol
# Density = 1.852702 g / cm^3
# Si number density = 18.569284 Si / 1000 Ang^3
#
#
#
# Elastic Constant Matrix: (Units=GPa)
#
#
# Indices 1 2 3 4 5 6 
#
# 1 193.2393 87.1562 61.1768 0.0000 0.0000 0.0000
# 2 87.1562 145.5100 67.3557 0.0000 0.0000 0.0000
# 3 61.1768 67.3557 108.6435 0.0000 0.0000 0.0000
# 4 0.0000 0.0000 0.0000 42.7738 0.0000 0.0000
# 5 0.0000 0.0000 0.0000 0.0000 9.1943 0.0000
# 6 0.0000 0.0000 0.0000 0.0000 0.0000 56.2076
#
#
#
# Elastic Compliance Matrix: (Units=1/GPa)
#
#
# Indices 1 2 3 4 5 6 
#
# 1 0.007384 -0.003503 -0.001986 0.000000 0.000000 0.000000
# 2 -0.003503 0.011301 -0.005033 0.000000 0.000000 0.000000
# 3 -0.001986 -0.005033 0.013443 0.000000 0.000000 0.000000
# 4 0.000000 0.000000 0.000000 0.023379 0.000000 0.000000
# 5 0.000000 0.000000 0.000000 0.000000 0.108763 0.000000
# 6 0.000000 0.000000 0.000000 0.000000 0.000000 0.017791
#
#
# Mechanical properties :
#
#
# Convention : Reuss Voigt Hill
#
# Bulk Modulus (GPa) = 90.23201 97.64112 93.93657
# Shear Modulus (GPa) = 24.17792 37.08208 30.63000
#
# Velocity S-wave (km/s) = 3.61229 4.47358 4.06581
# Velocity P-wave (km/s) = 8.12993 8.90955 8.52865
#
# Compressibility (1/GPa) = 0.01108254
#
# Stress axis : x y z
#
# Youngs Moduli (GPa) = 135.43269 88.48963 74.38768
#
# Poissons Ratio (x) = 0.31002 0.14771
# Poissons Ratio (y) = 0.47448 0.37442
# Poissons Ratio (z) = 0.26893 0.44540
#
# Static dielectric constant tensor:
#      x y z
#    x 1.622640 0.000000 0.000000 
#    y 0.000000 1.652020 0.000000 
#    z 0.000000 0.000000 1.619080 
# 
# From -- ./inp_files/6872.got.cif
#   From: 2010.05.17/outbox.cif.g08.bks.cpg/sg53_4_cif.got.tgz:6872.got - 2010.06.03 12:45:16.
