data_PCOD9417615
_publ_section_title
;
Structure prediction by ZEFSAII (Michael W. Deem and Ramdas Pophale) SiO2 
 PCOD9417615
Probable space group: P M N A
;
_chemical_formula_sum "Si O2"
_cell_formula_units_Z 64
_cell_length_a 7.506050
_cell_length_b 13.872063
_cell_length_c 25.230893
_cell_angle_alpha 90.000000
_cell_angle_beta 90.000000
_cell_angle_gamma 90.000000
_cell_volume 2627.151557
_symmetry_space_group_name_H-M "P M N A"
_symmetry_group_IT_number 53
_symmetry_cell_setting 'orthorhombic'
loop_
_space_group_symop_operation_xyz
x,y,z
1/2-x,-y,1/2+z
x,-y,-z
1/2-x,y,1/2-z
-x,-y,-z
1/2+x,y,1/2-z
-x,y,z
1/2+x,-y,1/2+z
loop_
_atom_site_type_symbol
_atom_site_label
_atom_site_fract_x
_atom_site_fract_y
_atom_site_fract_z
Si Si1 0.709218 0.362277 0.649667
Si Si2 0.781751 0.151987 0.084992
Si Si3 0.281430 0.142962 0.644967
Si Si4 0.284517 0.351769 0.969637
Si Si5 0.205486 0.623399 0.582460
Si Si6 0.712361 0.951605 0.691952
Si Si7 0.303206 0.442476 0.191255
Si Si8 0.204407 0.874429 0.028881
O O1 0.500000 0.363267 0.661838
O O2 0.777197 0.252541 0.654849
O O3 0.734539 0.391577 0.587861
O O4 0.799815 0.441932 0.685925
O O5 0.710931 0.260610 0.083652
O O6 0.000000 0.154754 0.083430
O O7 0.723209 0.104853 0.140089
O O8 0.724648 0.100423 0.029693
O O9 0.500000 0.147136 0.642958
O O10 0.225035 0.062370 0.686638
O O11 0.218835 0.105615 0.587010
O O12 0.500000 0.346184 0.971591
O O13 0.209180 0.242866 0.970724
O O14 0.221466 0.400847 0.024121
O O15 0.293703 0.591381 0.637605
O O16 0.000000 0.587508 0.581320
O O17 0.750000 0.910935 0.750000
O O18 0.500000 0.953408 0.686610
O O19 0.250000 0.414450 0.250000
O O20 0.500000 0.402021 0.185711
O O21 0.000000 0.907497 0.030964
#
# Coordination Sequence:
#
# PCOD9417615 Si02
#       8
#     8   8   8   8   8   8   8   8
#     4  10  20  36  57  82 110 141 174 217 267 316
#     4   9  18  32  54  80 105 133 170 214 262 310
#     4   8  16  32  54  77 104 134 169 212 260 309
#     4   9  16  30  53  81 109 138 171 210 258 319
#     4   9  20  37  57  79 108 142 174 212 265 319
#     4  10  21  36  51  73 103 138 178 217 254 304
#     4  11  24  41  57  77 104 139 182 225 265 313
#     4   8  14  28  50  77 104 131 166 213 264 314
#
# _framework density 24.360986
#
# number of rings (size 3 to 8) (size 9 to 14) (size 15 to 20)
#    0.000    2.750    0.000    1.875    0.000    4.000 
#    0.000   11.875    0.000    0.000    0.000   12.250 
#    0.000    0.000    0.000    0.000    0.000    0.000 
#
# Total GULP energy -357168.777040 kJ/mol
# GULP energy per Si atom -5580.762141 kJ/mol
# Density = 2.430554 g / cm^3
# Si number density = 24.360986 Si / 1000 Ang^3
#
#
#
# Elastic Constant Matrix: (Units=GPa)
#
#
# Indices 1 2 3 4 5 6 
#
# 1 72.0263 -8.4362 -8.7867 0.0000 0.0000 0.0000
# 2 -8.4362 48.1254 13.1999 0.0000 0.0000 0.0000
# 3 -8.7867 13.1999 116.6726 0.0000 0.0000 0.0000
# 4 0.0000 0.0000 0.0000 29.2911 0.0000 0.0000
# 5 0.0000 0.0000 0.0000 0.0000 21.3777 0.0000
# 6 0.0000 0.0000 0.0000 0.0000 0.0000 -4.3021
#
#
#
# Elastic Compliance Matrix: (Units=1/GPa)
#
#
# Indices 1 2 3 4 5 6 
#
# 1 0.014250 0.002274 0.000816 0.000000 0.000000 0.000000
# 2 0.002274 0.021807 -0.002296 0.000000 0.000000 0.000000
# 3 0.000816 -0.002296 0.008892 0.000000 0.000000 0.000000
# 4 0.000000 0.000000 0.000000 0.034140 0.000000 0.000000
# 5 0.000000 0.000000 0.000000 0.000000 0.046778 0.000000
# 6 0.000000 0.000000 0.000000 0.000000 0.000000 -0.232445
#
#
# Mechanical properties :
#
#
# Convention : Reuss Voigt Hill
#
# Bulk Modulus (GPa) = 21.48806 25.41981 23.45394
# Shear Modulus (GPa) = -53.96429 25.32984 -14.31723
#
# Velocity S-wave (km/s) = -4.71169 3.22805 -2.42691
# Velocity P-wave (km/s) = 4.55634 4.93467 1.33993
#
# Compressibility (1/GPa) = 0.04653746
#
# Stress axis : x y z
#
# Youngs Moduli (GPa) = 70.17683 45.85597 112.45820
#
# Poissons Ratio (x) = -0.10428 -0.09175
# Poissons Ratio (y) = -0.15959 0.25820
# Poissons Ratio (z) = -0.05725 0.10528
#
# Static dielectric constant tensor:
#      x y z
#    x 2.029190 0.000000 0.000000 
#    y 0.000000 1.946660 0.000000 
#    z 0.000000 0.000000 1.985270 
# 
# From -- ./inp_files/34198.got.cif
#   From: 2010.05.17/outbox.cif.g08.bks.cpg/sg53_18_cif.got.tgz:34198.got - 2010.06.03 12:45:16.
