data_PCOD9417558
_publ_section_title
;
Structure prediction by ZEFSAII (Michael W. Deem and Ramdas Pophale) SiO2 
 PCOD9417558
Probable space group: P M N A
;
_chemical_formula_sum "Si O2"
_cell_formula_units_Z 64
_cell_length_a 8.758575
_cell_length_b 20.574514
_cell_length_c 20.228744
_cell_angle_alpha 90.000000
_cell_angle_beta 90.000000
_cell_angle_gamma 90.000000
_cell_volume 3645.288931
_symmetry_space_group_name_H-M "P M N A"
_symmetry_group_IT_number 53
_symmetry_cell_setting 'orthorhombic'
loop_
_space_group_symop_operation_xyz
x,y,z
1/2-x,-y,1/2+z
x,-y,-z
1/2-x,y,1/2-z
-x,-y,-z
1/2+x,y,1/2-z
-x,y,z
1/2+x,-y,1/2+z
loop_
_atom_site_type_symbol
_atom_site_label
_atom_site_fract_x
_atom_site_fract_y
_atom_site_fract_z
Si Si1 0.683941 0.069014 0.322243
Si Si2 0.682282 0.574873 0.677941
Si Si3 0.183154 0.817934 0.924586
Si Si4 0.816772 0.424346 0.822468
Si Si5 0.683033 0.821713 0.421535
Si Si6 0.817254 0.072485 0.677374
Si Si7 0.816895 0.319804 0.577449
Si Si8 0.181924 0.677569 0.576632
O O1 0.750000 0.085754 0.250000
O O2 0.500000 0.063953 0.318600
O O3 0.724963 0.123857 0.375531
O O4 0.752725 0.998845 0.340359
O O5 0.750000 0.590456 0.750000
O O6 0.500000 0.579263 0.681141
O O7 0.722989 0.499705 0.662703
O O8 0.744540 0.623900 0.623423
O O9 0.260506 0.749854 0.906120
O O10 0.000000 0.809336 0.921329
O O11 0.221583 0.833132 0.001039
O O12 0.750000 0.409472 0.750000
O O13 0.746853 0.375838 0.875794
O O14 0.000000 0.418499 0.821295
O O15 0.500000 0.824433 0.414335
O O16 0.760299 0.874719 0.374930
O O17 0.743112 0.749643 0.404968
O O18 0.750000 0.087881 0.750000
O O19 0.000000 0.070650 0.680666
O O20 0.778024 0.333217 0.500560
O O21 0.000000 0.315413 0.583010
O O22 0.000000 0.674872 0.582911
#
# Coordination Sequence:
#
# PCOD9417558 Si02
#       8
#     8   8   8   8   8   8   8   8
#     4  10  20  36  56  80 108 141 179 219 264 315
#     4  10  21  37  57  80 109 142 181 224 269 320
#     4   9  20  37  57  79 108 144 181 221 267 318
#     4  10  21  37  57  81 108 142 180 223 270 320
#     4  10  20  37  58  80 107 141 180 223 267 316
#     4  11  22  37  56  80 109 141 177 220 267 318
#     4  10  21  37  56  81 111 143 179 222 268 319
#     4  10  21  36  56  81 111 144 180 222 269 318
#
# _framework density 17.556906999999999
#
# number of rings (size 3 to 8) (size 9 to 14) (size 15 to 20)
#    0.000    2.000    0.000    4.125    0.000    6.500 
#    0.000    8.750    0.000    0.000    0.000    0.000 
#    0.000    0.000    0.000    0.000    0.000    0.000 
#
# Total GULP energy -357444.878654 kJ/mol
# GULP energy per Si atom -5585.076229 kJ/mol
# Density = 1.751695 g / cm^3
# Si number density = 17.556907 Si / 1000 Ang^3
#
#
#
# Elastic Constant Matrix: (Units=GPa)
#
#
# Indices 1 2 3 4 5 6 
#
# 1 81.1097 71.3077 62.7891 0.0000 0.0000 0.0000
# 2 71.3077 154.0196 125.0526 0.0000 0.0000 0.0000
# 3 62.7891 125.0526 118.2204 0.0000 0.0000 0.0000
# 4 0.0000 0.0000 0.0000 44.2795 0.0000 0.0000
# 5 0.0000 0.0000 0.0000 0.0000 30.3039 0.0000
# 6 0.0000 0.0000 0.0000 0.0000 0.0000 31.6703
#
#
#
# Elastic Compliance Matrix: (Units=1/GPa)
#
#
# Indices 1 2 3 4 5 6 
#
# 1 0.021431 -0.004820 -0.006283 0.000000 0.000000 0.000000
# 2 -0.004820 0.047082 -0.047243 0.000000 0.000000 0.000000
# 3 -0.006283 -0.047243 0.061769 0.000000 0.000000 0.000000
# 4 0.000000 0.000000 0.000000 0.022584 0.000000 0.000000
# 5 0.000000 0.000000 0.000000 0.000000 0.032999 0.000000
# 6 0.000000 0.000000 0.000000 0.000000 0.000000 0.031575
#
#
# Mechanical properties :
#
#
# Convention : Reuss Voigt Hill
#
# Bulk Modulus (GPa) = 73.58966 96.84985 85.21976
# Shear Modulus (GPa) = 14.76389 27.53076 21.14733
#
# Velocity S-wave (km/s) = 2.90300 3.96420 3.47436
# Velocity P-wave (km/s) = 7.29675 8.73134 8.04608
#
# Compressibility (1/GPa) = 0.01358886
#
# Stress axis : x y z
#
# Youngs Moduli (GPa) = 46.66133 21.23942 16.18929
#
# Poissons Ratio (x) = 0.10238 0.10172
# Poissons Ratio (y) = 0.22493 0.76483
# Poissons Ratio (z) = 0.29319 1.00341
#
# Static dielectric constant tensor:
#      x y z
#    x 1.586400 0.000000 0.000000 
#    y 0.000000 1.569160 0.000000 
#    z 0.000000 0.000000 1.575910 
# 
# From -- ./inp_files/31290.got.cif
#   From: 2010.05.17/outbox.cif.g08.bks.cpg/sg53_16_cif.got.tgz:31290.got - 2010.06.03 12:45:16.
