data_PCOD9417597
_publ_section_title
;
Structure prediction by ZEFSAII (Michael W. Deem and Ramdas Pophale) SiO2 
 PCOD9417597
Probable space group: P M N A
;
_chemical_formula_sum "Si O2"
_cell_formula_units_Z 40
_cell_length_a 8.535564
_cell_length_b 26.623384
_cell_length_c 9.324327
_cell_angle_alpha 90.000000
_cell_angle_beta 90.000000
_cell_angle_gamma 90.000000
_cell_volume 2118.912265
_symmetry_space_group_name_H-M "P M N A"
_symmetry_group_IT_number 53
_symmetry_cell_setting 'orthorhombic'
loop_
_space_group_symop_operation_xyz
x,y,z
1/2-x,-y,1/2+z
x,-y,-z
1/2-x,y,1/2-z
-x,-y,-z
1/2+x,y,1/2-z
-x,y,z
1/2+x,-y,1/2+z
loop_
_atom_site_type_symbol
_atom_site_label
_atom_site_fract_x
_atom_site_fract_y
_atom_site_fract_z
Si Si1 0.311829 0.659890 0.587420
Si Si2 0.189318 0.147936 0.411953
Si Si3 0.310956 0.452267 0.410780
Si Si4 0.310623 0.950645 0.087846
Si Si5 0.687858 0.246173 0.911214
O O1 0.250000 0.666497 0.750000
O O2 0.500000 0.662654 0.590069
O O3 0.264779 0.603596 0.537493
O O4 0.246200 0.703066 0.486198
O O5 0.250000 0.146364 0.250000
O O6 0.240388 0.099208 0.502460
O O7 0.240395 0.198484 0.493673
O O8 0.000000 0.147758 0.407810
O O9 0.253409 0.500000 0.500000
O O10 0.250000 0.456801 0.250000
O O11 0.500000 0.453468 0.410100
O O12 0.250000 0.951121 0.250000
O O13 0.500000 0.950658 0.092213
O O14 0.259813 0.000000 0.000000
O O15 0.750000 0.241930 0.750000
O O16 0.500000 0.246200 0.908055
#
# Coordination Sequence:
#
# PCOD9417597 Si02
#       5
#     8   8   8   8   8
#     4  10  20  36  57  80 108 142 181 223 268 321
#     4  10  22  38  57  82 110 143 182 223 269 322
#     4   9  19  35  54  78 107 139 176 218 265 317
#     4  10  21  37  57  83 113 144 182 225 269 319
#     4  11  23  38  56  80 110 143 181 224 272 324
#
# _framework density 18.877610000000001
#
# number of rings (size 3 to 8) (size 9 to 14) (size 15 to 20)
#    0.000    2.000    0.000    3.000    0.000    6.400 
#    0.000    2.000    0.000    0.000    0.000    0.000 
#    0.000    0.000    0.000    0.000    0.000    0.000 
#
# Total GULP energy -223413.746004 kJ/mol
# GULP energy per Si atom -5585.343650 kJ/mol
# Density = 1.883464 g / cm^3
# Si number density = 18.877610 Si / 1000 Ang^3
#
#
#
# Elastic Constant Matrix: (Units=GPa)
#
#
# Indices 1 2 3 4 5 6 
#
# 1 22.7895 38.0885 28.1669 0.0000 0.0000 0.0000
# 2 38.0885 220.7697 128.6691 0.0000 0.0000 0.0000
# 3 28.1669 128.6691 168.9800 0.0000 0.0000 0.0000
# 4 0.0000 0.0000 0.0000 41.6782 0.0000 0.0000
# 5 0.0000 0.0000 0.0000 0.0000 38.6749 0.0000
# 6 0.0000 0.0000 0.0000 0.0000 0.0000 32.1996
#
#
#
# Elastic Compliance Matrix: (Units=1/GPa)
#
#
# Indices 1 2 3 4 5 6 
#
# 1 0.063134 -0.008556 -0.004009 0.000000 0.000000 0.000000
# 2 -0.008556 0.009303 -0.005658 0.000000 0.000000 0.000000
# 3 -0.004009 -0.005658 0.010894 0.000000 0.000000 0.000000
# 4 0.000000 0.000000 0.000000 0.023993 0.000000 0.000000
# 5 0.000000 0.000000 0.000000 0.000000 0.025857 0.000000
# 6 0.000000 0.000000 0.000000 0.000000 0.000000 0.031056
#
#
# Mechanical properties :
#
#
# Convention : Reuss Voigt Hill
#
# Bulk Modulus (GPa) = 21.32810 89.15424 55.24117
# Shear Modulus (GPa) = 23.11488 37.01819 30.06654
#
# Velocity S-wave (km/s) = 3.50302 4.43307 3.99521
# Velocity P-wave (km/s) = 5.26158 8.57513 7.11397
#
# Compressibility (1/GPa) = 0.04688650
#
# Stress axis : x y z
#
# Youngs Moduli (GPa) = 15.83934 107.49098 91.79285
#
# Poissons Ratio (x) = 0.91967 0.36799
# Poissons Ratio (y) = 0.13552 0.51933
# Poissons Ratio (z) = 0.06350 0.60815
#
# Static dielectric constant tensor:
#      x y z
#    x 1.649430 0.000000 0.000000 
#    y 0.000000 1.669470 0.000000 
#    z 0.000000 0.000000 1.596180 
# 
# From -- ./inp_files/6251.got.cif
#   From: 2010.05.17/outbox.cif.g08.bks.cpg/sg53_4_cif.got.tgz:6251.got - 2010.06.03 12:45:16.
