data_PCOD9417390
_publ_section_title
;
Structure prediction by ZEFSAII (Michael W. Deem and Ramdas Pophale) SiO2 
 PCOD9417390
Probable space group: P M N A
;
_chemical_formula_sum "Si O2"
_cell_formula_units_Z 40
_cell_length_a 18.782545
_cell_length_b 11.974777
_cell_length_c 9.975289
_cell_angle_alpha 90.000000
_cell_angle_beta 90.000000
_cell_angle_gamma 90.000000
_cell_volume 2243.609960
_symmetry_space_group_name_H-M "P M N A"
_symmetry_group_IT_number 53
_symmetry_cell_setting 'orthorhombic'
loop_
_space_group_symop_operation_xyz
x,y,z
1/2-x,-y,1/2+z
x,-y,-z
1/2-x,y,1/2-z
-x,-y,-z
1/2+x,y,1/2-z
-x,y,z
1/2+x,-y,1/2+z
loop_
_atom_site_type_symbol
_atom_site_label
_atom_site_fract_x
_atom_site_fract_y
_atom_site_fract_z
Si Si1 0.414667 0.127737 0.976024
Si Si2 0.083578 0.688636 0.692648
Si Si3 0.303660 0.511246 0.859794
Si Si4 0.667368 0.266629 0.752237
Si Si5 0.584852 0.364861 0.501215
O O1 0.500000 0.130302 0.954235
O O2 0.377047 0.185663 0.849029
O O3 0.399775 0.199199 0.110812
O O4 0.392891 0.000000 0.000000
O O5 0.129954 0.591730 0.626944
O O6 0.000000 0.665721 0.675967
O O7 0.097800 0.683050 0.851811
O O8 0.250000 0.557089 0.750000
O O9 0.328783 0.389719 0.816886
O O10 0.264297 0.500000 0.000000
O O11 0.750000 0.228404 0.750000
O O12 0.630737 0.295010 0.609234
O O13 0.598554 0.500000 0.500000
O O14 0.500000 0.353185 0.531927
#
# Coordination Sequence:
#
# PCOD9417390 Si02
#       5
#     8   8   8   8   8
#     4  10  22  43  65  83 111 156 211 259 293 334
#     4  10  21  36  58  87 115 149 194 242 294 350
#     4  11  23  35  55  86 123 159 185 234 295 368
#     4  11  23  36  57  88 124 153 192 239 298 365
#     4  10  20  35  56  86 122 154 186 233 294 361
#
# _framework density 17.828410999999999
#
# number of rings (size 3 to 8) (size 9 to 14) (size 15 to 20)
#    0.000    1.600    4.000    0.600    5.600    1.200 
#    0.000    4.000    0.000    4.800    0.000    0.000 
#    0.000    0.000    0.000    0.000    0.000    0.000 
#
# Total GULP energy -223109.600280 kJ/mol
# GULP energy per Si atom -5577.740007 kJ/mol
# Density = 1.778783 g / cm^3
# Si number density = 17.828411 Si / 1000 Ang^3
#
#
#
# Elastic Constant Matrix: (Units=GPa)
#
#
# Indices 1 2 3 4 5 6 
#
# 1 73.0728 47.6457 65.2512 0.0000 0.0000 0.0000
# 2 47.6457 98.9072 40.1019 0.0000 0.0000 0.0000
# 3 65.2512 40.1019 133.8684 0.0000 0.0000 0.0000
# 4 0.0000 0.0000 0.0000 23.7469 0.0000 0.0000
# 5 0.0000 0.0000 0.0000 0.0000 19.1542 0.0000
# 6 0.0000 0.0000 0.0000 0.0000 0.0000 516.9756
#
#
#
# Elastic Compliance Matrix: (Units=1/GPa)
#
#
# Indices 1 2 3 4 5 6 
#
# 1 0.031074 -0.010048 -0.012136 0.000000 0.000000 0.000000
# 2 -0.010048 0.014758 0.000477 0.000000 0.000000 0.000000
# 3 -0.012136 0.000477 0.013243 0.000000 0.000000 0.000000
# 4 0.000000 0.000000 0.000000 0.042111 0.000000 0.000000
# 5 0.000000 0.000000 0.000000 0.000000 0.052208 0.000000
# 6 0.000000 0.000000 0.000000 0.000000 0.000000 0.001934
#
#
# Mechanical properties :
#
#
# Convention : Reuss Voigt Hill
#
# Bulk Modulus (GPa) = 63.86049 67.98288 65.92168
# Shear Modulus (GPa) = 24.51437 122.16531 73.33984
#
# Velocity S-wave (km/s) = 3.71215 8.28683 6.42073
# Velocity P-wave (km/s) = 7.36686 11.39196 9.59290
#
# Compressibility (1/GPa) = 0.01565914
#
# Stress axis : x y z
#
# Youngs Moduli (GPa) = 32.18123 67.76179 75.51349
#
# Poissons Ratio (x) = 0.68090 0.91645
# Poissons Ratio (y) = 0.32337 -0.03602
# Poissons Ratio (z) = 0.39056 -0.03233
#
# Static dielectric constant tensor:
#      x y z
#    x 1.634350 0.000000 0.000000 
#    y 0.000000 1.571380 0.000000 
#    z 0.000000 0.000000 1.656140 
# 
# From -- ./inp_files/10753.got.cif
#   From: 2010.05.17/outbox.cif.g08.bks.cpg/sg53_6_cif.got.tgz:10753.got - 2010.06.03 12:45:16.
