data_PCOD9417251
_publ_section_title
;
Structure prediction by ZEFSAII (Michael W. Deem and Ramdas Pophale) SiO2 
 PCOD9417251
Probable space group: P M N A
;
_chemical_formula_sum "Si O2"
_cell_formula_units_Z 64
_cell_length_a 8.232388
_cell_length_b 18.087210
_cell_length_c 20.649736
_cell_angle_alpha 90.000000
_cell_angle_beta 90.000000
_cell_angle_gamma 90.000000
_cell_volume 3074.764906
_symmetry_space_group_name_H-M "P M N A"
_symmetry_group_IT_number 53
_symmetry_cell_setting 'orthorhombic'
loop_
_space_group_symop_operation_xyz
x,y,z
1/2-x,-y,1/2+z
x,-y,-z
1/2-x,y,1/2-z
-x,-y,-z
1/2+x,y,1/2-z
-x,y,z
1/2+x,-y,1/2+z
loop_
_atom_site_type_symbol
_atom_site_label
_atom_site_fract_x
_atom_site_fract_y
_atom_site_fract_z
Si Si1 0.688325 0.128836 0.495249
Si Si2 0.694085 0.616465 0.324046
Si Si3 0.695259 0.779660 0.323480
Si Si4 0.698384 0.936784 0.376571
Si Si5 0.196159 0.429650 0.542101
Si Si6 0.690023 0.748943 0.819287
Si Si7 0.193889 0.287727 0.462115
Si Si8 0.688353 0.090299 0.344983
O O1 0.500000 0.144865 0.511206
O O2 0.744678 0.069578 0.547983
O O3 0.774484 0.208164 0.494756
O O4 0.692001 0.098198 0.422916
O O5 0.750000 0.601406 0.250000
O O6 0.500000 0.617410 0.321989
O O7 0.754081 0.698918 0.345502
O O8 0.749689 0.565598 0.383197
O O9 0.750000 0.781958 0.250000
O O10 0.500000 0.779913 0.329491
O O11 0.753210 0.856437 0.352878
O O12 0.500000 0.942722 0.372459
O O13 0.757518 0.007718 0.336155
O O14 0.248079 0.500000 0.500000
O O15 0.257115 0.355483 0.505277
O O16 0.000000 0.427498 0.542381
O O17 0.750000 0.719834 0.750000
O O18 0.500000 0.735540 0.821369
O O19 0.760153 0.718208 0.887734
O O20 0.720662 0.837512 0.820268
O O21 0.000000 0.297135 0.457114
O O22 0.500000 0.095401 0.323397
#
# Coordination Sequence:
#
# PCOD9417251 Si02
#       8
#     8   8   8   8   8   8   8   8
#     4   9  16  28  48  71  94 125 168 213 256 308
#     4  10  20  36  59  85 114 149 187 223 260 311
#     4   9  18  31  46  66  94 128 167 209 250 295
#     4   9  16  27  44  67  95 127 165 211 260 308
#     4  10  21  38  60  86 117 148 176 214 268 324
#     4  10  20  35  53  72  97 132 177 225 272 322
#     4   9  19  35  54  77 105 137 173 217 269 322
#     4   9  17  29  46  68  95 128 166 211 264 316
#
# _framework density 20.814601
#
# number of rings (size 3 to 8) (size 9 to 14) (size 15 to 20)
#    0.000    2.625    0.000    1.875    0.000    4.750 
#    0.000    3.750    0.000    4.500    0.000    0.000 
#    0.000    0.000    0.000    0.000    0.000    0.000 
#
# Total GULP energy -356604.789377 kJ/mol
# GULP energy per Si atom -5571.949834 kJ/mol
# Density = 2.076723 g / cm^3
# Si number density = 20.814601 Si / 1000 Ang^3
#
#
#
# Elastic Constant Matrix: (Units=GPa)
#
#
# Indices 1 2 3 4 5 6 
#
# 1 10.8064 9.8343 8.0179 0.0000 0.0000 0.0000
# 2 9.8343 75.8090 48.6832 0.0000 0.0000 0.0000
# 3 8.0179 48.6832 103.5870 0.0000 0.0000 0.0000
# 4 0.0000 0.0000 0.0000 19.6256 0.0000 0.0000
# 5 0.0000 0.0000 0.0000 0.0000 18.3362 0.0000
# 6 0.0000 0.0000 0.0000 0.0000 0.0000 14.6321
#
#
#
# Elastic Compliance Matrix: (Units=1/GPa)
#
#
# Indices 1 2 3 4 5 6 
#
# 1 0.105367 -0.012076 -0.002480 0.000000 0.000000 0.000000
# 2 -0.012076 0.020277 -0.008595 0.000000 0.000000 0.000000
# 3 -0.002480 -0.008595 0.013885 0.000000 0.000000 0.000000
# 4 0.000000 0.000000 0.000000 0.050954 0.000000 0.000000
# 5 0.000000 0.000000 0.000000 0.000000 0.054537 0.000000
# 6 0.000000 0.000000 0.000000 0.000000 0.000000 0.068343
#
#
# Mechanical properties :
#
#
# Convention : Reuss Voigt Hill
#
# Bulk Modulus (GPa) = 10.72650 35.91926 23.32288
# Shear Modulus (GPa) = 12.79617 18.76324 15.77971
#
# Velocity S-wave (km/s) = 2.48214 3.00567 2.75636
# Velocity P-wave (km/s) = 3.65777 5.41660 4.62163
#
# Compressibility (1/GPa) = 0.09322706
#
# Stress axis : x y z
#
# Youngs Moduli (GPa) = 9.49060 49.31653 72.01946
#
# Poissons Ratio (x) = 0.59555 0.17863
# Poissons Ratio (y) = 0.11461 0.61901
# Poissons Ratio (z) = 0.02354 0.42388
#
# Static dielectric constant tensor:
#      x y z
#    x 1.735500 0.000000 0.000000 
#    y 0.000000 1.796170 0.000000 
#    z 0.000000 0.000000 1.809160 
# 
# From -- ./inp_files/31284.got.cif
#   From: 2010.05.17/outbox.cif.g08.bks.cpg/sg53_16_cif.got.tgz:31284.got - 2010.06.03 12:45:16.
