data_PCOD9417958
_publ_section_title
;
Structure prediction by ZEFSAII (Michael W. Deem and Ramdas Pophale) SiO2 
 PCOD9417958
Probable space group: P M N A
;
_chemical_formula_sum "Si O2"
_cell_formula_units_Z 64
_cell_length_a 22.476822
_cell_length_b 9.063919
_cell_length_c 15.584152
_cell_angle_alpha 90.000000
_cell_angle_beta 90.000000
_cell_angle_gamma 90.000000
_cell_volume 3174.929583
_symmetry_space_group_name_H-M "P M N A"
_symmetry_group_IT_number 53
_symmetry_cell_setting 'orthorhombic'
loop_
_space_group_symop_operation_xyz
x,y,z
1/2-x,-y,1/2+z
x,-y,-z
1/2-x,y,1/2-z
-x,-y,-z
1/2+x,y,1/2-z
-x,y,z
1/2+x,-y,1/2+z
loop_
_atom_site_type_symbol
_atom_site_label
_atom_site_fract_x
_atom_site_fract_y
_atom_site_fract_z
Si Si1 0.234899 0.146484 0.031764
Si Si2 0.346092 0.410253 0.158405
Si Si3 0.601695 0.489087 0.601446
Si Si4 0.066532 0.652485 0.265179
Si Si5 0.571359 0.011787 0.761719
Si Si6 0.737173 0.411252 0.587850
Si Si7 0.142253 0.227429 0.173073
Si Si8 0.868053 0.879720 0.573662
O O1 0.193858 0.222518 0.102406
O O2 0.296465 0.099114 0.076772
O O3 0.247358 0.246116 0.947594
O O4 0.202776 0.000000 0.000000
O O5 0.395771 0.526913 0.187640
O O6 0.287991 0.510698 0.142889
O O7 0.335193 0.297227 0.237321
O O8 0.367027 0.302514 0.079401
O O9 0.591232 0.500000 0.500000
O O10 0.565060 0.384638 0.663699
O O11 0.669878 0.434529 0.619256
O O12 0.595496 0.653725 0.637726
O O13 0.090159 0.818463 0.273235
O O14 0.000000 0.651152 0.300424
O O15 0.500000 0.005178 0.747224
O O16 0.609912 0.927035 0.690054
O O17 0.590374 0.926844 0.847906
O O18 0.739716 0.500000 0.500000
O O19 0.885555 0.000000 0.500000
#
# Coordination Sequence:
#
# PCOD9417958 Si02
#       8
#     8   8   8   8   8   8   8   8
#     4  11  23  37  62  95 132 160 192 250 306 373
#     4  10  22  38  67  87 123 164 202 251 304 366
#     4  10  20  37  62  91 120 158 197 247 307 367
#     4  10  24  42  60  86 119 158 213 261 301 357
#     4  10  24  43  60  83 121 161 207 262 303 357
#     4  11  20  38  61  90 128 154 190 244 306 363
#     4  10  21  39  62  90 124 159 207 243 307 367
#     4  10  22  39  61  92 122 158 200 244 310 368
#
# _framework density 20.157927000000001
#
# number of rings (size 3 to 8) (size 9 to 14) (size 15 to 20)
#    0.000    1.750    3.750    0.000    5.250   12.000 
#    0.000    1.250    0.000    3.750    0.000    0.000 
#    0.000    0.000    0.000    0.000    0.000    0.000 
#
# Total GULP energy -356273.798601 kJ/mol
# GULP energy per Si atom -5566.778103 kJ/mol
# Density = 2.011205 g / cm^3
# Si number density = 20.157927 Si / 1000 Ang^3
#
#
#
# Elastic Constant Matrix: (Units=GPa)
#
#
# Indices 1 2 3 4 5 6 
#
# 1 50.1863 34.8663 15.9165 0.0000 0.0000 0.0000
# 2 34.8663 129.1416 25.7470 0.0000 0.0000 0.0000
# 3 15.9165 25.7470 42.7625 0.0000 0.0000 0.0000
# 4 0.0000 0.0000 0.0000 34.6336 0.0000 0.0000
# 5 0.0000 0.0000 0.0000 0.0000 11.6715 0.0000
# 6 0.0000 0.0000 0.0000 0.0000 0.0000 28.6044
#
#
#
# Elastic Compliance Matrix: (Units=1/GPa)
#
#
# Indices 1 2 3 4 5 6 
#
# 1 0.025882 -0.005758 -0.006166 0.000000 0.000000 0.000000
# 2 -0.005758 0.010081 -0.003926 0.000000 0.000000 0.000000
# 3 -0.006166 -0.003926 0.028044 0.000000 0.000000 0.000000
# 4 0.000000 0.000000 0.000000 0.028874 0.000000 0.000000
# 5 0.000000 0.000000 0.000000 0.000000 0.085679 0.000000
# 6 0.000000 0.000000 0.000000 0.000000 0.000000 0.034960
#
#
# Mechanical properties :
#
#
# Convention : Reuss Voigt Hill
#
# Bulk Modulus (GPa) = 30.95505 41.68330 36.31918
# Shear Modulus (GPa) = 19.53205 24.68595 22.10900
#
# Velocity S-wave (km/s) = 3.11618 3.50326 3.31537
# Velocity P-wave (km/s) = 5.32325 6.08992 5.71944
#
# Compressibility (1/GPa) = 0.03230490
#
# Stress axis : x y z
#
# Youngs Moduli (GPa) = 38.63697 99.19757 35.65808
#
# Poissons Ratio (x) = 0.57121 0.21988
# Poissons Ratio (y) = 0.22248 0.14001
# Poissons Ratio (z) = 0.23825 0.38948
#
# Static dielectric constant tensor:
#      x y z
#    x 1.809850 0.000000 0.000000 
#    y 0.000000 1.813600 0.000000 
#    z 0.000000 0.000000 1.771090 
# 
# From -- ./inp_files/24745.got.cif
#   From: 2010.05.17/outbox.cif.g08.bks.cpg/sg53_13_cif.got.tgz:24745.got - 2010.06.03 12:45:16.
