data_PCOD9417367
_publ_section_title
;
Structure prediction by ZEFSAII (Michael W. Deem and Ramdas Pophale) SiO2 
 PCOD9417367
Probable space group: P M N A
;
_chemical_formula_sum "Si O2"
_cell_formula_units_Z 40
_cell_length_a 17.584677
_cell_length_b 7.740126
_cell_length_c 14.765904
_cell_angle_alpha 90.000000
_cell_angle_beta 90.000000
_cell_angle_gamma 90.000000
_cell_volume 2009.751986
_symmetry_space_group_name_H-M "P M N A"
_symmetry_group_IT_number 53
_symmetry_cell_setting 'orthorhombic'
loop_
_space_group_symop_operation_xyz
x,y,z
1/2-x,-y,1/2+z
x,-y,-z
1/2-x,y,1/2-z
-x,-y,-z
1/2+x,y,1/2-z
-x,y,z
1/2+x,-y,1/2+z
loop_
_atom_site_type_symbol
_atom_site_label
_atom_site_fract_x
_atom_site_fract_y
_atom_site_fract_z
Si Si1 0.165112 0.480021 0.095966
Si Si2 0.775649 0.802164 0.645406
Si Si3 0.415968 0.340349 0.226084
Si Si4 0.759326 0.814743 0.359296
Si Si5 0.914370 0.636959 0.418077
O O1 0.238545 0.352671 0.089267
O O2 0.117343 0.391854 0.175953
O O3 0.198313 0.668380 0.117111
O O4 0.124510 0.500000 0.000000
O O5 0.750000 0.776470 0.750000
O O6 0.865347 0.783055 0.661788
O O7 0.748348 0.986978 0.611390
O O8 0.500000 0.268661 0.235916
O O9 0.417159 0.519558 0.171742
O O10 0.750000 0.822076 0.250000
O O11 0.841501 0.757994 0.399875
O O12 0.903147 0.500000 0.500000
O O13 0.000000 0.714233 0.430692
#
# Coordination Sequence:
#
# PCOD9417367 Si02
#       5
#     8   8   8   8   8
#     4  11  21  37  57  82 117 150 188 237 279 329
#     4   9  20  35  56  85 110 145 190 232 279 331
#     4  10  20  38  58  80 116 151 188 234 280 340
#     4  11  19  35  59  83 110 148 188 230 286 336
#     4  10  20  35  56  81 111 146 182 228 283 337
#
# _framework density 19.902951999999999
#
# number of rings (size 3 to 8) (size 9 to 14) (size 15 to 20)
#    0.000    1.800    4.000    1.200    0.000    2.000 
#    0.000    0.000    0.000    3.600    0.000    5.600 
#    0.000    0.000    0.000    0.000    0.000    0.000 
#
# Total GULP energy -222770.068693 kJ/mol
# GULP energy per Si atom -5569.251717 kJ/mol
# Density = 1.985765 g / cm^3
# Si number density = 19.902952 Si / 1000 Ang^3
#
#
#
# Elastic Constant Matrix: (Units=GPa)
#
#
# Indices 1 2 3 4 5 6 
#
# 1 66.0797 -11.5744 3.9106 0.0000 0.0000 0.0000
# 2 -11.5744 70.1346 1.7910 0.0000 0.0000 0.0000
# 3 3.9106 1.7910 87.7896 0.0000 0.0000 0.0000
# 4 0.0000 0.0000 0.0000 2.9206 0.0000 0.0000
# 5 0.0000 0.0000 0.0000 0.0000 16.4672 0.0000
# 6 0.0000 0.0000 0.0000 0.0000 0.0000 11.2286
#
#
#
# Elastic Compliance Matrix: (Units=1/GPa)
#
#
# Indices 1 2 3 4 5 6 
#
# 1 0.015633 0.002599 -0.000749 0.000000 0.000000 0.000000
# 2 0.002599 0.014698 -0.000416 0.000000 0.000000 0.000000
# 3 -0.000749 -0.000416 0.011433 0.000000 0.000000 0.000000
# 4 0.000000 0.000000 0.000000 0.342397 0.000000 0.000000
# 5 0.000000 0.000000 0.000000 0.000000 0.060727 0.000000
# 6 0.000000 0.000000 0.000000 0.000000 0.000000 0.089058
#
#
# Mechanical properties :
#
#
# Convention : Reuss Voigt Hill
#
# Bulk Modulus (GPa) = 22.40573 23.58427 22.99500
# Shear Modulus (GPa) = 9.15827 21.44839 15.30333
#
# Velocity S-wave (km/s) = 2.14743 3.28632 2.77591
# Velocity P-wave (km/s) = 4.17499 5.12593 4.67471
#
# Compressibility (1/GPa) = 0.04463143
#
# Stress axis : x y z
#
# Youngs Moduli (GPa) = 63.96792 68.03728 87.46820
#
# Poissons Ratio (x) = -0.17683 0.06555
# Poissons Ratio (y) = -0.16626 0.03635
# Poissons Ratio (z) = 0.04794 0.02828
#
# Static dielectric constant tensor:
#      x y z
#    x 1.798600 0.000000 0.000000 
#    y 0.000000 1.684840 0.000000 
#    z 0.000000 0.000000 1.747530 
# 
# From -- ./inp_files/23442.got.cif
#   From: 2010.05.17/outbox.cif.g08.bks.cpg/sg53_12_cif.got.tgz:23442.got - 2010.06.03 12:45:16.
