data_PCOD9417007
_publ_section_title
;
Structure prediction by ZEFSAII (Michael W. Deem and Ramdas Pophale) SiO2 
 PCOD9417007
Probable space group: P M N A
;
_chemical_formula_sum "Si O2"
_cell_formula_units_Z 48
_cell_length_a 9.606088
_cell_length_b 8.137037
_cell_length_c 34.717341
_cell_angle_alpha 90.000000
_cell_angle_beta 90.000000
_cell_angle_gamma 90.000000
_cell_volume 2713.684205
_symmetry_space_group_name_H-M "P M N A"
_symmetry_group_IT_number 53
_symmetry_cell_setting 'orthorhombic'
loop_
_space_group_symop_operation_xyz
x,y,z
1/2-x,-y,1/2+z
x,-y,-z
1/2-x,y,1/2-z
-x,-y,-z
1/2+x,y,1/2-z
-x,y,z
1/2+x,-y,1/2+z
loop_
_atom_site_type_symbol
_atom_site_label
_atom_site_fract_x
_atom_site_fract_y
_atom_site_fract_z
Si Si1 0.165345 0.030973 0.710594
Si Si2 0.666472 0.282300 0.156645
Si Si3 0.663894 0.216050 0.419685
Si Si4 0.665741 0.594537 0.210429
Si Si5 0.653889 0.691000 0.992952
Si Si6 0.652078 0.108909 0.539441
O O1 0.250000 0.008611 0.750000
O O2 0.196602 0.882083 0.681584
O O3 0.000000 0.022657 0.718696
O O4 0.194438 0.218049 0.696276
O O5 0.500000 0.282975 0.148054
O O6 0.757787 0.273391 0.118314
O O7 0.698207 0.447368 0.180959
O O8 0.500000 0.258445 0.420220
O O9 0.744697 0.284180 0.456837
O O10 0.672301 0.018398 0.426001
O O11 0.750000 0.571795 0.250000
O O12 0.500000 0.584673 0.218282
O O13 0.500000 0.762104 0.985354
O O14 0.642136 0.500000 0.000000
O O15 0.722693 0.770635 0.030751
O O16 0.500000 0.189747 0.542947
O O17 0.646933 0.000000 0.500000
#
# Coordination Sequence:
#
# PCOD9417007 Si02
#       6
#     8   8   8   8   8   8
#     4   9  18  33  53  77 103 136 175 216 262 311
#     4  10  20  34  52  75 108 143 173 216 269 313
#     4  10  21  36  53  75 104 137 173 215 262 313
#     4   9  18  33  53  77 105 137 177 219 261 314
#     4  10  20  34  54  80 104 132 172 213 257 313
#     4   8  16  32  52  72  97 129 166 208 251 298
#
# _framework density 17.688130999999998
#
# number of rings (size 3 to 8) (size 9 to 14) (size 15 to 20)
#    0.000    2.667    0.000    2.500    0.000    6.333 
#    3.000    0.000    0.000    0.000    0.000    0.000 
#    0.000    0.000    0.000    0.000    0.000    0.000 
#
# Total GULP energy -267331.288417 kJ/mol
# GULP energy per Si atom -5569.401842 kJ/mol
# Density = 1.764787 g / cm^3
# Si number density = 17.688131 Si / 1000 Ang^3
#
#
#
# Elastic Constant Matrix: (Units=GPa)
#
#
# Indices 1 2 3 4 5 6 
#
# 1 85.0049 45.1396 41.0697 0.0000 0.0000 0.0000
# 2 45.1396 77.5433 32.9439 0.0000 0.0000 0.0000
# 3 41.0697 32.9439 60.5236 0.0000 0.0000 0.0000
# 4 0.0000 0.0000 0.0000 13.1332 0.0000 0.0000
# 5 0.0000 0.0000 0.0000 0.0000 51.5891 0.0000
# 6 0.0000 0.0000 0.0000 0.0000 0.0000 20.8495
#
#
#
# Elastic Compliance Matrix: (Units=1/GPa)
#
#
# Indices 1 2 3 4 5 6 
#
# 1 0.020650 -0.007893 -0.009716 0.000000 0.000000 0.000000
# 2 -0.007893 0.019792 -0.005417 0.000000 0.000000 0.000000
# 3 -0.009716 -0.005417 0.026064 0.000000 0.000000 0.000000
# 4 0.000000 0.000000 0.000000 0.076143 0.000000 0.000000
# 5 0.000000 0.000000 0.000000 0.000000 0.019384 0.000000
# 6 0.000000 0.000000 0.000000 0.000000 0.000000 0.047963
#
#
# Mechanical properties :
#
#
# Convention : Reuss Voigt Hill
#
# Bulk Modulus (GPa) = 48.89110 51.26424 50.07767
# Shear Modulus (GPa) = 19.02113 24.04226 21.53170
#
# Velocity S-wave (km/s) = 3.28283 3.69078 3.49276
# Velocity P-wave (km/s) = 6.48613 6.87078 6.68123
#
# Compressibility (1/GPa) = 0.02045362
#
# Stress axis : x y z
#
# Youngs Moduli (GPa) = 48.42728 50.52530 38.36669
#
# Poissons Ratio (x) = 0.39878 0.37277
# Poissons Ratio (y) = 0.38222 0.20784
# Poissons Ratio (z) = 0.47052 0.27371
#
# Static dielectric constant tensor:
#      x y z
#    x 1.631640 0.000000 0.000000 
#    y 0.000000 1.635060 0.000000 
#    z 0.000000 0.000000 1.573050 
# 
# From -- ./inp_files/37774.got.cif
#   From: 2010.05.17/outbox.cif.g08.bks.cpg/sg53_19_cif.got.tgz:37774.got - 2010.06.03 12:45:16.
