data_PCOD9417220
_publ_section_title
;
Structure prediction by ZEFSAII (Michael W. Deem and Ramdas Pophale) SiO2 
 PCOD9417220
Probable space group: P M N A
;
_chemical_formula_sum "Si O2"
_cell_formula_units_Z 48
_cell_length_a 14.911948
_cell_length_b 14.658516
_cell_length_c 9.388327
_cell_angle_alpha 90.000000
_cell_angle_beta 90.000000
_cell_angle_gamma 90.000000
_cell_volume 2052.166500
_symmetry_space_group_name_H-M "P M N A"
_symmetry_group_IT_number 53
_symmetry_cell_setting 'orthorhombic'
loop_
_space_group_symop_operation_xyz
x,y,z
1/2-x,-y,1/2+z
x,-y,-z
1/2-x,y,1/2-z
-x,-y,-z
1/2+x,y,1/2-z
-x,y,z
1/2+x,-y,1/2+z
loop_
_atom_site_type_symbol
_atom_site_label
_atom_site_fract_x
_atom_site_fract_y
_atom_site_fract_z
Si Si1 0.700544 0.627760 0.410333
Si Si2 0.827410 0.970536 0.158902
Si Si3 0.399143 0.791610 0.439851
Si Si4 0.153569 0.434494 0.206538
Si Si5 0.607253 0.161773 0.241152
Si Si6 0.102964 0.329009 0.465827
O O1 0.664554 0.723415 0.355874
O O2 0.669795 0.541547 0.317113
O O3 0.640851 0.607875 0.552144
O O4 0.806837 0.637036 0.449939
O O5 0.750000 0.925087 0.250000
O O6 0.899025 0.892665 0.125904
O O7 0.856097 0.058691 0.251497
O O8 0.797746 0.000000 0.000000
O O9 0.500000 0.756723 0.440715
O O10 0.364961 0.799877 0.603483
O O11 0.250000 0.395561 0.250000
O O12 0.094181 0.401675 0.335689
O O13 0.500000 0.155309 0.245446
O O14 0.626911 0.231863 0.112497
O O15 0.000000 0.322016 0.528858
#
# Coordination Sequence:
#
# PCOD9417220 Si02
#       6
#     8   8   8   8   8   8
#     4  10  20  34  58  85 118 155 208 255 307 371
#     4  10  22  36  60  90 122 164 210 257 323 382
#     4  10  20  35  57  87 119 156 204 260 309 370
#     4   9  19  35  53  81 115 156 197 249 300 364
#     4   9  18  33  57  87 113 147 201 260 309 368
#     4  10  20  35  60  91 121 156 204 261 320 377
#
# _framework density 23.389914999999998
#
# number of rings (size 3 to 8) (size 9 to 14) (size 15 to 20)
#    0.000    2.333    1.667    0.500    4.667    3.333 
#    0.000    8.333    0.000    7.000    0.000    0.000 
#    0.000    0.000    0.000    0.000    0.000    0.000 
#
# Total GULP energy -267294.154669 kJ/mol
# GULP energy per Si atom -5568.628222 kJ/mol
# Density = 2.333668 g / cm^3
# Si number density = 23.389915 Si / 1000 Ang^3
#
#
#
# Elastic Constant Matrix: (Units=GPa)
#
#
# Indices 1 2 3 4 5 6 
#
# 1 93.7761 23.8823 9.5693 0.0000 0.0000 0.0000
# 2 23.8823 117.4833 29.8812 0.0000 0.0000 0.0000
# 3 9.5693 29.8812 36.9775 0.0000 0.0000 0.0000
# 4 0.0000 0.0000 0.0000 8.4090 0.0000 0.0000
# 5 0.0000 0.0000 0.0000 0.0000 21.2235 0.0000
# 6 0.0000 0.0000 0.0000 0.0000 0.0000 32.3308
#
#
#
# Elastic Compliance Matrix: (Units=1/GPa)
#
#
# Indices 1 2 3 4 5 6 
#
# 1 0.011299 -0.001955 -0.001344 0.000000 0.000000 0.000000
# 2 -0.001955 0.011052 -0.008425 0.000000 0.000000 0.000000
# 3 -0.001344 -0.008425 0.034200 0.000000 0.000000 0.000000
# 4 0.000000 0.000000 0.000000 0.118920 0.000000 0.000000
# 5 0.000000 0.000000 0.000000 0.000000 0.047118 0.000000
# 6 0.000000 0.000000 0.000000 0.000000 0.000000 0.030930
#
#
# Mechanical properties :
#
#
# Convention : Reuss Voigt Hill
#
# Bulk Modulus (GPa) = 30.20980 41.65583 35.93282
# Shear Modulus (GPa) = 17.36105 24.71960 21.04033
#
# Velocity S-wave (km/s) = 2.72737 3.25445 3.00250
# Velocity P-wave (km/s) = 4.78141 5.65419 5.23602
#
# Compressibility (1/GPa) = 0.03310184
#
# Stress axis : x y z
#
# Youngs Moduli (GPa) = 88.50547 90.47998 29.24003
#
# Poissons Ratio (x) = 0.17688 0.03930
# Poissons Ratio (y) = 0.17302 0.24635
# Poissons Ratio (z) = 0.11897 0.76232
#
# Static dielectric constant tensor:
#      x y z
#    x 1.883350 0.000000 0.000000 
#    y 0.000000 1.954900 0.000000 
#    z 0.000000 0.000000 2.007120 
# 
# From -- ./inp_files/15955.got.cif
#   From: 2010.05.17/outbox.cif.g08.bks.cpg/sg53_8_cif.got.tgz:15955.got - 2010.06.03 12:45:16.
