data_PCOD9417206
_publ_section_title
;
Structure prediction by ZEFSAII (Michael W. Deem and Ramdas Pophale) SiO2 
 PCOD9417206
Probable space group: P M N A
;
_chemical_formula_sum "Si O2"
_cell_formula_units_Z 64
_cell_length_a 8.937268
_cell_length_b 20.260984
_cell_length_c 20.325398
_cell_angle_alpha 90.000000
_cell_angle_beta 90.000000
_cell_angle_gamma 90.000000
_cell_volume 3680.479247
_symmetry_space_group_name_H-M "P M N A"
_symmetry_group_IT_number 53
_symmetry_cell_setting 'orthorhombic'
loop_
_space_group_symop_operation_xyz
x,y,z
1/2-x,-y,1/2+z
x,-y,-z
1/2-x,y,1/2-z
-x,-y,-z
1/2+x,y,1/2-z
-x,y,z
1/2+x,-y,1/2+z
loop_
_atom_site_type_symbol
_atom_site_label
_atom_site_fract_x
_atom_site_fract_y
_atom_site_fract_z
Si Si1 0.178818 0.187802 0.068128
Si Si2 0.177268 0.695727 0.392712
Si Si3 0.178377 0.903302 0.679378
Si Si4 0.823485 0.673085 0.547998
Si Si5 0.320775 0.835038 0.415448
Si Si6 0.179107 0.573042 0.179816
Si Si7 0.178591 0.058780 0.679222
Si Si8 0.179519 0.465475 0.068765
O O1 0.252273 0.140542 0.121819
O O2 0.240588 0.262134 0.074664
O O3 0.000000 0.187552 0.074948
O O4 0.215500 0.164774 0.993451
O O5 0.198975 0.673826 0.468796
O O6 0.252618 0.767282 0.386834
O O7 0.253293 0.641362 0.347059
O O8 0.000000 0.699912 0.380023
O O9 0.250000 0.886457 0.750000
O O10 0.000000 0.894246 0.682238
O O11 0.208524 0.981108 0.667277
O O12 0.758233 0.604906 0.574847
O O13 0.000000 0.678271 0.560693
O O14 0.500000 0.834680 0.408682
O O15 0.250516 0.896116 0.376809
O O16 0.250000 0.557748 0.250000
O O17 0.214947 0.515620 0.127481
O O18 0.000000 0.578534 0.184325
O O19 0.250000 0.075707 0.750000
O O20 0.000000 0.068399 0.681564
O O21 0.000000 0.455589 0.066741
O O22 0.223912 0.500000 0.000000
#
# Coordination Sequence:
#
# PCOD9417206 Si02
#       8
#     8   8   8   8   8   8   8   8
#     4  10  21  37  58  84 116 150 187 233 282 335
#     4  10  20  35  55  80 110 144 183 226 275 330
#     4  10  21  38  60  84 112 147 189 234 284 340
#     4  10  20  34  57  86 113 141 182 233 277 328
#     4  10  21  36  56  83 115 150 188 232 280 331
#     4  11  23  38  56  80 113 148 184 229 277 330
#     4  10  21  37  57  81 111 148 189 234 281 337
#     4  10  20  36  59  83 109 145 186 228 277 334
#
# _framework density 17.389040999999999
#
# number of rings (size 3 to 8) (size 9 to 14) (size 15 to 20)
#    0.000    1.875    1.250    2.625    0.000    6.250 
#    0.000    5.625    0.000    1.500    0.000    0.000 
#    0.000    0.000    0.000    0.000    0.000    0.000 
#
# Total GULP energy -357488.595238 kJ/mol
# GULP energy per Si atom -5585.759301 kJ/mol
# Density = 1.734946 g / cm^3
# Si number density = 17.389041 Si / 1000 Ang^3
#
#
#
# Elastic Constant Matrix: (Units=GPa)
#
#
# Indices 1 2 3 4 5 6 
#
# 1 79.1529 73.3914 74.1211 0.0000 0.0000 0.0000
# 2 73.3914 129.3521 96.7312 0.0000 0.0000 0.0000
# 3 74.1211 96.7312 123.6758 0.0000 0.0000 0.0000
# 4 0.0000 0.0000 0.0000 24.8505 0.0000 0.0000
# 5 0.0000 0.0000 0.0000 0.0000 30.9180 0.0000
# 6 0.0000 0.0000 0.0000 0.0000 0.0000 36.0137
#
#
#
# Elastic Compliance Matrix: (Units=1/GPa)
#
#
# Indices 1 2 3 4 5 6 
#
# 1 0.033000 -0.009476 -0.012366 0.000000 0.000000 0.000000
# 2 -0.009476 0.021345 -0.011015 0.000000 0.000000 0.000000
# 3 -0.012366 -0.011015 0.024112 0.000000 0.000000 0.000000
# 4 0.000000 0.000000 0.000000 0.040241 0.000000 0.000000
# 5 0.000000 0.000000 0.000000 0.000000 0.032344 0.000000
# 6 0.000000 0.000000 0.000000 0.000000 0.000000 0.027767
#
#
# Mechanical properties :
#
#
# Convention : Reuss Voigt Hill
#
# Bulk Modulus (GPa) = 78.47833 91.18536 84.83185
# Shear Modulus (GPa) = 20.09890 24.21891 22.15890
#
# Velocity S-wave (km/s) = 3.40345 3.73603 3.57361
# Velocity P-wave (km/s) = 7.78932 8.43581 8.11900
#
# Compressibility (1/GPa) = 0.01274237
#
# Stress axis : x y z
#
# Youngs Moduli (GPa) = 30.30327 46.85007 41.47271
#
# Poissons Ratio (x) = 0.44395 0.51285
# Poissons Ratio (y) = 0.28715 0.45684
# Poissons Ratio (z) = 0.37473 0.51607
#
# Static dielectric constant tensor:
#      x y z
#    x 1.576610 0.000000 0.000000 
#    y 0.000000 1.561990 0.000000 
#    z 0.000000 0.000000 1.570460 
# 
# From -- ./inp_files/26839.got.cif
#   From: 2010.05.17/outbox.cif.g08.bks.cpg/sg53_14_cif.got.tgz:26839.got - 2010.06.03 12:45:16.
