data_PCOD9417187
_publ_section_title
;
Structure prediction by ZEFSAII (Michael W. Deem and Ramdas Pophale) SiO2 
 PCOD9417187
Probable space group: P M N A
;
_chemical_formula_sum "Si O2"
_cell_formula_units_Z 64
_cell_length_a 7.958923
_cell_length_b 13.363730
_cell_length_c 28.992962
_cell_angle_alpha 90.000000
_cell_angle_beta 90.000000
_cell_angle_gamma 90.000000
_cell_volume 3083.717476
_symmetry_space_group_name_H-M "P M N A"
_symmetry_group_IT_number 53
_symmetry_cell_setting 'orthorhombic'
loop_
_space_group_symop_operation_xyz
x,y,z
1/2-x,-y,1/2+z
x,-y,-z
1/2-x,y,1/2-z
-x,-y,-z
1/2+x,y,1/2-z
-x,y,z
1/2+x,-y,1/2+z
loop_
_atom_site_type_symbol
_atom_site_label
_atom_site_fract_x
_atom_site_fract_y
_atom_site_fract_z
Si Si1 0.796799 0.226249 0.803335
Si Si2 0.198858 0.371555 0.360309
Si Si3 0.800138 0.409722 0.864897
Si Si4 0.702993 0.961125 0.950347
Si Si5 0.297071 0.733494 0.952097
Si Si6 0.201707 0.407216 0.969436
Si Si7 0.298642 0.024497 0.647590
Si Si8 0.201123 0.822089 0.803354
O O1 0.750000 0.232171 0.750000
O O2 0.733590 0.321968 0.832212
O O3 0.000000 0.225528 0.805993
O O4 0.734894 0.122673 0.826110
O O5 0.271936 0.478404 0.346422
O O6 0.265797 0.337419 0.410688
O O7 0.233271 0.279782 0.326194
O O8 0.000000 0.384790 0.364160
O O9 0.731707 0.405674 0.917329
O O10 0.000000 0.394001 0.868240
O O11 0.500000 0.961161 0.950850
O O12 0.760814 0.846644 0.943836
O O13 0.759023 0.024932 0.906543
O O14 0.761439 0.000000 0.000000
O O15 0.500000 0.733456 0.950565
O O16 0.242074 0.691134 0.001203
O O17 0.000000 0.418033 0.966879
O O18 0.268342 0.500000 0.000000
O O19 0.500000 0.023202 0.652839
O O20 0.233868 0.920597 0.669702
O O21 0.250000 0.828707 0.750000
O O22 0.000000 0.820339 0.807115
#
# Coordination Sequence:
#
# PCOD9417187 Si02
#       8
#     8   8   8   8   8   8   8   8
#     4  10  23  43  64  87 118 155 200 253 304 354
#     4  11  22  38  60  87 120 158 198 243 297 357
#     4  10  22  40  60  86 122 159 201 254 302 355
#     4  10  22  39  58  86 124 162 196 237 293 354
#     4  10  21  36  55  82 118 155 194 240 290 347
#     4  10  20  34  56  84 113 152 197 237 289 350
#     4  10  22  40  63  91 120 154 197 245 296 353
#     4  11  23  39  62  90 118 150 192 244 301 359
#
# _framework density 20.754172000000001
#
# number of rings (size 3 to 8) (size 9 to 14) (size 15 to 20)
#    0.000    1.750    2.500    1.125    1.750    4.000 
#    0.000    1.250    0.000    0.000    0.000    0.000 
#    0.000    0.000    0.000    0.000    0.000    0.000 
#
# Total GULP energy -357625.071613 kJ/mol
# GULP energy per Si atom -5587.891744 kJ/mol
# Density = 2.070693 g / cm^3
# Si number density = 20.754172 Si / 1000 Ang^3
#
#
#
# Elastic Constant Matrix: (Units=GPa)
#
#
# Indices 1 2 3 4 5 6 
#
# 1 11.5487 0.6788 -1.5259 0.0000 0.0000 0.0000
# 2 0.6788 146.5213 89.1692 0.0000 0.0000 0.0000
# 3 -1.5259 89.1692 162.2086 0.0000 0.0000 0.0000
# 4 0.0000 0.0000 0.0000 33.0194 0.0000 0.0000
# 5 0.0000 0.0000 0.0000 0.0000 21.7737 0.0000
# 6 0.0000 0.0000 0.0000 0.0000 0.0000 14.0971
#
#
#
# Elastic Compliance Matrix: (Units=1/GPa)
#
#
# Indices 1 2 3 4 5 6 
#
# 1 0.086876 -0.001352 0.001561 0.000000 0.000000 0.000000
# 2 -0.001352 0.010277 -0.005662 0.000000 0.000000 0.000000
# 3 0.001561 -0.005662 0.009292 0.000000 0.000000 0.000000
# 4 0.000000 0.000000 0.000000 0.030285 0.000000 0.000000
# 5 0.000000 0.000000 0.000000 0.000000 0.045927 0.000000
# 6 0.000000 0.000000 0.000000 0.000000 0.000000 0.070936
#
#
# Mechanical properties :
#
#
# Convention : Reuss Voigt Hill
#
# Bulk Modulus (GPa) = 10.46712 55.21365 32.84039
# Shear Modulus (GPa) = 16.87211 29.24181 23.05696
#
# Velocity S-wave (km/s) = 2.85432 3.75768 3.33672
# Velocity P-wave (km/s) = 3.98964 6.74450 5.54101
#
# Compressibility (1/GPa) = 0.09553728
#
# Stress axis : x y z
#
# Youngs Moduli (GPa) = 11.51070 97.30358 107.61681
#
# Poissons Ratio (x) = 0.13157 -0.16794
# Poissons Ratio (y) = 0.01556 0.60935
# Poissons Ratio (z) = -0.01796 0.55096
#
# Static dielectric constant tensor:
#      x y z
#    x 1.743320 0.000000 0.000000 
#    y 0.000000 1.744360 0.000000 
#    z 0.000000 0.000000 1.719410 
# 
# From -- ./inp_files/38168.got.cif
#   From: 2010.05.17/outbox.cif.g08.bks.cpg/sg53_20_cif.got.tgz:38168.got - 2010.06.03 12:45:16.
