data_PCOD9417512
_publ_section_title
;
Structure prediction by ZEFSAII (Michael W. Deem and Ramdas Pophale) SiO2 
 PCOD9417512
Probable space group: P M N A
;
_chemical_formula_sum "Si O2"
_cell_formula_units_Z 64
_cell_length_a 27.867030
_cell_length_b 10.317949
_cell_length_c 13.022942
_cell_angle_alpha 90.000000
_cell_angle_beta 90.000000
_cell_angle_gamma 90.000000
_cell_volume 3744.494253
_symmetry_space_group_name_H-M "P M N A"
_symmetry_group_IT_number 53
_symmetry_cell_setting 'orthorhombic'
loop_
_space_group_symop_operation_xyz
x,y,z
1/2-x,-y,1/2+z
x,-y,-z
1/2-x,y,1/2-z
-x,-y,-z
1/2+x,y,1/2-z
-x,y,z
1/2+x,-y,1/2+z
loop_
_atom_site_type_symbol
_atom_site_label
_atom_site_fract_x
_atom_site_fract_y
_atom_site_fract_z
Si Si1 0.138214 0.476923 0.715048
Si Si2 0.664228 0.383896 0.568677
Si Si3 0.826391 0.869790 0.937083
Si Si4 0.212730 0.142470 0.461970
Si Si5 0.362265 0.213154 0.215222
Si Si6 0.268994 0.344918 0.861098
Si Si7 0.553125 0.378229 0.924064
Si Si8 0.443306 0.128167 0.065468
O O1 0.140590 0.399252 0.821306
O O2 0.132330 0.631223 0.728972
O O3 0.189217 0.447928 0.660093
O O4 0.095219 0.414670 0.652030
O O5 0.645686 0.500000 0.500000
O O6 0.658807 0.249998 0.509442
O O7 0.721168 0.403362 0.589126
O O8 0.768366 0.864627 0.926930
O O9 0.848867 0.851074 0.824382
O O10 0.838233 0.000000 0.000000
O O11 0.179556 0.189717 0.369107
O O12 0.211611 0.237188 0.560653
O O13 0.197931 0.000000 0.500000
O O14 0.409663 0.151636 0.163468
O O15 0.250000 0.292374 0.750000
O O16 0.500000 0.361658 0.876544
O O17 0.550585 0.500000 0.000000
O O18 0.563970 0.251194 0.990741
O O19 0.500000 0.122718 0.092199
O O20 0.431329 0.000000 0.000000
#
# Coordination Sequence:
#
# PCOD9417512 Si02
#       8
#     8   8   8   8   8   8   8   8
#     4  11  22  33  56  84 107 147 190 231 270 327
#     4  10  20  36  53  75 110 144 187 231 272 317
#     4  10  23  39  55  78 112 152 186 233 281 329
#     4  10  22  35  51  78 115 149 185 232 273 332
#     4  12  22  34  58  84 107 145 194 229 277 331
#     4   9  21  33  51  77 110 147 183 226 277 321
#     4  10  20  36  57  84 115 142 173 219 282 339
#     4  10  22  39  59  86 117 143 173 224 283 337
#
# _framework density 17.091761999999999
#
# number of rings (size 3 to 8) (size 9 to 14) (size 15 to 20)
#    0.000    1.750    2.500    1.500    3.500    6.000 
#    0.000    0.000    0.000    1.500    0.000    0.000 
#    0.000    0.000    0.000    0.000    0.000    0.000 
#
# Total GULP energy -357074.668729 kJ/mol
# GULP energy per Si atom -5579.291699 kJ/mol
# Density = 1.705286 g / cm^3
# Si number density = 17.091762 Si / 1000 Ang^3
#
#
#
# Elastic Constant Matrix: (Units=GPa)
#
#
# Indices 1 2 3 4 5 6 
#
# 1 74.4490 42.2775 66.8841 0.0000 0.0000 0.0000
# 2 42.2775 104.1486 60.4222 0.0000 0.0000 0.0000
# 3 66.8841 60.4222 132.9073 0.0000 0.0000 0.0000
# 4 0.0000 0.0000 0.0000 21.8389 0.0000 0.0000
# 5 0.0000 0.0000 0.0000 0.0000 31.2792 0.0000
# 6 0.0000 0.0000 0.0000 0.0000 0.0000 21.6275
#
#
#
# Elastic Compliance Matrix: (Units=1/GPa)
#
#
# Indices 1 2 3 4 5 6 
#
# 1 0.025672 -0.003974 -0.011112 0.000000 0.000000 0.000000
# 2 -0.003974 0.013657 -0.004209 0.000000 0.000000 0.000000
# 3 -0.011112 -0.004209 0.015030 0.000000 0.000000 0.000000
# 4 0.000000 0.000000 0.000000 0.045790 0.000000 0.000000
# 5 0.000000 0.000000 0.000000 0.000000 0.031970 0.000000
# 6 0.000000 0.000000 0.000000 0.000000 0.000000 0.046237
#
#
# Mechanical properties :
#
#
# Convention : Reuss Voigt Hill
#
# Bulk Modulus (GPa) = 63.42052 72.29692 67.85872
# Shear Modulus (GPa) = 22.50203 24.41053 23.45628
#
# Velocity S-wave (km/s) = 3.63236 3.78326 3.70858
# Velocity P-wave (km/s) = 7.40125 7.84061 7.62409
#
# Compressibility (1/GPa) = 0.01576777
#
# Stress axis : x y z
#
# Youngs Moduli (GPa) = 38.95259 73.22496 66.53562
#
# Poissons Ratio (x) = 0.29102 0.73938
# Poissons Ratio (y) = 0.15481 0.28002
# Poissons Ratio (z) = 0.43286 0.30817
#
# Static dielectric constant tensor:
#      x y z
#    x 1.587540 0.000000 0.000000 
#    y 0.000000 1.576290 0.000000 
#    z 0.000000 0.000000 1.493230 
# 
# From -- ./inp_files/19042.got.cif
#   From: 2010.05.17/outbox.cif.g08.bks.cpg/sg53_10_cif.got.tgz:19042.got - 2010.06.03 12:45:16.
