data_PCOD9417281
_publ_section_title
;
Structure prediction by ZEFSAII (Michael W. Deem and Ramdas Pophale) SiO2 
 PCOD9417281
Probable space group: P M N A
;
_chemical_formula_sum "Si O2"
_cell_formula_units_Z 48
_cell_length_a 8.510497
_cell_length_b 32.055542
_cell_length_c 9.440856
_cell_angle_alpha 90.000000
_cell_angle_beta 90.000000
_cell_angle_gamma 90.000000
_cell_volume 2575.546652
_symmetry_space_group_name_H-M "P M N A"
_symmetry_group_IT_number 53
_symmetry_cell_setting 'orthorhombic'
loop_
_space_group_symop_operation_xyz
x,y,z
1/2-x,-y,1/2+z
x,-y,-z
1/2-x,y,1/2-z
-x,-y,-z
1/2+x,y,1/2-z
-x,y,z
1/2+x,-y,1/2+z
loop_
_atom_site_type_symbol
_atom_site_label
_atom_site_fract_x
_atom_site_fract_y
_atom_site_fract_z
Si Si1 0.689606 0.131465 0.409746
Si Si2 0.688826 0.621782 0.589756
Si Si3 0.310171 0.540514 0.410743
Si Si4 0.189945 0.960654 0.909879
Si Si5 0.310914 0.210695 0.590642
Si Si6 0.312526 0.300700 0.910747
O O1 0.750000 0.135136 0.250000
O O2 0.500000 0.132189 0.408354
O O3 0.738321 0.085426 0.464191
O O4 0.743165 0.170971 0.500262
O O5 0.750000 0.618521 0.750000
O O6 0.500000 0.622655 0.592483
O O7 0.739394 0.581936 0.495750
O O8 0.750636 0.663152 0.512528
O O9 0.258451 0.500000 0.500000
O O10 0.250000 0.540034 0.250000
O O11 0.500000 0.540152 0.405984
O O12 0.250000 0.964198 0.750000
O O13 0.000000 0.961615 0.908816
O O14 0.246916 0.000000 0.000000
O O15 0.250000 0.205693 0.750000
O O16 0.500000 0.212372 0.590615
O O17 0.246491 0.255255 0.539414
O O18 0.250000 0.306956 0.750000
O O19 0.500000 0.301072 0.906404
#
# Coordination Sequence:
#
# PCOD9417281 Si02
#       6
#     8   8   8   8   8   8
#     4   9  19  34  52  74 102 136 172 213 260 313
#     4  11  23  39  59  85 116 149 188 230 275 326
#     4  10  22  39  60  87 117 150 188 229 274 325
#     4   9  18  33  51  73 102 134 170 212 258 309
#     4  10  20  35  54  78 107 138 177 221 267 319
#     4  11  22  38  59  82 110 144 183 226 274 325
#
# _framework density 18.636818999999999
#
# number of rings (size 3 to 8) (size 9 to 14) (size 15 to 20)
#    0.000    2.000    0.000    4.500    0.000    6.000 
#    0.000    1.667    0.000    0.000    0.000    0.000 
#    0.000    0.000    0.000    0.000    0.000    0.000 
#
# Total GULP energy -268007.175743 kJ/mol
# GULP energy per Si atom -5583.482828 kJ/mol
# Density = 1.859440 g / cm^3
# Si number density = 18.636819 Si / 1000 Ang^3
#
#
#
# Elastic Constant Matrix: (Units=GPa)
#
#
# Indices 1 2 3 4 5 6 
#
# 1 50.7677 43.4904 27.6727 0.0000 0.0000 0.0000
# 2 43.4904 228.8039 118.3262 0.0000 0.0000 0.0000
# 3 27.6727 118.3262 118.1849 0.0000 0.0000 0.0000
# 4 0.0000 0.0000 0.0000 43.7193 0.0000 0.0000
# 5 0.0000 0.0000 0.0000 0.0000 34.1736 0.0000
# 6 0.0000 0.0000 0.0000 0.0000 0.0000 -18.5142
#
#
#
# Elastic Compliance Matrix: (Units=1/GPa)
#
#
# Indices 1 2 3 4 5 6 
#
# 1 0.023792 -0.003404 -0.002163 0.000000 0.000000 0.000000
# 2 -0.003404 0.009550 -0.008765 0.000000 0.000000 0.000000
# 3 -0.002163 -0.008765 0.017743 0.000000 0.000000 0.000000
# 4 0.000000 0.000000 0.000000 0.022873 0.000000 0.000000
# 5 0.000000 0.000000 0.000000 0.000000 0.029262 0.000000
# 6 0.000000 0.000000 0.000000 0.000000 0.000000 -0.054013
#
#
# Mechanical properties :
#
#
# Convention : Reuss Voigt Hill
#
# Bulk Modulus (GPa) = 44.59791 86.30389 65.45090
# Shear Modulus (GPa) = 58.58548 25.76023 42.17286
#
# Velocity S-wave (km/s) = 5.61281 3.72186 4.76213
# Velocity P-wave (km/s) = 8.12322 8.05472 8.08904
#
# Compressibility (1/GPa) = 0.02242257
#
# Stress axis : x y z
#
# Youngs Moduli (GPa) = 42.03011 104.71055 56.36070
#
# Poissons Ratio (x) = 0.35641 0.12192
# Poissons Ratio (y) = 0.14306 0.49398
# Poissons Ratio (z) = 0.09092 0.91774
#
# Static dielectric constant tensor:
#      x y z
#    x 1.630490 0.000000 0.000000 
#    y 0.000000 1.664310 0.000000 
#    z 0.000000 0.000000 1.598580 
# 
# From -- ./inp_files/6638.got.cif
#   From: 2010.05.17/outbox.cif.g08.bks.cpg/sg53_4_cif.got.tgz:6638.got - 2010.06.03 12:45:16.
