data_PCOD9417449
_publ_section_title
;
Structure prediction by ZEFSAII (Michael W. Deem and Ramdas Pophale) SiO2 
 PCOD9417449
Probable space group: P M N A
;
_chemical_formula_sum "Si O2"
_cell_formula_units_Z 24
_cell_length_a 11.300358
_cell_length_b 11.032752
_cell_length_c 7.431438
_cell_angle_alpha 90.000000
_cell_angle_beta 90.000000
_cell_angle_gamma 90.000000
_cell_volume 926.507453
_symmetry_space_group_name_H-M "P M N A"
_symmetry_group_IT_number 53
_symmetry_cell_setting 'orthorhombic'
loop_
_space_group_symop_operation_xyz
x,y,z
1/2-x,-y,1/2+z
x,-y,-z
1/2-x,y,1/2-z
-x,-y,-z
1/2+x,y,1/2-z
-x,y,z
1/2+x,-y,1/2+z
loop_
_atom_site_type_symbol
_atom_site_label
_atom_site_fract_x
_atom_site_fract_y
_atom_site_fract_z
Si Si1 0.371238 0.750210 0.422932
Si Si2 0.369025 0.357837 0.967433
Si Si3 0.373466 0.010674 0.215606
O O1 0.500000 0.732711 0.510486
O O2 0.250952 0.711951 0.522913
O O3 0.374138 0.665852 0.246024
O O4 0.365049 0.885108 0.331826
O O5 0.500000 0.316969 0.036101
O O6 0.356839 0.500000 0.000000
O O7 0.250000 0.074335 0.250000
O O8 0.500000 0.062840 0.269868
O O9 0.378198 0.000000 0.000000
#
# Coordination Sequence:
#
# PCOD9417449 Si02
#       3
#     8   8   8
#     4   9  17  31  50  73 102 137 176 221 276 333
#     4   9  16  27  48  74  97 131 176 217 265 323
#     4  10  20  35  58  85 112 149 194 240 290 344
#
# _framework density 25.903731000000001
#
# number of rings (size 3 to 8) (size 9 to 14) (size 15 to 20)
#    0.000    2.667    3.333    0.000    0.000    1.333 
#    0.000    0.000    7.333    0.000    0.000    0.000 
#    0.000    0.000    0.000    0.000    0.000    0.000 
#
# Total GULP energy -133870.024287 kJ/mol
# GULP energy per Si atom -5577.917679 kJ/mol
# Density = 2.584477 g / cm^3
# Si number density = 25.903731 Si / 1000 Ang^3
#
#
#
# Elastic Constant Matrix: (Units=GPa)
#
#
# Indices 1 2 3 4 5 6 
#
# 1 409.8530 62.7842 33.0562 0.0000 0.0000 0.0000
# 2 62.7842 143.4722 55.1529 0.0000 0.0000 0.0000
# 3 33.0562 55.1529 67.8163 0.0000 0.0000 0.0000
# 4 0.0000 0.0000 0.0000 27.1937 0.0000 0.0000
# 5 0.0000 0.0000 0.0000 0.0000 2.0300 0.0000
# 6 0.0000 0.0000 0.0000 0.0000 0.0000 382.0936
#
#
#
# Elastic Compliance Matrix: (Units=1/GPa)
#
#
# Indices 1 2 3 4 5 6 
#
# 1 0.002627 -0.000956 -0.000503 0.000000 0.000000 0.000000
# 2 -0.000956 0.010488 -0.008064 0.000000 0.000000 0.000000
# 3 -0.000503 -0.008064 0.021549 0.000000 0.000000 0.000000
# 4 0.000000 0.000000 0.000000 0.036773 0.000000 0.000000
# 5 0.000000 0.000000 0.000000 0.000000 0.492606 0.000000
# 6 0.000000 0.000000 0.000000 0.000000 0.000000 0.002617
#
#
# Mechanical properties :
#
#
# Convention : Reuss Voigt Hill
#
# Bulk Modulus (GPa) = 64.02654 102.56981 83.29817
# Shear Modulus (GPa) = 8.46150 113.60666 61.03408
#
# Velocity S-wave (km/s) = 1.80931 6.62967 4.85932
# Velocity P-wave (km/s) = 5.39774 9.91392 7.98190
#
# Compressibility (1/GPa) = 0.01561852
#
# Stress axis : x y z
#
# Youngs Moduli (GPa) = 380.67096 95.34466 46.40650
#
# Poissons Ratio (x) = 0.09118 0.02333
# Poissons Ratio (y) = 0.36404 0.37421
# Poissons Ratio (z) = 0.19138 0.76883
#
# Static dielectric constant tensor:
#      x y z
#    x 2.165430 0.000000 0.000000 
#    y 0.000000 1.976690 0.000000 
#    z 0.000000 0.000000 2.098280 
# 
# From -- ./inp_files/7137.got.cif
#   From: 2010.05.17/outbox.cif.g08.bks.cpg/sg53_4_cif.got.tgz:7137.got - 2010.06.03 12:45:16.
