data_PCOD9417159
_publ_section_title
;
Structure prediction by ZEFSAII (Michael W. Deem and Ramdas Pophale) SiO2 
 PCOD9417159
Probable space group: P M N A
;
_chemical_formula_sum "Si O2"
_cell_formula_units_Z 64
_cell_length_a 17.794794
_cell_length_b 16.633630
_cell_length_c 9.499088
_cell_angle_alpha 90.000000
_cell_angle_beta 90.000000
_cell_angle_gamma 90.000000
_cell_volume 2811.654239
_symmetry_space_group_name_H-M "P M N A"
_symmetry_group_IT_number 53
_symmetry_cell_setting 'orthorhombic'
loop_
_space_group_symop_operation_xyz
x,y,z
1/2-x,-y,1/2+z
x,-y,-z
1/2-x,y,1/2-z
-x,-y,-z
1/2+x,y,1/2-z
-x,y,z
1/2+x,-y,1/2+z
loop_
_atom_site_type_symbol
_atom_site_label
_atom_site_fract_x
_atom_site_fract_y
_atom_site_fract_z
Si Si1 0.170739 0.493100 0.329860
Si Si2 0.912158 0.580127 0.100553
Si Si3 0.825655 0.219552 0.337129
Si Si4 0.910497 0.926452 0.696596
Si Si5 0.835765 0.910319 0.000793
Si Si6 0.783417 0.222898 0.613160
Si Si7 0.910584 0.652262 0.825072
Si Si8 0.085965 0.108621 0.716628
O O1 0.175619 0.500000 0.500000
O O2 0.250000 0.483731 0.250000
O O3 0.130938 0.566730 0.245731
O O4 0.122383 0.416669 0.276296
O O5 0.000000 0.593296 0.131468
O O6 0.907218 0.500000 0.000000
O O7 0.883512 0.645310 0.987652
O O8 0.750000 0.204826 0.250000
O O9 0.865303 0.138731 0.392381
O O10 0.805516 0.271780 0.474961
O O11 0.883926 0.265116 0.239874
O O12 0.000000 0.914341 0.694126
O O13 0.896629 0.019182 0.659179
O O14 0.874596 0.906484 0.849241
O O15 0.775893 0.843402 0.050366
O O16 0.901591 0.905207 0.116385
O O17 0.800138 0.000000 0.000000
O O18 0.750000 0.265590 0.750000
O O19 0.855330 0.175813 0.673216
O O20 0.000000 0.644102 0.828650
O O21 0.000000 0.128791 0.683278
#
# Coordination Sequence:
#
# PCOD9417159 Si02
#       8
#     8   8   8   8   8   8   8   8
#     4  11  21  36  65 101 133 164 204 251 297 350
#     4   8  16  34  60  88 123 162 200 247 301 352
#     4  12  24  38  59  83 117 159 206 251 309 377
#     4  10  20  34  55  85 114 148 202 260 316 382
#     4   9  17  32  56  79 108 146 193 253 319 384
#     4  10  22  38  57  80 113 157 204 257 324 383
#     4  10  22  41  61  87 124 165 205 251 310 367
#     4   9  19  33  54  82 114 148 193 261 329 385
#
# _framework density 22.762402000000002
#
# number of rings (size 3 to 8) (size 9 to 14) (size 15 to 20)
#    0.000    2.125    1.250    3.375    1.750    4.000 
#    0.000    3.125    0.000    0.000    0.000    0.000 
#    0.000    0.000    0.000    0.000    0.000    0.000 
#
# Total GULP energy -357229.779445 kJ/mol
# GULP energy per Si atom -5581.715304 kJ/mol
# Density = 2.271059 g / cm^3
# Si number density = 22.762402 Si / 1000 Ang^3
#
#
#
# Elastic Constant Matrix: (Units=GPa)
#
#
# Indices 1 2 3 4 5 6 
#
# 1 100.4172 19.5087 29.8474 0.0000 0.0000 0.0000
# 2 19.5087 30.6933 7.0390 0.0000 0.0000 0.0000
# 3 29.8474 7.0390 138.7695 0.0000 0.0000 0.0000
# 4 0.0000 0.0000 0.0000 18.9568 0.0000 0.0000
# 5 0.0000 0.0000 0.0000 0.0000 15.3275 0.0000
# 6 0.0000 0.0000 0.0000 0.0000 0.0000 15.7903
#
#
#
# Elastic Compliance Matrix: (Units=1/GPa)
#
#
# Indices 1 2 3 4 5 6 
#
# 1 0.012001 -0.007119 -0.002220 0.000000 0.000000 0.000000
# 2 -0.007119 0.037187 -0.000355 0.000000 0.000000 0.000000
# 3 -0.002220 -0.000355 0.007702 0.000000 0.000000 0.000000
# 4 0.000000 0.000000 0.000000 0.052751 0.000000 0.000000
# 5 0.000000 0.000000 0.000000 0.000000 0.065242 0.000000
# 6 0.000000 0.000000 0.000000 0.000000 0.000000 0.063330
#
#
# Mechanical properties :
#
#
# Convention : Reuss Voigt Hill
#
# Bulk Modulus (GPa) = 26.66575 42.51891 34.59233
# Shear Modulus (GPa) = 18.51149 24.24726 21.37937
#
# Velocity S-wave (km/s) = 2.85485 3.26733 3.06803
# Velocity P-wave (km/s) = 4.75469 5.74055 5.27072
#
# Compressibility (1/GPa) = 0.03750129
#
# Stress axis : x y z
#
# Youngs Moduli (GPa) = 83.32340 26.89137 129.84069
#
# Poissons Ratio (x) = 0.19144 0.28828
# Poissons Ratio (y) = 0.59318 0.04610
# Poissons Ratio (z) = 0.18500 0.00955
#
# Static dielectric constant tensor:
#      x y z
#    x 1.818650 0.000000 0.000000 
#    y 0.000000 1.936750 0.000000 
#    z 0.000000 0.000000 1.669680 
# 
# From -- ./inp_files/10213.got.cif
#   From: 2010.05.17/outbox.cif.g08.bks.cpg/sg53_6_cif.got.tgz:10213.got - 2010.06.03 12:45:16.
