data_PCOD9417692
_publ_section_title
;
Structure prediction by ZEFSAII (Michael W. Deem and Ramdas Pophale) SiO2 
 PCOD9417692
Probable space group: P M N A
;
_chemical_formula_sum "Si O2"
_cell_formula_units_Z 64
_cell_length_a 9.304788
_cell_length_b 14.800257
_cell_length_c 23.900785
_cell_angle_alpha 90.000000
_cell_angle_beta 90.000000
_cell_angle_gamma 90.000000
_cell_volume 3291.454869
_symmetry_space_group_name_H-M "P M N A"
_symmetry_group_IT_number 53
_symmetry_cell_setting 'orthorhombic'
loop_
_space_group_symop_operation_xyz
x,y,z
1/2-x,-y,1/2+z
x,-y,-z
1/2-x,y,1/2-z
-x,-y,-z
1/2+x,y,1/2-z
-x,y,z
1/2+x,-y,1/2+z
loop_
_atom_site_type_symbol
_atom_site_label
_atom_site_fract_x
_atom_site_fract_y
_atom_site_fract_z
Si Si1 0.331866 0.780344 0.804604
Si Si2 0.665319 0.906771 0.534583
Si Si3 0.671606 0.707135 0.492309
Si Si4 0.671853 0.510137 0.191964
Si Si5 0.667956 0.868043 0.308609
Si Si6 0.828286 0.644792 0.600923
Si Si7 0.830768 0.327301 0.865111
Si Si8 0.667459 0.034073 0.141028
O O1 0.250000 0.749034 0.750000
O O2 0.500000 0.759053 0.798403
O O3 0.282535 0.729558 0.860478
O O4 0.316067 0.887325 0.812938
O O5 0.500000 0.896896 0.555448
O O6 0.699162 0.814984 0.500641
O O7 0.776630 0.921149 0.584226
O O8 0.669517 0.000000 0.500000
O O9 0.500000 0.695289 0.496960
O O10 0.748634 0.652933 0.542010
O O11 0.713822 0.675391 0.430254
O O12 0.750000 0.484346 0.250000
O O13 0.500000 0.513525 0.200703
O O14 0.700819 0.440704 0.140924
O O15 0.735510 0.605367 0.171396
O O16 0.750000 0.862520 0.250000
O O17 0.500000 0.886926 0.299020
O O18 0.680559 0.773618 0.340964
O O19 0.737776 0.948113 0.344217
O O20 0.000000 0.649207 0.591266
O O21 0.000000 0.353604 0.861817
O O22 0.500000 0.010040 0.137160
#
# Coordination Sequence:
#
# PCOD9417692 Si02
#       8
#     8   8   8   8   8   8   8   8
#     4  10  21  36  55  81 116 154 194 239 291 349
#     4  10  20  36  58  84 118 160 207 255 302 356
#     4  10  21  38  62  91 121 162 208 250 302 361
#     4  11  24  42  67  95 123 159 202 251 310 368
#     4  11  23  40  61  86 121 161 203 256 310 364
#     4  10  22  41  61  87 125 161 197 249 304 359
#     4  10  23  43  65  90 123 160 203 255 307 364
#     4  11  22  36  56  85 119 158 202 248 302 360
#
# _framework density 19.444289000000001
#
# number of rings (size 3 to 8) (size 9 to 14) (size 15 to 20)
#    0.000    1.625    1.250    3.000    0.000    8.750 
#    0.000    3.750    0.000    0.000    0.000    0.000 
#    0.000    0.000    0.000    0.000    0.000    0.000 
#
# Total GULP energy -357527.663534 kJ/mol
# GULP energy per Si atom -5586.369743 kJ/mol
# Density = 1.940003 g / cm^3
# Si number density = 19.444289 Si / 1000 Ang^3
#
#
#
# Elastic Constant Matrix: (Units=GPa)
#
#
# Indices 1 2 3 4 5 6 
#
# 1 62.2986 40.4025 24.9033 0.0000 0.0000 0.0000
# 2 40.4025 60.9545 13.6193 0.0000 0.0000 0.0000
# 3 24.9033 13.6193 45.2240 0.0000 0.0000 0.0000
# 4 0.0000 0.0000 0.0000 15.8115 0.0000 0.0000
# 5 0.0000 0.0000 0.0000 0.0000 32.4139 0.0000
# 6 0.0000 0.0000 0.0000 0.0000 0.0000 26.4433
#
#
#
# Elastic Compliance Matrix: (Units=1/GPa)
#
#
# Indices 1 2 3 4 5 6 
#
# 1 0.033849 -0.019589 -0.012740 0.000000 0.000000 0.000000
# 2 -0.019589 0.028926 0.002076 0.000000 0.000000 0.000000
# 3 -0.012740 0.002076 0.028502 0.000000 0.000000 0.000000
# 4 0.000000 0.000000 0.000000 0.063245 0.000000 0.000000
# 5 0.000000 0.000000 0.000000 0.000000 0.030851 0.000000
# 6 0.000000 0.000000 0.000000 0.000000 0.000000 0.037817
#
#
# Mechanical properties :
#
#
# Convention : Reuss Voigt Hill
#
# Bulk Modulus (GPa) = 32.49841 36.25857 34.37849
# Shear Modulus (GPa) = 17.00948 20.90389 18.95668
#
# Velocity S-wave (km/s) = 2.96088 3.28238 3.12576
# Velocity P-wave (km/s) = 5.33282 5.74919 5.54492
#
# Compressibility (1/GPa) = 0.03077074
#
# Stress axis : x y z
#
# Youngs Moduli (GPa) = 29.54318 34.57058 35.08479
#
# Poissons Ratio (x) = 0.67722 0.44698
# Poissons Ratio (y) = 0.57874 -0.07284
# Poissons Ratio (z) = 0.37638 -0.07177
#
# Static dielectric constant tensor:
#      x y z
#    x 1.651650 0.000000 0.000000 
#    y 0.000000 1.693670 0.000000 
#    z 0.000000 0.000000 1.702670 
# 
# From -- ./inp_files/34206.got.cif
#   From: 2010.05.17/outbox.cif.g08.bks.cpg/sg53_18_cif.got.tgz:34206.got - 2010.06.03 12:45:16.
