data_PCOD9417343
_publ_section_title
;
Structure prediction by ZEFSAII (Michael W. Deem and Ramdas Pophale) SiO2 
 PCOD9417343
Probable space group: P M N A
;
_chemical_formula_sum "Si O2"
_cell_formula_units_Z 56
_cell_length_a 8.923835
_cell_length_b 14.974782
_cell_length_c 22.737760
_cell_angle_alpha 90.000000
_cell_angle_beta 90.000000
_cell_angle_gamma 90.000000
_cell_volume 3038.503343
_symmetry_space_group_name_H-M "P M N A"
_symmetry_group_IT_number 53
_symmetry_cell_setting 'orthorhombic'
loop_
_space_group_symop_operation_xyz
x,y,z
1/2-x,-y,1/2+z
x,-y,-z
1/2-x,y,1/2-z
-x,-y,-z
1/2+x,y,1/2-z
-x,y,z
1/2+x,-y,1/2+z
loop_
_atom_site_type_symbol
_atom_site_label
_atom_site_fract_x
_atom_site_fract_y
_atom_site_fract_z
Si Si1 0.324529 0.706584 0.906103
Si Si2 0.678633 0.193341 0.811374
Si Si3 0.675464 0.401479 0.974858
Si Si4 0.820612 0.117864 0.054883
Si Si5 0.179980 0.911743 0.079607
Si Si6 0.822045 0.375248 0.851505
Si Si7 0.178904 0.575481 0.812114
O O1 0.500000 0.706184 0.891589
O O2 0.259890 0.805913 0.908294
O O3 0.239429 0.641353 0.861897
O O4 0.306801 0.666206 0.971444
O O5 0.750000 0.160875 0.750000
O O6 0.500000 0.189675 0.808362
O O7 0.738135 0.137757 0.867410
O O8 0.733678 0.294947 0.821282
O O9 0.500000 0.401656 0.956108
O O10 0.778335 0.376922 0.920165
O O11 0.709667 0.500000 0.000000
O O12 0.000000 0.130153 0.057459
O O13 0.788627 0.017854 0.077388
O O14 0.777574 0.122981 0.985664
O O15 0.000000 0.900001 0.085870
O O16 0.780000 0.472845 0.827037
O O17 0.000000 0.361730 0.844001
O O18 0.250000 0.599992 0.750000
O O19 0.000000 0.580350 0.809650
#
# Coordination Sequence:
#
# PCOD9417343 Si02
#       7
#     8   8   8   8   8   8   8
#     4  11  22  36  57  85 118 154 192 236 284 336
#     4  12  25  40  60  86 119 157 197 243 293 350
#     4  10  20  35  55  83 119 156 192 236 288 337
#     4   9  19  37  63  91 120 152 188 235 291 348
#     4   9  19  39  64  90 119 152 189 235 291 348
#     4  11  23  38  59  86 116 154 197 240 289 347
#     4  11  24  40  58  79 108 149 195 240 285 336
#
# _framework density 18.430125
#
# number of rings (size 3 to 8) (size 9 to 14) (size 15 to 20)
#    0.000    1.571    1.429    4.714    0.000    7.714 
#    0.000    2.143    0.000    3.429    0.000    0.000 
#    0.000    0.000    0.000    0.000    0.000    0.000 
#
# Total GULP energy -313017.656571 kJ/mol
# GULP energy per Si atom -5589.601010 kJ/mol
# Density = 1.838818 g / cm^3
# Si number density = 18.430125 Si / 1000 Ang^3
#
#
#
# Elastic Constant Matrix: (Units=GPa)
#
#
# Indices 1 2 3 4 5 6 
#
# 1 66.5116 50.6194 44.4290 0.0000 0.0000 0.0000
# 2 50.6194 99.0333 42.5005 0.0000 0.0000 0.0000
# 3 44.4290 42.5005 83.1763 0.0000 0.0000 0.0000
# 4 0.0000 0.0000 0.0000 12.7699 0.0000 0.0000
# 5 0.0000 0.0000 0.0000 0.0000 24.9346 0.0000
# 6 0.0000 0.0000 0.0000 0.0000 0.0000 -36.6573
#
#
#
# Elastic Compliance Matrix: (Units=1/GPa)
#
#
# Indices 1 2 3 4 5 6 
#
# 1 0.030582 -0.011042 -0.010693 0.000000 0.000000 0.000000
# 2 -0.011042 0.016921 -0.002748 0.000000 0.000000 0.000000
# 3 -0.010693 -0.002748 0.019138 0.000000 0.000000 0.000000
# 4 0.000000 0.000000 0.000000 0.078309 0.000000 0.000000
# 5 0.000000 0.000000 0.000000 0.000000 0.040105 0.000000
# 6 0.000000 0.000000 0.000000 0.000000 0.000000 -0.027280
#
#
# Mechanical properties :
#
#
# Convention : Reuss Voigt Hill
#
# Bulk Modulus (GPa) = 56.57800 58.20214 57.39007
# Shear Modulus (GPa) = 23.51465 7.62094 15.56779
#
# Velocity S-wave (km/s) = 3.57582 2.03569 2.90951
# Velocity P-wave (km/s) = 6.91476 6.09703 6.51873
#
# Compressibility (1/GPa) = 0.01767471
#
# Stress axis : x y z
#
# Youngs Moduli (GPa) = 32.69914 59.09815 52.25098
#
# Poissons Ratio (x) = 0.65259 0.55872
# Poissons Ratio (y) = 0.36108 0.14357
# Poissons Ratio (z) = 0.34965 0.16239
#
# Static dielectric constant tensor:
#      x y z
#    x 1.615100 0.000000 0.000000 
#    y 0.000000 1.629090 0.000000 
#    z 0.000000 0.000000 1.609300 
# 
# From -- ./inp_files/30762.got.cif
#   From: 2010.05.17/outbox.cif.g08.bks.cpg/sg53_16_cif.got.tgz:30762.got - 2010.06.03 12:45:16.
