data_PCOD9417344
_publ_section_title
;
Structure prediction by ZEFSAII (Michael W. Deem and Ramdas Pophale) SiO2 
 PCOD9417344
Probable space group: P M N A
;
_chemical_formula_sum "Si O2"
_cell_formula_units_Z 48
_cell_length_a 9.663463
_cell_length_b 30.775667
_cell_length_c 8.925633
_cell_angle_alpha 90.000000
_cell_angle_beta 90.000000
_cell_angle_gamma 90.000000
_cell_volume 2654.478964
_symmetry_space_group_name_H-M "P M N A"
_symmetry_group_IT_number 53
_symmetry_cell_setting 'orthorhombic'
loop_
_space_group_symop_operation_xyz
x,y,z
1/2-x,-y,1/2+z
x,-y,-z
1/2-x,y,1/2-z
-x,-y,-z
1/2+x,y,1/2-z
-x,y,z
1/2+x,-y,1/2+z
loop_
_atom_site_type_symbol
_atom_site_label
_atom_site_fract_x
_atom_site_fract_y
_atom_site_fract_z
Si Si1 0.500000 0.951332 0.932059
Si Si2 0.747254 0.899198 0.431357
Si Si3 0.334929 0.717591 0.595102
Si Si4 0.162956 0.803993 0.100884
Si Si5 0.000000 0.952603 0.927788
Si Si6 0.667648 0.637614 0.910054
Si Si7 0.836192 0.458364 0.401683
O O1 0.500000 0.954688 0.752087
O O2 0.624557 0.922925 0.995244
O O3 0.500000 0.000000 0.000000
O O4 0.750000 0.902755 0.250000
O O5 0.726900 0.848247 0.465990
O O6 0.625746 0.925905 0.505746
O O7 0.250000 0.724030 0.750000
O O8 0.500000 0.707502 0.616270
O O9 0.327772 0.762230 0.504425
O O10 0.250318 0.677865 0.516798
O O11 0.250000 0.795003 0.250000
O O12 0.000000 0.812301 0.134133
O O13 0.000000 0.000000 0.000000
O O14 0.750000 0.634957 0.750000
O O15 0.500000 0.645090 0.896802
O O16 0.686087 0.589200 0.976064
O O17 0.799581 0.500000 0.500000
O O18 0.750000 0.460019 0.250000
O O19 0.000000 0.460568 0.367429
#
# Coordination Sequence:
#
# PCOD9417344 Si02
#       7
#     4   8   8   8   4   8   8
#     4  12  26  42  64  96 122 160 198 236 295 340
#     4  11  23  43  64  89 120 158 199 238 288 347
#     4  10  20  35  55  84 114 144 184 233 280 332
#     4  10  23  41  62  86 115 151 189 229 281 337
#     4  12  24  42  66  90 126 156 194 248 283 342
#     4   9  16  29  50  75 105 144 186 229 281 335
#     4   9  18  32  50  74 105 141 184 233 282 338
#
# _framework density 18.082644999999999
#
# number of rings (size 3 to 8) (size 9 to 14) (size 15 to 20)
#    0.000    1.833    0.833    4.500    3.500    3.667 
#    0.000    0.833    0.000    4.000    0.000    0.000 
#    0.000    0.000    0.000    0.000    0.000    0.000 
#
# Total GULP energy -267337.394101 kJ/mol
# GULP energy per Si atom -5569.529044 kJ/mol
# Density = 1.804149 g / cm^3
# Si number density = 18.082645 Si / 1000 Ang^3
#
#
#
# Elastic Constant Matrix: (Units=GPa)
#
#
# Indices 1 2 3 4 5 6 
#
# 1 151.7458 82.3081 38.9030 0.0000 0.0000 0.0000
# 2 82.3081 192.3219 67.9521 0.0000 0.0000 0.0000
# 3 38.9030 67.9521 67.7182 0.0000 0.0000 0.0000
# 4 0.0000 0.0000 0.0000 29.7957 0.0000 0.0000
# 5 0.0000 0.0000 0.0000 0.0000 26.9976 0.0000
# 6 0.0000 0.0000 0.0000 0.0000 0.0000 34.7063
#
#
#
# Elastic Compliance Matrix: (Units=1/GPa)
#
#
# Indices 1 2 3 4 5 6 
#
# 1 0.008748 -0.003049 -0.001966 0.000000 0.000000 0.000000
# 2 -0.003049 0.009119 -0.007398 0.000000 0.000000 0.000000
# 3 -0.001966 -0.007398 0.023320 0.000000 0.000000 0.000000
# 4 0.000000 0.000000 0.000000 0.033562 0.000000 0.000000
# 5 0.000000 0.000000 0.000000 0.000000 0.037040 0.000000
# 6 0.000000 0.000000 0.000000 0.000000 0.000000 0.028813
#
#
# Mechanical properties :
#
#
# Convention : Reuss Voigt Hill
#
# Bulk Modulus (GPa) = 61.12437 87.79025 74.45731
# Shear Modulus (GPa) = 29.25991 33.14144 31.20068
#
# Velocity S-wave (km/s) = 4.02695 4.28574 4.15836
# Velocity P-wave (km/s) = 7.44969 8.55248 8.02006
#
# Compressibility (1/GPa) = 0.01636009
#
# Stress axis : x y z
#
# Youngs Moduli (GPa) = 114.31350 109.66519 42.88114
#
# Poissons Ratio (x) = 0.33440 0.08429
# Poissons Ratio (y) = 0.34858 0.31725
# Poissons Ratio (z) = 0.22470 0.81135
#
# Static dielectric constant tensor:
#      x y z
#    x 1.588500 0.000000 0.000000 
#    y 0.000000 1.670170 0.000000 
#    z 0.000000 0.000000 1.590260 
# 
# From -- ./inp_files/6800.got.cif
#   From: 2010.05.17/outbox.cif.g08.bks.cpg/sg53_4_cif.got.tgz:6800.got - 2010.06.03 12:45:16.
