data_PCOD9417161
_publ_section_title
;
Structure prediction by ZEFSAII (Michael W. Deem and Ramdas Pophale) SiO2 
 PCOD9417161
Probable space group: P M N A
;
_chemical_formula_sum "Si O2"
_cell_formula_units_Z 56
_cell_length_a 14.146523
_cell_length_b 8.749911
_cell_length_c 22.883973
_cell_angle_alpha 90.000000
_cell_angle_beta 90.000000
_cell_angle_gamma 90.000000
_cell_volume 2832.596879
_symmetry_space_group_name_H-M "P M N A"
_symmetry_group_IT_number 53
_symmetry_cell_setting 'orthorhombic'
loop_
_space_group_symop_operation_xyz
x,y,z
1/2-x,-y,1/2+z
x,-y,-z
1/2-x,y,1/2-z
-x,-y,-z
1/2+x,y,1/2-z
-x,y,z
1/2+x,-y,1/2+z
loop_
_atom_site_type_symbol
_atom_site_label
_atom_site_fract_x
_atom_site_fract_y
_atom_site_fract_z
Si Si1 0.111865 0.977950 0.069390
Si Si2 0.226901 0.186233 0.409926
Si Si3 0.889855 0.107591 0.614385
Si Si4 0.893503 0.680622 0.492122
Si Si5 0.888240 0.724229 0.277921
Si Si6 0.613149 0.681569 0.355178
Si Si7 0.235519 0.561697 0.684101
O O1 0.139836 0.812021 0.097134
O O2 0.000000 0.989606 0.079547
O O3 0.167851 0.120453 0.096773
O O4 0.129519 0.000000 0.000000
O O5 0.194669 0.263538 0.469962
O O6 0.203481 0.305080 0.358890
O O7 0.166064 0.032633 0.410563
O O8 0.880679 0.256289 0.573288
O O9 0.855102 0.143077 0.679372
O O10 0.000000 0.068327 0.616277
O O11 0.896095 0.500000 0.500000
O O12 0.000000 0.737121 0.510641
O O13 0.872362 0.751678 0.209775
O O14 0.838658 0.571953 0.301068
O O15 0.000000 0.706672 0.286448
O O16 0.500000 0.647944 0.362079
O O17 0.677063 0.528159 0.348431
O O18 0.250000 0.625651 0.750000
#
# Coordination Sequence:
#
# PCOD9417161 Si02
#       7
#     8   8   8   8   8   8   8
#     4  10  22  39  58  80 106 141 189 243 293 338
#     4  12  23  34  54  81 114 149 179 221 284 339
#     4  10  20  34  55  85 116 144 177 218 269 333
#     4  10  21  37  57  82 114 150 185 219 259 322
#     4   9  18  35  59  82 106 143 187 226 269 328
#     4   9  19  39  62  78 101 143 190 234 280 330
#     4  10  22  37  55  82 112 145 188 234 277 328
#
# _framework density 19.769845
#
# number of rings (size 3 to 8) (size 9 to 14) (size 15 to 20)
#    0.000    2.000    0.000    3.429    0.000    6.286 
#    0.000    0.000    0.000    3.000    0.000    0.000 
#    0.000    0.000    0.000    0.000    0.000    0.000 
#
# Total GULP energy -312075.500708 kJ/mol
# GULP energy per Si atom -5572.776798 kJ/mol
# Density = 1.972485 g / cm^3
# Si number density = 19.769845 Si / 1000 Ang^3
#
#
#
# Elastic Constant Matrix: (Units=GPa)
#
#
# Indices 1 2 3 4 5 6 
#
# 1 49.8735 19.2276 14.9035 0.0000 0.0000 0.0000
# 2 19.2276 51.6086 21.3926 0.0000 0.0000 0.0000
# 3 14.9035 21.3926 63.0689 0.0000 0.0000 0.0000
# 4 0.0000 0.0000 0.0000 21.0406 0.0000 0.0000
# 5 0.0000 0.0000 0.0000 0.0000 23.5383 0.0000
# 6 0.0000 0.0000 0.0000 0.0000 0.0000 2.4564
#
#
#
# Elastic Compliance Matrix: (Units=1/GPa)
#
#
# Indices 1 2 3 4 5 6 
#
# 1 0.023910 -0.007640 -0.003059 0.000000 0.000000 0.000000
# 2 -0.007640 0.024988 -0.006670 0.000000 0.000000 0.000000
# 3 -0.003059 -0.006670 0.018841 0.000000 0.000000 0.000000
# 4 0.000000 0.000000 0.000000 0.047527 0.000000 0.000000
# 5 0.000000 0.000000 0.000000 0.000000 0.042484 0.000000
# 6 0.000000 0.000000 0.000000 0.000000 0.000000 0.407107
#
#
# Mechanical properties :
#
#
# Convention : Reuss Voigt Hill
#
# Bulk Modulus (GPa) = 30.30226 30.62204 30.46215
# Shear Modulus (GPa) = 8.18872 16.67554 12.43213
#
# Velocity S-wave (km/s) = 2.03740 2.90743 2.51039
# Velocity P-wave (km/s) = 4.57116 5.17627 4.88310
#
# Compressibility (1/GPa) = 0.03300084
#
# Stress axis : x y z
#
# Youngs Moduli (GPa) = 41.82302 40.01899 53.07581
#
# Poissons Ratio (x) = 0.30576 0.16234
# Poissons Ratio (y) = 0.31954 0.35404
# Poissons Ratio (z) = 0.12792 0.26694
#
# Static dielectric constant tensor:
#      x y z
#    x 1.779170 0.000000 0.000000 
#    y 0.000000 1.661390 0.000000 
#    z 0.000000 0.000000 1.728530 
# 
# From -- ./inp_files/32441.got.cif
#   From: 2010.05.17/outbox.cif.g08.bks.cpg/sg53_17_cif.got.tgz:32441.got - 2010.06.03 12:45:16.
