data_PCOD9417638
_publ_section_title
;
Structure prediction by ZEFSAII (Michael W. Deem and Ramdas Pophale) SiO2 
 PCOD9417638
Probable space group: P M N A
;
_chemical_formula_sum "Si O2"
_cell_formula_units_Z 40
_cell_length_a 23.214471
_cell_length_b 12.238386
_cell_length_c 6.174539
_cell_angle_alpha 90.000000
_cell_angle_beta 90.000000
_cell_angle_gamma 90.000000
_cell_volume 1754.233808
_symmetry_space_group_name_H-M "P M N A"
_symmetry_group_IT_number 53
_symmetry_cell_setting 'orthorhombic'
loop_
_space_group_symop_operation_xyz
x,y,z
1/2-x,-y,1/2+z
x,-y,-z
1/2-x,y,1/2-z
-x,-y,-z
1/2+x,y,1/2-z
-x,y,z
1/2+x,-y,1/2+z
loop_
_atom_site_type_symbol
_atom_site_label
_atom_site_fract_x
_atom_site_fract_y
_atom_site_fract_z
Si Si1 0.933998 0.118192 0.555959
Si Si2 0.874162 0.727300 0.100542
Si Si3 0.819683 0.616083 0.472559
Si Si4 0.240414 0.828091 0.987494
Si Si5 0.063506 0.669605 0.712883
O O1 0.899936 0.185270 0.734124
O O2 0.935429 0.202458 0.356987
O O3 0.000000 0.100512 0.629444
O O4 0.908883 0.000000 0.500000
O O5 0.839264 0.635090 0.227387
O O6 0.825975 0.792840 0.970987
O O7 0.924475 0.671769 0.966202
O O8 0.790128 0.500000 0.500000
O O9 0.780998 0.720701 0.526448
O O10 0.880139 0.617260 0.604345
O O11 0.250000 0.863107 0.250000
O O12 0.250000 0.887899 0.750000
O O13 0.000000 0.626885 0.653757
#
# Coordination Sequence:
#
# PCOD9417638 Si02
#       5
#     8   8   8   8   8
#     4   9  19  36  60  92 125 160 209 263 317 385
#     4  10  20  36  57  88 121 163 203 264 323 379
#     4  10  22  38  56  86 118 160 211 263 314 374
#     4  10  20  37  60  89 117 161 209 263 314 372
#     4  10  20  36  58  85 121 162 203 253 318 384
#
# _framework density 22.801977000000001
#
# number of rings (size 3 to 8) (size 9 to 14) (size 15 to 20)
#    0.000    2.200    2.000    0.600    0.000    5.200 
#    0.000    4.000    0.000    0.000  104.000    0.000 
#    0.000    0.000    0.000    0.000    0.000    0.000 
#
# Total GULP energy -222775.684185 kJ/mol
# GULP energy per Si atom -5569.392105 kJ/mol
# Density = 2.275008 g / cm^3
# Si number density = 22.801977 Si / 1000 Ang^3
#
#
#
# Elastic Constant Matrix: (Units=GPa)
#
#
# Indices 1 2 3 4 5 6 
#
# 1 84.9371 -2.1261 9.2087 0.0000 0.0000 0.0000
# 2 -2.1261 81.1225 11.9164 0.0000 0.0000 0.0000
# 3 9.2087 11.9164 102.2616 0.0000 0.0000 0.0000
# 4 0.0000 0.0000 0.0000 -15.1835 0.0000 0.0000
# 5 0.0000 0.0000 0.0000 0.0000 35.2202 0.0000
# 6 0.0000 0.0000 0.0000 0.0000 0.0000 29.4531
#
#
#
# Elastic Compliance Matrix: (Units=1/GPa)
#
#
# Indices 1 2 3 4 5 6 
#
# 1 0.011908 0.000478 -0.001128 0.000000 0.000000 0.000000
# 2 0.000478 0.012561 -0.001507 0.000000 0.000000 0.000000
# 3 -0.001128 -0.001507 0.010056 0.000000 0.000000 0.000000
# 4 0.000000 0.000000 0.000000 -0.065861 0.000000 0.000000
# 5 0.000000 0.000000 0.000000 0.000000 0.028393 0.000000
# 6 0.000000 0.000000 0.000000 0.000000 0.000000 0.033952
#
#
# Mechanical properties :
#
#
# Convention : Reuss Voigt Hill
#
# Bulk Modulus (GPa) = 33.10085 34.03547 33.56816
# Shear Modulus (GPa) = 110.14989 26.51944 68.33467
#
# Velocity S-wave (km/s) = 6.95788 3.41403 5.48031
# Velocity P-wave (km/s) = 8.89368 5.52265 7.40261
#
# Compressibility (1/GPa) = 0.03021071
#
# Stress axis : x y z
#
# Youngs Moduli (GPa) = 83.97951 79.61220 99.44319
#
# Poissons Ratio (x) = -0.03804 0.11217
# Poissons Ratio (y) = -0.04012 0.14983
# Poissons Ratio (z) = 0.09473 0.11995
#
# Static dielectric constant tensor:
#      x y z
#    x 1.883440 0.000000 0.000000 
#    y 0.000000 1.858480 0.000000 
#    z 0.000000 0.000000 1.965080 
# 
# From -- ./inp_files/3618.got.cif
#   From: 2010.05.17/outbox.cif.g08.bks.cpg/sg53_2_cif.got.tgz:3618.got - 2010.06.03 12:45:16.
