data_PCOD9417119
_publ_section_title
;
Structure prediction by ZEFSAII (Michael W. Deem and Ramdas Pophale) SiO2 
 PCOD9417119
Probable space group: P M N A
;
_chemical_formula_sum "Si O2"
_cell_formula_units_Z 64
_cell_length_a 15.021511
_cell_length_b 9.251730
_cell_length_c 21.288196
_cell_angle_alpha 90.000000
_cell_angle_beta 90.000000
_cell_angle_gamma 90.000000
_cell_volume 2958.526272
_symmetry_space_group_name_H-M "P M N A"
_symmetry_group_IT_number 53
_symmetry_cell_setting 'orthorhombic'
loop_
_space_group_symop_operation_xyz
x,y,z
1/2-x,-y,1/2+z
x,-y,-z
1/2-x,y,1/2-z
-x,-y,-z
1/2+x,y,1/2-z
-x,y,z
1/2+x,-y,1/2+z
loop_
_atom_site_type_symbol
_atom_site_label
_atom_site_fract_x
_atom_site_fract_y
_atom_site_fract_z
Si Si1 0.901619 0.033843 0.335567
Si Si2 0.765957 0.482896 0.648227
Si Si3 0.650258 0.039702 0.428880
Si Si4 0.850161 0.871425 0.538840
Si Si5 0.402218 0.652382 0.622458
Si Si6 0.603284 0.317637 0.228248
Si Si7 0.402640 0.372070 0.951268
Si Si8 0.237508 0.156519 0.824266
O O1 0.900162 0.140992 0.395794
O O2 0.877037 0.147036 0.281177
O O3 0.000000 0.976734 0.324240
O O4 0.832552 0.906118 0.348471
O O5 0.688278 0.563517 0.608630
O O6 0.818271 0.589856 0.695847
O O7 0.846157 0.430276 0.605123
O O8 0.727259 0.330192 0.673734
O O9 0.665324 0.920702 0.371905
O O10 0.615240 0.000000 0.500000
O O11 0.750547 0.089144 0.443218
O O12 0.604045 0.183019 0.401773
O O13 0.848672 0.742675 0.491070
O O14 0.893609 0.000000 0.500000
O O15 0.500000 0.593680 0.602956
O O16 0.398566 0.650942 0.698094
O O17 0.500000 0.343685 0.205489
O O18 0.500000 0.315056 0.933150
O O19 0.414430 0.500000 0.000000
O O20 0.250000 0.118261 0.750000
#
# Coordination Sequence:
#
# PCOD9417119 Si02
#       8
#     8   8   8   8   8   8   8   8
#     4  10  20  35  58  88 121 158 203 252 301 365
#     4  12  23  38  61  89 129 170 207 253 312 382
#     4  10  21  41  66  90 118 157 209 264 319 374
#     4  10  20  34  54  82 119 158 192 231 289 363
#     4  11  24  42  65  88 114 157 211 264 317 374
#     4  10  21  38  61  90 121 159 207 253 306 376
#     4  11  22  35  56  88 123 159 198 241 296 366
#     4  11  23  38  60  91 126 165 205 253 318 376
#
# _framework density 21.632391999999999
#
# number of rings (size 3 to 8) (size 9 to 14) (size 15 to 20)
#    0.000    1.375    0.000    7.875    0.000    5.250 
#    0.000    1.250    0.000    8.625    0.000    0.000 
#    0.000    0.000    0.000    0.000    0.000    0.000 
#
# Total GULP energy -356575.449493 kJ/mol
# GULP energy per Si atom -5571.491398 kJ/mol
# Density = 2.158316 g / cm^3
# Si number density = 21.632392 Si / 1000 Ang^3
#
#
#
# Elastic Constant Matrix: (Units=GPa)
#
#
# Indices 1 2 3 4 5 6 
#
# 1 75.6288 19.1863 2.7508 0.0000 0.0000 0.0000
# 2 19.1863 85.5181 6.9844 0.0000 0.0000 0.0000
# 3 2.7508 6.9844 64.3469 0.0000 0.0000 0.0000
# 4 0.0000 0.0000 0.0000 28.4730 0.0000 0.0000
# 5 0.0000 0.0000 0.0000 0.0000 25.4970 0.0000
# 6 0.0000 0.0000 0.0000 0.0000 0.0000 -3.9944
#
#
#
# Elastic Compliance Matrix: (Units=1/GPa)
#
#
# Indices 1 2 3 4 5 6 
#
# 1 0.014025 -0.003125 -0.000260 0.000000 0.000000 0.000000
# 2 -0.003125 0.012494 -0.001223 0.000000 0.000000 0.000000
# 3 -0.000260 -0.001223 0.015685 0.000000 0.000000 0.000000
# 4 0.000000 0.000000 0.000000 0.035121 0.000000 0.000000
# 5 0.000000 0.000000 0.000000 0.000000 0.039220 0.000000
# 6 0.000000 0.000000 0.000000 0.000000 0.000000 -0.250352
#
#
# Mechanical properties :
#
#
# Convention : Reuss Voigt Hill
#
# Bulk Modulus (GPa) = 30.31453 31.48189 30.89821
# Shear Modulus (GPa) = -44.01608 23.09993 -10.45807
#
# Velocity S-wave (km/s) = -4.51569 3.27133 -2.20112
# Velocity P-wave (km/s) = 3.62556 5.37154 2.80257
#
# Compressibility (1/GPa) = 0.03298748
#
# Stress axis : x y z
#
# Youngs Moduli (GPa) = 71.30232 80.03556 63.75680
#
# Poissons Ratio (x) = 0.25013 0.01660
# Poissons Ratio (y) = 0.22284 0.07795
# Poissons Ratio (z) = 0.01856 0.09785
#
# Static dielectric constant tensor:
#      x y z
#    x 1.845650 0.000000 0.000000 
#    y 0.000000 1.817650 0.000000 
#    z 0.000000 0.000000 1.948930 
# 
# From -- ./inp_files/35310.got.cif
#   From: 2010.05.17/outbox.cif.g08.bks.cpg/sg53_18_cif.got.tgz:35310.got - 2010.06.03 12:45:16.
