data_PCOD9417219
_publ_section_title
;
Structure prediction by ZEFSAII (Michael W. Deem and Ramdas Pophale) SiO2 
 PCOD9417219
Probable space group: P M N A
;
_chemical_formula_sum "Si O2"
_cell_formula_units_Z 52
_cell_length_a 8.212753
_cell_length_b 14.102167
_cell_length_c 22.375265
_cell_angle_alpha 90.000000
_cell_angle_beta 90.000000
_cell_angle_gamma 90.000000
_cell_volume 2591.449812
_symmetry_space_group_name_H-M "P M N A"
_symmetry_group_IT_number 53
_symmetry_cell_setting 'orthorhombic'
loop_
_space_group_symop_operation_xyz
x,y,z
1/2-x,-y,1/2+z
x,-y,-z
1/2-x,y,1/2-z
-x,-y,-z
1/2+x,y,1/2-z
-x,y,z
1/2+x,-y,1/2+z
loop_
_atom_site_type_symbol
_atom_site_label
_atom_site_fract_x
_atom_site_fract_y
_atom_site_fract_z
Si Si1 0.750000 0.744442 0.750000
Si Si2 0.304348 0.377136 0.813700
Si Si3 0.811205 0.411097 0.164860
Si Si4 0.804316 0.253441 0.574334
Si Si5 0.195713 0.038657 0.934935
Si Si6 0.187082 0.853591 0.869477
Si Si7 0.810433 0.316140 0.446014
O O1 0.803286 0.662659 0.701458
O O2 0.688054 0.818201 0.699194
O O3 0.250000 0.337099 0.750000
O O4 0.500000 0.386050 0.815374
O O5 0.228792 0.481809 0.819680
O O6 0.248019 0.311515 0.868118
O O7 0.782633 0.390956 0.095236
O O8 0.000000 0.387050 0.179755
O O9 0.760999 0.143123 0.576562
O O10 0.744431 0.299403 0.512352
O O11 0.000000 0.260195 0.572534
O O12 0.000000 0.045529 0.936831
O O13 0.238622 0.960623 0.884528
O O14 0.250340 0.000000 0.000000
O O15 0.291208 0.782988 0.910410
O O16 0.000000 0.843325 0.890429
O O17 0.000000 0.343192 0.448724
#
# Coordination Sequence:
#
# PCOD9417219 Si02
#       7
#     4   8   8   8   8   8   8
#     4  10  20  34  58  84 120 148 194 236 298 348
#     4  11  24  43  64  86 118 159 206 248 296 354
#     4  11  23  39  62  90 122 155 198 244 299 361
#     4  10  23  41  61  88 121 158 199 248 298 356
#     4  10  20  37  63  89 116 154 197 246 299 357
#     4  10  21  37  57  87 122 154 198 243 296 357
#     4  10  20  35  59  90 122 155 193 240 299 353
#
# _framework density 20.065987
#
# number of rings (size 3 to 8) (size 9 to 14) (size 15 to 20)
#    0.000    1.692    2.308    2.769    0.000    8.923 
#    1.385    3.077    0.000    0.000    0.000    0.000 
#    0.000    0.000    0.000    0.000    0.000    0.000 
#
# Total GULP energy -289717.743516 kJ/mol
# GULP energy per Si atom -5571.495068 kJ/mol
# Density = 2.002032 g / cm^3
# Si number density = 20.065987 Si / 1000 Ang^3
#
#
#
# Elastic Constant Matrix: (Units=GPa)
#
#
# Indices 1 2 3 4 5 6 
#
# 1 39.8155 8.5656 24.0726 0.0000 0.0000 0.0000
# 2 8.5656 91.1170 77.7508 0.0000 0.0000 0.0000
# 3 24.0726 77.7508 170.0615 0.0000 0.0000 0.0000
# 4 0.0000 0.0000 0.0000 35.3040 0.0000 0.0000
# 5 0.0000 0.0000 0.0000 0.0000 23.3317 0.0000
# 6 0.0000 0.0000 0.0000 0.0000 0.0000 11.7216
#
#
#
# Elastic Compliance Matrix: (Units=1/GPa)
#
#
# Indices 1 2 3 4 5 6 
#
# 1 0.027548 0.001210 -0.004452 0.000000 0.000000 0.000000
# 2 0.001210 0.018048 -0.008423 0.000000 0.000000 0.000000
# 3 -0.004452 -0.008423 0.010361 0.000000 0.000000 0.000000
# 4 0.000000 0.000000 0.000000 0.028325 0.000000 0.000000
# 5 0.000000 0.000000 0.000000 0.000000 0.042860 0.000000
# 6 0.000000 0.000000 0.000000 0.000000 0.000000 0.085312
#
#
# Mechanical properties :
#
#
# Convention : Reuss Voigt Hill
#
# Bulk Modulus (GPa) = 30.65031 57.97466 44.31248
# Shear Modulus (GPa) = 20.27066 26.77848 23.52457
#
# Velocity S-wave (km/s) = 3.18181 3.65707 3.42769
# Velocity P-wave (km/s) = 5.36717 6.84010 6.14790
#
# Compressibility (1/GPa) = 0.03262610
#
# Stress axis : x y z
#
# Youngs Moduli (GPa) = 36.30082 55.40642 96.51259
#
# Poissons Ratio (x) = -0.06702 0.42972
# Poissons Ratio (y) = -0.04391 0.81291
# Poissons Ratio (z) = 0.16163 0.46668
#
# Static dielectric constant tensor:
#      x y z
#    x 1.749750 0.000000 0.000000 
#    y 0.000000 1.684310 0.000000 
#    z 0.000000 0.000000 1.749410 
# 
# From -- ./inp_files/30637.got.cif
#   From: 2010.05.17/outbox.cif.g08.bks.cpg/sg53_16_cif.got.tgz:30637.got - 2010.06.03 12:45:16.
