data_PCOD9417712
_publ_section_title
;
Structure prediction by ZEFSAII (Michael W. Deem and Ramdas Pophale) SiO2 
 PCOD9417712
Probable space group: P M N A
;
_chemical_formula_sum "Si O2"
_cell_formula_units_Z 48
_cell_length_a 8.475531
_cell_length_b 10.074815
_cell_length_c 30.046960
_cell_angle_alpha 90.000000
_cell_angle_beta 90.000000
_cell_angle_gamma 90.000000
_cell_volume 2565.692092
_symmetry_space_group_name_H-M "P M N A"
_symmetry_group_IT_number 53
_symmetry_cell_setting 'orthorhombic'
loop_
_space_group_symop_operation_xyz
x,y,z
1/2-x,-y,1/2+z
x,-y,-z
1/2-x,y,1/2-z
-x,-y,-z
1/2+x,y,1/2-z
-x,y,z
1/2+x,-y,1/2+z
loop_
_atom_site_type_symbol
_atom_site_label
_atom_site_fract_x
_atom_site_fract_y
_atom_site_fract_z
Si Si1 0.188048 0.629595 0.524980
Si Si2 0.809797 0.777961 0.200704
Si Si3 0.691431 0.017801 0.625178
Si Si4 0.689487 0.283175 0.122534
Si Si5 0.310552 0.474171 0.299817
Si Si6 0.815809 0.869914 0.030523
O O1 0.253449 0.500000 0.500000
O O2 0.248731 0.659775 0.574823
O O3 0.222191 0.754254 0.493558
O O4 0.000000 0.612246 0.529518
O O5 0.750000 0.808442 0.250000
O O6 0.760032 0.626526 0.189765
O O7 0.000000 0.778540 0.200781
O O8 0.756682 0.888166 0.165616
O O9 0.500000 0.011368 0.624832
O O10 0.753823 0.868341 0.627521
O O11 0.741153 0.087931 0.579222
O O12 0.500000 0.283954 0.122100
O O13 0.748000 0.373736 0.163120
O O14 0.250000 0.443107 0.250000
O O15 0.500000 0.469627 0.299478
O O16 0.000000 0.829725 0.033793
O O17 0.807892 0.000000 0.000000
#
# Coordination Sequence:
#
# PCOD9417712 Si02
#       6
#     8   8   8   8   8   8
#     4  10  23  40  56  81 117 154 192 236 285 339
#     4   9  20  38  60  85 113 144 183 229 281 338
#     4  10  21  38  58  84 116 149 187 237 289 339
#     4  11  23  38  57  84 116 152 194 234 281 339
#     4  10  21  39  62  86 114 148 186 232 285 338
#     4  10  20  36  59  84 112 148 191 235 283 338
#
# _framework density 18.708403000000001
#
# number of rings (size 3 to 8) (size 9 to 14) (size 15 to 20)
#    0.000    2.000    1.667    1.000    2.333    4.000 
#    0.000    1.667    0.000    0.000    0.000    0.000 
#    0.000    0.000    0.000    0.000    0.000    0.000 
#
# Total GULP energy -267971.577621 kJ/mol
# GULP energy per Si atom -5582.741200 kJ/mol
# Density = 1.866582 g / cm^3
# Si number density = 18.708403 Si / 1000 Ang^3
#
#
#
# Elastic Constant Matrix: (Units=GPa)
#
#
# Indices 1 2 3 4 5 6 
#
# 1 15.2612 20.1431 27.0415 0.0000 0.0000 0.0000
# 2 20.1431 128.0367 115.9289 0.0000 0.0000 0.0000
# 3 27.0415 115.9289 183.1698 0.0000 0.0000 0.0000
# 4 0.0000 0.0000 0.0000 36.5694 0.0000 0.0000
# 5 0.0000 0.0000 0.0000 0.0000 28.7291 0.0000
# 6 0.0000 0.0000 0.0000 0.0000 0.0000 27.9425
#
#
#
# Elastic Compliance Matrix: (Units=1/GPa)
#
#
# Indices 1 2 3 4 5 6 
#
# 1 0.090080 -0.004990 -0.010140 0.000000 0.000000 0.000000
# 2 -0.004990 0.018570 -0.011016 0.000000 0.000000 0.000000
# 3 -0.010140 -0.011016 0.013929 0.000000 0.000000 0.000000
# 4 0.000000 0.000000 0.000000 0.027345 0.000000 0.000000
# 5 0.000000 0.000000 0.000000 0.000000 0.034808 0.000000
# 6 0.000000 0.000000 0.000000 0.000000 0.000000 0.035788
#
#
# Mechanical properties :
#
#
# Convention : Reuss Voigt Hill
#
# Bulk Modulus (GPa) = 14.22787 72.52164 43.37476
# Shear Modulus (GPa) = 16.87820 29.53849 23.20835
#
# Velocity S-wave (km/s) = 3.00688 3.97783 3.52594
# Velocity P-wave (km/s) = 4.43584 7.74247 6.30962
#
# Compressibility (1/GPa) = 0.07028460
#
# Stress axis : x y z
#
# Youngs Moduli (GPa) = 11.10130 53.85100 71.79494
#
# Poissons Ratio (x) = 0.26874 0.72800
# Poissons Ratio (y) = 0.05540 0.79090
# Poissons Ratio (z) = 0.11257 0.59323
#
# Static dielectric constant tensor:
#      x y z
#    x 1.653670 0.000000 0.000000 
#    y 0.000000 1.626050 0.000000 
#    z 0.000000 0.000000 1.619820 
# 
# From -- ./inp_files/37671.got.cif
#   From: 2010.05.17/outbox.cif.g08.bks.cpg/sg53_19_cif.got.tgz:37671.got - 2010.06.03 12:45:16.
