data_PCOD9417632
_publ_section_title
;
Structure prediction by ZEFSAII (Michael W. Deem and Ramdas Pophale) SiO2 
 PCOD9417632
Probable space group: P M N A
;
_chemical_formula_sum "Si O2"
_cell_formula_units_Z 56
_cell_length_a 9.275211
_cell_length_b 19.082357
_cell_length_c 16.331010
_cell_angle_alpha 90.000000
_cell_angle_beta 90.000000
_cell_angle_gamma 90.000000
_cell_volume 2890.472617
_symmetry_space_group_name_H-M "P M N A"
_symmetry_group_IT_number 53
_symmetry_cell_setting 'orthorhombic'
loop_
_space_group_symop_operation_xyz
x,y,z
1/2-x,-y,1/2+z
x,-y,-z
1/2-x,y,1/2-z
-x,-y,-z
1/2+x,y,1/2-z
-x,y,z
1/2+x,-y,1/2+z
loop_
_atom_site_type_symbol
_atom_site_label
_atom_site_fract_x
_atom_site_fract_y
_atom_site_fract_z
Si Si1 0.164742 0.420749 0.325428
Si Si2 0.663509 0.713658 0.929588
Si Si3 0.329146 0.296261 0.589771
Si Si4 0.669182 0.151644 0.166974
Si Si5 0.670251 0.461910 0.587624
Si Si6 0.174189 0.168741 0.666395
Si Si7 0.324901 0.080737 0.996961
O O1 0.250000 0.388939 0.250000
O O2 0.172076 0.365753 0.399359
O O3 0.237556 0.493293 0.349500
O O4 0.000000 0.431108 0.302988
O O5 0.500000 0.727157 0.962277
O O6 0.681854 0.765836 0.853676
O O7 0.780514 0.726356 0.998806
O O8 0.500000 0.286896 0.603029
O O9 0.295671 0.379443 0.592498
O O10 0.236691 0.246557 0.648710
O O11 0.750000 0.132847 0.250000
O O12 0.500000 0.134938 0.176598
O O13 0.721693 0.116081 0.082447
O O14 0.695844 0.500000 0.500000
O O15 0.500000 0.469378 0.604233
O O16 0.250000 0.143139 0.750000
O O17 0.214929 0.121676 0.586499
O O18 0.000000 0.169396 0.674004
O O19 0.500000 0.082483 0.997680
O O20 0.278607 0.000000 0.000000
#
# Coordination Sequence:
#
# PCOD9417632 Si02
#       7
#     8   8   8   8   8   8   8
#     4  11  23  36  55  81 114 151 192 241 296 357
#     4  10  20  36  57  84 116 154 196 241 297 357
#     4  11  22  37  62  89 115 153 201 253 305 359
#     4  10  20  36  58  88 122 157 196 238 289 347
#     4  10  21  38  57  80 111 148 193 246 305 361
#     4  11  23  42  66  92 125 162 207 256 301 360
#     4   9  19  38  64  91 124 165 199 236 295 359
#
# _framework density 19.373994
#
# number of rings (size 3 to 8) (size 9 to 14) (size 15 to 20)
#    0.000    1.714    2.857    1.714    0.000    3.714 
#    0.000    0.000    0.000    3.000    0.000    0.000 
#    0.000    0.000    0.000    0.000    0.000    0.000 
#
# Total GULP energy -312423.935817 kJ/mol
# GULP energy per Si atom -5578.998854 kJ/mol
# Density = 1.932990 g / cm^3
# Si number density = 19.373994 Si / 1000 Ang^3
#
#
#
# Elastic Constant Matrix: (Units=GPa)
#
#
# Indices 1 2 3 4 5 6 
#
# 1 45.1751 40.2817 54.2748 0.0000 0.0000 0.0000
# 2 40.2817 110.9002 48.7078 0.0000 0.0000 0.0000
# 3 54.2748 48.7078 124.2927 0.0000 0.0000 0.0000
# 4 0.0000 0.0000 0.0000 16.1840 0.0000 0.0000
# 5 0.0000 0.0000 0.0000 0.0000 38.6766 0.0000
# 6 0.0000 0.0000 0.0000 0.0000 0.0000 5.1793
#
#
#
# Elastic Compliance Matrix: (Units=1/GPa)
#
#
# Indices 1 2 3 4 5 6 
#
# 1 0.057019 -0.011808 -0.020271 0.000000 0.000000 0.000000
# 2 -0.011808 0.013337 -0.000070 0.000000 0.000000 0.000000
# 3 -0.020271 -0.000070 0.016925 0.000000 0.000000 0.000000
# 4 0.000000 0.000000 0.000000 0.061789 0.000000 0.000000
# 5 0.000000 0.000000 0.000000 0.000000 0.025855 0.000000
# 6 0.000000 0.000000 0.000000 0.000000 0.000000 0.193076
#
#
# Mechanical properties :
#
#
# Convention : Reuss Voigt Hill
#
# Bulk Modulus (GPa) = 43.51164 62.98850 53.25007
# Shear Modulus (GPa) = 11.36462 21.14823 16.25642
#
# Velocity S-wave (km/s) = 2.42459 3.30749 2.89984
# Velocity P-wave (km/s) = 5.50870 6.86793 6.22552
#
# Compressibility (1/GPa) = 0.02298235
#
# Stress axis : x y z
#
# Youngs Moduli (GPa) = 17.53791 74.98027 59.08400
#
# Poissons Ratio (x) = 0.88533 1.19772
# Poissons Ratio (y) = 0.20708 0.00416
# Poissons Ratio (z) = 0.35552 0.00528
#
# Static dielectric constant tensor:
#      x y z
#    x 1.656630 0.000000 0.000000 
#    y 0.000000 1.702690 0.000000 
#    z 0.000000 0.000000 1.701640 
# 
# From -- ./inp_files/20546.got.cif
#   From: 2010.05.17/outbox.cif.g08.bks.cpg/sg53_11_cif.got.tgz:20546.got - 2010.06.03 12:45:16.
