data_PCOD9417132
_publ_section_title
;
Structure prediction by ZEFSAII (Michael W. Deem and Ramdas Pophale) SiO2 
 PCOD9417132
Probable space group: P M N A
;
_chemical_formula_sum "Si O2"
_cell_formula_units_Z 40
_cell_length_a 15.317829
_cell_length_b 13.531206
_cell_length_c 9.399522
_cell_angle_alpha 90.000000
_cell_angle_beta 90.000000
_cell_angle_gamma 90.000000
_cell_volume 1948.226702
_symmetry_space_group_name_H-M "P M N A"
_symmetry_group_IT_number 53
_symmetry_cell_setting 'orthorhombic'
loop_
_space_group_symop_operation_xyz
x,y,z
1/2-x,-y,1/2+z
x,-y,-z
1/2-x,y,1/2-z
-x,-y,-z
1/2+x,y,1/2-z
-x,y,z
1/2+x,-y,1/2+z
loop_
_atom_site_type_symbol
_atom_site_label
_atom_site_fract_x
_atom_site_fract_y
_atom_site_fract_z
Si Si1 0.898916 0.990897 0.655460
Si Si2 0.156348 0.599423 0.173655
Si Si3 0.102020 0.828104 0.870605
Si Si4 0.651566 0.186021 0.691337
Si Si5 0.341576 0.614169 0.666937
O O1 0.895745 0.096619 0.730946
O O2 0.000000 0.960312 0.634290
O O3 0.857043 0.000000 0.500000
O O4 0.861533 0.907834 0.759941
O O5 0.250000 0.596683 0.250000
O O6 0.113243 0.703572 0.216169
O O7 0.115103 0.491966 0.204496
O O8 0.171228 0.607959 0.003851
O O9 0.109310 0.717030 0.809393
O O10 0.000000 0.850098 0.899569
O O11 0.149376 0.832180 0.022357
O O12 0.750000 0.186356 0.750000
O O13 0.250000 0.620288 0.750000
#
# Coordination Sequence:
#
# PCOD9417132 Si02
#       5
#     8   8   8   8   8
#     4  10  22  38  54  74 105 143 179 221 275 328
#     4   8  16  31  49  77 108 136 170 218 275 321
#     4  10  21  37  56  80 113 148 181 223 278 329
#     4  10  20  34  55  80 105 137 181 226 267 321
#     4   9  17  31  53  78 105 139 179 219 263 320
#
# _framework density 20.531490000000002
#
# number of rings (size 3 to 8) (size 9 to 14) (size 15 to 20)
#    0.000    2.600    0.000    1.200    0.000    8.800 
#    0.000    9.000    0.000    0.000    0.000   15.400 
#    0.000    0.000    0.000    0.000    0.000    0.000 
#
# Total GULP energy -222861.553783 kJ/mol
# GULP energy per Si atom -5571.538845 kJ/mol
# Density = 2.048476 g / cm^3
# Si number density = 20.531490 Si / 1000 Ang^3
#
#
#
# Elastic Constant Matrix: (Units=GPa)
#
#
# Indices 1 2 3 4 5 6 
#
# 1 43.4421 4.7006 17.0910 0.0000 0.0000 0.0000
# 2 4.7006 175.2155 81.6237 0.0000 0.0000 0.0000
# 3 17.0910 81.6237 81.3270 0.0000 0.0000 0.0000
# 4 0.0000 0.0000 0.0000 21.9968 0.0000 0.0000
# 5 0.0000 0.0000 0.0000 0.0000 18.9987 0.0000
# 6 0.0000 0.0000 0.0000 0.0000 0.0000 29.1560
#
#
#
# Elastic Compliance Matrix: (Units=1/GPa)
#
#
# Indices 1 2 3 4 5 6 
#
# 1 0.026186 0.003495 -0.009011 0.000000 0.000000 0.000000
# 2 0.003495 0.011185 -0.011961 0.000000 0.000000 0.000000
# 3 -0.009011 -0.011961 0.026194 0.000000 0.000000 0.000000
# 4 0.000000 0.000000 0.000000 0.045461 0.000000 0.000000
# 5 0.000000 0.000000 0.000000 0.000000 0.052635 0.000000
# 6 0.000000 0.000000 0.000000 0.000000 0.000000 0.034298
#
#
# Mechanical properties :
#
#
# Convention : Reuss Voigt Hill
#
# Bulk Modulus (GPa) = 34.94976 56.31278 45.63127
# Shear Modulus (GPa) = 20.79430 27.13492 23.96461
#
# Velocity S-wave (km/s) = 3.18590 3.63936 3.42016
# Velocity P-wave (km/s) = 5.53107 6.71915 6.15385
#
# Compressibility (1/GPa) = 0.02861250
#
# Stress axis : x y z
#
# Youngs Moduli (GPa) = 38.18829 89.40263 38.17659
#
# Poissons Ratio (x) = -0.31249 0.34401
# Poissons Ratio (y) = -0.13348 0.45662
# Poissons Ratio (z) = 0.34412 1.06932
#
# Static dielectric constant tensor:
#      x y z
#    x 1.722280 0.000000 0.000000 
#    y 0.000000 1.804870 0.000000 
#    z 0.000000 0.000000 1.715030 
# 
# From -- ./inp_files/8434.got.cif
#   From: 2010.05.17/outbox.cif.g08.bks.cpg/sg53_5_cif.got.tgz:8434.got - 2010.06.03 12:45:16.
