data_PCOD9417395
_publ_section_title
;
Structure prediction by ZEFSAII (Michael W. Deem and Ramdas Pophale) SiO2 
 PCOD9417395
Probable space group: P M N A
;
_chemical_formula_sum "Si O2"
_cell_formula_units_Z 64
_cell_length_a 15.110481
_cell_length_b 9.065097
_cell_length_c 23.074207
_cell_angle_alpha 90.000000
_cell_angle_beta 90.000000
_cell_angle_gamma 90.000000
_cell_volume 3160.658172
_symmetry_space_group_name_H-M "P M N A"
_symmetry_group_IT_number 53
_symmetry_cell_setting 'orthorhombic'
loop_
_space_group_symop_operation_xyz
x,y,z
1/2-x,-y,1/2+z
x,-y,-z
1/2-x,y,1/2-z
-x,-y,-z
1/2+x,y,1/2-z
-x,y,z
1/2+x,-y,1/2+z
loop_
_atom_site_type_symbol
_atom_site_label
_atom_site_fract_x
_atom_site_fract_y
_atom_site_fract_z
Si Si1 0.372273 0.981842 0.863222
Si Si2 0.599463 0.324824 0.861654
Si Si3 0.198064 0.961915 0.190079
Si Si4 0.600414 0.204495 0.251413
Si Si5 0.106862 0.533609 0.244566
Si Si6 0.902517 0.831882 0.521503
Si Si7 0.739855 0.635415 0.042972
Si Si8 0.605443 0.302673 0.631553
O O1 0.398024 0.907524 0.802614
O O2 0.396040 0.860028 0.910214
O O3 0.407671 0.148061 0.871399
O O4 0.268831 0.017530 0.860375
O O5 0.500000 0.386559 0.868124
O O6 0.632603 0.355901 0.796229
O O7 0.668621 0.395977 0.905827
O O8 0.250000 0.918427 0.250000
O O9 0.126162 0.845904 0.168326
O O10 0.158459 0.121832 0.201808
O O11 0.500000 0.218869 0.271803
O O12 0.633326 0.368274 0.238144
O O13 0.133677 0.574413 0.179391
O O14 0.000000 0.542953 0.243247
O O15 0.817946 0.751020 0.495055
O O16 0.000000 0.765830 0.506748
O O17 0.902276 0.000000 0.500000
O O18 0.829225 0.686897 0.076214
O O19 0.758437 0.500000 0.000000
O O20 0.500000 0.313242 0.618585
#
# Coordination Sequence:
#
# PCOD9417395 Si02
#       8
#     8   8   8   8   8   8   8   8
#     4  11  21  37  59  91 127 166 205 250 310 376
#     4  11  21  40  65  94 132 167 203 252 317 394
#     4  10  20  36  61  97 130 164 207 259 313 385
#     4  10  20  35  56  93 132 163 202 249 311 379
#     4   9  21  37  61  95 128 162 202 252 320 391
#     4  11  22  40  64  89 123 166 213 261 314 377
#     4  12  28  43  61  93 126 168 223 274 316 377
#     4  11  23  45  70  90 121 171 220 268 324 382
#
# _framework density 20.248946
#
# number of rings (size 3 to 8) (size 9 to 14) (size 15 to 20)
#    0.000    1.375    2.500    3.375    1.750    3.250 
#    4.500    0.000    0.000    4.125    0.000    0.000 
#    0.000    0.000    0.000    0.000    0.000    0.000 
#
# Total GULP energy -356848.145850 kJ/mol
# GULP energy per Si atom -5575.752279 kJ/mol
# Density = 2.020286 g / cm^3
# Si number density = 20.248946 Si / 1000 Ang^3
#
#
#
# Elastic Constant Matrix: (Units=GPa)
#
#
# Indices 1 2 3 4 5 6 
#
# 1 112.0737 20.2032 45.5349 0.0000 0.0000 0.0000
# 2 20.2032 63.6074 32.2564 0.0000 0.0000 0.0000
# 3 45.5349 32.2564 78.3033 0.0000 0.0000 0.0000
# 4 0.0000 0.0000 0.0000 30.3217 0.0000 0.0000
# 5 0.0000 0.0000 0.0000 0.0000 35.4543 0.0000
# 6 0.0000 0.0000 0.0000 0.0000 0.0000 12.7841
#
#
#
# Elastic Compliance Matrix: (Units=1/GPa)
#
#
# Indices 1 2 3 4 5 6 
#
# 1 0.011689 -0.000336 -0.006659 0.000000 0.000000 0.000000
# 2 -0.000336 0.019883 -0.007995 0.000000 0.000000 0.000000
# 3 -0.006659 -0.007995 0.019937 0.000000 0.000000 0.000000
# 4 0.000000 0.000000 0.000000 0.032980 0.000000 0.000000
# 5 0.000000 0.000000 0.000000 0.000000 0.028205 0.000000
# 6 0.000000 0.000000 0.000000 0.000000 0.000000 0.078222
#
#
# Mechanical properties :
#
#
# Convention : Reuss Voigt Hill
#
# Bulk Modulus (GPa) = 46.45062 49.99706 48.22384
# Shear Modulus (GPa) = 21.92300 26.11134 24.01717
#
# Velocity S-wave (km/s) = 3.29397 3.59488 3.44771
# Velocity P-wave (km/s) = 6.12018 6.47886 6.30207
#
# Compressibility (1/GPa) = 0.02152824
#
# Stress axis : x y z
#
# Youngs Moduli (GPa) = 85.55277 50.29516 50.15871
#
# Poissons Ratio (x) = 0.01689 0.33400
# Poissons Ratio (y) = 0.02873 0.40103
# Poissons Ratio (z) = 0.56969 0.40212
#
# Static dielectric constant tensor:
#      x y z
#    x 1.780240 0.000000 0.000000 
#    y 0.000000 1.733530 0.000000 
#    z 0.000000 0.000000 1.800350 
# 
# From -- ./inp_files/35352.got.cif
#   From: 2010.05.17/outbox.cif.g08.bks.cpg/sg53_18_cif.got.tgz:35352.got - 2010.06.03 12:45:16.
