data_PCOD9417438
_publ_section_title
;
Structure prediction by ZEFSAII (Michael W. Deem and Ramdas Pophale) SiO2 
 PCOD9417438
Probable space group: P M N A
;
_chemical_formula_sum "Si O2"
_cell_formula_units_Z 48
_cell_length_a 19.371662
_cell_length_b 14.154865
_cell_length_c 6.996811
_cell_angle_alpha 90.000000
_cell_angle_beta 90.000000
_cell_angle_gamma 90.000000
_cell_volume 1918.548389
_symmetry_space_group_name_H-M "P M N A"
_symmetry_group_IT_number 53
_symmetry_cell_setting 'orthorhombic'
loop_
_space_group_symop_operation_xyz
x,y,z
1/2-x,-y,1/2+z
x,-y,-z
1/2-x,y,1/2-z
-x,-y,-z
1/2+x,y,1/2-z
-x,y,z
1/2+x,-y,1/2+z
loop_
_atom_site_type_symbol
_atom_site_label
_atom_site_fract_x
_atom_site_fract_y
_atom_site_fract_z
Si Si1 0.350815 0.017307 0.784081
Si Si2 0.650030 0.388476 0.452897
Si Si3 0.500000 0.051009 0.301244
Si Si4 0.192801 0.611787 0.516351
Si Si5 0.000000 0.386718 0.057194
Si Si6 0.354586 0.789011 0.072680
Si Si7 0.250000 0.132563 0.250000
Si Si8 0.500000 0.239692 0.134000
O O1 0.429587 0.985787 0.788280
O O2 0.307947 0.939863 0.666502
O O3 0.345593 0.130320 0.767476
O O4 0.324887 0.000000 0.000000
O O5 0.646514 0.500000 0.500000
O O6 0.727183 0.362871 0.512941
O O7 0.659120 0.371281 0.224385
O O8 0.574827 0.349787 0.511062
O O9 0.500000 0.000000 0.500000
O O10 0.500000 0.163980 0.307145
O O11 0.186689 0.500000 0.500000
O O12 0.154869 0.680296 0.370143
O O13 0.000000 0.500000 0.000000
O O14 0.000000 0.345829 0.278166
O O15 0.295468 0.809957 0.907367
O O16 0.431412 0.788815 0.983758
#
# Coordination Sequence:
#
# PCOD9417438 Si02
#       8
#     8   8   4   8   4   8   4   4
#     4  10  21  41  64  92 124 167 210 269 320 386
#     4   9  18  35  58  80 120 163 208 254 305 370
#     4  12  24  40  64  94 126 157 213 271 326 387
#     4  10  20  36  59  93 122 159 213 261 317 372
#     4  10  20  35  57  91 120 162 213 253 301 368
#     4  11  22  38  67  89 126 169 223 254 319 403
#     4  10  20  36  62  94 116 162 212 262 306 380
#     4  12  21  40  66  92 114 182 214 248 320 399
#
# _framework density 25.018915
#
# number of rings (size 3 to 8) (size 9 to 14) (size 15 to 20)
#    0.000    1.667    5.000    1.750    0.000    2.000 
#    0.000    8.333    0.000    0.000    0.000    0.000 
#    0.000    0.000    0.000    0.000    0.000    0.000 
#
# Total GULP energy -267296.226307 kJ/mol
# GULP energy per Si atom -5568.671381 kJ/mol
# Density = 2.496197 g / cm^3
# Si number density = 25.018915 Si / 1000 Ang^3
#
#
#
# Elastic Constant Matrix: (Units=GPa)
#
#
# Indices 1 2 3 4 5 6 
#
# 1 225.5643 55.3731 33.4888 0.0000 0.0000 0.0000
# 2 55.3731 146.8438 16.7702 0.0000 0.0000 0.0000
# 3 33.4888 16.7702 59.1981 0.0000 0.0000 0.0000
# 4 0.0000 0.0000 0.0000 29.4237 0.0000 0.0000
# 5 0.0000 0.0000 0.0000 0.0000 20.2064 0.0000
# 6 0.0000 0.0000 0.0000 0.0000 0.0000 24.8196
#
#
#
# Elastic Compliance Matrix: (Units=1/GPa)
#
#
# Indices 1 2 3 4 5 6 
#
# 1 0.005214 -0.001684 -0.002472 0.000000 0.000000 0.000000
# 2 -0.001684 0.007581 -0.001195 0.000000 0.000000 0.000000
# 3 -0.002472 -0.001195 0.018630 0.000000 0.000000 0.000000
# 4 0.000000 0.000000 0.000000 0.033986 0.000000 0.000000
# 5 0.000000 0.000000 0.000000 0.000000 0.049489 0.000000
# 6 0.000000 0.000000 0.000000 0.000000 0.000000 0.040291
#
#
# Mechanical properties :
#
#
# Convention : Reuss Voigt Hill
#
# Bulk Modulus (GPa) = 48.25788 71.43006 59.84397
# Shear Modulus (GPa) = 28.93501 36.62155 32.77828
#
# Velocity S-wave (km/s) = 3.40446 3.83006 3.62351
# Velocity P-wave (km/s) = 5.89782 6.94057 6.44033
#
# Compressibility (1/GPa) = 0.02072200
#
# Stress axis : x y z
#
# Youngs Moduli (GPa) = 191.80143 131.90260 53.67766
#
# Poissons Ratio (x) = 0.22208 0.13272
# Poissons Ratio (y) = 0.32293 0.06416
# Poissons Ratio (z) = 0.47423 0.15766
#
# Static dielectric constant tensor:
#      x y z
#    x 1.540020 0.000000 0.000000 
#    y 0.000000 2.091590 0.000000 
#    z 0.000000 0.000000 1.866850 
# 
# From -- ./inp_files/10076.got.cif
#   From: 2010.05.17/outbox.cif.g08.bks.cpg/sg53_6_cif.got.tgz:10076.got - 2010.06.03 12:45:16.
