data_PCOD9417933
_publ_section_title
;
Structure prediction by ZEFSAII (Michael W. Deem and Ramdas Pophale) SiO2 
 PCOD9417933
Probable space group: P M N A
;
_chemical_formula_sum "Si O2"
_cell_formula_units_Z 56
_cell_length_a 9.000566
_cell_length_b 21.291496
_cell_length_c 15.713943
_cell_angle_alpha 90.000000
_cell_angle_beta 90.000000
_cell_angle_gamma 90.000000
_cell_volume 3011.349559
_symmetry_space_group_name_H-M "P M N A"
_symmetry_group_IT_number 53
_symmetry_cell_setting 'orthorhombic'
loop_
_space_group_symop_operation_xyz
x,y,z
1/2-x,-y,1/2+z
x,-y,-z
1/2-x,y,1/2-z
-x,-y,-z
1/2+x,y,1/2-z
-x,y,z
1/2+x,-y,1/2+z
loop_
_atom_site_type_symbol
_atom_site_label
_atom_site_fract_x
_atom_site_fract_y
_atom_site_fract_z
Si Si1 0.177273 0.143104 0.004322
Si Si2 0.823313 0.500066 0.601407
Si Si3 0.677462 0.290907 0.501594
Si Si4 0.176148 0.931079 0.659652
Si Si5 0.322399 0.359356 0.839644
Si Si6 0.677364 0.373224 0.337601
Si Si7 0.676216 0.080906 0.840315
O O1 0.249010 0.106542 0.083260
O O2 0.000000 0.133149 0.003646
O O3 0.206287 0.217382 0.011228
O O4 0.247654 0.117167 0.917463
O O5 0.795250 0.500000 0.500000
O O6 0.784504 0.432036 0.638854
O O7 0.733799 0.556428 0.643723
O O8 0.000000 0.510575 0.614032
O O9 0.500000 0.299308 0.513934
O O10 0.760973 0.317538 0.583581
O O11 0.720976 0.330446 0.418086
O O12 0.250000 0.914679 0.750000
O O13 0.000000 0.919117 0.662223
O O14 0.197586 0.005959 0.646526
O O15 0.250000 0.341782 0.750000
O O16 0.500000 0.354400 0.835111
O O17 0.750000 0.350806 0.250000
O O18 0.500000 0.372523 0.329967
O O19 0.750000 0.097418 0.750000
O O20 0.500000 0.093118 0.838078
#
# Coordination Sequence:
#
# PCOD9417933 Si02
#       7
#     8   8   8   8   8   8   8
#     4  11  23  39  60  86 119 157 198 242 291 346
#     4  10  20  37  61  90 119 146 186 238 292 347
#     4  10  24  43  59  82 116 155 199 242 285 341
#     4  10  21  38  61  90 122 154 193 241 290 346
#     4  11  23  39  62  87 116 152 191 239 292 348
#     4  11  23  39  61  86 115 152 193 238 291 346
#     4  10  21  38  61  90 121 154 194 240 292 346
#
# _framework density 18.596312000000001
#
# number of rings (size 3 to 8) (size 9 to 14) (size 15 to 20)
#    0.000    1.571    1.429    3.000    0.000    8.857 
#    0.000    1.429    0.000    0.000    0.000    0.000 
#    0.000    0.000    0.000    0.000    0.000    0.000 
#
# Total GULP energy -313112.391703 kJ/mol
# GULP energy per Si atom -5591.292709 kJ/mol
# Density = 1.855399 g / cm^3
# Si number density = 18.596312 Si / 1000 Ang^3
#
#
#
# Elastic Constant Matrix: (Units=GPa)
#
#
# Indices 1 2 3 4 5 6 
#
# 1 57.0805 36.9267 39.3861 0.0000 0.0000 0.0000
# 2 36.9267 41.2906 23.4512 0.0000 0.0000 0.0000
# 3 39.3861 23.4512 104.6281 0.0000 0.0000 0.0000
# 4 0.0000 0.0000 0.0000 -59.5384 0.0000 0.0000
# 5 0.0000 0.0000 0.0000 0.0000 39.5248 0.0000
# 6 0.0000 0.0000 0.0000 0.0000 0.0000 23.8231
#
#
#
# Elastic Compliance Matrix: (Units=1/GPa)
#
#
# Indices 1 2 3 4 5 6 
#
# 1 0.049156 -0.038331 -0.009913 0.000000 0.000000 0.000000
# 2 -0.038331 0.057641 0.001510 0.000000 0.000000 0.000000
# 3 -0.009913 0.001510 0.012951 0.000000 0.000000 0.000000
# 4 0.000000 0.000000 0.000000 -0.016796 0.000000 0.000000
# 5 0.000000 0.000000 0.000000 0.000000 0.025301 0.000000
# 6 0.000000 0.000000 0.000000 0.000000 0.000000 0.041976
#
#
# Mechanical properties :
#
#
# Convention : Reuss Voigt Hill
#
# Bulk Modulus (GPa) = 38.05203 44.72526 41.38864
# Shear Modulus (GPa) = 18.35152 7.64426 12.99789
#
# Velocity S-wave (km/s) = 3.14480 2.02967 2.64663
# Velocity P-wave (km/s) = 5.80456 5.44018 5.62532
#
# Compressibility (1/GPa) = 0.02627981
#
# Stress axis : x y z
#
# Youngs Moduli (GPa) = 20.34328 17.34878 77.21484
#
# Poissons Ratio (x) = 0.66500 0.76542
# Poissons Ratio (y) = 0.77978 -0.11657
# Poissons Ratio (z) = 0.20166 -0.02619
#
# Static dielectric constant tensor:
#      x y z
#    x 1.617020 0.000000 0.000000 
#    y 0.000000 1.617430 0.000000 
#    z 0.000000 0.000000 1.614060 
# 
# From -- ./inp_files/20534.got.cif
#   From: 2010.05.17/outbox.cif.g08.bks.cpg/sg53_11_cif.got.tgz:20534.got - 2010.06.03 12:45:16.
