data_PCOD9417116
_publ_section_title
;
Structure prediction by ZEFSAII (Michael W. Deem and Ramdas Pophale) SiO2 
 PCOD9417116
Probable space group: P M N A
;
_chemical_formula_sum "Si O2"
_cell_formula_units_Z 64
_cell_length_a 8.793039
_cell_length_b 16.914459
_cell_length_c 23.451861
_cell_angle_alpha 90.000000
_cell_angle_beta 90.000000
_cell_angle_gamma 90.000000
_cell_volume 3487.983506
_symmetry_space_group_name_H-M "P M N A"
_symmetry_group_IT_number 53
_symmetry_cell_setting 'orthorhombic'
loop_
_space_group_symop_operation_xyz
x,y,z
1/2-x,-y,1/2+z
x,-y,-z
1/2-x,y,1/2-z
-x,-y,-z
1/2+x,y,1/2-z
-x,y,z
1/2+x,-y,1/2+z
loop_
_atom_site_type_symbol
_atom_site_label
_atom_site_fract_x
_atom_site_fract_y
_atom_site_fract_z
Si Si1 0.683518 0.291502 0.082129
Si Si2 0.821891 0.286809 0.687974
Si Si3 0.680110 0.869865 0.313237
Si Si4 0.184012 0.124715 0.470515
Si Si5 0.683550 0.042994 0.914489
Si Si6 0.682400 0.612038 0.685852
Si Si7 0.823018 0.562444 0.137024
Si Si8 0.670990 0.589300 0.020838
O O1 0.500000 0.289787 0.089414
O O2 0.736409 0.205571 0.059325
O O3 0.754985 0.323116 0.141035
O O4 0.715317 0.353984 0.031206
O O5 0.750000 0.284612 0.750000
O O6 0.741310 0.212127 0.658862
O O7 0.782522 0.372843 0.666033
O O8 0.000000 0.272612 0.688773
O O9 0.750000 0.879453 0.250000
O O10 0.500000 0.866876 0.308415
O O11 0.737180 0.937106 0.355522
O O12 0.232155 0.104024 0.535253
O O13 0.000000 0.130141 0.472748
O O14 0.220231 0.045595 0.435177
O O15 0.500000 0.048686 0.908868
O O16 0.750000 0.617108 0.750000
O O17 0.500000 0.618175 0.689460
O O18 0.718315 0.525906 0.657563
O O19 0.792263 0.581356 0.071004
O O20 0.000000 0.575139 0.151541
O O21 0.500000 0.615000 0.041004
O O22 0.655820 0.500000 0.000000
#
# Coordination Sequence:
#
# PCOD9417116 Si02
#       8
#     8   8   8   8   8   8   8   8
#     4  10  20  37  59  85 116 150 192 235 282 340
#     4  11  22  37  56  79 111 148 188 231 276 332
#     4  11  22  37  56  83 116 152 190 232 284 341
#     4   8  17  34  60  88 115 149 188 232 283 341
#     4   9  17  35  60  87 116 149 189 230 279 341
#     4  11  24  40  59  81 109 150 193 241 291 338
#     4  11  23  37  55  81 113 149 191 235 283 335
#     4  10  20  34  54  82 114 150 187 230 280 333
#
# _framework density 18.348710000000001
#
# number of rings (size 3 to 8) (size 9 to 14) (size 15 to 20)
#    0.000    1.875    1.250    4.875    1.750    3.250 
#    0.000    3.125    0.000    0.000    0.000    0.000 
#    0.000    0.000    0.000    0.000    0.000    0.000 
#
# Total GULP energy -356833.720245 kJ/mol
# GULP energy per Si atom -5575.526879 kJ/mol
# Density = 1.830695 g / cm^3
# Si number density = 18.348710 Si / 1000 Ang^3
#
#
#
# Elastic Constant Matrix: (Units=GPa)
#
#
# Indices 1 2 3 4 5 6 
#
# 1 79.4357 41.5091 46.4928 0.0000 0.0000 0.0000
# 2 41.5091 108.0386 71.6467 0.0000 0.0000 0.0000
# 3 46.4928 71.6467 115.9874 0.0000 0.0000 0.0000
# 4 0.0000 0.0000 0.0000 26.6281 0.0000 0.0000
# 5 0.0000 0.0000 0.0000 0.0000 2747.6745 0.0000
# 6 0.0000 0.0000 0.0000 0.0000 0.0000 22.6144
#
#
#
# Elastic Compliance Matrix: (Units=1/GPa)
#
#
# Indices 1 2 3 4 5 6 
#
# 1 0.017172 -0.003443 -0.004756 0.000000 0.000000 0.000000
# 2 -0.003443 0.016369 -0.008731 0.000000 0.000000 0.000000
# 3 -0.004756 -0.008731 0.015921 0.000000 0.000000 0.000000
# 4 0.000000 0.000000 0.000000 0.037554 0.000000 0.000000
# 5 0.000000 0.000000 0.000000 0.000000 0.000364 0.000000
# 6 0.000000 0.000000 0.000000 0.000000 0.000000 0.044220
#
#
# Mechanical properties :
#
#
# Convention : Reuss Voigt Hill
#
# Bulk Modulus (GPa) = 64.09867 69.19543 66.64705
# Shear Modulus (GPa) = 29.29770 568.97092 299.13431
#
# Velocity S-wave (km/s) = 4.00023 17.62841 12.78207
# Velocity P-wave (km/s) = 7.50635 21.26361 15.94500
#
# Compressibility (1/GPa) = 0.01560095
#
# Stress axis : x y z
#
# Youngs Moduli (GPa) = 58.23460 61.09107 62.80863
#
# Poissons Ratio (x) = 0.21036 0.29873
# Poissons Ratio (y) = 0.20053 0.54838
# Poissons Ratio (z) = 0.27698 0.53339
#
# Static dielectric constant tensor:
#      x y z
#    x 0.909450 0.000000 0.000000 
#    y 0.000000 1.718530 0.000000 
#    z 0.000000 0.000000 1.577610 
# 
# From -- ./inp_files/34244.got.cif
#   From: 2010.05.17/outbox.cif.g08.bks.cpg/sg53_18_cif.got.tgz:34244.got - 2010.06.03 12:45:16.
