data_PCOD9417938
_publ_section_title
;
Structure prediction by ZEFSAII (Michael W. Deem and Ramdas Pophale) SiO2 
 PCOD9417938
Probable space group: P M N A
;
_chemical_formula_sum "Si O2"
_cell_formula_units_Z 36
_cell_length_a 18.919233
_cell_length_b 7.773400
_cell_length_c 11.031503
_cell_angle_alpha 90.000000
_cell_angle_beta 90.000000
_cell_angle_gamma 90.000000
_cell_volume 1622.367468
_symmetry_space_group_name_H-M "P M N A"
_symmetry_group_IT_number 53
_symmetry_cell_setting 'orthorhombic'
loop_
_space_group_symop_operation_xyz
x,y,z
1/2-x,-y,1/2+z
x,-y,-z
1/2-x,y,1/2-z
-x,-y,-z
1/2+x,y,1/2-z
-x,y,z
1/2+x,-y,1/2+z
loop_
_atom_site_type_symbol
_atom_site_label
_atom_site_fract_x
_atom_site_fract_y
_atom_site_fract_z
Si Si1 0.000000 0.403246 0.307107
Si Si2 0.750000 0.645328 0.250000
Si Si3 0.349868 0.081874 0.874534
Si Si4 0.000000 0.236898 0.550317
Si Si5 0.917493 0.953539 0.138614
Si Si6 0.887851 0.453753 0.862647
O O1 0.000000 0.254164 0.405191
O O2 0.000000 0.577757 0.386422
O O3 0.932381 0.420645 0.222226
O O4 0.703688 0.766947 0.162450
O O5 0.693759 0.538509 0.326104
O O6 0.427946 0.149091 0.909194
O O7 0.366345 0.981552 0.747461
O O8 0.322977 0.000000 0.000000
O O9 0.912350 0.745300 0.151107
O O10 0.000000 0.005386 0.154253
O O11 0.896891 0.000000 0.000000
O O12 0.900498 0.500000 0.000000
#
# Coordination Sequence:
#
# PCOD9417938 Si02
#       6
#     4   4   8   4   8   8
#     4  11  21  38  64  93 120 154 202 260 312 364
#     4  10  24  40  58  90 124 170 204 254 298 368
#     4  11  22  42  64  90 124 163 208 254 312 370
#     4  11  21  38  66  93 120 154 204 264 314 358
#     4  10  20  37  61  91 122 153 195 251 307 359
#     4  11  22  41  62  88 124 163 204 249 310 370
#
# _framework density 22.189793000000002
#
# number of rings (size 3 to 8) (size 9 to 14) (size 15 to 20)
#    0.000    1.333    6.667    0.667    0.000    7.111 
#    0.000    0.000    0.000    0.000    0.000    0.000 
#    0.000    0.000    0.000    0.000    0.000    0.000 
#
# Total GULP energy -201140.109481 kJ/mol
# GULP energy per Si atom -5587.225263 kJ/mol
# Density = 2.213929 g / cm^3
# Si number density = 22.189793 Si / 1000 Ang^3
#
#
#
# Elastic Constant Matrix: (Units=GPa)
#
#
# Indices 1 2 3 4 5 6 
#
# 1 111.5491 8.7899 39.5889 0.0000 0.0000 0.0000
# 2 8.7899 30.3119 21.1066 0.0000 0.0000 0.0000
# 3 39.5889 21.1066 204.3333 0.0000 0.0000 0.0000
# 4 0.0000 0.0000 0.0000 29.0922 0.0000 0.0000
# 5 0.0000 0.0000 0.0000 0.0000 8.1416 0.0000
# 6 0.0000 0.0000 0.0000 0.0000 0.0000 -2.8147
#
#
#
# Elastic Compliance Matrix: (Units=1/GPa)
#
#
# Indices 1 2 3 4 5 6 
#
# 1 0.009700 -0.001621 -0.001712 0.000000 0.000000 0.000000
# 2 -0.001621 0.035818 -0.003386 0.000000 0.000000 0.000000
# 3 -0.001712 -0.003386 0.005575 0.000000 0.000000 0.000000
# 4 0.000000 0.000000 0.000000 0.034373 0.000000 0.000000
# 5 0.000000 0.000000 0.000000 0.000000 0.122826 0.000000
# 6 0.000000 0.000000 0.000000 0.000000 0.000000 -0.355280
#
#
# Mechanical properties :
#
#
# Convention : Reuss Voigt Hill
#
# Bulk Modulus (GPa) = 26.55602 53.90725 40.23164
# Shear Modulus (GPa) = -41.32290 25.33109 -7.99591
#
# Velocity S-wave (km/s) = -4.32006 3.38237 -1.90033
# Velocity P-wave (km/s) = 3.59030 6.29288 3.65446
#
# Compressibility (1/GPa) = 0.03765624
#
# Stress axis : x y z
#
# Youngs Moduli (GPa) = 103.09343 27.91899 179.36007
#
# Poissons Ratio (x) = 0.04525 0.30705
# Poissons Ratio (y) = 0.16709 0.60728
# Poissons Ratio (z) = 0.17649 0.09453
#
# Static dielectric constant tensor:
#      x y z
#    x 1.788870 0.000000 0.000000 
#    y 0.000000 1.871840 0.000000 
#    z 0.000000 0.000000 1.880780 
# 
# From -- ./inp_files/17592.got.cif
#   From: 2010.05.17/outbox.cif.g08.bks.cpg/sg53_9_cif.got.tgz:17592.got - 2010.06.03 12:45:16.
