data_PCOD9417458
_publ_section_title
;
Structure prediction by ZEFSAII (Michael W. Deem and Ramdas Pophale) SiO2 
 PCOD9417458
Probable space group: P M N A
;
_chemical_formula_sum "Si O2"
_cell_formula_units_Z 64
_cell_length_a 7.853812
_cell_length_b 13.357688
_cell_length_c 29.083562
_cell_angle_alpha 90.000000
_cell_angle_beta 90.000000
_cell_angle_gamma 90.000000
_cell_volume 3051.120726
_symmetry_space_group_name_H-M "P M N A"
_symmetry_group_IT_number 53
_symmetry_cell_setting 'orthorhombic'
loop_
_space_group_symop_operation_xyz
x,y,z
1/2-x,-y,1/2+z
x,-y,-z
1/2-x,y,1/2-z
-x,-y,-z
1/2+x,y,1/2-z
-x,y,z
1/2+x,-y,1/2+z
loop_
_atom_site_type_symbol
_atom_site_label
_atom_site_fract_x
_atom_site_fract_y
_atom_site_fract_z
Si Si1 0.705738 0.233016 0.803472
Si Si2 0.294534 0.357355 0.361700
Si Si3 0.704335 0.420457 0.862519
Si Si4 0.706225 0.956697 0.951435
Si Si5 0.202155 0.726350 0.957728
Si Si6 0.700524 0.414585 0.966342
Si Si7 0.202613 0.035991 0.644501
Si Si8 0.203531 0.833479 0.803388
O O1 0.750000 0.232571 0.750000
O O2 0.500000 0.232196 0.806207
O O3 0.768779 0.332351 0.829673
O O4 0.770786 0.132992 0.829023
O O5 0.500000 0.353525 0.362465
O O6 0.242448 0.467392 0.345923
O O7 0.233748 0.337889 0.414039
O O8 0.233631 0.265611 0.330110
O O9 0.500000 0.409259 0.864410
O O10 0.772187 0.411207 0.914924
O O11 0.500000 0.960515 0.951324
O O12 0.758291 0.841333 0.947592
O O13 0.770028 0.017019 0.906939
O O14 0.766739 0.000000 0.000000
O O15 0.000000 0.713474 0.961057
O O16 0.280410 0.687502 0.005154
O O17 0.500000 0.436684 0.961318
O O18 0.775673 0.500000 0.000000
O O19 0.230011 0.934723 0.673285
O O20 0.000000 0.050821 0.640036
O O21 0.250000 0.829698 0.750000
O O22 0.000000 0.835599 0.807699
#
# Coordination Sequence:
#
# PCOD9417458 Si02
#       8
#     8   8   8   8   8   8   8   8
#     4  10  23  42  62  86 117 154 199 251 302 349
#     4  10  22  39  58  84 122 158 191 239 298 357
#     4  10  22  39  62  88 118 155 201 253 295 348
#     4  10  22  38  61  90 121 159 197 238 290 354
#     4  11  22  37  57  84 122 160 193 239 294 354
#     4  10  20  35  58  87 115 151 198 242 286 344
#     4  10  21  39  63  90 119 154 196 243 295 353
#     4  11  23  40  61  88 118 151 193 246 301 356
#
# _framework density 20.975898000000001
#
# number of rings (size 3 to 8) (size 9 to 14) (size 15 to 20)
#    0.000    1.750    2.500    1.125    1.750    5.000 
#    0.000    2.500    0.000    0.000    0.000    0.000 
#    0.000    0.000    0.000    0.000    0.000    0.000 
#
# Total GULP energy -357612.714217 kJ/mol
# GULP energy per Si atom -5587.698660 kJ/mol
# Density = 2.092816 g / cm^3
# Si number density = 20.975898 Si / 1000 Ang^3
#
#
#
# Elastic Constant Matrix: (Units=GPa)
#
#
# Indices 1 2 3 4 5 6 
#
# 1 22.5735 -2.2794 0.8971 0.0000 0.0000 0.0000
# 2 -2.2794 175.2045 87.0321 0.0000 0.0000 0.0000
# 3 0.8971 87.0321 134.3029 0.0000 0.0000 0.0000
# 4 0.0000 0.0000 0.0000 29.0929 0.0000 0.0000
# 5 0.0000 0.0000 0.0000 0.0000 18.2050 0.0000
# 6 0.0000 0.0000 0.0000 0.0000 0.0000 42.3149
#
#
#
# Elastic Compliance Matrix: (Units=1/GPa)
#
#
# Indices 1 2 3 4 5 6 
#
# 1 0.044447 0.001070 -0.000990 0.000000 0.000000 0.000000
# 2 0.001070 0.008443 -0.005478 0.000000 0.000000 0.000000
# 3 -0.000990 -0.005478 0.011003 0.000000 0.000000 0.000000
# 4 0.000000 0.000000 0.000000 0.034373 0.000000 0.000000
# 5 0.000000 0.000000 0.000000 0.000000 0.054930 0.000000
# 6 0.000000 0.000000 0.000000 0.000000 0.000000 0.023632
#
#
# Mechanical properties :
#
#
# Convention : Reuss Voigt Hill
#
# Bulk Modulus (GPa) = 18.83396 55.93117 37.38257
# Shear Modulus (GPa) = 24.35182 34.35129 29.35155
#
# Velocity S-wave (km/s) = 3.41096 4.05119 3.74478
# Velocity P-wave (km/s) = 4.95088 6.97174 6.04634
#
# Compressibility (1/GPa) = 0.05309558
#
# Stress axis : x y z
#
# Youngs Moduli (GPa) = 22.49859 118.44250 90.88734
#
# Poissons Ratio (x) = -0.12676 0.09002
# Poissons Ratio (y) = -0.02408 0.49792
# Poissons Ratio (z) = 0.02228 0.64888
#
# Static dielectric constant tensor:
#      x y z
#    x 1.774040 0.000000 0.000000 
#    y 0.000000 1.743150 0.000000 
#    z 0.000000 0.000000 1.744800 
# 
# From -- ./inp_files/38166.got.cif
#   From: 2010.05.17/outbox.cif.g08.bks.cpg/sg53_20_cif.got.tgz:38166.got - 2010.06.03 12:45:16.
