data_PCOD9417323
_publ_section_title
;
Structure prediction by ZEFSAII (Michael W. Deem and Ramdas Pophale) SiO2 
 PCOD9417323
Probable space group: P M N A
;
_chemical_formula_sum "Si O2"
_cell_formula_units_Z 48
_cell_length_a 8.500201
_cell_length_b 8.387825
_cell_length_c 35.923630
_cell_angle_alpha 90.000000
_cell_angle_beta 90.000000
_cell_angle_gamma 90.000000
_cell_volume 2561.290101
_symmetry_space_group_name_H-M "P M N A"
_symmetry_group_IT_number 53
_symmetry_cell_setting 'orthorhombic'
loop_
_space_group_symop_operation_xyz
x,y,z
1/2-x,-y,1/2+z
x,-y,-z
1/2-x,y,1/2-z
-x,-y,-z
1/2+x,y,1/2-z
-x,y,z
1/2+x,-y,1/2+z
loop_
_atom_site_type_symbol
_atom_site_label
_atom_site_fract_x
_atom_site_fract_y
_atom_site_fract_z
Si Si1 0.825255 0.611239 0.036875
Si Si2 0.311566 0.390733 0.792407
Si Si3 0.310663 0.045110 0.707601
Si Si4 0.182545 0.843898 0.514162
Si Si5 0.810750 0.712514 0.832626
Si Si6 0.810232 0.348910 0.414486
O O1 0.765634 0.515215 0.072406
O O2 0.000000 0.677801 0.043294
O O3 0.837773 0.500000 0.000000
O O4 0.696525 0.731873 0.021670
O O5 0.250000 0.400225 0.750000
O O6 0.500000 0.389618 0.792846
O O7 0.252175 0.550858 0.812951
O O8 0.252234 0.217030 0.807112
O O9 0.250000 0.031655 0.750000
O O10 0.500000 0.052965 0.707580
O O11 0.262947 0.881411 0.686464
O O12 0.244174 0.767937 0.552080
O O13 0.000000 0.875180 0.522458
O O14 0.268159 0.000000 0.500000
O O15 0.748761 0.706976 0.874743
O O16 0.000000 0.706568 0.831853
O O17 0.000000 0.361449 0.414950
#
# Coordination Sequence:
#
# PCOD9417323 Si02
#       6
#     8   8   8   8   8   8
#     4   9  17  31  52  75 101 136 177 222 269 325
#     4  11  22  38  62  89 118 154 196 241 286 345
#     4  10  21  38  61  87 117 155 196 243 290 342
#     4   9  18  34  55  79 107 141 183 232 279 336
#     4  11  23  39  59  85 120 157 195 242 295 347
#     4  10  20  35  55  79 108 145 186 231 284 341
#
# _framework density 18.740556000000002
#
# number of rings (size 3 to 8) (size 9 to 14) (size 15 to 20)
#    0.000    2.000    0.000    5.000    0.000    7.000 
#    3.000    0.000    0.000    0.000    0.000    0.000 
#    0.000    0.000    0.000    0.000    0.000    0.000 
#
# Total GULP energy -267285.449244 kJ/mol
# GULP energy per Si atom -5568.446859 kJ/mol
# Density = 1.869790 g / cm^3
# Si number density = 18.740556 Si / 1000 Ang^3
#
#
#
# Elastic Constant Matrix: (Units=GPa)
#
#
# Indices 1 2 3 4 5 6 
#
# 1 70.4059 29.5185 28.6188 0.0000 0.0000 0.0000
# 2 29.5185 130.3423 67.5373 0.0000 0.0000 0.0000
# 3 28.6188 67.5373 88.9842 0.0000 0.0000 0.0000
# 4 0.0000 0.0000 0.0000 15.5536 0.0000 0.0000
# 5 0.0000 0.0000 0.0000 0.0000 29.0582 0.0000
# 6 0.0000 0.0000 0.0000 0.0000 0.0000 17.0355
#
#
#
# Elastic Compliance Matrix: (Units=1/GPa)
#
#
# Indices 1 2 3 4 5 6 
#
# 1 0.016547 -0.001632 -0.004084 0.000000 0.000000 0.000000
# 2 -0.001632 0.012806 -0.009195 0.000000 0.000000 0.000000
# 3 -0.004084 -0.009195 0.019530 0.000000 0.000000 0.000000
# 4 0.000000 0.000000 0.000000 0.064294 0.000000 0.000000
# 5 0.000000 0.000000 0.000000 0.000000 0.034414 0.000000
# 6 0.000000 0.000000 0.000000 0.000000 0.000000 0.058701
#
#
# Mechanical properties :
#
#
# Convention : Reuss Voigt Hill
#
# Bulk Modulus (GPa) = 52.45640 60.12019 56.28829
# Shear Modulus (GPa) = 20.62151 23.26666 21.94409
#
# Velocity S-wave (km/s) = 3.32078 3.52734 3.42561
# Velocity P-wave (km/s) = 6.53873 6.98136 6.76367
#
# Compressibility (1/GPa) = 0.01906345
#
# Stress axis : x y z
#
# Youngs Moduli (GPa) = 60.43284 78.08933 51.20354
#
# Poissons Ratio (x) = 0.12740 0.20909
# Poissons Ratio (y) = 0.09860 0.47080
# Poissons Ratio (z) = 0.24678 0.71801
#
# Static dielectric constant tensor:
#      x y z
#    x 1.652330 0.000000 0.000000 
#    y 0.000000 1.746530 0.000000 
#    z 0.000000 0.000000 1.620960 
# 
# From -- ./inp_files/37787.got.cif
#   From: 2010.05.17/outbox.cif.g08.bks.cpg/sg53_19_cif.got.tgz:37787.got - 2010.06.03 12:45:16.
