data_PCOD9417825
_publ_section_title
;
Structure prediction by ZEFSAII (Michael W. Deem and Ramdas Pophale) SiO2 
 PCOD9417825
Probable space group: P M N A
;
_chemical_formula_sum "Si O2"
_cell_formula_units_Z 64
_cell_length_a 7.767379
_cell_length_b 14.801333
_cell_length_c 25.573679
_cell_angle_alpha 90.000000
_cell_angle_beta 90.000000
_cell_angle_gamma 90.000000
_cell_volume 2940.143555
_symmetry_space_group_name_H-M "P M N A"
_symmetry_group_IT_number 53
_symmetry_cell_setting 'orthorhombic'
loop_
_space_group_symop_operation_xyz
x,y,z
1/2-x,-y,1/2+z
x,-y,-z
1/2-x,y,1/2-z
-x,-y,-z
1/2+x,y,1/2-z
-x,y,z
1/2+x,-y,1/2+z
loop_
_atom_site_type_symbol
_atom_site_label
_atom_site_fract_x
_atom_site_fract_y
_atom_site_fract_z
Si Si1 0.706545 0.757500 0.691578
Si Si2 0.707810 0.595976 0.979329
Si Si3 0.293890 0.189813 0.689134
Si Si4 0.792901 0.576191 0.859116
Si Si5 0.200008 0.135051 0.090704
Si Si6 0.207083 0.608740 0.188843
Si Si7 0.700158 0.069532 0.904223
Si Si8 0.698695 0.782397 0.017092
O O1 0.750000 0.786191 0.750000
O O2 0.500000 0.755814 0.688431
O O3 0.770389 0.656034 0.678866
O O4 0.766946 0.822723 0.644971
O O5 0.500000 0.596855 0.983862
O O6 0.750296 0.603092 0.918229
O O7 0.772554 0.500000 0.000000
O O8 0.775425 0.682271 0.011404
O O9 0.250000 0.178165 0.750000
O O10 0.500000 0.186367 0.683177
O O11 0.231222 0.290917 0.673447
O O12 0.214282 0.113534 0.652790
O O13 0.726282 0.476894 0.843665
O O14 0.000000 0.572744 0.854547
O O15 0.000000 0.161651 0.084607
O O16 0.212629 0.027302 0.092152
O O17 0.295607 0.175061 0.040675
O O18 0.250000 0.595416 0.250000
O O19 0.000000 0.610864 0.184189
O O20 0.500000 0.054593 0.918156
O O21 0.777004 0.144810 0.943433
O O22 0.500000 0.771424 0.033880
#
# Coordination Sequence:
#
# PCOD9417825 Si02
#       8
#     8   8   8   8   8   8   8   8
#     4  10  22  38  59  87 119 155 197 243 295 355
#     4  10  22  38  58  87 120 156 195 237 288 350
#     4  10  21  39  60  87 120 156 196 242 294 349
#     4  10  20  37  57  84 119 153 192 239 290 348
#     4  11  23  41  62  88 119 153 197 251 302 356
#     4   9  19  34  55  82 114 149 189 233 280 337
#     4  11  24  40  62  89 117 154 197 247 300 357
#     4  10  22  41  62  87 120 156 197 243 296 356
#
# _framework density 21.767644000000001
#
# number of rings (size 3 to 8) (size 9 to 14) (size 15 to 20)
#    0.000    1.875    1.250    1.875    1.750    5.750 
#    0.000    1.250    0.000    0.000    0.000    0.000 
#    0.000    0.000    0.000    0.000    0.000    0.000 
#
# Total GULP energy -357643.812368 kJ/mol
# GULP energy per Si atom -5588.184568 kJ/mol
# Density = 2.171810 g / cm^3
# Si number density = 21.767644 Si / 1000 Ang^3
#
#
#
# Elastic Constant Matrix: (Units=GPa)
#
#
# Indices 1 2 3 4 5 6 
#
# 1 37.7565 -4.1956 -13.2741 0.0000 0.0000 0.0000
# 2 -4.1956 121.2471 22.0908 0.0000 0.0000 0.0000
# 3 -13.2741 22.0908 58.8932 0.0000 0.0000 0.0000
# 4 0.0000 0.0000 0.0000 29.4749 0.0000 0.0000
# 5 0.0000 0.0000 0.0000 0.0000 23.2847 0.0000
# 6 0.0000 0.0000 0.0000 0.0000 0.0000 13.6836
#
#
#
# Elastic Compliance Matrix: (Units=1/GPa)
#
#
# Indices 1 2 3 4 5 6 
#
# 1 0.028769 -0.000200 0.006559 0.000000 0.000000 0.000000
# 2 -0.000200 0.008854 -0.003366 0.000000 0.000000 0.000000
# 3 0.006559 -0.003366 0.019721 0.000000 0.000000 0.000000
# 4 0.000000 0.000000 0.000000 0.033927 0.000000 0.000000
# 5 0.000000 0.000000 0.000000 0.000000 0.042947 0.000000
# 6 0.000000 0.000000 0.000000 0.000000 0.000000 0.073080
#
#
# Mechanical properties :
#
#
# Convention : Reuss Voigt Hill
#
# Bulk Modulus (GPa) = 15.78992 25.23767 20.51379
# Shear Modulus (GPa) = 22.47980 27.50700 24.99340
#
# Velocity S-wave (km/s) = 3.21708 3.55866 3.39217
# Velocity P-wave (km/s) = 4.59010 5.33898 4.97864
#
# Compressibility (1/GPa) = 0.06333155
#
# Stress axis : x y z
#
# Youngs Moduli (GPa) = 34.75918 112.94313 50.70750
#
# Poissons Ratio (x) = 0.02254 -0.33260
# Poissons Ratio (y) = 0.00694 0.17069
# Poissons Ratio (z) = -0.22799 0.38018
#
# Static dielectric constant tensor:
#      x y z
#    x 1.869530 0.000000 0.000000 
#    y 0.000000 1.813170 0.000000 
#    z 0.000000 0.000000 1.755310 
# 
# From -- ./inp_files/34174.got.cif
#   From: 2010.05.17/outbox.cif.g08.bks.cpg/sg53_18_cif.got.tgz:34174.got - 2010.06.03 12:45:16.
