data_PCOD9417258
_publ_section_title
;
Structure prediction by ZEFSAII (Michael W. Deem and Ramdas Pophale) SiO2 
 PCOD9417258
Probable space group: P M N A
;
_chemical_formula_sum "Si O2"
_cell_formula_units_Z 40
_cell_length_a 18.659361
_cell_length_b 12.610290
_cell_length_c 7.848456
_cell_angle_alpha 90.000000
_cell_angle_beta 90.000000
_cell_angle_gamma 90.000000
_cell_volume 1846.741331
_symmetry_space_group_name_H-M "P M N A"
_symmetry_group_IT_number 53
_symmetry_cell_setting 'orthorhombic'
loop_
_space_group_symop_operation_xyz
x,y,z
1/2-x,-y,1/2+z
x,-y,-z
1/2-x,y,1/2-z
-x,-y,-z
1/2+x,y,1/2-z
-x,y,z
1/2+x,-y,1/2+z
loop_
_atom_site_type_symbol
_atom_site_label
_atom_site_fract_x
_atom_site_fract_y
_atom_site_fract_z
Si Si1 0.150652 0.671055 0.079618
Si Si2 0.703958 0.279131 0.069952
Si Si3 0.418531 0.885854 0.527863
Si Si4 0.163315 0.528227 0.747210
Si Si5 0.080025 0.878941 0.562731
O O1 0.131649 0.588260 0.227649
O O2 0.234386 0.698484 0.064177
O O3 0.112525 0.783094 0.063555
O O4 0.138887 0.599621 0.908933
O O5 0.750000 0.256252 0.250000
O O6 0.657859 0.386589 0.097661
O O7 0.649319 0.188957 0.013493
O O8 0.500000 0.895609 0.464468
O O9 0.419060 0.870581 0.731255
O O10 0.381675 0.000000 0.500000
O O11 0.250000 0.513125 0.750000
O O12 0.000000 0.842779 0.506708
O O13 0.087205 0.000000 0.500000
#
# Coordination Sequence:
#
# PCOD9417258 Si02
#       5
#     8   8   8   8   8
#     4   9  16  31  52  75 104 137 174 220 266 325
#     4   9  16  32  52  78 106 136 178 228 268 321
#     4  10  20  35  53  75 108 143 173 221 277 321
#     4   8  15  29  51  74 102 134 172 215 270 320
#     4  10  20  36  55  75 105 148 185 217 272 332
#
# _framework density 21.659773000000001
#
# number of rings (size 3 to 8) (size 9 to 14) (size 15 to 20)
#    0.000    3.200    4.000    0.000    0.000    0.800 
#    3.600    3.000    0.000    0.000    0.000   30.800 
#    0.000    0.000    0.000    0.000    0.000    0.000 
#
# Total GULP energy -222701.191878 kJ/mol
# GULP energy per Si atom -5567.529797 kJ/mol
# Density = 2.161047 g / cm^3
# Si number density = 21.659773 Si / 1000 Ang^3
#
#
#
# Elastic Constant Matrix: (Units=GPa)
#
#
# Indices 1 2 3 4 5 6 
#
# 1 61.1005 71.8593 13.2007 0.0000 0.0000 0.0000
# 2 71.8593 195.9673 18.9554 0.0000 0.0000 0.0000
# 3 13.2007 18.9554 65.6825 0.0000 0.0000 0.0000
# 4 0.0000 0.0000 0.0000 25.3549 0.0000 0.0000
# 5 0.0000 0.0000 0.0000 0.0000 2.3043 0.0000
# 6 0.0000 0.0000 0.0000 0.0000 0.0000 -55.1380
#
#
#
# Elastic Compliance Matrix: (Units=1/GPa)
#
#
# Indices 1 2 3 4 5 6 
#
# 1 0.029292 -0.010464 -0.002867 0.000000 0.000000 0.000000
# 2 -0.010464 0.008987 -0.000491 0.000000 0.000000 0.000000
# 3 -0.002867 -0.000491 0.015943 0.000000 0.000000 0.000000
# 4 0.000000 0.000000 0.000000 0.039440 0.000000 0.000000
# 5 0.000000 0.000000 0.000000 0.000000 0.433966 0.000000
# 6 0.000000 0.000000 0.000000 0.000000 0.000000 -0.018136
#
#
# Mechanical properties :
#
#
# Convention : Reuss Voigt Hill
#
# Bulk Modulus (GPa) = 37.62429 58.97569 48.29999
# Shear Modulus (GPa) = 9.15758 9.08657 9.12208
#
# Velocity S-wave (km/s) = 2.05842 2.05043 2.05443
# Velocity P-wave (km/s) = 4.80185 5.73524 5.28917
#
# Compressibility (1/GPa) = 0.02657858
#
# Stress axis : x y z
#
# Youngs Moduli (GPa) = 34.13864 111.26758 62.72493
#
# Poissons Ratio (x) = 1.16429 0.17985
# Poissons Ratio (y) = 0.35722 0.03078
# Poissons Ratio (z) = 0.09789 0.05459
#
# Static dielectric constant tensor:
#      x y z
#    x 1.775380 0.000000 0.000000 
#    y 0.000000 1.832660 0.000000 
#    z 0.000000 0.000000 1.954780 
# 
# From -- ./inp_files/10767.got.cif
#   From: 2010.05.17/outbox.cif.g08.bks.cpg/sg53_6_cif.got.tgz:10767.got - 2010.06.03 12:45:16.
