data_PCOD9417658
_publ_section_title
;
Structure prediction by ZEFSAII (Michael W. Deem and Ramdas Pophale) SiO2 
 PCOD9417658
Probable space group: P M N A
;
_chemical_formula_sum "Si O2"
_cell_formula_units_Z 56
_cell_length_a 8.778706
_cell_length_b 24.252981
_cell_length_c 14.649417
_cell_angle_alpha 90.000000
_cell_angle_beta 90.000000
_cell_angle_gamma 90.000000
_cell_volume 3119.004294
_symmetry_space_group_name_H-M "P M N A"
_symmetry_group_IT_number 53
_symmetry_cell_setting 'orthorhombic'
loop_
_space_group_symop_operation_xyz
x,y,z
1/2-x,-y,1/2+z
x,-y,-z
1/2-x,y,1/2-z
-x,-y,-z
1/2+x,y,1/2-z
-x,y,z
1/2+x,-y,1/2+z
loop_
_atom_site_type_symbol
_atom_site_label
_atom_site_fract_x
_atom_site_fract_y
_atom_site_fract_z
Si Si1 0.316585 0.936467 0.992515
Si Si2 0.818508 0.642917 0.499782
Si Si3 0.182214 0.437501 0.851086
Si Si4 0.182180 0.437002 0.148948
Si Si5 0.682156 0.852154 0.648874
Si Si6 0.317197 0.235162 0.506912
Si Si7 0.817293 0.849744 0.351262
O O1 0.500000 0.934527 0.982152
O O2 0.243330 0.904973 0.906909
O O3 0.278158 0.902177 0.084252
O O4 0.269428 0.000000 0.000000
O O5 0.759344 0.607792 0.414011
O O6 0.759135 0.608329 0.586023
O O7 0.748298 0.703741 0.498779
O O8 0.000000 0.646144 0.499757
O O9 0.250000 0.433517 0.750000
O O10 0.212571 0.500254 0.884026
O O11 0.000000 0.430034 0.850066
O O12 0.250000 0.433049 0.250000
O O13 0.000000 0.429566 0.150001
O O14 0.750000 0.848262 0.750000
O O15 0.500000 0.854812 0.654880
O O16 0.723111 0.800187 0.583826
O O17 0.500000 0.236418 0.514333
O O18 0.248988 0.202379 0.593324
O O19 0.750000 0.854003 0.250000
O O20 0.000000 0.845584 0.346301
#
# Coordination Sequence:
#
# PCOD9417658 Si02
#       7
#     8   8   8   8   8   8   8
#     4   9  19  36  57  84 118 151 185 227 271 319
#     4  12  24  37  57  84 113 146 184 227 278 333
#     4  10  21  38  59  83 112 145 183 227 276 331
#     4  10  21  38  59  83 112 146 183 226 276 330
#     4  10  21  37  59  83 110 147 186 228 276 326
#     4  10  22  40  58  79 108 142 186 234 278 326
#     4  10  20  36  58  82 111 147 186 227 275 328
#
# _framework density 17.954446999999998
#
# number of rings (size 3 to 8) (size 9 to 14) (size 15 to 20)
#    0.000    1.857    0.000    3.857    0.000    7.714 
#    0.000    5.714    0.000    0.000    0.000    0.000 
#    0.000    0.000    0.000    0.000    0.000    0.000 
#
# Total GULP energy -312834.126589 kJ/mol
# GULP energy per Si atom -5586.323689 kJ/mol
# Density = 1.791358 g / cm^3
# Si number density = 17.954447 Si / 1000 Ang^3
#
#
#
# Elastic Constant Matrix: (Units=GPa)
#
#
# Indices 1 2 3 4 5 6 
#
# 1 84.4618 70.6256 59.5116 0.0000 0.0000 0.0000
# 2 70.6256 178.4393 90.2312 0.0000 0.0000 0.0000
# 3 59.5116 90.2312 154.8311 0.0000 0.0000 0.0000
# 4 0.0000 0.0000 0.0000 14.8296 0.0000 0.0000
# 5 0.0000 0.0000 0.0000 0.0000 31.2632 0.0000
# 6 0.0000 0.0000 0.0000 0.0000 0.0000 29.8008
#
#
#
# Elastic Compliance Matrix: (Units=1/GPa)
#
#
# Indices 1 2 3 4 5 6 
#
# 1 0.019485 -0.005565 -0.004246 0.000000 0.000000 0.000000
# 2 -0.005565 0.009535 -0.003418 0.000000 0.000000 0.000000
# 3 -0.004246 -0.003418 0.010083 0.000000 0.000000 0.000000
# 4 0.000000 0.000000 0.000000 0.067433 0.000000 0.000000
# 5 0.000000 0.000000 0.000000 0.000000 0.031986 0.000000
# 6 0.000000 0.000000 0.000000 0.000000 0.000000 0.033556
#
#
# Mechanical properties :
#
#
# Convention : Reuss Voigt Hill
#
# Bulk Modulus (GPa) = 79.08523 95.38548 87.23535
# Shear Modulus (GPa) = 24.66089 28.33630 26.49860
#
# Velocity S-wave (km/s) = 3.71013 3.97701 3.84589
# Velocity P-wave (km/s) = 7.90549 8.62151 8.27125
#
# Compressibility (1/GPa) = 0.01264459
#
# Stress axis : x y z
#
# Youngs Moduli (GPa) = 51.32215 104.87739 99.18135
#
# Poissons Ratio (x) = 0.58362 0.42115
# Poissons Ratio (y) = 0.28560 0.33898
# Poissons Ratio (z) = 0.21793 0.35845
#
# Static dielectric constant tensor:
#      x y z
#    x 1.593320 0.000000 0.000000 
#    y 0.000000 1.593640 0.000000 
#    z 0.000000 0.000000 1.579910 
# 
# From -- ./inp_files/20463.got.cif
#   From: 2010.05.17/outbox.cif.g08.bks.cpg/sg53_11_cif.got.tgz:20463.got - 2010.06.03 12:45:16.
