data_PCOD9417415
_publ_section_title
;
Structure prediction by ZEFSAII (Michael W. Deem and Ramdas Pophale) SiO2 
 PCOD9417415
Probable space group: P M N A
;
_chemical_formula_sum "Si O2"
_cell_formula_units_Z 48
_cell_length_a 17.638713
_cell_length_b 9.155870
_cell_length_c 15.202075
_cell_angle_alpha 90.000000
_cell_angle_beta 90.000000
_cell_angle_gamma 90.000000
_cell_volume 2455.101108
_symmetry_space_group_name_H-M "P M N A"
_symmetry_group_IT_number 53
_symmetry_cell_setting 'orthorhombic'
loop_
_space_group_symop_operation_xyz
x,y,z
1/2-x,-y,1/2+z
x,-y,-z
1/2-x,y,1/2-z
-x,-y,-z
1/2+x,y,1/2-z
-x,y,z
1/2+x,-y,1/2+z
loop_
_atom_site_type_symbol
_atom_site_label
_atom_site_fract_x
_atom_site_fract_y
_atom_site_fract_z
Si Si1 0.378171 0.420486 0.911248
Si Si2 0.084632 0.082913 0.230844
Si Si3 0.285397 0.618955 0.346268
Si Si4 0.194853 0.066542 0.905804
Si Si5 0.877082 0.925132 0.408645
Si Si6 0.584375 0.428054 0.270589
O O1 0.286854 0.435694 0.900659
O O2 0.394007 0.247427 0.911602
O O3 0.411611 0.494716 0.824484
O O4 0.403057 0.500000 0.000000
O O5 0.096535 0.255813 0.241555
O O6 0.000000 0.060273 0.192946
O O7 0.149380 0.017739 0.169109
O O8 0.087797 0.002969 0.324526
O O9 0.250000 0.661772 0.250000
O O10 0.319915 0.761528 0.392024
O O11 0.349212 0.499335 0.328077
O O12 0.286015 0.054443 0.898331
O O13 0.173305 0.000000 0.000000
O O14 0.900009 0.000000 0.500000
O O15 0.500000 0.451193 0.307760
#
# Coordination Sequence:
#
# PCOD9417415 Si02
#       6
#     8   8   8   8   8   8
#     4  10  20  35  57  84 112 142 179 224 275 331
#     4  11  23  38  56  81 115 150 187 230 276 330
#     4   9  19  36  57  81 108 142 185 229 277 332
#     4  10  21  37  59  84 110 143 186 233 279 331
#     4  10  21  37  60  88 113 143 184 229 278 331
#     4  10  22  37  54  79 110 148 186 223 275 329
#
# _framework density 19.551129
#
# number of rings (size 3 to 8) (size 9 to 14) (size 15 to 20)
#    0.000    2.000    0.000    4.500    0.000   11.667 
#    0.000    0.000    0.000    2.500    0.000    0.000 
#    0.000    0.000    0.000    0.000    0.000    0.000 
#
# Total GULP energy -268154.691173 kJ/mol
# GULP energy per Si atom -5586.556066 kJ/mol
# Density = 1.950663 g / cm^3
# Si number density = 19.551129 Si / 1000 Ang^3
#
#
#
# Elastic Constant Matrix: (Units=GPa)
#
#
# Indices 1 2 3 4 5 6 
#
# 1 57.3124 63.0691 19.5180 0.0000 0.0000 0.0000
# 2 63.0691 107.5306 30.2295 0.0000 0.0000 0.0000
# 3 19.5180 30.2295 64.5177 0.0000 0.0000 0.0000
# 4 0.0000 0.0000 0.0000 34.1439 0.0000 0.0000
# 5 0.0000 0.0000 0.0000 0.0000 -45.7576 0.0000
# 6 0.0000 0.0000 0.0000 0.0000 0.0000 3.6772
#
#
#
# Elastic Compliance Matrix: (Units=1/GPa)
#
#
# Indices 1 2 3 4 5 6 
#
# 1 0.049349 -0.028501 -0.001575 0.000000 0.000000 0.000000
# 2 -0.028501 0.027171 -0.004109 0.000000 0.000000 0.000000
# 3 -0.001575 -0.004109 0.017901 0.000000 0.000000 0.000000
# 4 0.000000 0.000000 0.000000 0.029288 0.000000 0.000000
# 5 0.000000 0.000000 0.000000 0.000000 -0.021854 0.000000
# 6 0.000000 0.000000 0.000000 0.000000 0.000000 0.271944
#
#
# Mechanical properties :
#
#
# Convention : Reuss Voigt Hill
#
# Bulk Modulus (GPa) = 38.38575 50.55488 44.47031
# Shear Modulus (GPa) = 11.09009 6.18232 8.63620
#
# Velocity S-wave (km/s) = 2.38425 1.78017 2.10400
# Velocity P-wave (km/s) = 5.22070 5.48992 5.35700
#
# Compressibility (1/GPa) = 0.02605133
#
# Stress axis : x y z
#
# Youngs Moduli (GPa) = 20.26394 36.80330 55.86217
#
# Poissons Ratio (x) = 1.04895 0.08797
# Poissons Ratio (y) = 0.57755 0.22953
# Poissons Ratio (z) = 0.03191 0.15122
#
# Static dielectric constant tensor:
#      x y z
#    x 1.718950 0.000000 0.000000 
#    y 0.000000 1.657450 0.000000 
#    z 0.000000 0.000000 1.654480 
# 
# From -- ./inp_files/23672.got.cif
#   From: 2010.05.17/outbox.cif.g08.bks.cpg/sg53_12_cif.got.tgz:23672.got - 2010.06.03 12:45:16.
