data_PCOD9417364
_publ_section_title
;
Structure prediction by ZEFSAII (Michael W. Deem and Ramdas Pophale) SiO2 
 PCOD9417364
Probable space group: P M N A
;
_chemical_formula_sum "Si O2"
_cell_formula_units_Z 48
_cell_length_a 8.705779
_cell_length_b 31.619853
_cell_length_c 9.288870
_cell_angle_alpha 90.000000
_cell_angle_beta 90.000000
_cell_angle_gamma 90.000000
_cell_volume 2556.997890
_symmetry_space_group_name_H-M "P M N A"
_symmetry_group_IT_number 53
_symmetry_cell_setting 'orthorhombic'
loop_
_space_group_symop_operation_xyz
x,y,z
1/2-x,-y,1/2+z
x,-y,-z
1/2-x,y,1/2-z
-x,-y,-z
1/2+x,y,1/2-z
-x,y,z
1/2+x,-y,1/2+z
loop_
_atom_site_type_symbol
_atom_site_label
_atom_site_fract_x
_atom_site_fract_y
_atom_site_fract_z
Si Si1 0.815349 0.794003 0.410196
Si Si2 0.184247 0.703548 0.090084
Si Si3 0.315793 0.457868 0.910634
Si Si4 0.685546 0.958568 0.089530
Si Si5 0.684237 0.379475 0.410370
Si Si6 0.685308 0.876179 0.909862
O O1 0.750000 0.801369 0.250000
O O2 0.751623 0.748562 0.458971
O O3 0.768734 0.832480 0.513048
O O4 0.000000 0.792249 0.402872
O O5 0.250000 0.695388 0.250000
O O6 0.000000 0.706591 0.099406
O O7 0.225260 0.665091 0.985263
O O8 0.250000 0.460191 0.750000
O O9 0.500000 0.454886 0.904131
O O10 0.274793 0.500000 0.000000
O O11 0.249881 0.417353 0.993306
O O12 0.750000 0.959549 0.250000
O O13 0.500000 0.958479 0.096738
O O14 0.734831 0.916236 0.005694
O O15 0.733374 0.000000 0.000000
O O16 0.750000 0.382001 0.250000
O O17 0.500000 0.382650 0.405842
O O18 0.750000 0.879184 0.750000
O O19 0.500000 0.876885 0.903255
#
# Coordination Sequence:
#
# PCOD9417364 Si02
#       6
#     8   8   8   8   8   8
#     4  10  20  35  56  81 109 143 184 229 277 331
#     4  10  21  37  58  84 112 146 188 232 281 335
#     4  11  24  41  63  90 120 154 192 235 282 335
#     4  10  21  37  57  82 111 143 182 226 273 327
#     4  11  24  40  60  86 117 153 192 236 285 337
#     4  10  22  37  54  80 111 144 184 227 273 328
#
# _framework density 18.772015
#
# number of rings (size 3 to 8) (size 9 to 14) (size 15 to 20)
#    0.000    1.667    0.000    5.000    0.000    9.667 
#    0.000    3.333    0.000    0.000    0.000    0.000 
#    0.000    0.000    0.000    0.000    0.000    0.000 
#
# Total GULP energy -268337.823580 kJ/mol
# GULP energy per Si atom -5590.371325 kJ/mol
# Density = 1.872929 g / cm^3
# Si number density = 18.772015 Si / 1000 Ang^3
#
#
#
# Elastic Constant Matrix: (Units=GPa)
#
#
# Indices 1 2 3 4 5 6 
#
# 1 42.4275 59.7760 50.3086 0.0000 0.0000 0.0000
# 2 59.7760 198.5233 138.4412 0.0000 0.0000 0.0000
# 3 50.3086 138.4412 184.9589 0.0000 0.0000 0.0000
# 4 0.0000 0.0000 0.0000 39.8601 0.0000 0.0000
# 5 0.0000 0.0000 0.0000 0.0000 36.2568 0.0000
# 6 0.0000 0.0000 0.0000 0.0000 0.0000 -37.1397
#
#
#
# Elastic Compliance Matrix: (Units=1/GPa)
#
#
# Indices 1 2 3 4 5 6 
#
# 1 0.042395 -0.009882 -0.004135 0.000000 0.000000 0.000000
# 2 -0.009882 0.012841 -0.006923 0.000000 0.000000 0.000000
# 3 -0.004135 -0.006923 0.011713 0.000000 0.000000 0.000000
# 4 0.000000 0.000000 0.000000 0.025088 0.000000 0.000000
# 5 0.000000 0.000000 0.000000 0.000000 0.027581 0.000000
# 6 0.000000 0.000000 0.000000 0.000000 0.000000 -0.026925
#
#
# Mechanical properties :
#
#
# Convention : Reuss Voigt Hill
#
# Bulk Modulus (GPa) = 39.88989 102.55126 71.22057
# Shear Modulus (GPa) = 34.98237 19.62103 27.30170
#
# Velocity S-wave (km/s) = 4.32156 3.23651 3.81777
# Velocity P-wave (km/s) = 6.79683 8.28946 7.57997
#
# Compressibility (1/GPa) = 0.02506901
#
# Stress axis : x y z
#
# Youngs Moduli (GPa) = 23.58763 77.87751 85.37217
#
# Poissons Ratio (x) = 0.76957 0.35301
# Poissons Ratio (y) = 0.23309 0.59106
# Poissons Ratio (z) = 0.09753 0.53917
#
# Static dielectric constant tensor:
#      x y z
#    x 1.634890 0.000000 0.000000 
#    y 0.000000 1.643510 0.000000 
#    z 0.000000 0.000000 1.600140 
# 
# From -- ./inp_files/6705.got.cif
#   From: 2010.05.17/outbox.cif.g08.bks.cpg/sg53_4_cif.got.tgz:6705.got - 2010.06.03 12:45:16.
