data_PCOD9417030
_publ_section_title
;
Structure prediction by ZEFSAII (Michael W. Deem and Ramdas Pophale) SiO2 
 PCOD9417030
Probable space group: P M N A
;
_chemical_formula_sum "Si O2"
_cell_formula_units_Z 64
_cell_length_a 8.601923
_cell_length_b 26.421987
_cell_length_c 14.466537
_cell_angle_alpha 90.000000
_cell_angle_beta 90.000000
_cell_angle_gamma 90.000000
_cell_volume 3287.953049
_symmetry_space_group_name_H-M "P M N A"
_symmetry_group_IT_number 53
_symmetry_cell_setting 'orthorhombic'
loop_
_space_group_symop_operation_xyz
x,y,z
1/2-x,-y,1/2+z
x,-y,-z
1/2-x,y,1/2-z
-x,-y,-z
1/2+x,y,1/2-z
-x,y,z
1/2+x,-y,1/2+z
loop_
_atom_site_type_symbol
_atom_site_label
_atom_site_fract_x
_atom_site_fract_y
_atom_site_fract_z
Si Si1 0.811677 0.422817 0.956416
Si Si2 0.188104 0.808991 0.845766
Si Si3 0.686763 0.777602 0.444925
Si Si4 0.822756 0.085918 0.093592
Si Si5 0.817808 0.010718 0.655007
Si Si6 0.685699 0.324363 0.854455
Si Si7 0.685592 0.120546 0.910140
Si Si8 0.686930 0.472765 0.353270
O O1 0.735329 0.373615 0.912689
O O2 0.770964 0.471600 0.893094
O O3 0.000000 0.417992 0.954538
O O4 0.765982 0.434934 0.062989
O O5 0.250000 0.785660 0.750000
O O6 0.247608 0.867592 0.848385
O O7 0.000000 0.810255 0.843145
O O8 0.230726 0.784137 0.945246
O O9 0.500000 0.782132 0.438505
O O10 0.742046 0.724519 0.404682
O O11 0.769100 0.822419 0.385362
O O12 0.000000 0.077951 0.121081
O O13 0.744453 0.031492 0.085833
O O14 0.804024 0.110220 0.993510
O O15 0.750000 0.990435 0.750000
O O16 0.782287 0.070131 0.648534
O O17 0.000000 0.006750 0.653159
O O18 0.750000 0.328339 0.750000
O O19 0.500000 0.320015 0.851286
O O20 0.500000 0.119054 0.933626
O O21 0.750000 0.463966 0.250000
O O22 0.500000 0.470893 0.348412
#
# Coordination Sequence:
#
# PCOD9417030 Si02
#       8
#     8   8   8   8   8   8   8   8
#     4   9  19  37  58  86 124 164 204 249 295 342
#     4   9  19  34  55  82 109 139 175 219 274 332
#     4  10  22  41  61  83 111 144 186 236 286 338
#     4  10  20  34  53  77 104 136 174 216 266 326
#     4  11  23  35  49  72 102 134 169 213 267 328
#     4  12  25  41  63  89 115 150 194 242 293 343
#     4  10  21  37  55  76 103 136 175 220 272 331
#     4   9  18  33  57  88 126 168 207 247 295 344
#
# _framework density 19.464998999999999
#
# number of rings (size 3 to 8) (size 9 to 14) (size 15 to 20)
#    0.000    2.000    0.000    5.250    0.000   10.000 
#    0.000    3.125    0.000    0.000    0.000    0.000 
#    0.000    0.000    0.000    0.000    0.000    0.000 
#
# Total GULP energy -356455.217551 kJ/mol
# GULP energy per Si atom -5569.612774 kJ/mol
# Density = 1.942070 g / cm^3
# Si number density = 19.464999 Si / 1000 Ang^3
#
#
#
# Elastic Constant Matrix: (Units=GPa)
#
#
# Indices 1 2 3 4 5 6 
#
# 1 32.7579 36.0066 27.4757 0.0000 0.0000 0.0000
# 2 36.0066 138.4736 62.5699 0.0000 0.0000 0.0000
# 3 27.4757 62.5699 114.1851 0.0000 0.0000 0.0000
# 4 0.0000 0.0000 0.0000 35.2456 0.0000 0.0000
# 5 0.0000 0.0000 0.0000 0.0000 21.6453 0.0000
# 6 0.0000 0.0000 0.0000 0.0000 0.0000 26.9748
#
#
#
# Elastic Compliance Matrix: (Units=1/GPa)
#
#
# Indices 1 2 3 4 5 6 
#
# 1 0.045592 -0.009168 -0.005947 0.000000 0.000000 0.000000
# 2 -0.009168 0.011442 -0.004064 0.000000 0.000000 0.000000
# 3 -0.005947 -0.004064 0.012415 0.000000 0.000000 0.000000
# 4 0.000000 0.000000 0.000000 0.028372 0.000000 0.000000
# 5 0.000000 0.000000 0.000000 0.000000 0.046199 0.000000
# 6 0.000000 0.000000 0.000000 0.000000 0.000000 0.037072
#
#
# Mechanical properties :
#
#
# Convention : Reuss Voigt Hill
#
# Bulk Modulus (GPa) = 32.16228 59.72454 45.94341
# Shear Modulus (GPa) = 21.75678 27.39745 24.57711
#
# Velocity S-wave (km/s) = 3.34689 3.75577 3.55721
# Velocity P-wave (km/s) = 5.61200 7.03970 6.36600
#
# Compressibility (1/GPa) = 0.03109232
#
# Stress axis : x y z
#
# Youngs Moduli (GPa) = 21.93362 87.39986 80.54511
#
# Poissons Ratio (x) = 0.80128 0.47899
# Poissons Ratio (y) = 0.20109 0.32731
# Poissons Ratio (z) = 0.13044 0.35516
#
# Static dielectric constant tensor:
#      x y z
#    x 1.659170 0.000000 0.000000 
#    y 0.000000 1.711480 0.000000 
#    z 0.000000 0.000000 1.751330 
# 
# From -- ./inp_files/20907.got.cif
#   From: 2010.05.17/outbox.cif.g08.bks.cpg/sg53_11_cif.got.tgz:20907.got - 2010.06.03 12:45:16.
