data_PCOD9417891
_publ_section_title
;
Structure prediction by ZEFSAII (Michael W. Deem and Ramdas Pophale) SiO2 
 PCOD9417891
Probable space group: P M N A
;
_chemical_formula_sum "Si O2"
_cell_formula_units_Z 48
_cell_length_a 7.799522
_cell_length_b 9.998848
_cell_length_c 28.108499
_cell_angle_alpha 90.000000
_cell_angle_beta 90.000000
_cell_angle_gamma 90.000000
_cell_volume 2192.076007
_symmetry_space_group_name_H-M "P M N A"
_symmetry_group_IT_number 53
_symmetry_cell_setting 'orthorhombic'
loop_
_space_group_symop_operation_xyz
x,y,z
1/2-x,-y,1/2+z
x,-y,-z
1/2-x,y,1/2-z
-x,-y,-z
1/2+x,y,1/2-z
-x,y,z
1/2+x,-y,1/2+z
loop_
_atom_site_type_symbol
_atom_site_label
_atom_site_fract_x
_atom_site_fract_y
_atom_site_fract_z
Si Si1 0.792241 0.389857 0.066198
Si Si2 0.294182 0.637842 0.196588
Si Si3 0.803789 0.948284 0.802502
Si Si4 0.801503 0.658808 0.672431
Si Si5 0.199034 0.141954 0.878703
Si Si6 0.290662 0.309107 0.536129
O O1 0.716286 0.340991 0.115481
O O2 0.743359 0.544739 0.056847
O O3 0.000000 0.384508 0.069837
O O4 0.739495 0.308370 0.019079
O O5 0.250000 0.680885 0.250000
O O6 0.500000 0.642043 0.189649
O O7 0.234033 0.484592 0.189848
O O8 0.209507 0.732292 0.157333
O O9 0.750000 0.990222 0.750000
O O10 0.787041 0.789638 0.807248
O O11 0.000000 0.987454 0.805575
O O12 0.719129 0.022545 0.847664
O O13 0.000000 0.667398 0.686430
O O14 0.274084 0.194303 0.928543
O O15 0.000000 0.109178 0.889594
O O16 0.500000 0.307043 0.536529
#
# Coordination Sequence:
#
# PCOD9417891 Si02
#       6
#     8   8   8   8   8   8
#     4   9  16  31  58  86 114 148 186 230 280 329
#     4  11  23  36  54  81 109 141 183 231 282 332
#     4  11  24  40  59  81 109 150 190 230 282 337
#     4  11  23  38  56  82 114 149 190 233 280 334
#     4  10  20  37  60  85 113 145 185 231 280 334
#     4   8  15  30  56  88 115 145 184 228 278 333
#
# _framework density 21.897051999999999
#
# number of rings (size 3 to 8) (size 9 to 14) (size 15 to 20)
#    0.000    2.000    1.667    3.500    0.000    6.000 
#    0.000    3.333    0.000    5.000    0.000    0.000 
#    0.000    0.000    0.000    0.000    0.000    0.000 
#
# Total GULP energy -268061.589123 kJ/mol
# GULP energy per Si atom -5584.616440 kJ/mol
# Density = 2.184721 g / cm^3
# Si number density = 21.897052 Si / 1000 Ang^3
#
#
#
# Elastic Constant Matrix: (Units=GPa)
#
#
# Indices 1 2 3 4 5 6 
#
# 1 30.5436 -7.0126 -10.5386 0.0000 0.0000 0.0000
# 2 -7.0126 49.7487 -5.7172 0.0000 0.0000 0.0000
# 3 -10.5386 -5.7172 81.3035 0.0000 0.0000 0.0000
# 4 0.0000 0.0000 0.0000 -36.5430 0.0000 0.0000
# 5 0.0000 0.0000 0.0000 0.0000 19.6828 0.0000
# 6 0.0000 0.0000 0.0000 0.0000 0.0000 19.2323
#
#
#
# Elastic Compliance Matrix: (Units=1/GPa)
#
#
# Indices 1 2 3 4 5 6 
#
# 1 0.035766 0.005620 0.005031 0.000000 0.000000 0.000000
# 2 0.005620 0.021148 0.002216 0.000000 0.000000 0.000000
# 3 0.005031 0.002216 0.013108 0.000000 0.000000 0.000000
# 4 0.000000 0.000000 0.000000 -0.027365 0.000000 0.000000
# 5 0.000000 0.000000 0.000000 0.000000 0.050806 0.000000
# 6 0.000000 0.000000 0.000000 0.000000 0.000000 0.051996
#
#
# Mechanical properties :
#
#
# Convention : Reuss Voigt Hill
#
# Bulk Modulus (GPa) = 10.44334 12.78434 11.61384
# Shear Modulus (GPa) = 32.97210 12.79869 22.88539
#
# Velocity S-wave (km/s) = 3.88465 2.42025 3.23636
# Velocity P-wave (km/s) = 4.99002 3.69611 4.39099
#
# Compressibility (1/GPa) = 0.09575476
#
# Stress axis : x y z
#
# Youngs Moduli (GPa) = 27.95929 47.28622 76.29199
#
# Poissons Ratio (x) = -0.26574 -0.38384
# Poissons Ratio (y) = -0.15713 -0.16903
# Poissons Ratio (z) = -0.14067 -0.10476
#
# Static dielectric constant tensor:
#      x y z
#    x 1.795120 0.000000 0.000000 
#    y 0.000000 1.798770 0.000000 
#    z 0.000000 0.000000 1.967870 
# 
# From -- ./inp_files/37694.got.cif
#   From: 2010.05.17/outbox.cif.g08.bks.cpg/sg53_19_cif.got.tgz:37694.got - 2010.06.03 12:45:16.
