data_PCOD9417684
_publ_section_title
;
Structure prediction by ZEFSAII (Michael W. Deem and Ramdas Pophale) SiO2 
 PCOD9417684
Probable space group: P M N A
;
_chemical_formula_sum "Si O2"
_cell_formula_units_Z 48
_cell_length_a 18.234718
_cell_length_b 12.482957
_cell_length_c 11.664164
_cell_angle_alpha 90.000000
_cell_angle_beta 90.000000
_cell_angle_gamma 90.000000
_cell_volume 2655.034343
_symmetry_space_group_name_H-M "P M N A"
_symmetry_group_IT_number 53
_symmetry_cell_setting 'orthorhombic'
loop_
_space_group_symop_operation_xyz
x,y,z
1/2-x,-y,1/2+z
x,-y,-z
1/2-x,y,1/2-z
-x,-y,-z
1/2+x,y,1/2-z
-x,y,z
1/2+x,-y,1/2+z
loop_
_atom_site_type_symbol
_atom_site_label
_atom_site_fract_x
_atom_site_fract_y
_atom_site_fract_z
Si Si1 0.315588 0.120056 0.520241
Si Si2 0.084554 0.334545 0.381326
Si Si3 0.416445 0.154407 0.307942
Si Si4 0.204720 0.485163 0.634028
Si Si5 0.413558 0.085092 0.740907
Si Si6 0.671591 0.243813 0.907479
O O1 0.356235 0.158932 0.406454
O O2 0.377531 0.107897 0.617495
O O3 0.250211 0.196455 0.557628
O O4 0.285582 0.000000 0.500000
O O5 0.087751 0.257819 0.271251
O O6 0.132891 0.440368 0.366303
O O7 0.121282 0.267277 0.483055
O O8 0.000000 0.359655 0.406361
O O9 0.500000 0.146346 0.354959
O O10 0.404586 0.042746 0.239522
O O11 0.235231 0.500000 0.500000
O O12 0.250000 0.515303 0.750000
O O13 0.184607 0.360420 0.647339
O O14 0.500000 0.109210 0.743230
O O15 0.369218 0.158739 0.827975
#
# Coordination Sequence:
#
# PCOD9417684 Si02
#       6
#     8   8   8   8   8   8
#     4  10  21  35  57  87 119 155 195 241 293 354
#     4  10  23  40  61  86 115 155 200 244 293 352
#     4   9  20  37  58  85 117 154 197 240 290 350
#     4  10  23  41  62  87 118 157 200 251 302 358
#     4  10  20  36  58  83 120 159 193 237 293 352
#     4  11  23  37  57  89 120 152 195 240 295 355
#
# _framework density 18.078861
#
# number of rings (size 3 to 8) (size 9 to 14) (size 15 to 20)
#    0.000    2.000    0.000    2.500    7.000    5.667 
#    0.000    2.500    0.000    0.500    0.000    0.000 
#    0.000    0.000    0.000    0.000    0.000    0.000 
#
# Total GULP energy -267740.201272 kJ/mol
# GULP energy per Si atom -5577.920860 kJ/mol
# Density = 1.803771 g / cm^3
# Si number density = 18.078861 Si / 1000 Ang^3
#
#
#
# Elastic Constant Matrix: (Units=GPa)
#
#
# Indices 1 2 3 4 5 6 
#
# 1 73.1900 46.4944 36.6935 0.0000 0.0000 0.0000
# 2 46.4944 96.2629 30.7583 0.0000 0.0000 0.0000
# 3 36.6935 30.7583 50.6371 0.0000 0.0000 0.0000
# 4 0.0000 0.0000 0.0000 18.8178 0.0000 0.0000
# 5 0.0000 0.0000 0.0000 0.0000 32.7262 0.0000
# 6 0.0000 0.0000 0.0000 0.0000 0.0000 -595.1615
#
#
#
# Elastic Compliance Matrix: (Units=1/GPa)
#
#
# Indices 1 2 3 4 5 6 
#
# 1 0.025609 -0.007990 -0.013704 0.000000 0.000000 0.000000
# 2 -0.007990 0.015383 -0.003554 0.000000 0.000000 0.000000
# 3 -0.013704 -0.003554 0.031838 0.000000 0.000000 0.000000
# 4 0.000000 0.000000 0.000000 0.053141 0.000000 0.000000
# 5 0.000000 0.000000 0.000000 0.000000 0.030557 0.000000
# 6 0.000000 0.000000 0.000000 0.000000 0.000000 -0.001680
#
#
# Mechanical properties :
#
#
# Convention : Reuss Voigt Hill
#
# Bulk Modulus (GPa) = 44.77597 49.77584 47.27590
# Shear Modulus (GPa) = 23.49747 -101.64725 -39.07489
#
# Velocity S-wave (km/s) = 3.60908 -7.50643 -4.65408
# Velocity P-wave (km/s) = 6.49523 6.89465 1.63526
#
# Compressibility (1/GPa) = 0.02233341
#
# Stress axis : x y z
#
# Youngs Moduli (GPa) = 39.04803 65.00626 31.40950
#
# Poissons Ratio (x) = 0.51943 0.43043
# Poissons Ratio (y) = 0.31201 0.11163
# Poissons Ratio (z) = 0.53511 0.23103
#
# Static dielectric constant tensor:
#      x y z
#    x 1.599000 0.000000 0.000000 
#    y 0.000000 1.607840 0.000000 
#    z 0.000000 0.000000 1.642750 
# 
# From -- ./inp_files/16904.got.cif
#   From: 2010.05.17/outbox.cif.g08.bks.cpg/sg53_9_cif.got.tgz:16904.got - 2010.06.03 12:45:16.
