data_PCOD9417861
_publ_section_title
;
Structure prediction by ZEFSAII (Michael W. Deem and Ramdas Pophale) SiO2 
 PCOD9417861
Probable space group: P M N A
;
_chemical_formula_sum "Si O2"
_cell_formula_units_Z 48
_cell_length_a 8.607783
_cell_length_b 9.322347
_cell_length_c 31.625978
_cell_angle_alpha 90.000000
_cell_angle_beta 90.000000
_cell_angle_gamma 90.000000
_cell_volume 2537.818383
_symmetry_space_group_name_H-M "P M N A"
_symmetry_group_IT_number 53
_symmetry_cell_setting 'orthorhombic'
loop_
_space_group_symop_operation_xyz
x,y,z
1/2-x,-y,1/2+z
x,-y,-z
1/2-x,y,1/2-z
-x,-y,-z
1/2+x,y,1/2-z
-x,y,z
1/2+x,-y,1/2+z
loop_
_atom_site_type_symbol
_atom_site_label
_atom_site_fract_x
_atom_site_fract_y
_atom_site_fract_z
Si Si1 0.812644 0.414829 0.622178
Si Si2 0.185468 0.913508 0.795810
Si Si3 0.313326 0.407637 0.204494
Si Si4 0.187982 0.917387 0.957101
Si Si5 0.187615 0.415020 0.041773
Si Si6 0.686550 0.916619 0.124350
O O1 0.766582 0.488321 0.666390
O O2 0.746617 0.505195 0.583346
O O3 0.763663 0.249138 0.620101
O O4 0.000000 0.418865 0.619990
O O5 0.250000 0.959486 0.750000
O O6 0.247882 0.751988 0.803260
O O7 0.000000 0.910397 0.794508
O O8 0.244084 0.013544 0.833444
O O9 0.250000 0.455912 0.250000
O O10 0.500000 0.399580 0.206260
O O11 0.236741 0.751099 0.959084
O O12 0.000000 0.921899 0.953982
O O13 0.257548 0.994798 0.916296
O O14 0.232687 0.000000 0.000000
O O15 0.000000 0.416870 0.042008
O O16 0.240575 0.500000 0.000000
O O17 0.500000 0.921552 0.126917
#
# Coordination Sequence:
#
# PCOD9417861 Si02
#       6
#     8   8   8   8   8   8
#     4  10  23  39  56  81 114 150 188 231 278 332
#     4  11  22  38  60  86 114 148 189 232 282 336
#     4  10  20  37  59  84 113 146 186 231 279 331
#     4  10  21  38  60  86 115 148 189 234 282 337
#     4  10  21  37  59  85 112 145 186 232 281 334
#     4  11  23  39  57  82 116 152 191 233 281 335
#
# _framework density 18.913882999999998
#
# number of rings (size 3 to 8) (size 9 to 14) (size 15 to 20)
#    0.000    1.667    0.000    5.500    0.000    8.667 
#    0.000    1.667    0.000    0.000    0.000    0.000 
#    0.000    0.000    0.000    0.000    0.000    0.000 
#
# Total GULP energy -268333.970382 kJ/mol
# GULP energy per Si atom -5590.291050 kJ/mol
# Density = 1.887083 g / cm^3
# Si number density = 18.913883 Si / 1000 Ang^3
#
#
#
# Elastic Constant Matrix: (Units=GPa)
#
#
# Indices 1 2 3 4 5 6 
#
# 1 53.1481 47.6884 51.3597 0.0000 0.0000 0.0000
# 2 47.6884 181.3388 138.4597 0.0000 0.0000 0.0000
# 3 51.3597 138.4597 196.3057 0.0000 0.0000 0.0000
# 4 0.0000 0.0000 0.0000 42.9261 0.0000 0.0000
# 5 0.0000 0.0000 0.0000 0.0000 38.3751 0.0000
# 6 0.0000 0.0000 0.0000 0.0000 0.0000 31.5225
#
#
#
# Elastic Compliance Matrix: (Units=1/GPa)
#
#
# Indices 1 2 3 4 5 6 
#
# 1 0.026219 -0.003592 -0.004326 0.000000 0.000000 0.000000
# 2 -0.003592 0.012442 -0.007836 0.000000 0.000000 0.000000
# 3 -0.004326 -0.007836 0.011753 0.000000 0.000000 0.000000
# 4 0.000000 0.000000 0.000000 0.023296 0.000000 0.000000
# 5 0.000000 0.000000 0.000000 0.000000 0.026059 0.000000
# 6 0.000000 0.000000 0.000000 0.000000 0.000000 0.031723
#
#
# Mechanical properties :
#
#
# Convention : Reuss Voigt Hill
#
# Bulk Modulus (GPa) = 52.89383 100.64533 76.76958
# Shear Modulus (GPa) = 29.53290 35.45039 32.49165
#
# Velocity S-wave (km/s) = 3.95579 4.33402 4.14922
# Velocity P-wave (km/s) = 6.99219 8.85285 7.97696
#
# Compressibility (1/GPa) = 0.01890580
#
# Stress axis : x y z
#
# Youngs Moduli (GPa) = 38.14048 80.37049 85.08362
#
# Poissons Ratio (x) = 0.28866 0.36811
# Poissons Ratio (y) = 0.13699 0.66674
# Poissons Ratio (z) = 0.16501 0.62980
#
# Static dielectric constant tensor:
#      x y z
#    x 1.645060 0.000000 0.000000 
#    y 0.000000 1.636310 0.000000 
#    z 0.000000 0.000000 1.620660 
# 
# From -- ./inp_files/37783.got.cif
#   From: 2010.05.17/outbox.cif.g08.bks.cpg/sg53_19_cif.got.tgz:37783.got - 2010.06.03 12:45:16.
