data_PCOD9417049
_publ_section_title
;
Structure prediction by ZEFSAII (Michael W. Deem and Ramdas Pophale) SiO2 
 PCOD9417049
Probable space group: P M N A
;
_chemical_formula_sum "Si O2"
_cell_formula_units_Z 64
_cell_length_a 8.059831
_cell_length_b 15.528738
_cell_length_c 23.253231
_cell_angle_alpha 90.000000
_cell_angle_beta 90.000000
_cell_angle_gamma 90.000000
_cell_volume 2910.351230
_symmetry_space_group_name_H-M "P M N A"
_symmetry_group_IT_number 53
_symmetry_cell_setting 'orthorhombic'
loop_
_space_group_symop_operation_xyz
x,y,z
1/2-x,-y,1/2+z
x,-y,-z
1/2-x,y,1/2-z
-x,-y,-z
1/2+x,y,1/2-z
-x,y,z
1/2+x,-y,1/2+z
loop_
_atom_site_type_symbol
_atom_site_label
_atom_site_fract_x
_atom_site_fract_y
_atom_site_fract_z
Si Si1 0.801690 0.000258 0.814451
Si Si2 0.296186 0.442168 0.055492
Si Si3 0.302059 0.201118 0.313864
Si Si4 0.199002 0.701031 0.312092
Si Si5 0.805184 0.150110 0.603468
Si Si6 0.810723 0.743106 0.571945
Si Si7 0.200405 0.496895 0.685052
Si Si8 0.315311 0.908943 0.512942
O O1 0.750000 0.024891 0.750000
O O2 0.754855 0.899851 0.821577
O O3 0.000000 0.007180 0.820788
O O4 0.715586 0.064341 0.858555
O O5 0.500000 0.443592 0.056040
O O6 0.236110 0.343807 0.045991
O O7 0.246619 0.466845 0.121680
O O8 0.246625 0.500000 0.000000
O O9 0.250000 0.225215 0.250000
O O10 0.500000 0.208039 0.321361
O O11 0.210615 0.260260 0.359671
O O12 0.250000 0.735742 0.250000
O O13 0.252384 0.767408 0.360598
O O14 0.259641 0.603104 0.316672
O O15 0.000000 0.697966 0.314835
O O16 0.695091 0.138521 0.547639
O O17 0.000000 0.160138 0.587899
O O18 0.745322 0.836798 0.555958
O O19 0.000000 0.743273 0.553967
O O20 0.250000 0.529901 0.750000
O O21 0.000000 0.499740 0.684715
O O22 0.500000 0.931207 0.533192
O O23 0.226295 0.000000 0.500000
#
# Coordination Sequence:
#
# PCOD9417049 Si02
#       8
#     8   8   8   8   8   8   8   8
#     4  10  20  34  53  79 113 155 197 243 299 356
#     4   9  20  38  64  92 121 160 204 251 305 369
#     4  10  21  38  60  85 117 155 195 240 294 355
#     4   9  19  33  53  82 115 150 190 237 291 352
#     4  11  22  34  54  83 111 148 199 251 301 357
#     4  11  23  39  63  93 120 152 198 249 302 358
#     4   9  18  36  61  87 119 158 199 244 298 360
#     4  11  25  43  60  81 115 160 203 246 302 364
#
# _framework density 21.990473000000001
#
# number of rings (size 3 to 8) (size 9 to 14) (size 15 to 20)
#    0.000    2.000    0.000    3.000    1.750    8.000 
#    0.000    2.500    0.000    1.875    0.000    0.000 
#    0.000    0.000    0.000    0.000    0.000    0.000 
#
# Total GULP energy -357068.692513 kJ/mol
# GULP energy per Si atom -5579.198321 kJ/mol
# Density = 2.194042 g / cm^3
# Si number density = 21.990473 Si / 1000 Ang^3
#
#
#
# Elastic Constant Matrix: (Units=GPa)
#
#
# Indices 1 2 3 4 5 6 
#
# 1 16.3128 7.1862 -4.2720 0.0000 0.0000 0.0000
# 2 7.1862 90.5112 41.8652 0.0000 0.0000 0.0000
# 3 -4.2720 41.8652 123.2599 0.0000 0.0000 0.0000
# 4 0.0000 0.0000 0.0000 -21.5893 0.0000 0.0000
# 5 0.0000 0.0000 0.0000 0.0000 28.1246 0.0000
# 6 0.0000 0.0000 0.0000 0.0000 0.0000 17.0027
#
#
#
# Elastic Compliance Matrix: (Units=1/GPa)
#
#
# Indices 1 2 3 4 5 6 
#
# 1 0.065846 -0.007455 0.004814 0.000000 0.000000 0.000000
# 2 -0.007455 0.013952 -0.004997 0.000000 0.000000 0.000000
# 3 0.004814 -0.004997 0.009977 0.000000 0.000000 0.000000
# 4 0.000000 0.000000 0.000000 -0.046319 0.000000 0.000000
# 5 0.000000 0.000000 0.000000 0.000000 0.035556 0.000000
# 6 0.000000 0.000000 0.000000 0.000000 0.000000 0.058814
#
#
# Mechanical properties :
#
#
# Convention : Reuss Voigt Hill
#
# Bulk Modulus (GPa) = 13.42284 35.51586 24.46935
# Shear Modulus (GPa) = 28.10027 17.06124 22.58076
#
# Velocity S-wave (km/s) = 3.57856 2.78842 3.20791
# Velocity P-wave (km/s) = 4.81581 5.15293 4.98722
#
# Compressibility (1/GPa) = 0.07449989
#
# Stress axis : x y z
#
# Youngs Moduli (GPa) = 15.18686 71.67665 100.23030
#
# Poissons Ratio (x) = 0.53432 -0.48252
# Poissons Ratio (y) = 0.11321 0.50085
# Poissons Ratio (z) = -0.07311 0.35817
#
# Static dielectric constant tensor:
#      x y z
#    x 1.818650 0.000000 0.000000 
#    y 0.000000 1.846370 0.000000 
#    z 0.000000 0.000000 1.975280 
# 
# From -- ./inp_files/34276.got.cif
#   From: 2010.05.17/outbox.cif.g08.bks.cpg/sg53_18_cif.got.tgz:34276.got - 2010.06.03 12:45:16.
