data_PCOD9417233
_publ_section_title
;
Structure prediction by ZEFSAII (Michael W. Deem and Ramdas Pophale) SiO2 
 PCOD9417233
Probable space group: P M N A
;
_chemical_formula_sum "Si O2"
_cell_formula_units_Z 64
_cell_length_a 17.021702
_cell_length_b 9.110886
_cell_length_c 19.474601
_cell_angle_alpha 90.000000
_cell_angle_beta 90.000000
_cell_angle_gamma 90.000000
_cell_volume 3020.175388
_symmetry_space_group_name_H-M "P M N A"
_symmetry_group_IT_number 53
_symmetry_cell_setting 'orthorhombic'
loop_
_space_group_symop_operation_xyz
x,y,z
1/2-x,-y,1/2+z
x,-y,-z
1/2-x,y,1/2-z
-x,-y,-z
1/2+x,y,1/2-z
-x,y,z
1/2+x,-y,1/2+z
loop_
_atom_site_type_symbol
_atom_site_label
_atom_site_fract_x
_atom_site_fract_y
_atom_site_fract_z
Si Si1 0.343173 0.484615 0.573341
Si Si2 0.914230 0.303053 0.594942
Si Si3 0.158859 0.478913 0.226713
Si Si4 0.911394 0.355140 0.358898
Si Si5 0.696454 0.985059 0.683372
Si Si6 0.088652 0.210856 0.748864
Si Si7 0.246244 0.237804 0.411865
Si Si8 0.751377 0.810712 0.059868
O O1 0.387271 0.500000 0.500000
O O2 0.372483 0.530433 0.648485
O O3 0.270027 0.596808 0.568307
O O4 0.310978 0.320873 0.577763
O O5 0.906468 0.477640 0.610950
O O6 0.914271 0.209449 0.665980
O O7 0.837309 0.250227 0.556914
O O8 0.000000 0.282814 0.561549
O O9 0.250000 0.448821 0.250000
O O10 0.107226 0.383909 0.278839
O O11 0.146746 0.652839 0.239748
O O12 0.843820 0.249339 0.388114
O O13 0.000000 0.302087 0.369511
O O14 0.750000 0.981656 0.750000
O O15 0.619235 0.068617 0.710489
O O16 0.736999 0.078746 0.622511
O O17 0.699202 0.824574 0.649251
O O18 0.000000 0.248002 0.771562
O O19 0.265274 0.148717 0.480722
#
# Coordination Sequence:
#
# PCOD9417233 Si02
#       8
#     8   8   8   8   8   8   8   8
#     4  10  20  34  59  90 118 152 202 258 300 351
#     4   9  17  32  59  92 121 155 200 246 291 351
#     4  11  17  32  64  92 119 155 209 257 298 353
#     4  10  21  36  58  94 132 161 196 249 310 368
#     4  12  24  39  63  89 115 161 211 254 299 361
#     4  10  20  36  60  90 117 150 204 261 302 347
#     4  11  24  37  57  91 128 161 199 249 311 363
#     4  11  20  39  60  90 120 159 211 253 293 357
#
# _framework density 21.190823000000002
#
# number of rings (size 3 to 8) (size 9 to 14) (size 15 to 20)
#    0.000    1.500    5.000    2.625    1.750    0.500 
#    0.000    2.500    0.000    4.500    0.000    0.000 
#    0.000    0.000    0.000    0.000    0.000    0.000 
#
# Total GULP energy -356476.748712 kJ/mol
# GULP energy per Si atom -5569.949199 kJ/mol
# Density = 2.114259 g / cm^3
# Si number density = 21.190823 Si / 1000 Ang^3
#
#
#
# Elastic Constant Matrix: (Units=GPa)
#
#
# Indices 1 2 3 4 5 6 
#
# 1 27.9398 3.0149 -15.9205 0.0000 0.0000 0.0000
# 2 3.0149 56.6352 21.0825 0.0000 0.0000 0.0000
# 3 -15.9205 21.0825 108.0940 0.0000 0.0000 0.0000
# 4 0.0000 0.0000 0.0000 29.7043 0.0000 0.0000
# 5 0.0000 0.0000 0.0000 0.0000 13.5455 0.0000
# 6 0.0000 0.0000 0.0000 0.0000 0.0000 1.6408
#
#
#
# Elastic Compliance Matrix: (Units=1/GPa)
#
#
# Indices 1 2 3 4 5 6 
#
# 1 0.040190 -0.004683 0.006833 0.000000 0.000000 0.000000
# 2 -0.004683 0.019585 -0.004510 0.000000 0.000000 0.000000
# 3 0.006833 -0.004510 0.011137 0.000000 0.000000 0.000000
# 4 0.000000 0.000000 0.000000 0.033665 0.000000 0.000000
# 5 0.000000 0.000000 0.000000 0.000000 0.073825 0.000000
# 6 0.000000 0.000000 0.000000 0.000000 0.000000 0.609451
#
#
# Mechanical properties :
#
#
# Convention : Reuss Voigt Hill
#
# Bulk Modulus (GPa) = 15.10753 23.22477 19.16615
# Shear Modulus (GPa) = 6.13770 21.27759 13.70765
#
# Velocity S-wave (km/s) = 1.70373 3.17218 2.54612
# Velocity P-wave (km/s) = 3.31889 4.93970 4.20806
#
# Compressibility (1/GPa) = 0.06619218
#
# Stress axis : x y z
#
# Youngs Moduli (GPa) = 24.88189 51.05993 89.79018
#
# Poissons Ratio (x) = 0.23911 -0.61351
# Poissons Ratio (y) = 0.11652 0.40491
# Poissons Ratio (z) = -0.17001 0.23026
#
# Static dielectric constant tensor:
#      x y z
#    x 1.743490 0.000000 0.000000 
#    y 0.000000 1.826620 0.000000 
#    z 0.000000 0.000000 1.856270 
# 
# From -- ./inp_files/32827.got.cif
#   From: 2010.05.17/outbox.cif.g08.bks.cpg/sg53_17_cif.got.tgz:32827.got - 2010.06.03 12:45:16.
