data_PCOD9417012
_publ_section_title
;
Structure prediction by ZEFSAII (Michael W. Deem and Ramdas Pophale) SiO2 
 PCOD9417012
Probable space group: P M N A
;
_chemical_formula_sum "Si O2"
_cell_formula_units_Z 48
_cell_length_a 16.542640
_cell_length_b 5.189781
_cell_length_c 28.910634
_cell_angle_alpha 90.000000
_cell_angle_beta 90.000000
_cell_angle_gamma 90.000000
_cell_volume 2482.055374
_symmetry_space_group_name_H-M "P M N A"
_symmetry_group_IT_number 53
_symmetry_cell_setting 'orthorhombic'
loop_
_space_group_symop_operation_xyz
x,y,z
1/2-x,-y,1/2+z
x,-y,-z
1/2-x,y,1/2-z
-x,-y,-z
1/2+x,y,1/2-z
-x,y,z
1/2+x,-y,1/2+z
loop_
_atom_site_type_symbol
_atom_site_label
_atom_site_fract_x
_atom_site_fract_y
_atom_site_fract_z
Si Si1 0.592033 0.174888 0.349279
Si Si2 0.854550 0.710512 0.395786
Si Si3 0.500000 0.750078 0.031859
Si Si4 0.693766 0.342316 0.645966
Si Si5 0.909962 0.082876 0.253899
Si Si6 0.250000 0.735378 0.250000
Si Si7 0.908922 0.784525 0.648522
O O1 0.500000 0.184767 0.366737
O O2 0.650677 0.393507 0.368768
O O3 0.589865 0.231322 0.294213
O O4 0.628603 0.888070 0.351121
O O5 0.917300 0.747919 0.437726
O O6 0.758997 0.754965 0.391932
O O7 0.858141 0.413268 0.380712
O O8 0.888628 0.917584 0.358951
O O9 0.500000 0.500000 0.000000
O O10 0.500000 0.000000 0.000000
O O11 0.734279 0.382275 0.697830
O O12 0.902623 0.270937 0.297431
O O13 0.000000 0.957035 0.258030
O O14 0.831777 0.902808 0.255465
O O15 0.000000 0.740279 0.632774
#
# Coordination Sequence:
#
# PCOD9417012 Si02
#       7
#     8   8   4   8   8   4   8
#     4  10  22  39  54  79 117 164 209 249 294 361
#     4  12  23  39  58  90 114 150 206 245 304 368
#     4  12  26  46  68  88 124 164 200 254 322 388
#     4  11  23  35  59  82 119 157 205 265 297 361
#     4   9  20  33  51  75 111 161 210 248 304 341
#     4  10  20  34  52  78 118 156 214 248 320 330
#     4  11  20  35  53  78 114 154 195 255 289 348
#
# _framework density 19.338809999999999
#
# number of rings (size 3 to 8) (size 9 to 14) (size 15 to 20)
#    0.000    1.333    3.333    2.500    4.667    1.333 
#    0.000    5.000    0.000    0.000    0.000    0.000 
#    0.000   13.333    0.000    0.000    0.000    0.000 
#
# Total GULP energy -267374.793217 kJ/mol
# GULP energy per Si atom -5570.308192 kJ/mol
# Density = 1.929479 g / cm^3
# Si number density = 19.338810 Si / 1000 Ang^3
#
#
#
# Elastic Constant Matrix: (Units=GPa)
#
#
# Indices 1 2 3 4 5 6 
#
# 1 121.9724 15.6672 15.2345 0.0000 0.0000 0.0000
# 2 15.6672 49.5463 9.2528 0.0000 0.0000 0.0000
# 3 15.2345 9.2528 48.0193 0.0000 0.0000 0.0000
# 4 0.0000 0.0000 0.0000 9.9048 0.0000 0.0000
# 5 0.0000 0.0000 0.0000 0.0000 22.4384 0.0000
# 6 0.0000 0.0000 0.0000 0.0000 0.0000 24.3340
#
#
#
# Elastic Compliance Matrix: (Units=1/GPa)
#
#
# Indices 1 2 3 4 5 6 
#
# 1 0.008792 -0.002343 -0.002338 0.000000 0.000000 0.000000
# 2 -0.002343 0.021561 -0.003411 0.000000 0.000000 0.000000
# 3 -0.002338 -0.003411 0.022224 0.000000 0.000000 0.000000
# 4 0.000000 0.000000 0.000000 0.100961 0.000000 0.000000
# 5 0.000000 0.000000 0.000000 0.000000 0.044566 0.000000
# 6 0.000000 0.000000 0.000000 0.000000 0.000000 0.041095
#
#
# Mechanical properties :
#
#
# Convention : Reuss Voigt Hill
#
# Bulk Modulus (GPa) = 27.47842 33.31636 30.39739
# Shear Modulus (GPa) = 18.69060 23.29434 20.99247
#
# Velocity S-wave (km/s) = 3.11220 3.47441 3.29828
# Velocity P-wave (km/s) = 5.21097 5.77585 5.50067
#
# Compressibility (1/GPa) = 0.03639219
#
# Stress axis : x y z
#
# Youngs Moduli (GPa) = 113.74538 46.37954 44.99660
#
# Poissons Ratio (x) = 0.10869 0.10519
# Poissons Ratio (y) = 0.26656 0.15349
# Poissons Ratio (z) = 0.26590 0.15821
#
# Static dielectric constant tensor:
#      x y z
#    x 1.744340 0.000000 0.000000 
#    y 0.000000 1.690400 0.000000 
#    z 0.000000 0.000000 1.718350 
# 
# From -- ./inp_files/38846.got.cif
#   From: 2010.05.17/outbox.cif.g08.bks.cpg/sg53_20_cif.got.tgz:38846.got - 2010.06.03 12:45:16.
