data_PCOD9417204
_publ_section_title
;
Structure prediction by ZEFSAII (Michael W. Deem and Ramdas Pophale) SiO2 
 PCOD9417204
Probable space group: P M N A
;
_chemical_formula_sum "Si O2"
_cell_formula_units_Z 64
_cell_length_a 9.627115
_cell_length_b 14.461844
_cell_length_c 25.049825
_cell_angle_alpha 90.000000
_cell_angle_beta 90.000000
_cell_angle_gamma 90.000000
_cell_volume 3487.582810
_symmetry_space_group_name_H-M "P M N A"
_symmetry_group_IT_number 53
_symmetry_cell_setting 'orthorhombic'
loop_
_space_group_symop_operation_xyz
x,y,z
1/2-x,-y,1/2+z
x,-y,-z
1/2-x,y,1/2-z
-x,-y,-z
1/2+x,y,1/2-z
-x,y,z
1/2+x,-y,1/2+z
loop_
_atom_site_type_symbol
_atom_site_label
_atom_site_fract_x
_atom_site_fract_y
_atom_site_fract_z
Si Si1 0.834472 0.849786 0.129468
Si Si2 0.831506 0.191060 0.103993
Si Si3 0.167086 0.959814 0.805894
Si Si4 0.340598 0.393986 0.357642
Si Si5 0.343249 0.681363 0.117061
Si Si6 0.331467 0.106055 0.507215
Si Si7 0.840168 0.553039 0.051951
Si Si8 0.345238 0.477061 0.794838
O O1 0.740955 0.763104 0.145530
O O2 0.000000 0.829690 0.132056
O O3 0.809834 0.941656 0.164350
O O4 0.794688 0.864440 0.067114
O O5 0.791253 0.119362 0.150955
O O6 0.795016 0.295992 0.118517
O O7 0.781908 0.162213 0.044778
O O8 0.000000 0.186684 0.102025
O O9 0.250000 0.953878 0.750000
O O10 0.000000 0.951544 0.796539
O O11 0.500000 0.384061 0.338409
O O12 0.342744 0.474685 0.402255
O O13 0.234657 0.431455 0.313849
O O14 0.500000 0.709041 0.102230
O O15 0.252215 0.639875 0.068715
O O16 0.353054 0.594894 0.157016
O O17 0.500000 0.108454 0.505996
O O18 0.288473 0.000000 0.500000
O O19 0.000000 0.583317 0.042461
O O20 0.787586 0.500000 0.000000
O O21 0.250000 0.432683 0.750000
O O22 0.500000 0.496314 0.775634
#
# Coordination Sequence:
#
# PCOD9417204 Si02
#       8
#     8   8   8   8   8   8   8   8
#     4  10  20  34  57  84 109 140 184 230 271 320
#     4   9  17  31  53  82 112 141 179 222 271 323
#     4  10  21  37  55  79 109 144 181 222 272 326
#     4   9  18  32  52  80 111 140 174 219 264 315
#     4  10  22  37  53  77 110 145 177 217 272 327
#     4   9  15  28  54  84 110 138 177 230 276 314
#     4   9  18  32  52  80 110 141 180 220 258 306
#     4  10  21  38  58  77 102 139 182 227 274 321
#
# _framework density 18.350819000000001
#
# number of rings (size 3 to 8) (size 9 to 14) (size 15 to 20)
#    0.000    2.500    1.250    0.750    1.750    3.250 
#    0.000    4.375    0.000    1.125    0.000    0.000 
#    0.000    0.000    0.000    0.000    0.000    0.000 
#
# Total GULP energy -356568.221892 kJ/mol
# GULP energy per Si atom -5571.378467 kJ/mol
# Density = 1.830905 g / cm^3
# Si number density = 18.350819 Si / 1000 Ang^3
#
#
#
# Elastic Constant Matrix: (Units=GPa)
#
#
# Indices 1 2 3 4 5 6 
#
# 1 57.6684 20.4425 15.1025 0.0000 0.0000 0.0000
# 2 20.4425 68.0145 -2.6792 0.0000 0.0000 0.0000
# 3 15.1025 -2.6792 63.1749 0.0000 0.0000 0.0000
# 4 0.0000 0.0000 0.0000 12.3138 0.0000 0.0000
# 5 0.0000 0.0000 0.0000 0.0000 17.4210 0.0000
# 6 0.0000 0.0000 0.0000 0.0000 0.0000 -5.0914
#
#
#
# Elastic Compliance Matrix: (Units=1/GPa)
#
#
# Indices 1 2 3 4 5 6 
#
# 1 0.021047 -0.006535 -0.005309 0.000000 0.000000 0.000000
# 2 -0.006535 0.016756 0.002273 0.000000 0.000000 0.000000
# 3 -0.005309 0.002273 0.017195 0.000000 0.000000 0.000000
# 4 0.000000 0.000000 0.000000 0.081209 0.000000 0.000000
# 5 0.000000 0.000000 0.000000 0.000000 0.057402 0.000000
# 6 0.000000 0.000000 0.000000 0.000000 0.000000 -0.196408
#
#
# Mechanical properties :
#
#
# Convention : Reuss Voigt Hill
#
# Bulk Modulus (GPa) = 27.88889 28.28771 28.08830
# Shear Modulus (GPa) = 176.70765 15.32816 96.01791
#
# Velocity S-wave (km/s) = 9.82360 2.89326 7.24135
# Velocity P-wave (km/s) = 11.99590 5.15846 9.23340
#
# Compressibility (1/GPa) = 0.03585657
#
# Stress axis : x y z
#
# Youngs Moduli (GPa) = 47.51183 59.67840 58.15792
#
# Poissons Ratio (x) = 0.39001 0.30874
# Poissons Ratio (y) = 0.31050 -0.13219
# Poissons Ratio (z) = 0.25223 -0.13564
#
# Static dielectric constant tensor:
#      x y z
#    x 1.632230 0.000000 0.000000 
#    y 0.000000 1.632670 0.000000 
#    z 0.000000 0.000000 1.680030 
# 
# From -- ./inp_files/34219.got.cif
#   From: 2010.05.17/outbox.cif.g08.bks.cpg/sg53_18_cif.got.tgz:34219.got - 2010.06.03 12:45:16.
