data_PCOD9417285
_publ_section_title
;
Structure prediction by ZEFSAII (Michael W. Deem and Ramdas Pophale) SiO2 
 PCOD9417285
Probable space group: P M N A
;
_chemical_formula_sum "Si O2"
_cell_formula_units_Z 40
_cell_length_a 8.535468
_cell_length_b 26.510019
_cell_length_c 9.649397
_cell_angle_alpha 90.000000
_cell_angle_beta 90.000000
_cell_angle_gamma 90.000000
_cell_volume 2183.421348
_symmetry_space_group_name_H-M "P M N A"
_symmetry_group_IT_number 53
_symmetry_cell_setting 'orthorhombic'
loop_
_space_group_symop_operation_xyz
x,y,z
1/2-x,-y,1/2+z
x,-y,-z
1/2-x,y,1/2-z
-x,-y,-z
1/2+x,y,1/2-z
-x,y,z
1/2+x,-y,1/2+z
loop_
_atom_site_type_symbol
_atom_site_label
_atom_site_fract_x
_atom_site_fract_y
_atom_site_fract_z
Si Si1 0.312925 0.138752 0.593645
Si Si2 0.189386 0.453842 0.405957
Si Si3 0.811835 0.048265 0.406975
Si Si4 0.188982 0.658323 0.594297
Si Si5 0.811313 0.248900 0.595214
O O1 0.250000 0.128872 0.750000
O O2 0.500000 0.138119 0.598514
O O3 0.251488 0.097337 0.486519
O O4 0.253976 0.194404 0.551566
O O5 0.245483 0.500000 0.500000
O O6 0.250000 0.459586 0.250000
O O7 0.237470 0.397720 0.455732
O O8 0.000000 0.455024 0.403997
O O9 0.750000 0.044564 0.250000
O O10 0.000000 0.050156 0.402853
O O11 0.764635 0.000000 0.500000
O O12 0.250000 0.664104 0.750000
O O13 0.241497 0.704901 0.500706
O O14 0.000000 0.659137 0.596484
O O15 0.750000 0.257650 0.750000
O O16 0.000000 0.246522 0.595950
#
# Coordination Sequence:
#
# PCOD9417285 Si02
#       5
#     8   8   8   8   8
#     4  11  22  38  60  84 113 147 184 226 273 322
#     4   9  18  33  51  73 102 134 171 215 263 315
#     4  11  24  41  62  88 117 149 186 226 270 321
#     4   9  19  34  52  74 102 137 174 216 264 316
#     4  10  20  35  54  78 108 140 179 222 267 319
#
# _framework density 18.319872
#
# number of rings (size 3 to 8) (size 9 to 14) (size 15 to 20)
#    0.000    2.000    0.000    4.800    0.000    6.800 
#    0.000    2.000    0.000    0.000    0.000    0.000 
#    0.000    0.000    0.000    0.000    0.000    0.000 
#
# Total GULP energy -223322.404720 kJ/mol
# GULP energy per Si atom -5583.060118 kJ/mol
# Density = 1.827818 g / cm^3
# Si number density = 18.319872 Si / 1000 Ang^3
#
#
#
# Elastic Constant Matrix: (Units=GPa)
#
#
# Indices 1 2 3 4 5 6 
#
# 1 55.3131 49.1092 35.5940 0.0000 0.0000 0.0000
# 2 49.1092 211.8940 128.4815 0.0000 0.0000 0.0000
# 3 35.5940 128.4815 112.4780 0.0000 0.0000 0.0000
# 4 0.0000 0.0000 0.0000 58.9093 0.0000 0.0000
# 5 0.0000 0.0000 0.0000 0.0000 32.8593 0.0000
# 6 0.0000 0.0000 0.0000 0.0000 0.0000 -24.5905
#
#
#
# Elastic Compliance Matrix: (Units=1/GPa)
#
#
# Indices 1 2 3 4 5 6 
#
# 1 0.023281 -0.003021 -0.003917 0.000000 0.000000 0.000000
# 2 -0.003021 0.015745 -0.017030 0.000000 0.000000 0.000000
# 3 -0.003917 -0.017030 0.029583 0.000000 0.000000 0.000000
# 4 0.000000 0.000000 0.000000 0.016975 0.000000 0.000000
# 5 0.000000 0.000000 0.000000 0.000000 0.030433 0.000000
# 6 0.000000 0.000000 0.000000 0.000000 0.000000 -0.040666
#
#
# Mechanical properties :
#
#
# Convention : Reuss Voigt Hill
#
# Bulk Modulus (GPa) = 48.36794 89.56161 68.96478
# Shear Modulus (GPa) = 38.40897 24.53565 31.47231
#
# Velocity S-wave (km/s) = 4.58380 3.66360 4.14929
# Velocity P-wave (km/s) = 7.38067 8.17862 7.78987
#
# Compressibility (1/GPa) = 0.02067485
#
# Stress axis : x y z
#
# Youngs Moduli (GPa) = 42.95282 63.51068 33.80334
#
# Poissons Ratio (x) = 0.19185 0.13240
# Poissons Ratio (y) = 0.12975 0.57566
# Poissons Ratio (z) = 0.16824 1.08157
#
# Static dielectric constant tensor:
#      x y z
#    x 1.618240 0.000000 0.000000 
#    y 0.000000 1.646080 0.000000 
#    z 0.000000 0.000000 1.588440 
# 
# From -- ./inp_files/6454.got.cif
#   From: 2010.05.17/outbox.cif.g08.bks.cpg/sg53_4_cif.got.tgz:6454.got - 2010.06.03 12:45:16.
