data_PCOD9417356
_publ_section_title
;
Structure prediction by ZEFSAII (Michael W. Deem and Ramdas Pophale) SiO2 
 PCOD9417356
Probable space group: P M N A
;
_chemical_formula_sum "Si O2"
_cell_formula_units_Z 40
_cell_length_a 8.166036
_cell_length_b 15.817056
_cell_length_c 14.864958
_cell_angle_alpha 90.000000
_cell_angle_beta 90.000000
_cell_angle_gamma 90.000000
_cell_volume 1919.997348
_symmetry_space_group_name_H-M "P M N A"
_symmetry_group_IT_number 53
_symmetry_cell_setting 'orthorhombic'
loop_
_space_group_symop_operation_xyz
x,y,z
1/2-x,-y,1/2+z
x,-y,-z
1/2-x,y,1/2-z
-x,-y,-z
1/2+x,y,1/2-z
-x,y,z
1/2+x,-y,1/2+z
loop_
_atom_site_type_symbol
_atom_site_label
_atom_site_fract_x
_atom_site_fract_y
_atom_site_fract_z
Si Si1 0.196336 0.595485 0.996046
Si Si2 0.196725 0.278322 0.646330
Si Si3 0.302123 0.906495 0.145241
Si Si4 0.196012 0.911596 0.645270
Si Si5 0.304970 0.729815 0.646523
O O1 0.232778 0.647246 0.086216
O O2 0.000000 0.590093 0.984862
O O3 0.261343 0.500000 0.000000
O O4 0.261304 0.653656 0.914520
O O5 0.250000 0.286127 0.750000
O O6 0.253968 0.185265 0.611645
O O7 0.000000 0.280490 0.641912
O O8 0.250000 0.907104 0.250000
O O9 0.500000 0.906611 0.139539
O O10 0.245809 0.997477 0.107589
O O11 0.250000 0.911020 0.750000
O O12 0.255464 0.822018 0.608715
O O13 0.000000 0.910671 0.640493
O O14 0.250000 0.722954 0.750000
O O15 0.500000 0.726786 0.646045
#
# Coordination Sequence:
#
# PCOD9417356 Si02
#       5
#     8   8   8   8   8
#     4  10  23  42  59  78 107 141 181 232 282 326
#     4  10  20  36  59  85 113 145 182 222 268 323
#     4   8  15  27  46  75 108 142 176 212 256 309
#     4   9  15  26  47  75 108 142 176 213 256 311
#     4  10  20  35  56  80 108 141 178 222 271 323
#
# _framework density 20.833362000000001
#
# number of rings (size 3 to 8) (size 9 to 14) (size 15 to 20)
#    0.000    2.600    0.000    3.000    0.000    4.400 
#    0.000    3.000    0.000    6.000    0.000    0.000 
#    0.000    0.000    0.000    0.000    0.000    0.000 
#
# Total GULP energy -223047.221424 kJ/mol
# GULP energy per Si atom -5576.180536 kJ/mol
# Density = 2.078594 g / cm^3
# Si number density = 20.833362 Si / 1000 Ang^3
#
#
#
# Elastic Constant Matrix: (Units=GPa)
#
#
# Indices 1 2 3 4 5 6 
#
# 1 15.3534 14.5369 -8.4849 0.0000 0.0000 0.0000
# 2 14.5369 253.7910 71.5323 0.0000 0.0000 0.0000
# 3 -8.4849 71.5323 86.5336 0.0000 0.0000 0.0000
# 4 0.0000 0.0000 0.0000 37.3378 0.0000 0.0000
# 5 0.0000 0.0000 0.0000 0.0000 8.8342 0.0000
# 6 0.0000 0.0000 0.0000 0.0000 0.0000 23.7222
#
#
#
# Elastic Compliance Matrix: (Units=1/GPa)
#
#
# Indices 1 2 3 4 5 6 
#
# 1 0.082403 -0.009123 0.015621 0.000000 0.000000 0.000000
# 2 -0.009123 0.006147 -0.005976 0.000000 0.000000 0.000000
# 3 0.015621 -0.005976 0.018028 0.000000 0.000000 0.000000
# 4 0.000000 0.000000 0.000000 0.026783 0.000000 0.000000
# 5 0.000000 0.000000 0.000000 0.000000 0.113196 0.000000
# 6 0.000000 0.000000 0.000000 0.000000 0.000000 0.042155
#
#
# Mechanical properties :
#
#
# Convention : Reuss Voigt Hill
#
# Bulk Modulus (GPa) = 9.29174 56.76074 33.02624
# Shear Modulus (GPa) = 15.45401 32.51841 23.98621
#
# Velocity S-wave (km/s) = 2.72654 3.95509 3.39682
# Velocity P-wave (km/s) = 3.79233 6.93983 5.59209
#
# Compressibility (1/GPa) = 0.10762243
#
# Stress axis : x y z
#
# Youngs Moduli (GPa) = 12.13551 162.67637 55.46948
#
# Poissons Ratio (x) = 1.48407 -0.86650
# Poissons Ratio (y) = 0.11071 0.33149
# Poissons Ratio (z) = -0.18957 0.97216
#
# Static dielectric constant tensor:
#      x y z
#    x 1.720600 0.000000 0.000000 
#    y 0.000000 1.800380 0.000000 
#    z 0.000000 0.000000 1.743770 
# 
# From -- ./inp_files/19870.got.cif
#   From: 2010.05.17/outbox.cif.g08.bks.cpg/sg53_10_cif.got.tgz:19870.got - 2010.06.03 12:45:16.
