data_PCOD9417993
_publ_section_title
;
Structure prediction by ZEFSAII (Michael W. Deem and Ramdas Pophale) SiO2 
 PCOD9417993
Probable space group: P M N A
;
_chemical_formula_sum "Si O2"
_cell_formula_units_Z 48
_cell_length_a 9.615652
_cell_length_b 30.253511
_cell_length_c 9.131420
_cell_angle_alpha 90.000000
_cell_angle_beta 90.000000
_cell_angle_gamma 90.000000
_cell_volume 2656.396131
_symmetry_space_group_name_H-M "P M N A"
_symmetry_group_IT_number 53
_symmetry_cell_setting 'orthorhombic'
loop_
_space_group_symop_operation_xyz
x,y,z
1/2-x,-y,1/2+z
x,-y,-z
1/2-x,y,1/2-z
-x,-y,-z
1/2+x,y,1/2-z
-x,y,z
1/2+x,-y,1/2+z
loop_
_atom_site_type_symbol
_atom_site_label
_atom_site_fract_x
_atom_site_fract_y
_atom_site_fract_z
Si Si1 0.500000 0.549235 0.566018
Si Si2 0.329887 0.300323 0.905294
Si Si3 0.668201 0.786066 0.403125
Si Si4 0.755778 0.610887 0.575072
Si Si5 0.500000 0.454556 0.083922
Si Si6 0.663798 0.127070 0.399161
Si Si7 0.833943 0.043083 0.900910
O O1 0.500000 0.500000 0.500000
O O2 0.624498 0.582209 0.527829
O O3 0.500000 0.540514 0.740798
O O4 0.250000 0.305886 0.750000
O O5 0.500000 0.296237 0.894234
O O6 0.253017 0.256213 0.965466
O O7 0.289420 0.343032 0.999130
O O8 0.750000 0.795372 0.250000
O O9 0.500000 0.777772 0.380996
O O10 0.681157 0.827681 0.510100
O O11 0.750000 0.618416 0.750000
O O12 0.873238 0.575764 0.541815
O O13 0.500000 0.500000 0.000000
O O14 0.750000 0.127121 0.250000
O O15 0.500000 0.122009 0.364846
O O16 0.703653 0.086317 0.504390
O O17 0.750000 0.041482 0.750000
O O18 0.000000 0.044771 0.870873
O O19 0.806711 0.000000 0.000000
#
# Coordination Sequence:
#
# PCOD9417993 Si02
#       7
#     4   8   8   8   4   8   8
#     4  10  22  36  58  86 112 146 186 228 277 330
#     4  11  23  39  60  87 115 148 190 235 283 339
#     4  10  21  38  59  84 114 148 189 238 287 343
#     4  10  22  39  58  83 114 149 184 227 279 335
#     4  10  20  38  58  80 114 146 184 228 273 330
#     4  10  22  38  57  86 119 154 199 244 292 350
#     4  10  21  37  58  86 120 158 202 250 299 354
#
# _framework density 18.069593999999999
#
# number of rings (size 3 to 8) (size 9 to 14) (size 15 to 20)
#    0.000    1.833    0.833    3.500    2.333    4.333 
#    0.000    1.667    0.000    0.000    0.000    0.000 
#    0.000    0.000    0.000    0.000    0.000    0.000 
#
# Total GULP energy -267521.861192 kJ/mol
# GULP energy per Si atom -5573.372108 kJ/mol
# Density = 1.802847 g / cm^3
# Si number density = 18.069594 Si / 1000 Ang^3
#
#
#
# Elastic Constant Matrix: (Units=GPa)
#
#
# Indices 1 2 3 4 5 6 
#
# 1 165.1475 87.1551 68.5029 0.0000 0.0000 0.0000
# 2 87.1551 187.7487 84.6429 0.0000 0.0000 0.0000
# 3 68.5029 84.6429 90.4969 0.0000 0.0000 0.0000
# 4 0.0000 0.0000 0.0000 35.0002 0.0000 0.0000
# 5 0.0000 0.0000 0.0000 0.0000 32.1257 0.0000
# 6 0.0000 0.0000 0.0000 0.0000 0.0000 29.9224
#
#
#
# Elastic Compliance Matrix: (Units=1/GPa)
#
#
# Indices 1 2 3 4 5 6 
#
# 1 0.009226 -0.001961 -0.005149 0.000000 0.000000 0.000000
# 2 -0.001961 0.009627 -0.007519 0.000000 0.000000 0.000000
# 3 -0.005149 -0.007519 0.021981 0.000000 0.000000 0.000000
# 4 0.000000 0.000000 0.000000 0.028571 0.000000 0.000000
# 5 0.000000 0.000000 0.000000 0.000000 0.031128 0.000000
# 6 0.000000 0.000000 0.000000 0.000000 0.000000 0.033420
#
#
# Mechanical properties :
#
#
# Convention : Reuss Voigt Hill
#
# Bulk Modulus (GPa) = 86.40294 102.66608 94.53451
# Shear Modulus (GPa) = 29.92745 32.94913 31.43829
#
# Velocity S-wave (km/s) = 4.07410 4.27483 4.17567
# Velocity P-wave (km/s) = 8.36968 9.01698 8.69935
#
# Compressibility (1/GPa) = 0.01157368
#
# Stress axis : x y z
#
# Youngs Moduli (GPa) = 108.38600 103.87793 45.49414
#
# Poissons Ratio (x) = 0.20375 0.23427
# Poissons Ratio (y) = 0.21259 0.34208
# Poissons Ratio (z) = 0.55812 0.78108
#
# Static dielectric constant tensor:
#      x y z
#    x 1.595960 0.000000 0.000000 
#    y 0.000000 1.593390 0.000000 
#    z 0.000000 0.000000 1.609470 
# 
# From -- ./inp_files/6803.got.cif
#   From: 2010.05.17/outbox.cif.g08.bks.cpg/sg53_4_cif.got.tgz:6803.got - 2010.06.03 12:45:16.
