data_PCOD9417259
_publ_section_title
;
Structure prediction by ZEFSAII (Michael W. Deem and Ramdas Pophale) SiO2 
 PCOD9417259
Probable space group: P M N A
;
_chemical_formula_sum "Si O2"
_cell_formula_units_Z 64
_cell_length_a 7.923694
_cell_length_b 12.443828
_cell_length_c 32.058886
_cell_angle_alpha 90.000000
_cell_angle_beta 90.000000
_cell_angle_gamma 90.000000
_cell_volume 3161.040952
_symmetry_space_group_name_H-M "P M N A"
_symmetry_group_IT_number 53
_symmetry_cell_setting 'orthorhombic'
loop_
_space_group_symop_operation_xyz
x,y,z
1/2-x,-y,1/2+z
x,-y,-z
1/2-x,y,1/2-z
-x,-y,-z
1/2+x,y,1/2-z
-x,y,z
1/2+x,-y,1/2+z
loop_
_atom_site_type_symbol
_atom_site_label
_atom_site_fract_x
_atom_site_fract_y
_atom_site_fract_z
Si Si1 0.802930 0.731912 0.054529
Si Si2 0.297770 0.246772 0.703118
Si Si3 0.795475 0.116173 0.019476
Si Si4 0.203068 0.637545 0.624821
Si Si5 0.302186 0.107786 0.873909
Si Si6 0.696693 0.501388 0.953024
Si Si7 0.298714 0.492749 0.703022
Si Si8 0.196604 0.128060 0.385873
O O1 0.783135 0.819052 0.090920
O O2 0.709457 0.620854 0.063136
O O3 0.000000 0.705598 0.050169
O O4 0.743783 0.789844 0.012214
O O5 0.250000 0.215936 0.750000
O O6 0.500000 0.245040 0.698221
O O7 0.218916 0.168068 0.669537
O O8 0.237007 0.369880 0.696946
O O9 0.712352 0.129669 0.064139
O O10 0.000000 0.119309 0.023777
O O11 0.752565 0.000000 0.000000
O O12 0.269565 0.579688 0.582582
O O13 0.237081 0.567502 0.665731
O O14 0.270715 0.758849 0.629294
O O15 0.000000 0.644302 0.620114
O O16 0.500000 0.100959 0.885183
O O17 0.230283 0.986934 0.872356
O O18 0.500000 0.531416 0.957739
O O19 0.771587 0.500000 0.000000
O O20 0.250000 0.526930 0.750000
O O21 0.500000 0.489945 0.701129
O O22 0.000000 0.126762 0.373163
#
# Coordination Sequence:
#
# PCOD9417259 Si02
#       8
#     8   8   8   8   8   8   8   8
#     4  11  22  35  54  80 111 145 185 233 282 332
#     4  10  21  38  61  88 117 145 177 222 277 336
#     4  10  20  35  53  76 109 148 189 233 282 331
#     4  10  21  38  58  82 115 152 191 238 287 337
#     4  11  22  36  56  83 112 143 184 229 275 328
#     4  10  21  37  57  81 113 152 192 235 285 341
#     4  10  21  38  62  90 115 144 184 230 283 342
#     4  10  22  38  57  81 110 149 194 236 277 329
#
# _framework density 20.246494999999999
#
# number of rings (size 3 to 8) (size 9 to 14) (size 15 to 20)
#    0.000    1.750    1.250    3.000    0.000    7.500 
#    0.000    0.625    0.000    0.000    0.000    0.000 
#    0.000    0.000    0.000    0.000    0.000    0.000 
#
# Total GULP energy -357526.308947 kJ/mol
# GULP energy per Si atom -5586.348577 kJ/mol
# Density = 2.020041 g / cm^3
# Si number density = 20.246495 Si / 1000 Ang^3
#
#
#
# Elastic Constant Matrix: (Units=GPa)
#
#
# Indices 1 2 3 4 5 6 
#
# 1 23.6734 -3.1255 -8.2816 0.0000 0.0000 0.0000
# 2 -3.1255 120.6341 65.5291 0.0000 0.0000 0.0000
# 3 -8.2816 65.5291 109.4346 0.0000 0.0000 0.0000
# 4 0.0000 0.0000 0.0000 32.3058 0.0000 0.0000
# 5 0.0000 0.0000 0.0000 0.0000 26.5041 0.0000
# 6 0.0000 0.0000 0.0000 0.0000 0.0000 4.6008
#
#
#
# Elastic Compliance Matrix: (Units=1/GPa)
#
#
# Indices 1 2 3 4 5 6 
#
# 1 0.043468 -0.000979 0.003876 0.000000 0.000000 0.000000
# 2 -0.000979 0.012308 -0.007444 0.000000 0.000000 0.000000
# 3 0.003876 -0.007444 0.013889 0.000000 0.000000 0.000000
# 4 0.000000 0.000000 0.000000 0.030954 0.000000 0.000000
# 5 0.000000 0.000000 0.000000 0.000000 0.037730 0.000000
# 6 0.000000 0.000000 0.000000 0.000000 0.000000 0.217355
#
#
# Mechanical properties :
#
#
# Convention : Reuss Voigt Hill
#
# Bulk Modulus (GPa) = 16.50983 40.22067 28.36525
# Shear Modulus (GPa) = 12.98740 25.99013 19.48876
#
# Velocity S-wave (km/s) = 2.53546 3.58674 3.10590
# Velocity P-wave (km/s) = 4.09189 6.08782 5.18677
#
# Compressibility (1/GPa) = 0.06056996
#
# Stress axis : x y z
#
# Youngs Moduli (GPa) = 23.00534 81.24958 72.00154
#
# Poissons Ratio (x) = 0.07955 -0.27906
# Poissons Ratio (y) = 0.02253 0.53598
# Poissons Ratio (z) = -0.08916 0.60482
#
# Static dielectric constant tensor:
#      x y z
#    x 1.748230 0.000000 0.000000 
#    y 0.000000 1.741790 0.000000 
#    z 0.000000 0.000000 1.682370 
# 
# From -- ./inp_files/38277.got.cif
#   From: 2010.05.17/outbox.cif.g08.bks.cpg/sg53_20_cif.got.tgz:38277.got - 2010.06.03 12:45:16.
