data_PCOD9417107
_publ_section_title
;
Structure prediction by ZEFSAII (Michael W. Deem and Ramdas Pophale) SiO2 
 PCOD9417107
Probable space group: P M N A
;
_chemical_formula_sum "Si O2"
_cell_formula_units_Z 64
_cell_length_a 9.256108
_cell_length_b 12.589638
_cell_length_c 29.253091
_cell_angle_alpha 90.000000
_cell_angle_beta 90.000000
_cell_angle_gamma 90.000000
_cell_volume 3408.893381
_symmetry_space_group_name_H-M "P M N A"
_symmetry_group_IT_number 53
_symmetry_cell_setting 'orthorhombic'
loop_
_space_group_symop_operation_xyz
x,y,z
1/2-x,-y,1/2+z
x,-y,-z
1/2-x,y,1/2-z
-x,-y,-z
1/2+x,y,1/2-z
-x,y,z
1/2+x,-y,1/2+z
loop_
_atom_site_type_symbol
_atom_site_label
_atom_site_fract_x
_atom_site_fract_y
_atom_site_fract_z
Si Si1 0.669624 0.093642 0.795539
Si Si2 0.672633 0.430155 0.394898
Si Si3 0.168307 0.350988 0.945846
Si Si4 0.836283 0.148050 0.322696
Si Si5 0.168742 0.864999 0.110541
Si Si6 0.831631 0.938340 0.573991
Si Si7 0.672930 0.278013 0.035241
Si Si8 0.671382 0.643671 0.704145
O O1 0.750000 0.131177 0.750000
O O2 0.500000 0.120265 0.795246
O O3 0.745092 0.133672 0.841782
O O4 0.680627 0.965138 0.798146
O O5 0.500000 0.411434 0.399200
O O6 0.705406 0.543009 0.418002
O O7 0.757421 0.340087 0.422362
O O8 0.707878 0.423409 0.341263
O O9 0.181031 0.248261 0.913729
O O10 0.000000 0.360097 0.960544
O O11 0.266413 0.332146 0.989827
O O12 0.823182 0.119157 0.376321
O O13 0.725160 0.236635 0.306744
O O14 0.000000 0.187569 0.314579
O O15 0.000000 0.888130 0.119074
O O16 0.236029 0.957088 0.078637
O O17 0.787650 0.847151 0.538376
O O18 0.000000 0.967483 0.566619
O O19 0.500000 0.283848 0.037654
O O20 0.750000 0.606958 0.750000
O O21 0.500000 0.642537 0.710529
#
# Coordination Sequence:
#
# PCOD9417107 Si02
#       8
#     8   8   8   8   8   8   8   8
#     4  10  20  34  54  81 113 149 189 235 286 339
#     4  10  22  41  61  82 114 153 190 233 285 339
#     4  10  23  42  60  81 113 152 194 239 287 340
#     4   9  17  32  52  77 113 149 179 220 274 331
#     4  10  21  37  58  82 112 152 195 238 282 338
#     4   9  19  35  55  82 119 152 178 227 286 335
#     4  11  22  37  61  91 117 145 187 237 290 341
#     4  11  22  34  54  82 111 147 185 225 277 335
#
# _framework density 18.774422000000001
#
# number of rings (size 3 to 8) (size 9 to 14) (size 15 to 20)
#    0.000    2.000    1.250    3.000    0.000    8.500 
#    0.000    3.125    0.000    1.500    0.000    0.000 
#    0.000    0.000    0.000    0.000    0.000    0.000 
#
# Total GULP energy -357448.610606 kJ/mol
# GULP energy per Si atom -5585.134541 kJ/mol
# Density = 1.873169 g / cm^3
# Si number density = 18.774422 Si / 1000 Ang^3
#
#
#
# Elastic Constant Matrix: (Units=GPa)
#
#
# Indices 1 2 3 4 5 6 
#
# 1 68.5158 25.8752 31.3520 0.0000 0.0000 0.0000
# 2 25.8752 47.7914 -2.6049 0.0000 0.0000 0.0000
# 3 31.3520 -2.6049 58.4393 0.0000 0.0000 0.0000
# 4 0.0000 0.0000 0.0000 17.4689 0.0000 0.0000
# 5 0.0000 0.0000 0.0000 0.0000 20.4248 0.0000
# 6 0.0000 0.0000 0.0000 0.0000 0.0000 18.7999
#
#
#
# Elastic Compliance Matrix: (Units=1/GPa)
#
#
# Indices 1 2 3 4 5 6 
#
# 1 0.027705 -0.015849 -0.015570 0.000000 0.000000 0.000000
# 2 -0.015849 0.030042 0.009842 0.000000 0.000000 0.000000
# 3 -0.015570 0.009842 0.025904 0.000000 0.000000 0.000000
# 4 0.000000 0.000000 0.000000 0.057244 0.000000 0.000000
# 5 0.000000 0.000000 0.000000 0.000000 0.048960 0.000000
# 6 0.000000 0.000000 0.000000 0.000000 0.000000 0.053192
#
#
# Mechanical properties :
#
#
# Convention : Reuss Voigt Hill
#
# Bulk Modulus (GPa) = 24.69360 31.55457 28.12408
# Shear Modulus (GPa) = 16.68340 19.34700 18.01520
#
# Velocity S-wave (km/s) = 2.98421 3.21362 3.10104
# Velocity P-wave (km/s) = 5.00553 5.53295 5.27584
#
# Compressibility (1/GPa) = 0.04049633
#
# Stress axis : x y z
#
# Youngs Moduli (GPa) = 36.09441 33.28728 38.60475
#
# Poissons Ratio (x) = 0.52756 0.60107
# Poissons Ratio (y) = 0.57205 -0.37994
# Poissons Ratio (z) = 0.56199 -0.32760
#
# Static dielectric constant tensor:
#      x y z
#    x 1.633620 0.000000 0.000000 
#    y 0.000000 1.626830 0.000000 
#    z 0.000000 0.000000 1.665830 
# 
# From -- ./inp_files/38268.got.cif
#   From: 2010.05.17/outbox.cif.g08.bks.cpg/sg53_20_cif.got.tgz:38268.got - 2010.06.03 12:45:16.
