data_PCOD9417794
_publ_section_title
;
Structure prediction by ZEFSAII (Michael W. Deem and Ramdas Pophale) SiO2 
 PCOD9417794
Probable space group: P M N A
;
_chemical_formula_sum "Si O2"
_cell_formula_units_Z 64
_cell_length_a 18.489192
_cell_length_b 11.079689
_cell_length_c 15.110032
_cell_angle_alpha 90.000000
_cell_angle_beta 90.000000
_cell_angle_gamma 90.000000
_cell_volume 3095.358008
_symmetry_space_group_name_H-M "P M N A"
_symmetry_group_IT_number 53
_symmetry_cell_setting 'orthorhombic'
loop_
_space_group_symop_operation_xyz
x,y,z
1/2-x,-y,1/2+z
x,-y,-z
1/2-x,y,1/2-z
-x,-y,-z
1/2+x,y,1/2-z
-x,y,z
1/2+x,-y,1/2+z
loop_
_atom_site_type_symbol
_atom_site_label
_atom_site_fract_x
_atom_site_fract_y
_atom_site_fract_z
Si Si1 0.838900 0.449252 0.589531
Si Si2 0.287160 0.622452 0.657326
Si Si3 0.418537 0.543294 0.753727
Si Si4 0.681320 0.184439 0.966154
Si Si5 0.918544 0.208042 0.363000
Si Si6 0.584242 0.063274 0.817682
Si Si7 0.413804 0.076452 0.620184
Si Si8 0.164946 0.154578 0.037578
O O1 0.874307 0.500000 0.500000
O O2 0.773952 0.541722 0.610970
O O3 0.896204 0.452643 0.668451
O O4 0.808888 0.316346 0.575866
O O5 0.250000 0.664193 0.750000
O O6 0.355977 0.540712 0.681646
O O7 0.316822 0.732209 0.599488
O O8 0.500000 0.526005 0.722755
O O9 0.412463 0.676375 0.799691
O O10 0.634839 0.106727 0.897131
O O11 0.758139 0.129511 0.991022
O O12 0.637309 0.205483 0.056866
O O13 0.000000 0.210300 0.400721
O O14 0.910548 0.082224 0.311413
O O15 0.500000 0.092497 0.837099
O O16 0.603660 0.113290 0.720734
O O17 0.500000 0.053054 0.616269
O O18 0.369760 0.954960 0.593767
O O19 0.390355 0.170707 0.544420
#
# Coordination Sequence:
#
# PCOD9417794 Si02
#       8
#     8   8   8   8   8   8   8   8
#     4  11  21  42  61  83 126 169 202 259 319 364
#     4  10  21  41  63  92 126 164 209 265 320 366
#     4  10  21  37  64  98 121 160 217 262 310 371
#     4  12  23  38  62  93 126 167 215 254 316 390
#     4  10  20  36  62  94 129 165 202 255 318 375
#     4  10  23  42  62  90 135 171 199 255 319 383
#     4  10  24  45  62  91 129 169 211 252 317 376
#     4  11  22  38  64  93 118 163 211 261 306 369
#
# _framework density 20.676123
#
# number of rings (size 3 to 8) (size 9 to 14) (size 15 to 20)
#    0.000    1.500    2.500    3.000    3.500    4.750 
#    6.750    0.000    0.000    1.125    0.000    0.000 
#    0.000    0.000    0.000    0.000    0.000    0.000 
#
# Total GULP energy -357471.297877 kJ/mol
# GULP energy per Si atom -5585.489029 kJ/mol
# Density = 2.062906 g / cm^3
# Si number density = 20.676123 Si / 1000 Ang^3
#
#
#
# Elastic Constant Matrix: (Units=GPa)
#
#
# Indices 1 2 3 4 5 6 
#
# 1 98.5305 -5.3323 15.5465 0.0000 0.0000 0.0000
# 2 -5.3323 52.1288 -6.2566 0.0000 0.0000 0.0000
# 3 15.5465 -6.2566 54.2824 0.0000 0.0000 0.0000
# 4 0.0000 0.0000 0.0000 23.2956 0.0000 0.0000
# 5 0.0000 0.0000 0.0000 0.0000 15.4642 0.0000
# 6 0.0000 0.0000 0.0000 0.0000 0.0000 -15.8922
#
#
#
# Elastic Compliance Matrix: (Units=1/GPa)
#
#
# Indices 1 2 3 4 5 6 
#
# 1 0.010657 0.000734 -0.002968 0.000000 0.000000 0.000000
# 2 0.000734 0.019503 0.002038 0.000000 0.000000 0.000000
# 3 -0.002968 0.002038 0.019507 0.000000 0.000000 0.000000
# 4 0.000000 0.000000 0.000000 0.042926 0.000000 0.000000
# 5 0.000000 0.000000 0.000000 0.000000 0.064666 0.000000
# 6 0.000000 0.000000 0.000000 0.000000 0.000000 -0.062924
#
#
# Mechanical properties :
#
#
# Convention : Reuss Voigt Hill
#
# Bulk Modulus (GPa) = 20.29425 23.65078 21.97252
# Shear Modulus (GPa) = 44.98342 17.97245 31.47793
#
# Velocity S-wave (km/s) = 4.66942 2.95148 3.90606
# Velocity P-wave (km/s) = 6.23762 4.80401 5.56715
#
# Compressibility (1/GPa) = 0.04927504
#
# Stress axis : x y z
#
# Youngs Moduli (GPa) = 93.83412 51.27439 51.26371
#
# Poissons Ratio (x) = -0.03763 0.15213
# Poissons Ratio (y) = -0.06887 -0.10446
# Poissons Ratio (z) = 0.27846 -0.10448
#
# Static dielectric constant tensor:
#      x y z
#    x 1.727870 0.000000 0.000000 
#    y 0.000000 1.756520 0.000000 
#    z 0.000000 0.000000 1.756810 
# 
# From -- ./inp_files/23879.got.cif
#   From: 2010.05.17/outbox.cif.g08.bks.cpg/sg53_12_cif.got.tgz:23879.got - 2010.06.03 12:45:16.
