data_PCOD9417641
_publ_section_title
;
Structure prediction by ZEFSAII (Michael W. Deem and Ramdas Pophale) SiO2 
 PCOD9417641
Probable space group: P M N A
;
_chemical_formula_sum "Si O2"
_cell_formula_units_Z 40
_cell_length_a 9.719387
_cell_length_b 24.159027
_cell_length_c 9.360095
_cell_angle_alpha 90.000000
_cell_angle_beta 90.000000
_cell_angle_gamma 90.000000
_cell_volume 2197.852640
_symmetry_space_group_name_H-M "P M N A"
_symmetry_group_IT_number 53
_symmetry_cell_setting 'orthorhombic'
loop_
_space_group_symop_operation_xyz
x,y,z
1/2-x,-y,1/2+z
x,-y,-z
1/2-x,y,1/2-z
-x,-y,-z
1/2+x,y,1/2-z
-x,y,z
1/2+x,-y,1/2+z
loop_
_atom_site_type_symbol
_atom_site_label
_atom_site_fract_x
_atom_site_fract_y
_atom_site_fract_z
Si Si1 0.500000 0.559583 0.074145
Si Si2 0.664817 0.868167 0.601877
Si Si3 0.000000 0.556908 0.083629
Si Si4 0.752658 0.362920 0.919984
Si Si5 0.338511 0.262488 0.392222
Si Si6 0.836194 0.947065 0.395165
O O1 0.500000 0.548502 0.245055
O O2 0.624494 0.599941 0.036936
O O3 0.500000 0.500000 0.000000
O O4 0.750000 0.877482 0.750000
O O5 0.500000 0.883383 0.613321
O O6 0.669757 0.802493 0.569935
O O7 0.749125 0.900488 0.480145
O O8 0.874094 0.595444 0.044480
O O9 0.000000 0.500000 0.000000
O O10 0.750000 0.354248 0.750000
O O11 0.775299 0.304319 0.993438
O O12 0.250000 0.270130 0.250000
O O13 0.500000 0.275382 0.370776
O O14 0.750000 0.958408 0.250000
O O15 0.000000 0.933685 0.369279
O O16 0.834694 0.000000 0.500000
#
# Coordination Sequence:
#
# PCOD9417641 Si02
#       6
#     4   8   4   8   8   8
#     4  10  22  36  54  84 112 142 191 238 291 352
#     4  10  21  39  62  89 123 161 203 253 304 357
#     4  10  20  36  58  78 108 150 185 236 291 346
#     4  10  21  38  57  81 114 150 189 236 293 352
#     4  10  22  39  60  88 119 154 197 243 291 348
#     4  11  24  41  63  93 127 165 209 253 302 358
#
# _framework density 18.199583000000001
#
# number of rings (size 3 to 8) (size 9 to 14) (size 15 to 20)
#    0.000    1.800    1.000    2.400    1.400    6.400 
#    0.000    0.000    0.000    0.000    0.000    0.000 
#    0.000    0.000    0.000    0.000    0.000    0.000 
#
# Total GULP energy -222985.826392 kJ/mol
# GULP energy per Si atom -5574.645660 kJ/mol
# Density = 1.815816 g / cm^3
# Si number density = 18.199583 Si / 1000 Ang^3
#
#
#
# Elastic Constant Matrix: (Units=GPa)
#
#
# Indices 1 2 3 4 5 6 
#
# 1 194.4262 67.1470 62.8442 0.0000 0.0000 0.0000
# 2 67.1470 84.5353 57.7033 0.0000 0.0000 0.0000
# 3 62.8442 57.7033 77.2832 0.0000 0.0000 0.0000
# 4 0.0000 0.0000 0.0000 45.2530 0.0000 0.0000
# 5 0.0000 0.0000 0.0000 0.0000 29.8142 0.0000
# 6 0.0000 0.0000 0.0000 0.0000 0.0000 34.9233
#
#
#
# Elastic Compliance Matrix: (Units=1/GPa)
#
#
# Indices 1 2 3 4 5 6 
#
# 1 0.007493 -0.003656 -0.003363 0.000000 0.000000 0.000000
# 2 -0.003656 0.025908 -0.016372 0.000000 0.000000 0.000000
# 3 -0.003363 -0.016372 0.027898 0.000000 0.000000 0.000000
# 4 0.000000 0.000000 0.000000 0.022098 0.000000 0.000000
# 5 0.000000 0.000000 0.000000 0.000000 0.033541 0.000000
# 6 0.000000 0.000000 0.000000 0.000000 0.000000 0.028634
#
#
# Mechanical properties :
#
#
# Convention : Reuss Voigt Hill
#
# Bulk Modulus (GPa) = 68.88062 81.29265 75.08663
# Shear Modulus (GPa) = 25.35570 33.23478 29.29524
#
# Velocity S-wave (km/s) = 3.73661 4.27796 4.01642
# Velocity P-wave (km/s) = 7.51970 8.31658 7.92816
#
# Compressibility (1/GPa) = 0.01451787
#
# Stress axis : x y z
#
# Youngs Moduli (GPa) = 133.45549 38.59743 35.84457
#
# Poissons Ratio (x) = 0.14111 0.12056
# Poissons Ratio (y) = 0.48791 0.58683
# Poissons Ratio (z) = 0.44887 0.63190
#
# Static dielectric constant tensor:
#      x y z
#    x 1.611500 0.000000 0.000000 
#    y 0.000000 2.226270 0.000000 
#    z 0.000000 0.000000 1.643300 
# 
# From -- ./inp_files/6334.got.cif
#   From: 2010.05.17/outbox.cif.g08.bks.cpg/sg53_4_cif.got.tgz:6334.got - 2010.06.03 12:45:16.
