data_PCOD9417158
_publ_section_title
;
Structure prediction by ZEFSAII (Michael W. Deem and Ramdas Pophale) SiO2 
 PCOD9417158
Probable space group: P M N A
;
_chemical_formula_sum "Si O2"
_cell_formula_units_Z 64
_cell_length_a 14.319200
_cell_length_b 16.771186
_cell_length_c 10.406101
_cell_angle_alpha 90.000000
_cell_angle_beta 90.000000
_cell_angle_gamma 90.000000
_cell_volume 2499.024807
_symmetry_space_group_name_H-M "P M N A"
_symmetry_group_IT_number 53
_symmetry_cell_setting 'orthorhombic'
loop_
_space_group_symop_operation_xyz
x,y,z
1/2-x,-y,1/2+z
x,-y,-z
1/2-x,y,1/2-z
-x,-y,-z
1/2+x,y,1/2-z
-x,y,z
1/2+x,-y,1/2+z
loop_
_atom_site_type_symbol
_atom_site_label
_atom_site_fract_x
_atom_site_fract_y
_atom_site_fract_z
Si Si1 0.893356 0.608563 0.752921
Si Si2 0.834925 0.422038 0.513782
Si Si3 0.613367 0.005559 0.351529
Si Si4 0.112152 0.762003 0.444627
Si Si5 0.186675 0.453905 0.843888
Si Si6 0.888517 0.696518 0.999226
Si Si7 0.613642 0.171696 0.677791
Si Si8 0.386118 0.077652 0.088355
O O1 0.819200 0.597474 0.641372
O O2 0.886304 0.525079 0.830766
O O3 0.870441 0.678669 0.851456
O O4 0.000000 0.620332 0.707721
O O5 0.902007 0.500000 0.500000
O O6 0.865046 0.329918 0.534665
O O7 0.802856 0.436524 0.675139
O O8 0.500000 0.013704 0.358113
O O9 0.642430 0.064711 0.237341
O O10 0.644571 0.000000 0.500000
O O11 0.640543 0.918408 0.302515
O O12 0.144364 0.779897 0.300684
O O13 0.144878 0.836438 0.532704
O O14 0.000000 0.767571 0.447920
O O15 0.237911 0.500000 0.000000
O O16 0.154131 0.373781 0.913315
O O17 0.000000 0.690534 0.015377
O O18 0.856001 0.781504 0.050898
O O19 0.500000 0.170506 0.673586
O O20 0.500000 0.077678 0.085979
O O21 0.360143 0.000000 0.000000
#
# Coordination Sequence:
#
# PCOD9417158 Si02
#       8
#     8   8   8   8   8   8   8   8
#     4  11  25  42  62  89 123 167 220 277 339 398
#     4  12  25  41  60  89 126 165 218 274 329 395
#     4   9  16  26  46  78 117 155 198 255 321 387
#     4  10  20  34  55  84 124 167 213 267 328 394
#     4  12  24  42  63  88 118 166 215 273 329 397
#     4  10  22  39  61  85 121 163 210 263 328 399
#     4   9  17  31  51  81 116 156 203 256 314 385
#     4   9  15  28  50  77 115 162 207 260 326 396
#
# _framework density 25.60999
#
# number of rings (size 3 to 8) (size 9 to 14) (size 15 to 20)
#    0.000    1.750    2.500    2.625    0.000    3.000 
#    0.000    3.750    0.000    0.000    0.000    0.875 
#    0.000    0.000    0.000    0.000    0.000    0.125 
#
# Total GULP energy -356279.568099 kJ/mol
# GULP energy per Si atom -5566.868252 kJ/mol
# Density = 2.555170 g / cm^3
# Si number density = 25.609990 Si / 1000 Ang^3
#
#
#
# Elastic Constant Matrix: (Units=GPa)
#
#
# Indices 1 2 3 4 5 6 
#
# 1 91.7835 24.5713 38.7138 0.0000 0.0000 0.0000
# 2 24.5713 146.6077 68.3306 0.0000 0.0000 0.0000
# 3 38.7138 68.3306 163.3865 0.0000 0.0000 0.0000
# 4 0.0000 0.0000 0.0000 50.0029 0.0000 0.0000
# 5 0.0000 0.0000 0.0000 0.0000 61.8049 0.0000
# 6 0.0000 0.0000 0.0000 0.0000 0.0000 -44.1743
#
#
#
# Elastic Compliance Matrix: (Units=1/GPa)
#
#
# Indices 1 2 3 4 5 6 
#
# 1 0.012193 -0.000866 -0.002527 0.000000 0.000000 0.000000
# 2 -0.000866 0.008534 -0.003364 0.000000 0.000000 0.000000
# 3 -0.002527 -0.003364 0.008126 0.000000 0.000000 0.000000
# 4 0.000000 0.000000 0.000000 0.019999 0.000000 0.000000
# 5 0.000000 0.000000 0.000000 0.000000 0.016180 0.000000
# 6 0.000000 0.000000 0.000000 0.000000 0.000000 -0.022638
#
#
# Mechanical properties :
#
#
# Convention : Reuss Voigt Hill
#
# Bulk Modulus (GPa) = 65.19085 73.88990 69.54038
# Shear Modulus (GPa) = 81.94011 31.53750 56.73881
#
# Velocity S-wave (km/s) = 5.66258 3.51301 4.71201
# Velocity P-wave (km/s) = 8.26218 6.73570 7.53768
#
# Compressibility (1/GPa) = 0.01533957
#
# Stress axis : x y z
#
# Youngs Moduli (GPa) = 82.01541 117.18065 123.06144
#
# Poissons Ratio (x) = 0.10145 0.31097
# Poissons Ratio (y) = 0.07100 0.41396
# Poissons Ratio (z) = 0.20725 0.39418
#
# Static dielectric constant tensor:
#      x y z
#    x 2.342940 0.000000 0.000000 
#    y 0.000000 2.023520 0.000000 
#    z 0.000000 0.000000 2.302140 
# 
# From -- ./inp_files/17111.got.cif
#   From: 2010.05.17/outbox.cif.g08.bks.cpg/sg53_9_cif.got.tgz:17111.got - 2010.06.03 12:45:16.
