data_PCOD9417181
_publ_section_title
;
Structure prediction by ZEFSAII (Michael W. Deem and Ramdas Pophale) SiO2 
 PCOD9417181
Probable space group: P M N A
;
_chemical_formula_sum "Si O2"
_cell_formula_units_Z 58
_cell_length_a 9.882697
_cell_length_b 11.701068
_cell_length_c 29.018004
_cell_angle_alpha 90.000000
_cell_angle_beta 90.000000
_cell_angle_gamma 90.000000
_cell_volume 3355.587128
_symmetry_space_group_name_H-M "P M N A"
_symmetry_group_IT_number 53
_symmetry_cell_setting 'orthorhombic'
loop_
_space_group_symop_operation_xyz
x,y,z
1/2-x,-y,1/2+z
x,-y,-z
1/2-x,y,1/2-z
-x,-y,-z
1/2+x,y,1/2-z
-x,y,z
1/2+x,-y,1/2+z
loop_
_atom_site_type_symbol
_atom_site_label
_atom_site_fract_x
_atom_site_fract_y
_atom_site_fract_z
Si Si1 0.338353 0.884731 0.392532
Si Si2 0.159856 0.516448 0.204963
Si Si3 0.648363 0.701500 0.065281
Si Si4 0.346964 0.529665 0.877907
Si Si5 0.837525 0.081477 0.042313
Si Si6 0.657791 0.208525 0.706533
Si Si7 0.000000 0.500000 0.000000
Si Si8 0.751657 0.341415 0.467140
O O1 0.500000 0.868133 0.396871
O O2 0.264513 0.792380 0.424546
O O3 0.301167 0.856821 0.339997
O O4 0.305687 0.010256 0.411443
O O5 0.250000 0.489788 0.250000
O O6 0.233053 0.459825 0.161132
O O7 0.168048 0.654554 0.198546
O O8 0.000000 0.488155 0.209355
O O9 0.500000 0.754361 0.071206
O O10 0.662308 0.598005 0.101099
O O11 0.662119 0.652141 0.014044
O O12 0.500000 0.544787 0.859618
O O13 0.321389 0.610693 0.921442
O O14 0.779156 0.207556 0.039914
O O15 0.000000 0.091742 0.038843
O O16 0.793063 0.000000 0.000000
O O17 0.750000 0.179453 0.750000
O O18 0.500000 0.183890 0.715991
O O19 0.881575 0.583817 0.977716
#
# Coordination Sequence:
#
# PCOD9417181 Si02
#       8
#     8   8   8   8   8   8   2   8
#     4  10  20  35  56  82 112 147 186 233 279 342
#     4  10  20  34  56  85 116 146 185 232 293 356
#     4  11  22  35  53  80 115 152 189 230 288 340
#     4  11  23  37  55  79 115 154 189 238 291 345
#     4  10  20  34  56  82 111 146 188 235 285 334
#     4   9  18  32  53  81 111 142 179 228 283 336
#     4  12  24  32  56  88 116 140 206 242 280 344
#     4  12  23  37  55  83 116 153 195 242 286 341
#
# _framework density 17.284606
#
# number of rings (size 3 to 8) (size 9 to 14) (size 15 to 20)
#    0.000    1.517    4.828    0.828    1.931    2.207 
#    0.000    2.069    0.000    0.828    0.000    1.931 
#    0.000    0.000    0.000    0.000    0.000    0.000 
#
# Total GULP energy -323029.660020 kJ/mol
# GULP energy per Si atom -5569.476897 kJ/mol
# Density = 1.724527 g / cm^3
# Si number density = 17.284606 Si / 1000 Ang^3
#
#
#
# Elastic Constant Matrix: (Units=GPa)
#
#
# Indices 1 2 3 4 5 6 
#
# 1 80.9029 24.2385 52.1881 0.0000 0.0000 0.0000
# 2 24.2385 54.4327 15.6121 0.0000 0.0000 0.0000
# 3 52.1881 15.6121 110.7812 0.0000 0.0000 0.0000
# 4 0.0000 0.0000 0.0000 23.7139 0.0000 0.0000
# 5 0.0000 0.0000 0.0000 0.0000 12.9209 0.0000
# 6 0.0000 0.0000 0.0000 0.0000 0.0000 7.2559
#
#
#
# Elastic Compliance Matrix: (Units=1/GPa)
#
#
# Indices 1 2 3 4 5 6 
#
# 1 0.019662 -0.006356 -0.008367 0.000000 0.000000 0.000000
# 2 -0.006356 0.021200 0.000006 0.000000 0.000000 0.000000
# 3 -0.008367 0.000006 0.012967 0.000000 0.000000 0.000000
# 4 0.000000 0.000000 0.000000 0.042169 0.000000 0.000000
# 5 0.000000 0.000000 0.000000 0.000000 0.077394 0.000000
# 6 0.000000 0.000000 0.000000 0.000000 0.000000 0.137818
#
#
# Mechanical properties :
#
#
# Convention : Reuss Voigt Hill
#
# Bulk Modulus (GPa) = 40.98878 47.79937 44.39407
# Shear Modulus (GPa) = 14.33591 19.05003 16.69297
#
# Velocity S-wave (km/s) = 2.88306 3.32345 3.11106
# Velocity P-wave (km/s) = 5.90324 6.51471 6.21650
#
# Compressibility (1/GPa) = 0.02439692
#
# Stress axis : x y z
#
# Youngs Moduli (GPa) = 50.85997 47.17083 77.11621
#
# Poissons Ratio (x) = 0.29980 0.64522
# Poissons Ratio (y) = 0.32324 -0.00050
# Poissons Ratio (z) = 0.42554 -0.00030
#
# Static dielectric constant tensor:
#      x y z
#    x 1.601010 0.000000 0.000000 
#    y 0.000000 1.569060 0.000000 
#    z 0.000000 0.000000 1.596410 
# 
# From -- ./inp_files/36369.got.cif
#   From: 2010.05.17/outbox.cif.g08.bks.cpg/sg53_19_cif.got.tgz:36369.got - 2010.06.03 12:45:16.
