data_PCOD9417036
_publ_section_title
;
Structure prediction by ZEFSAII (Michael W. Deem and Ramdas Pophale) SiO2 
 PCOD9417036
Probable space group: P M N A
;
_chemical_formula_sum "Si O2"
_cell_formula_units_Z 64
_cell_length_a 8.877596
_cell_length_b 23.713776
_cell_length_c 14.206757
_cell_angle_alpha 90.000000
_cell_angle_beta 90.000000
_cell_angle_gamma 90.000000
_cell_volume 2990.825279
_symmetry_space_group_name_H-M "P M N A"
_symmetry_group_IT_number 53
_symmetry_cell_setting 'orthorhombic'
loop_
_space_group_symop_operation_xyz
x,y,z
1/2-x,-y,1/2+z
x,-y,-z
1/2-x,y,1/2-z
-x,-y,-z
1/2+x,y,1/2-z
-x,y,z
1/2+x,-y,1/2+z
loop_
_atom_site_type_symbol
_atom_site_label
_atom_site_fract_x
_atom_site_fract_y
_atom_site_fract_z
Si Si1 0.328901 0.119760 0.603198
Si Si2 0.331925 0.104671 0.376408
Si Si3 0.169602 0.993276 0.385418
Si Si4 0.676100 0.782961 0.846096
Si Si5 0.819073 0.405280 0.352014
Si Si6 0.680705 0.239877 0.549823
Si Si7 0.318611 0.532311 0.147038
Si Si8 0.818272 0.353985 0.541703
O O1 0.500000 0.115407 0.639928
O O2 0.337316 0.109590 0.490064
O O3 0.225278 0.069331 0.638897
O O4 0.272445 0.184258 0.608846
O O5 0.500000 0.119547 0.342379
O O6 0.207891 0.149690 0.345177
O O7 0.284120 0.041459 0.352832
O O8 0.000000 0.003368 0.352022
O O9 0.166659 0.000000 0.500000
O O10 0.750000 0.759905 0.750000
O O11 0.500000 0.769888 0.849256
O O12 0.754570 0.765260 0.943656
O O13 0.750000 0.395398 0.250000
O O14 0.777230 0.468997 0.385352
O O15 0.774670 0.361355 0.432106
O O16 0.000000 0.403813 0.344268
O O17 0.500000 0.238853 0.545778
O O18 0.741902 0.299356 0.586042
O O19 0.250000 0.537741 0.250000
O O20 0.500000 0.533177 0.150143
O O21 0.272645 0.586982 0.088744
O O22 0.000000 0.348665 0.546932
#
# Coordination Sequence:
#
# PCOD9417036 Si02
#       8
#     8   8   8   8   8   8   8   8
#     4   8  15  27  41  58  85 119 151 191 244 295
#     4   9  16  27  42  62  88 117 152 195 245 298
#     4   9  15  22  37  62  87 112 145 187 236 291
#     4  11  21  34  50  67  92 129 173 217 262 312
#     4   9  18  33  53  78 109 144 180 219 265 320
#     4  10  21  35  49  69  98 132 173 217 260 309
#     4   9  18  34  56  81 108 138 175 220 272 327
#     4  10  20  34  53  77 107 144 182 222 270 323
#
# _framework density 21.398776000000002
#
# number of rings (size 3 to 8) (size 9 to 14) (size 15 to 20)
#    0.000    2.625    0.000    3.375    0.000    8.000 
#    0.000    1.250    0.000    3.750    0.000    0.875 
#    0.000    4.000    0.000    0.000    0.000    0.000 
#
# Total GULP energy -357255.583605 kJ/mol
# GULP energy per Si atom -5582.118494 kJ/mol
# Density = 2.135007 g / cm^3
# Si number density = 21.398776 Si / 1000 Ang^3
#
#
#
# Elastic Constant Matrix: (Units=GPa)
#
#
# Indices 1 2 3 4 5 6 
#
# 1 46.1372 21.4833 -1.5296 0.0000 0.0000 0.0000
# 2 21.4833 136.3107 7.3834 0.0000 0.0000 0.0000
# 3 -1.5296 7.3834 17.1512 0.0000 0.0000 0.0000
# 4 0.0000 0.0000 0.0000 -2.9783 0.0000 0.0000
# 5 0.0000 0.0000 0.0000 0.0000 16.5873 0.0000
# 6 0.0000 0.0000 0.0000 0.0000 0.0000 38.7189
#
#
#
# Elastic Compliance Matrix: (Units=1/GPa)
#
#
# Indices 1 2 3 4 5 6 
#
# 1 0.023630 -0.003930 0.003799 0.000000 0.000000 0.000000
# 2 -0.003930 0.008165 -0.003865 0.000000 0.000000 0.000000
# 3 0.003799 -0.003865 0.060308 0.000000 0.000000 0.000000
# 4 0.000000 0.000000 0.000000 -0.335766 0.000000 0.000000
# 5 0.000000 0.000000 0.000000 0.000000 0.060287 0.000000
# 6 0.000000 0.000000 0.000000 0.000000 0.000000 0.025827
#
#
# Mechanical properties :
#
#
# Convention : Reuss Voigt Hill
#
# Bulk Modulus (GPa) = 11.88905 28.25258 20.07081
# Shear Modulus (GPa) = -41.14564 21.94971 -9.59796
#
# Velocity S-wave (km/s) = -4.38974 3.20620 -2.12015
# Velocity P-wave (km/s) = 4.48609 5.19017 1.84565
#
# Compressibility (1/GPa) = 0.08411100
#
# Stress axis : x y z
#
# Youngs Moduli (GPa) = 42.31824 122.47452 16.58157
#
# Poissons Ratio (x) = 0.48134 -0.06300
# Poissons Ratio (y) = 0.16631 0.06409
# Poissons Ratio (z) = -0.16078 0.47342
#
# Static dielectric constant tensor:
#      x y z
#    x 1.721350 0.000000 0.000000 
#    y 0.000000 1.810740 0.000000 
#    z 0.000000 0.000000 1.808360 
# 
# From -- ./inp_files/20825.got.cif
#   From: 2010.05.17/outbox.cif.g08.bks.cpg/sg53_11_cif.got.tgz:20825.got - 2010.06.03 12:45:16.
