data_PCOD9417640
_publ_section_title
;
Structure prediction by ZEFSAII (Michael W. Deem and Ramdas Pophale) SiO2 
 PCOD9417640
Probable space group: P M N A
;
_chemical_formula_sum "Si O2"
_cell_formula_units_Z 48
_cell_length_a 9.712197
_cell_length_b 29.695736
_cell_length_c 9.153116
_cell_angle_alpha 90.000000
_cell_angle_beta 90.000000
_cell_angle_gamma 90.000000
_cell_volume 2639.857857
_symmetry_space_group_name_H-M "P M N A"
_symmetry_group_IT_number 53
_symmetry_cell_setting 'orthorhombic'
loop_
_space_group_symop_operation_xyz
x,y,z
1/2-x,-y,1/2+z
x,-y,-z
1/2-x,y,1/2-z
-x,-y,-z
1/2+x,y,1/2-z
-x,y,z
1/2+x,-y,1/2+z
loop_
_atom_site_type_symbol
_atom_site_label
_atom_site_fract_x
_atom_site_fract_y
_atom_site_fract_z
Si Si1 0.500000 0.549344 0.569887
Si Si2 0.338019 0.303378 0.896695
Si Si3 0.834751 0.801743 0.402492
Si Si4 0.752604 0.611774 0.575506
Si Si5 0.500000 0.452658 0.078976
Si Si6 0.665425 0.129760 0.398876
Si Si7 0.838514 0.041772 0.897129
O O1 0.500000 0.500000 0.500000
O O2 0.624484 0.581874 0.529090
O O3 0.500000 0.541891 0.745364
O O4 0.250000 0.307335 0.750000
O O5 0.500000 0.313166 0.873396
O O6 0.328845 0.251144 0.943484
O O7 0.275055 0.339674 0.006386
O O8 0.750000 0.807354 0.250000
O O9 0.750174 0.830655 0.520187
O O10 0.000000 0.813528 0.389109
O O11 0.750000 0.617273 0.750000
O O12 0.874147 0.578314 0.535799
O O13 0.500000 0.500000 0.000000
O O14 0.750000 0.120407 0.250000
O O15 0.500000 0.139053 0.375410
O O16 0.673452 0.086838 0.506490
O O17 0.750000 0.044293 0.750000
O O18 0.000000 0.035553 0.859239
O O19 0.796328 0.000000 0.000000
#
# Coordination Sequence:
#
# PCOD9417640 Si02
#       7
#     4   8   8   8   4   8   8
#     4  10  22  36  54  84 112 142 188 230 279 338
#     4  10  22  39  60  87 116 149 191 236 284 341
#     4  10  21  39  61  86 118 155 196 246 299 354
#     4  10  21  38  57  81 113 148 184 228 283 339
#     4  10  20  36  58  78 108 148 182 230 279 332
#     4  11  23  39  60  89 122 159 205 251 301 360
#     4  10  22  39  60  88 122 161 205 253 305 360
#
# _framework density 18.182797999999998
#
# number of rings (size 3 to 8) (size 9 to 14) (size 15 to 20)
#    0.000    1.833    0.833    2.500    1.167    5.667 
#    0.000    0.000    0.000    0.000    0.000    0.000 
#    0.000    0.000    0.000    0.000    0.000    0.000 
#
# Total GULP energy -267637.984446 kJ/mol
# GULP energy per Si atom -5575.791343 kJ/mol
# Density = 1.814141 g / cm^3
# Si number density = 18.182798 Si / 1000 Ang^3
#
#
#
# Elastic Constant Matrix: (Units=GPa)
#
#
# Indices 1 2 3 4 5 6 
#
# 1 172.5165 70.4803 64.7722 0.0000 0.0000 0.0000
# 2 70.4803 105.5809 56.4080 0.0000 0.0000 0.0000
# 3 64.7722 56.4080 84.2585 0.0000 0.0000 0.0000
# 4 0.0000 0.0000 0.0000 40.1826 0.0000 0.0000
# 5 0.0000 0.0000 0.0000 0.0000 31.9310 0.0000
# 6 0.0000 0.0000 0.0000 0.0000 0.0000 32.9698
#
#
#
# Elastic Compliance Matrix: (Units=1/GPa)
#
#
# Indices 1 2 3 4 5 6 
#
# 1 0.008938 -0.003574 -0.004478 0.000000 0.000000 0.000000
# 2 -0.003574 0.016174 -0.008081 0.000000 0.000000 0.000000
# 3 -0.004478 -0.008081 0.020721 0.000000 0.000000 0.000000
# 4 0.000000 0.000000 0.000000 0.024886 0.000000 0.000000
# 5 0.000000 0.000000 0.000000 0.000000 0.031317 0.000000
# 6 0.000000 0.000000 0.000000 0.000000 0.000000 0.030331
#
#
# Mechanical properties :
#
#
# Convention : Reuss Voigt Hill
#
# Bulk Modulus (GPa) = 73.70815 82.85297 78.28056
# Shear Modulus (GPa) = 29.55842 32.39639 30.97740
#
# Velocity S-wave (km/s) = 4.03628 4.22560 4.13203
# Velocity P-wave (km/s) = 7.89603 8.33506 8.11852
#
# Compressibility (1/GPa) = 0.01356702
#
# Stress axis : x y z
#
# Youngs Moduli (GPa) = 111.88075 61.82574 48.26093
#
# Poissons Ratio (x) = 0.22096 0.21613
# Poissons Ratio (y) = 0.39986 0.38999
# Poissons Ratio (z) = 0.50104 0.49960
#
# Static dielectric constant tensor:
#      x y z
#    x 1.609830 0.000000 0.000000 
#    y 0.000000 1.550560 0.000000 
#    z 0.000000 0.000000 1.605860 
# 
# From -- ./inp_files/6792.got.cif
#   From: 2010.05.17/outbox.cif.g08.bks.cpg/sg53_4_cif.got.tgz:6792.got - 2010.06.03 12:45:16.
