data_PCOD9417929
_publ_section_title
;
Structure prediction by ZEFSAII (Michael W. Deem and Ramdas Pophale) SiO2 
 PCOD9417929
Probable space group: P M N A
;
_chemical_formula_sum "Si O2"
_cell_formula_units_Z 64
_cell_length_a 8.668364
_cell_length_b 24.417910
_cell_length_c 15.851351
_cell_angle_alpha 90.000000
_cell_angle_beta 90.000000
_cell_angle_gamma 90.000000
_cell_volume 3355.149769
_symmetry_space_group_name_H-M "P M N A"
_symmetry_group_IT_number 53
_symmetry_cell_setting 'orthorhombic'
loop_
_space_group_symop_operation_xyz
x,y,z
1/2-x,-y,1/2+z
x,-y,-z
1/2-x,y,1/2-z
-x,-y,-z
1/2+x,y,1/2-z
-x,y,z
1/2+x,-y,1/2+z
loop_
_atom_site_type_symbol
_atom_site_label
_atom_site_fract_x
_atom_site_fract_y
_atom_site_fract_z
Si Si1 0.814811 0.885083 0.339989
Si Si2 0.313087 0.686240 0.998073
Si Si3 0.815026 0.619076 0.840555
Si Si4 0.185160 0.116207 0.340177
Si Si5 0.684183 0.615795 0.160343
Si Si6 0.187721 0.812431 0.499214
Si Si7 0.316073 0.000547 0.399475
Si Si8 0.185523 0.501467 0.099400
O O1 0.750000 0.866890 0.250000
O O2 0.762937 0.845901 0.416479
O O3 0.000000 0.885577 0.337645
O O4 0.755229 0.946119 0.359451
O O5 0.500000 0.684742 0.994347
O O6 0.264360 0.653397 0.081952
O O7 0.263085 0.749429 0.001650
O O8 0.247795 0.656259 0.915992
O O9 0.750000 0.635977 0.750000
O O10 0.767639 0.556124 0.859523
O O11 0.000000 0.621076 0.840035
O O12 0.250000 0.134062 0.250000
O O13 0.236645 0.155579 0.416528
O O14 0.244621 0.055234 0.360324
O O15 0.000000 0.115716 0.337682
O O16 0.750000 0.634242 0.250000
O O17 0.500000 0.617096 0.163858
O O18 0.738631 0.553965 0.141965
O O19 0.000000 0.812747 0.498933
O O20 0.500000 0.000674 0.386520
O O21 0.285083 0.000000 0.500000
O O22 0.000000 0.506710 0.106069
O O23 0.225052 0.500000 0.000000
#
# Coordination Sequence:
#
# PCOD9417929 Si02
#       8
#     8   8   8   8   8   8   8   8
#     4  11  22  39  62  89 120 156 196 238 291 349
#     4  10  22  42  63  86 116 155 202 248 293 346
#     4  11  23  39  61  89 120 156 194 241 296 352
#     4  11  22  39  62  88 118 155 194 238 291 349
#     4  11  23  37  60  89 121 157 196 242 294 353
#     4   9  21  41  63  84 115 156 198 243 292 344
#     4  11  22  37  60  90 122 153 191 240 291 349
#     4  10  20  37  61  88 121 154 191 240 295 354
#
# _framework density 19.075153
#
# number of rings (size 3 to 8) (size 9 to 14) (size 15 to 20)
#    0.000    1.500    2.500    2.625    0.000    4.250 
#    0.000    3.750    0.000    0.000    0.000    0.000 
#    0.000    0.000    0.000    0.000    0.000    0.000 
#
# Total GULP energy -357816.662459 kJ/mol
# GULP energy per Si atom -5590.885351 kJ/mol
# Density = 1.903174 g / cm^3
# Si number density = 19.075153 Si / 1000 Ang^3
#
#
#
# Elastic Constant Matrix: (Units=GPa)
#
#
# Indices 1 2 3 4 5 6 
#
# 1 37.1907 27.2743 46.8343 0.0000 0.0000 0.0000
# 2 27.2743 155.0573 92.7390 0.0000 0.0000 0.0000
# 3 46.8343 92.7390 200.4839 0.0000 0.0000 0.0000
# 4 0.0000 0.0000 0.0000 -24.5058 0.0000 0.0000
# 5 0.0000 0.0000 0.0000 0.0000 32.7668 0.0000
# 6 0.0000 0.0000 0.0000 0.0000 0.0000 -8.0251
#
#
#
# Elastic Compliance Matrix: (Units=1/GPa)
#
#
# Indices 1 2 3 4 5 6 
#
# 1 0.038507 -0.001926 -0.008105 0.000000 0.000000 0.000000
# 2 -0.001926 0.009012 -0.003719 0.000000 0.000000 0.000000
# 3 -0.008105 -0.003719 0.008601 0.000000 0.000000 0.000000
# 4 0.000000 0.000000 0.000000 -0.040807 0.000000 0.000000
# 5 0.000000 0.000000 0.000000 0.000000 0.030519 0.000000
# 6 0.000000 0.000000 0.000000 0.000000 0.000000 -0.124609
#
#
# Mechanical properties :
#
#
# Convention : Reuss Voigt Hill
#
# Bulk Modulus (GPa) = 34.93841 80.71411 57.82626
# Shear Modulus (GPa) = -119.79935 15.10613 -52.34661
#
# Velocity S-wave (km/s) = -7.93349 2.81717 -5.24422
# Velocity P-wave (km/s) = 8.09718 7.27925 2.50767
#
# Compressibility (1/GPa) = 0.02862179
#
# Stress axis : x y z
#
# Youngs Moduli (GPa) = 25.96928 110.95964 116.25881
#
# Poissons Ratio (x) = 0.21371 0.94223
# Poissons Ratio (y) = 0.05002 0.43236
# Poissons Ratio (z) = 0.21047 0.41265
#
# Static dielectric constant tensor:
#      x y z
#    x 1.641110 0.000000 0.000000 
#    y 0.000000 1.632200 0.000000 
#    z 0.000000 0.000000 1.824270 
# 
# From -- ./inp_files/20846.got.cif
#   From: 2010.05.17/outbox.cif.g08.bks.cpg/sg53_11_cif.got.tgz:20846.got - 2010.06.03 12:45:16.
