data_PCOD9417546
_publ_section_title
;
Structure prediction by ZEFSAII (Michael W. Deem and Ramdas Pophale) SiO2 
 PCOD9417546
Probable space group: P M N A
;
_chemical_formula_sum "Si O2"
_cell_formula_units_Z 64
_cell_length_a 8.726862
_cell_length_b 17.118168
_cell_length_c 24.364827
_cell_angle_alpha 90.000000
_cell_angle_beta 90.000000
_cell_angle_gamma 90.000000
_cell_volume 3639.810092
_symmetry_space_group_name_H-M "P M N A"
_symmetry_group_IT_number 53
_symmetry_cell_setting 'orthorhombic'
loop_
_space_group_symop_operation_xyz
x,y,z
1/2-x,-y,1/2+z
x,-y,-z
1/2-x,y,1/2-z
-x,-y,-z
1/2+x,y,1/2-z
-x,y,z
1/2+x,-y,1/2+z
loop_
_atom_site_type_symbol
_atom_site_label
_atom_site_fract_x
_atom_site_fract_y
_atom_site_fract_z
Si Si1 0.183058 0.311430 0.980560
Si Si2 0.316829 0.534218 0.409856
Si Si3 0.815810 0.275300 0.188406
Si Si4 0.318658 0.366012 0.088070
Si Si5 0.315608 0.897412 0.688595
Si Si6 0.314579 0.225052 0.627776
Si Si7 0.682910 0.625709 0.189698
Si Si8 0.685131 0.068039 0.688248
O O1 0.218218 0.394466 0.951122
O O2 0.224261 0.246248 0.935174
O O3 0.000000 0.308295 0.989736
O O4 0.266945 0.309946 0.038387
O O5 0.500000 0.527144 0.407235
O O6 0.245569 0.451875 0.425626
O O7 0.250326 0.561263 0.351499
O O8 0.750000 0.284788 0.250000
O O9 0.752458 0.337151 0.145266
O O10 0.770453 0.187939 0.166820
O O11 0.000000 0.279932 0.190993
O O12 0.500000 0.368449 0.092378
O O13 0.250000 0.898415 0.750000
O O14 0.500000 0.897231 0.690304
O O15 0.268669 0.982177 0.665501
O O16 0.500000 0.233259 0.632408
O O17 0.238736 0.291116 0.665655
O O18 0.269318 0.140049 0.649696
O O19 0.750000 0.615445 0.250000
O O20 0.500000 0.622500 0.190294
O O21 0.750000 0.077621 0.750000
O O22 0.500000 0.069488 0.692290
#
# Coordination Sequence:
#
# PCOD9417546 Si02
#       8
#     8   8   8   8   8   8   8   8
#     4   9  19  36  55  74  99 133 169 207 251 295
#     4  10  21  38  57  76  99 129 167 210 256 301
#     4  10  20  36  56  78 105 134 165 204 253 304
#     4  12  24  36  54  79 102 128 166 208 250 300
#     4   8  15  28  48  73 101 132 165 203 247 295
#     4   9  18  32  50  73 103 137 172 210 251 295
#     4  11  21  33  49  71 103 139 173 207 248 298
#     4   9  16  27  46  75 106 135 169 207 247 295
#
# _framework density 17.583335999999999
#
# number of rings (size 3 to 8) (size 9 to 14) (size 15 to 20)
#    0.000    2.250    0.000    4.500    0.000    6.500 
#    0.000    2.500    0.000    0.750    0.000    5.250 
#    0.000    0.000    0.000    0.000    0.000    0.000 
#
# Total GULP energy -356879.567810 kJ/mol
# GULP energy per Si atom -5576.243247 kJ/mol
# Density = 1.754332 g / cm^3
# Si number density = 17.583336 Si / 1000 Ang^3
#
#
#
# Elastic Constant Matrix: (Units=GPa)
#
#
# Indices 1 2 3 4 5 6 
#
# 1 46.1488 18.0994 33.6034 0.0000 0.0000 0.0000
# 2 18.0994 49.2600 5.5360 0.0000 0.0000 0.0000
# 3 33.6034 5.5360 75.2305 0.0000 0.0000 0.0000
# 4 0.0000 0.0000 0.0000 15.2105 0.0000 0.0000
# 5 0.0000 0.0000 0.0000 0.0000 24.5854 0.0000
# 6 0.0000 0.0000 0.0000 0.0000 0.0000 21.6040
#
#
#
# Elastic Compliance Matrix: (Units=1/GPa)
#
#
# Indices 1 2 3 4 5 6 
#
# 1 0.038255 -0.012237 -0.016187 0.000000 0.000000 0.000000
# 2 -0.012237 0.024384 0.003671 0.000000 0.000000 0.000000
# 3 -0.016187 0.003671 0.020253 0.000000 0.000000 0.000000
# 4 0.000000 0.000000 0.000000 0.065744 0.000000 0.000000
# 5 0.000000 0.000000 0.000000 0.000000 0.040674 0.000000
# 6 0.000000 0.000000 0.000000 0.000000 0.000000 0.046288
#
#
# Mechanical properties :
#
#
# Convention : Reuss Voigt Hill
#
# Bulk Modulus (GPa) = 29.95178 31.67966 30.81572
# Shear Modulus (GPa) = 16.87872 19.84002 18.35937
#
# Velocity S-wave (km/s) = 3.10163 3.36272 3.23481
# Velocity P-wave (km/s) = 5.46790 5.75614 5.61387
#
# Compressibility (1/GPa) = 0.03338700
#
# Stress axis : x y z
#
# Youngs Moduli (GPa) = 26.14049 41.01062 49.37643
#
# Poissons Ratio (x) = 0.50183 0.79925
# Poissons Ratio (y) = 0.31987 -0.18128
# Poissons Ratio (z) = 0.42313 -0.15057
#
# Static dielectric constant tensor:
#      x y z
#    x 1.586270 0.000000 0.000000 
#    y 0.000000 1.635550 0.000000 
#    z 0.000000 0.000000 1.562010 
# 
# From -- ./inp_files/34456.got.cif
#   From: 2010.05.17/outbox.cif.g08.bks.cpg/sg53_18_cif.got.tgz:34456.got - 2010.06.03 12:45:16.
