data_PCOD9417151
_publ_section_title
;
Structure prediction by ZEFSAII (Michael W. Deem and Ramdas Pophale) SiO2 
 PCOD9417151
Probable space group: P M N A
;
_chemical_formula_sum "Si O2"
_cell_formula_units_Z 56
_cell_length_a 8.579193
_cell_length_b 22.418032
_cell_length_c 14.993933
_cell_angle_alpha 90.000000
_cell_angle_beta 90.000000
_cell_angle_gamma 90.000000
_cell_volume 2883.762490
_symmetry_space_group_name_H-M "P M N A"
_symmetry_group_IT_number 53
_symmetry_cell_setting 'orthorhombic'
loop_
_space_group_symop_operation_xyz
x,y,z
1/2-x,-y,1/2+z
x,-y,-z
1/2-x,y,1/2-z
-x,-y,-z
1/2+x,y,1/2-z
-x,y,z
1/2+x,-y,1/2+z
loop_
_atom_site_type_symbol
_atom_site_label
_atom_site_fract_x
_atom_site_fract_y
_atom_site_fract_z
Si Si1 0.314661 0.895479 0.654068
Si Si2 0.687881 0.608581 0.654547
Si Si3 0.310002 0.639344 0.463691
Si Si4 0.311954 0.529592 0.346179
Si Si5 0.187186 0.970538 0.345662
Si Si6 0.313201 0.138627 0.969794
Si Si7 0.312574 0.246135 0.649673
O O1 0.250000 0.875160 0.750000
O O2 0.500000 0.895072 0.656851
O O3 0.253898 0.859203 0.569244
O O4 0.255750 0.963620 0.641331
O O5 0.750000 0.629247 0.750000
O O6 0.500000 0.609579 0.657863
O O7 0.740312 0.643574 0.566462
O O8 0.736913 0.539134 0.641532
O O9 0.500000 0.639212 0.464179
O O10 0.260650 0.576264 0.421040
O O11 0.260734 0.693594 0.401081
O O12 0.250000 0.549661 0.250000
O O13 0.500000 0.529841 0.345140
O O14 0.250000 0.948235 0.250000
O O15 0.230024 0.924326 0.423007
O O16 0.000000 0.975153 0.341895
O O17 0.500000 0.141450 0.973058
O O18 0.248551 0.190599 0.907358
O O19 0.250000 0.244407 0.750000
O O20 0.500000 0.244934 0.651836
#
# Coordination Sequence:
#
# PCOD9417151 Si02
#       7
#     8   8   8   8   8   8   8
#     4  11  22  37  59  86 116 147 181 223 272 326
#     4   9  17  31  51  76 105 136 173 216 264 319
#     4   9  18  33  53  75 102 140 181 218 262 320
#     4   9  16  28  49  76 105 137 172 214 265 320
#     4  10  20  34  55  83 115 148 182 224 273 326
#     4  11  23  39  58  81 111 147 188 230 273 322
#     4  11  23  39  58  80 107 140 180 225 273 324
#
# _framework density 19.419074999999999
#
# number of rings (size 3 to 8) (size 9 to 14) (size 15 to 20)
#    0.000    2.000    0.000    5.143    0.000    6.857 
#    0.000    3.571    0.000    5.143    0.000    0.000 
#    0.000    0.000    0.000    0.000    0.000    0.000 
#
# Total GULP energy -312765.830896 kJ/mol
# GULP energy per Si atom -5585.104123 kJ/mol
# Density = 1.937488 g / cm^3
# Si number density = 19.419075 Si / 1000 Ang^3
#
#
#
# Elastic Constant Matrix: (Units=GPa)
#
#
# Indices 1 2 3 4 5 6 
#
# 1 47.5827 19.0951 40.6486 0.0000 0.0000 0.0000
# 2 19.0951 42.5141 60.9076 0.0000 0.0000 0.0000
# 3 40.6486 60.9076 201.7601 0.0000 0.0000 0.0000
# 4 0.0000 0.0000 0.0000 34.8268 0.0000 0.0000
# 5 0.0000 0.0000 0.0000 0.0000 31.1495 0.0000
# 6 0.0000 0.0000 0.0000 0.0000 0.0000 17.1719
#
#
#
# Elastic Compliance Matrix: (Units=1/GPa)
#
#
# Indices 1 2 3 4 5 6 
#
# 1 0.026693 -0.007550 -0.003099 0.000000 0.000000 0.000000
# 2 -0.007550 0.043582 -0.011636 0.000000 0.000000 0.000000
# 3 -0.003099 -0.011636 0.009093 0.000000 0.000000 0.000000
# 4 0.000000 0.000000 0.000000 0.028714 0.000000 0.000000
# 5 0.000000 0.000000 0.000000 0.000000 0.032103 0.000000
# 6 0.000000 0.000000 0.000000 0.000000 0.000000 0.058235
#
#
# Mechanical properties :
#
#
# Convention : Reuss Voigt Hill
#
# Bulk Modulus (GPa) = 28.73540 59.23994 43.98767
# Shear Modulus (GPa) = 19.63959 28.04335 23.84147
#
# Velocity S-wave (km/s) = 3.18363 3.80427 3.50771
# Velocity P-wave (km/s) = 5.32388 7.06179 6.25350
#
# Compressibility (1/GPa) = 0.03480028
#
# Stress axis : x y z
#
# Youngs Moduli (GPa) = 37.46312 22.94517 109.97186
#
# Poissons Ratio (x) = 0.17323 0.34077
# Poissons Ratio (y) = 0.28284 1.27959
# Poissons Ratio (z) = 0.11609 0.26698
#
# Static dielectric constant tensor:
#      x y z
#    x 1.659840 0.000000 0.000000 
#    y 0.000000 1.671370 0.000000 
#    z 0.000000 0.000000 1.720980 
# 
# From -- ./inp_files/20523.got.cif
#   From: 2010.05.17/outbox.cif.g08.bks.cpg/sg53_11_cif.got.tgz:20523.got - 2010.06.03 12:45:16.
