data_PCOD9417882
_publ_section_title
;
Structure prediction by ZEFSAII (Michael W. Deem and Ramdas Pophale) SiO2 
 PCOD9417882
Probable space group: P M N A
;
_chemical_formula_sum "Si O2"
_cell_formula_units_Z 40
_cell_length_a 14.156088
_cell_length_b 15.368249
_cell_length_c 8.275993
_cell_angle_alpha 90.000000
_cell_angle_beta 90.000000
_cell_angle_gamma 90.000000
_cell_volume 1800.477742
_symmetry_space_group_name_H-M "P M N A"
_symmetry_group_IT_number 53
_symmetry_cell_setting 'orthorhombic'
loop_
_space_group_symop_operation_xyz
x,y,z
1/2-x,-y,1/2+z
x,-y,-z
1/2-x,y,1/2-z
-x,-y,-z
1/2+x,y,1/2-z
-x,y,z
1/2+x,-y,1/2+z
loop_
_atom_site_type_symbol
_atom_site_label
_atom_site_fract_x
_atom_site_fract_y
_atom_site_fract_z
Si Si1 0.901791 0.843435 0.033537
Si Si2 0.152301 0.763443 0.349409
Si Si3 0.681599 0.399330 0.029423
Si Si4 0.388618 0.344690 0.384149
Si Si5 0.784775 0.912663 0.565228
O O1 0.909788 0.806536 0.213336
O O2 0.000000 0.884456 0.980322
O O3 0.883467 0.758765 0.920749
O O4 0.813587 0.906003 0.031614
O O5 0.250000 0.759833 0.250000
O O6 0.132965 0.665724 0.403077
O O7 0.161269 0.825919 0.505760
O O8 0.796362 0.383668 0.022074
O O9 0.639324 0.370183 0.201958
O O10 0.663237 0.500000 0.000000
O O11 0.500000 0.369112 0.418426
O O12 0.750000 0.913174 0.750000
O O13 0.833832 0.000000 0.500000
#
# Coordination Sequence:
#
# PCOD9417882 Si02
#       5
#     8   8   8   8   8
#     4  10  21  38  62  89 122 161 201 254 313 368
#     4  10  20  37  59  86 119 156 206 252 302 370
#     4  11  23  38  62  86 120 168 213 260 309 369
#     4  10  22  39  59  86 121 161 208 258 312 364
#     4  11  21  38  65  91 120 161 202 247 302 372
#
# _framework density 22.216325999999999
#
# number of rings (size 3 to 8) (size 9 to 14) (size 15 to 20)
#    0.000    1.600    4.000    3.000    2.800    2.000 
#    0.000    3.000    0.000    2.400    0.000    0.000 
#    0.000    0.000    0.000    0.000    0.000    0.000 
#
# Total GULP energy -222859.658948 kJ/mol
# GULP energy per Si atom -5571.491474 kJ/mol
# Density = 2.216576 g / cm^3
# Si number density = 22.216326 Si / 1000 Ang^3
#
#
#
# Elastic Constant Matrix: (Units=GPa)
#
#
# Indices 1 2 3 4 5 6 
#
# 1 63.1931 0.0701 -9.5395 0.0000 0.0000 0.0000
# 2 0.0701 128.8333 34.5976 0.0000 0.0000 0.0000
# 3 -9.5395 34.5976 101.8001 0.0000 0.0000 0.0000
# 4 0.0000 0.0000 0.0000 20.0504 0.0000 0.0000
# 5 0.0000 0.0000 0.0000 0.0000 -2.9298 0.0000
# 6 0.0000 0.0000 0.0000 0.0000 0.0000 -33.4524
#
#
#
# Elastic Compliance Matrix: (Units=1/GPa)
#
#
# Indices 1 2 3 4 5 6 
#
# 1 0.016076 -0.000455 0.001661 0.000000 0.000000 0.000000
# 2 -0.000455 0.008554 -0.002950 0.000000 0.000000 0.000000
# 3 0.001661 -0.002950 0.010981 0.000000 0.000000 0.000000
# 4 0.000000 0.000000 0.000000 0.049874 0.000000 0.000000
# 5 0.000000 0.000000 0.000000 0.000000 -0.341323 0.000000
# 6 0.000000 0.000000 0.000000 0.000000 0.000000 -0.029893
#
#
# Mechanical properties :
#
#
# Convention : Reuss Voigt Hill
#
# Bulk Modulus (GPa) = 31.12926 38.23143 34.68035
# Shear Modulus (GPa) = -18.41384 14.64687 -1.88349
#
# Velocity S-wave (km/s) = -2.88209 2.57044 -0.92176
# Velocity P-wave (km/s) = 1.72252 5.10447 3.80938
#
# Compressibility (1/GPa) = 0.03212411
#
# Stress axis : x y z
#
# Youngs Moduli (GPa) = 62.20548 116.89888 91.06328
#
# Poissons Ratio (x) = 0.05316 -0.15126
# Poissons Ratio (y) = 0.02829 0.26863
# Poissons Ratio (z) = -0.10332 0.34484
#
# Static dielectric constant tensor:
#      x y z
#    x 1.868130 0.000000 0.000000 
#    y 0.000000 1.816750 0.000000 
#    z 0.000000 0.000000 1.855520 
# 
# From -- ./inp_files/8401.got.cif
#   From: 2010.05.17/outbox.cif.g08.bks.cpg/sg53_5_cif.got.tgz:8401.got - 2010.06.03 12:45:16.
