data_PCOD9417426
_publ_section_title
;
Structure prediction by ZEFSAII (Michael W. Deem and Ramdas Pophale) SiO2 
 PCOD9417426
Probable space group: P M N A
;
_chemical_formula_sum "Si O2"
_cell_formula_units_Z 40
_cell_length_a 15.350477
_cell_length_b 15.211953
_cell_length_c 8.136171
_cell_angle_alpha 90.000000
_cell_angle_beta 90.000000
_cell_angle_gamma 90.000000
_cell_volume 1899.883267
_symmetry_space_group_name_H-M "P M N A"
_symmetry_group_IT_number 53
_symmetry_cell_setting 'orthorhombic'
loop_
_space_group_symop_operation_xyz
x,y,z
1/2-x,-y,1/2+z
x,-y,-z
1/2-x,y,1/2-z
-x,-y,-z
1/2+x,y,1/2-z
-x,y,z
1/2+x,-y,1/2+z
loop_
_atom_site_type_symbol
_atom_site_label
_atom_site_fract_x
_atom_site_fract_y
_atom_site_fract_z
Si Si1 0.903549 0.411703 0.431889
Si Si2 0.255729 0.100517 0.552189
Si Si3 0.600893 0.224860 0.950888
Si Si4 0.398082 0.240370 0.554555
Si Si5 0.827586 0.414069 0.112142
O O1 0.860881 0.500000 0.500000
O O2 0.865409 0.317655 0.478490
O O3 0.907295 0.422031 0.238217
O O4 0.000000 0.408200 0.508288
O O5 0.250000 0.103372 0.750000
O O6 0.167277 0.149166 0.494940
O O7 0.339816 0.157346 0.498117
O O8 0.260879 0.000000 0.500000
O O9 0.500000 0.209868 0.001963
O O10 0.601817 0.235566 0.753355
O O11 0.500000 0.239302 0.501473
O O12 0.347836 0.327620 0.494174
O O13 0.750000 0.407616 0.250000
O O14 0.821891 0.500000 0.000000
#
# Coordination Sequence:
#
# PCOD9417426 Si02
#       5
#     8   8   8   8   8
#     4  10  20  35  57  85 118 155 195 240 291 354
#     4  10  22  39  60  86 119 157 202 257 312 369
#     4   9  19  38  63  91 124 162 203 251 310 372
#     4  10  22  41  64  88 120 163 207 254 308 365
#     4  12  25  38  57  86 121 159 203 249 301 360
#
# _framework density 21.053926000000001
#
# number of rings (size 3 to 8) (size 9 to 14) (size 15 to 20)
#    0.000    1.800    0.000    3.600    0.000    8.800 
#    0.000    0.000    0.000    0.000    0.000    0.000 
#    0.000    0.000    0.000    0.000    0.000    0.000 
#
# Total GULP energy -223087.769627 kJ/mol
# GULP energy per Si atom -5577.194241 kJ/mol
# Density = 2.100601 g / cm^3
# Si number density = 21.053926 Si / 1000 Ang^3
#
#
#
# Elastic Constant Matrix: (Units=GPa)
#
#
# Indices 1 2 3 4 5 6 
#
# 1 164.4503 96.4169 29.9625 0.0000 0.0000 0.0000
# 2 96.4169 221.7767 33.8963 0.0000 0.0000 0.0000
# 3 29.9625 33.8963 29.5449 0.0000 0.0000 0.0000
# 4 0.0000 0.0000 0.0000 41.8920 0.0000 0.0000
# 5 0.0000 0.0000 0.0000 0.0000 40.0007 0.0000
# 6 0.0000 0.0000 0.0000 0.0000 0.0000 142.1541
#
#
#
# Elastic Compliance Matrix: (Units=1/GPa)
#
#
# Indices 1 2 3 4 5 6 
#
# 1 0.008848 -0.003002 -0.005530 0.000000 0.000000 0.000000
# 2 -0.003002 0.006486 -0.004397 0.000000 0.000000 0.000000
# 3 -0.005530 -0.004397 0.044499 0.000000 0.000000 0.000000
# 4 0.000000 0.000000 0.000000 0.023871 0.000000 0.000000
# 5 0.000000 0.000000 0.000000 0.000000 0.025000 0.000000
# 6 0.000000 0.000000 0.000000 0.000000 0.000000 0.007035
#
#
# Mechanical properties :
#
#
# Convention : Reuss Voigt Hill
#
# Bulk Modulus (GPa) = 29.43190 81.81371 55.62280
# Shear Modulus (GPa) = 32.69656 61.84245 47.26951
#
# Velocity S-wave (km/s) = 3.94508 5.42560 4.74346
# Velocity P-wave (km/s) = 5.89586 8.84268 7.51512
#
# Compressibility (1/GPa) = 0.03397675
#
# Stress axis : x y z
#
# Youngs Moduli (GPa) = 113.01787 154.17697 22.47218
#
# Poissons Ratio (x) = 0.46277 0.12426
# Poissons Ratio (y) = 0.33923 0.09882
# Poissons Ratio (z) = 0.62494 0.67797
#
# Static dielectric constant tensor:
#      x y z
#    x 1.908200 0.000000 0.000000 
#    y 0.000000 1.741590 0.000000 
#    z 0.000000 0.000000 1.755540 
# 
# From -- ./inp_files/8369.got.cif
#   From: 2010.05.17/outbox.cif.g08.bks.cpg/sg53_5_cif.got.tgz:8369.got - 2010.06.03 12:45:16.
