data_PCOD9417923
_publ_section_title
;
Structure prediction by ZEFSAII (Michael W. Deem and Ramdas Pophale) SiO2 
 PCOD9417923
Probable space group: P M N A
;
_chemical_formula_sum "Si O2"
_cell_formula_units_Z 48
_cell_length_a 8.700092
_cell_length_b 11.035847
_cell_length_c 24.057266
_cell_angle_alpha 90.000000
_cell_angle_beta 90.000000
_cell_angle_gamma 90.000000
_cell_volume 2309.807495
_symmetry_space_group_name_H-M "P M N A"
_symmetry_group_IT_number 53
_symmetry_cell_setting 'orthorhombic'
loop_
_space_group_symop_operation_xyz
x,y,z
1/2-x,-y,1/2+z
x,-y,-z
1/2-x,y,1/2-z
-x,-y,-z
1/2+x,y,1/2-z
-x,y,z
1/2+x,-y,1/2+z
loop_
_atom_site_type_symbol
_atom_site_label
_atom_site_fract_x
_atom_site_fract_y
_atom_site_fract_z
Si Si1 0.314980 0.810807 0.919535
Si Si2 0.317531 0.184144 0.690449
Si Si3 0.318261 0.687918 0.026979
Si Si4 0.684013 0.672724 0.811582
Si Si5 0.684250 0.566723 0.369058
Si Si6 0.317358 0.068548 0.577799
O O1 0.500000 0.827009 0.922763
O O2 0.272273 0.774586 0.856926
O O3 0.233900 0.934510 0.937884
O O4 0.275173 0.701852 0.962180
O O5 0.250000 0.157797 0.750000
O O6 0.500000 0.192720 0.695872
O O7 0.265238 0.313585 0.665616
O O8 0.284787 0.085240 0.643446
O O9 0.500000 0.665930 0.030892
O O10 0.235147 0.593712 0.067569
O O11 0.275355 0.821828 0.049975
O O12 0.750000 0.689650 0.750000
O O13 0.500000 0.669231 0.808228
O O14 0.742706 0.548177 0.839143
O O15 0.500000 0.558096 0.367233
O O16 0.500000 0.086773 0.568239
#
# Coordination Sequence:
#
# PCOD9417923 Si02
#       6
#     8   8   8   8   8   8
#     4  10  23  40  58  82 114 153 193 232 280 342
#     4   9  19  33  51  78 109 141 181 230 281 333
#     4  10  20  37  61  87 115 148 187 233 287 343
#     4  11  24  42  61  83 114 153 195 236 281 335
#     4  10  21  38  59  86 116 146 187 237 290 343
#     4  10  21  36  55  83 117 150 188 237 289 340
#
# _framework density 20.780953
#
# number of rings (size 3 to 8) (size 9 to 14) (size 15 to 20)
#    0.000    2.000    0.000    4.000    0.000   11.333 
#    0.000    6.667    0.000    0.000    0.000    0.000 
#    0.000    0.000    0.000    0.000    0.000    0.000 
#
# Total GULP energy -268132.027577 kJ/mol
# GULP energy per Si atom -5586.083908 kJ/mol
# Density = 2.073365 g / cm^3
# Si number density = 20.780953 Si / 1000 Ang^3
#
#
#
# Elastic Constant Matrix: (Units=GPa)
#
#
# Indices 1 2 3 4 5 6 
#
# 1 24.0643 3.8533 26.0115 0.0000 0.0000 0.0000
# 2 3.8533 38.6097 20.4375 0.0000 0.0000 0.0000
# 3 26.0115 20.4375 104.5336 0.0000 0.0000 0.0000
# 4 0.0000 0.0000 0.0000 23.9154 0.0000 0.0000
# 5 0.0000 0.0000 0.0000 0.0000 32.1655 0.0000
# 6 0.0000 0.0000 0.0000 0.0000 0.0000 194.7197
#
#
#
# Elastic Compliance Matrix: (Units=1/GPa)
#
#
# Indices 1 2 3 4 5 6 
#
# 1 0.056987 0.002029 -0.014577 0.000000 0.000000 0.000000
# 2 0.002029 0.028962 -0.006167 0.000000 0.000000 0.000000
# 3 -0.014577 -0.006167 0.014399 0.000000 0.000000 0.000000
# 4 0.000000 0.000000 0.000000 0.041814 0.000000 0.000000
# 5 0.000000 0.000000 0.000000 0.000000 0.031089 0.000000
# 6 0.000000 0.000000 0.000000 0.000000 0.000000 0.005136
#
#
# Mechanical properties :
#
#
# Convention : Reuss Voigt Hill
#
# Bulk Modulus (GPa) = 15.89379 29.75690 22.82535
# Shear Modulus (GPa) = 21.11568 57.95382 39.53475
#
# Velocity S-wave (km/s) = 3.19110 5.28663 4.36644
# Velocity P-wave (km/s) = 4.60894 7.18436 6.03562
#
# Compressibility (1/GPa) = 0.06291764
#
# Stress axis : x y z
#
# Youngs Moduli (GPa) = 17.54788 34.52766 69.44775
#
# Poissons Ratio (x) = -0.07005 1.01234
# Poissons Ratio (y) = -0.03560 0.42830
# Poissons Ratio (z) = 0.25579 0.21294
#
# Static dielectric constant tensor:
#      x y z
#    x 1.697820 0.000000 0.000000 
#    y 0.000000 1.734640 0.000000 
#    z 0.000000 0.000000 1.800480 
# 
# From -- ./inp_files/33914.got.cif
#   From: 2010.05.17/outbox.cif.g08.bks.cpg/sg53_17_cif.got.tgz:33914.got - 2010.06.03 12:45:16.
