data_PCOD9417758
_publ_section_title
;
Structure prediction by ZEFSAII (Michael W. Deem and Ramdas Pophale) SiO2 
 PCOD9417758
Probable space group: P M N A
;
_chemical_formula_sum "Si O2"
_cell_formula_units_Z 64
_cell_length_a 14.909722
_cell_length_b 9.338699
_cell_length_c 23.643728
_cell_angle_alpha 90.000000
_cell_angle_beta 90.000000
_cell_angle_gamma 90.000000
_cell_volume 3292.091353
_symmetry_space_group_name_H-M "P M N A"
_symmetry_group_IT_number 53
_symmetry_cell_setting 'orthorhombic'
loop_
_space_group_symop_operation_xyz
x,y,z
1/2-x,-y,1/2+z
x,-y,-z
1/2-x,y,1/2-z
-x,-y,-z
1/2+x,y,1/2-z
-x,y,z
1/2+x,-y,1/2+z
loop_
_atom_site_type_symbol
_atom_site_label
_atom_site_fract_x
_atom_site_fract_y
_atom_site_fract_z
Si Si1 0.725213 0.663893 0.513653
Si Si2 0.899218 0.126432 0.953993
Si Si3 0.098409 0.855528 0.246035
Si Si4 0.305114 0.404640 0.693699
Si Si5 0.603161 0.170820 0.991488
Si Si6 0.891512 0.334634 0.125865
Si Si7 0.325477 0.024360 0.348140
Si Si8 0.326510 0.179332 0.866774
O O1 0.745312 0.500000 0.500000
O O2 0.674537 0.752118 0.464205
O O3 0.818257 0.746812 0.525148
O O4 0.652972 0.664357 0.563901
O O5 0.890900 0.056774 0.892398
O O6 0.000000 0.181687 0.962765
O O7 0.883180 0.000000 0.000000
O O8 0.120130 0.703387 0.217793
O O9 0.165237 0.961630 0.214368
O O10 0.110607 0.842516 0.312638
O O11 0.000000 0.906287 0.231962
O O12 0.250000 0.450825 0.750000
O O13 0.351439 0.532019 0.660211
O O14 0.239704 0.308268 0.653750
O O15 0.500000 0.209280 0.005547
O O16 0.623724 0.205918 0.925501
O O17 0.612698 0.000000 0.000000
O O18 0.000000 0.334954 0.124239
O O19 0.852630 0.188041 0.151670
O O20 0.230231 0.968547 0.371340
#
# Coordination Sequence:
#
# PCOD9417758 Si02
#       8
#     8   8   8   8   8   8   8   8
#     4  12  25  40  58  88 125 159 201 251 301 360
#     4  11  21  37  58  83 120 163 200 236 290 360
#     4  10  20  36  60  88 114 151 203 252 299 360
#     4   9  21  39  60  84 120 162 203 245 303 356
#     4  11  23  42  67  90 116 158 205 253 308 366
#     4  12  24  38  58  89 125 162 201 244 303 368
#     4  11  21  36  57  85 122 154 194 246 306 357
#     4  10  20  40  62  87 115 157 200 253 301 362
#
# _framework density 19.440529999999999
#
# number of rings (size 3 to 8) (size 9 to 14) (size 15 to 20)
#    0.000    1.250    2.500    5.250    1.750    2.250 
#    0.000    0.000    0.000    1.500    0.000    0.000 
#    0.000    0.000    0.000    0.000    0.000    0.000 
#
# Total GULP energy -357296.744416 kJ/mol
# GULP energy per Si atom -5582.761631 kJ/mol
# Density = 1.939628 g / cm^3
# Si number density = 19.440530 Si / 1000 Ang^3
#
#
#
# Elastic Constant Matrix: (Units=GPa)
#
#
# Indices 1 2 3 4 5 6 
#
# 1 107.0149 47.9670 7.9869 0.0000 0.0000 0.0000
# 2 47.9670 104.4685 21.6270 0.0000 0.0000 0.0000
# 3 7.9869 21.6270 80.7149 0.0000 0.0000 0.0000
# 4 0.0000 0.0000 0.0000 15.0128 0.0000 0.0000
# 5 0.0000 0.0000 0.0000 0.0000 20.7429 0.0000
# 6 0.0000 0.0000 0.0000 0.0000 0.0000 -23.2795
#
#
#
# Elastic Compliance Matrix: (Units=1/GPa)
#
#
# Indices 1 2 3 4 5 6 
#
# 1 0.011773 -0.005468 0.000300 0.000000 0.000000 0.000000
# 2 -0.005468 0.012674 -0.002855 0.000000 0.000000 0.000000
# 3 0.000300 -0.002855 0.013125 0.000000 0.000000 0.000000
# 4 0.000000 0.000000 0.000000 0.066610 0.000000 0.000000
# 5 0.000000 0.000000 0.000000 0.000000 0.048209 0.000000
# 6 0.000000 0.000000 0.000000 0.000000 0.000000 -0.042956
#
#
# Mechanical properties :
#
#
# Convention : Reuss Voigt Hill
#
# Bulk Modulus (GPa) = 46.45471 49.70666 48.08069
# Shear Modulus (GPa) = 37.69205 16.80309 27.24757
#
# Velocity S-wave (km/s) = 4.40800 2.94314 3.74784
# Velocity P-wave (km/s) = 7.06081 6.09701 6.59653
#
# Compressibility (1/GPa) = 0.02152634
#
# Stress axis : x y z
#
# Youngs Moduli (GPa) = 84.94124 78.90322 76.19333
#
# Poissons Ratio (x) = 0.43142 -0.02286
# Poissons Ratio (y) = 0.46443 0.21752
# Poissons Ratio (z) = -0.02549 0.22525
#
# Static dielectric constant tensor:
#      x y z
#    x 1.688640 0.000000 0.000000 
#    y 0.000000 1.671020 0.000000 
#    z 0.000000 0.000000 1.713140 
# 
# From -- ./inp_files/35385.got.cif
#   From: 2010.05.17/outbox.cif.g08.bks.cpg/sg53_18_cif.got.tgz:35385.got - 2010.06.03 12:45:16.
