data_PCOD9417591
_publ_section_title
;
Structure prediction by ZEFSAII (Michael W. Deem and Ramdas Pophale) SiO2 
 PCOD9417591
Probable space group: P M N A
;
_chemical_formula_sum "Si O2"
_cell_formula_units_Z 48
_cell_length_a 8.681506
_cell_length_b 31.054865
_cell_length_c 9.701342
_cell_angle_alpha 90.000000
_cell_angle_beta 90.000000
_cell_angle_gamma 90.000000
_cell_volume 2615.510876
_symmetry_space_group_name_H-M "P M N A"
_symmetry_group_IT_number 53
_symmetry_cell_setting 'orthorhombic'
loop_
_space_group_symop_operation_xyz
x,y,z
1/2-x,-y,1/2+z
x,-y,-z
1/2-x,y,1/2-z
-x,-y,-z
1/2+x,y,1/2-z
-x,y,z
1/2+x,-y,1/2+z
loop_
_atom_site_type_symbol
_atom_site_label
_atom_site_fract_x
_atom_site_fract_y
_atom_site_fract_z
Si Si1 0.185208 0.712702 0.101333
Si Si2 0.685056 0.789285 0.596544
Si Si3 0.315227 0.459390 0.096030
Si Si4 0.685125 0.863961 0.095861
Si Si5 0.314448 0.038335 0.902269
Si Si6 0.814852 0.386893 0.900550
O O1 0.250000 0.726097 0.250000
O O2 0.231066 0.663070 0.076439
O O3 0.000000 0.713652 0.108918
O O4 0.234393 0.745814 0.983669
O O5 0.750000 0.790257 0.750000
O O6 0.500000 0.790387 0.600426
O O7 0.745903 0.829390 0.508044
O O8 0.250000 0.463655 0.250000
O O9 0.500000 0.457387 0.102776
O O10 0.271539 0.500000 0.000000
O O11 0.251087 0.417373 0.018678
O O12 0.750000 0.856963 0.250000
O O13 0.500000 0.860424 0.099202
O O14 0.727362 0.913013 0.053662
O O15 0.250000 0.031991 0.750000
O O16 0.500000 0.036727 0.897382
O O17 0.259150 0.000000 0.000000
O O18 0.750000 0.399723 0.750000
O O19 0.000000 0.389657 0.897903
#
# Coordination Sequence:
#
# PCOD9417591 Si02
#       6
#     8   8   8   8   8   8
#     4   9  20  37  58  83 110 144 183 223 269 324
#     4  11  23  38  55  79 111 145 182 225 275 324
#     4  11  24  40  59  84 114 149 187 228 276 327
#     4  10  20  36  57  80 107 141 182 224 268 322
#     4   9  19  35  54  78 107 139 176 218 265 318
#     4  10  20  37  60  86 115 146 184 227 272 323
#
# _framework density 18.352055
#
# number of rings (size 3 to 8) (size 9 to 14) (size 15 to 20)
#    0.000    2.000    0.000    3.000    0.000    8.333 
#    0.000    3.333    0.000    0.000    0.000    0.000 
#    0.000    0.000    0.000    0.000    0.000    0.000 
#
# Total GULP energy -268101.358003 kJ/mol
# GULP energy per Si atom -5585.444958 kJ/mol
# Density = 1.831028 g / cm^3
# Si number density = 18.352055 Si / 1000 Ang^3
#
#
#
# Elastic Constant Matrix: (Units=GPa)
#
#
# Indices 1 2 3 4 5 6 
#
# 1 42.5768 43.4680 47.7970 0.0000 0.0000 0.0000
# 2 43.4680 127.7832 113.3073 0.0000 0.0000 0.0000
# 3 47.7970 113.3073 166.1651 0.0000 0.0000 0.0000
# 4 0.0000 0.0000 0.0000 38.3784 0.0000 0.0000
# 5 0.0000 0.0000 0.0000 0.0000 37.2890 0.0000
# 6 0.0000 0.0000 0.0000 0.0000 0.0000 25.4334
#
#
#
# Elastic Compliance Matrix: (Units=1/GPa)
#
#
# Indices 1 2 3 4 5 6 
#
# 1 0.037755 -0.008128 -0.005318 0.000000 0.000000 0.000000
# 2 -0.008128 0.021544 -0.012353 0.000000 0.000000 0.000000
# 3 -0.005318 -0.012353 0.015971 0.000000 0.000000 0.000000
# 4 0.000000 0.000000 0.000000 0.026056 0.000000 0.000000
# 5 0.000000 0.000000 0.000000 0.000000 0.026818 0.000000
# 6 0.000000 0.000000 0.000000 0.000000 0.000000 0.039318
#
#
# Mechanical properties :
#
#
# Convention : Reuss Voigt Hill
#
# Bulk Modulus (GPa) = 42.24203 82.85219 62.54711
# Shear Modulus (GPa) = 22.03132 29.01702 25.52417
#
# Velocity S-wave (km/s) = 3.46856 3.98066 3.73340
# Velocity P-wave (km/s) = 6.25370 8.14687 7.26224
#
# Compressibility (1/GPa) = 0.02367311
#
# Stress axis : x y z
#
# Youngs Moduli (GPa) = 26.48691 46.41661 62.61273
#
# Poissons Ratio (x) = 0.37725 0.33297
# Poissons Ratio (y) = 0.21527 0.77345
# Poissons Ratio (z) = 0.14085 0.57338
#
# Static dielectric constant tensor:
#      x y z
#    x 1.619480 0.000000 0.000000 
#    y 0.000000 1.644710 0.000000 
#    z 0.000000 0.000000 1.582740 
# 
# From -- ./inp_files/6595.got.cif
#   From: 2010.05.17/outbox.cif.g08.bks.cpg/sg53_4_cif.got.tgz:6595.got - 2010.06.03 12:45:16.
