data_PCOD9417491
_publ_section_title
;
Structure prediction by ZEFSAII (Michael W. Deem and Ramdas Pophale) SiO2 
 PCOD9417491
Probable space group: P M N A
;
_chemical_formula_sum "Si O2"
_cell_formula_units_Z 32
_cell_length_a 15.922469
_cell_length_b 4.864631
_cell_length_c 16.707367
_cell_angle_alpha 90.000000
_cell_angle_beta 90.000000
_cell_angle_gamma 90.000000
_cell_volume 1294.101461
_symmetry_space_group_name_H-M "P M N A"
_symmetry_group_IT_number 53
_symmetry_cell_setting 'orthorhombic'
loop_
_space_group_symop_operation_xyz
x,y,z
1/2-x,-y,1/2+z
x,-y,-z
1/2-x,y,1/2-z
-x,-y,-z
1/2+x,y,1/2-z
-x,y,z
1/2+x,-y,1/2+z
loop_
_atom_site_type_symbol
_atom_site_label
_atom_site_fract_x
_atom_site_fract_y
_atom_site_fract_z
Si Si1 0.903133 0.179024 0.146081
Si Si2 0.360332 0.364737 0.178703
Si Si3 0.702329 0.358628 0.607693
Si Si4 0.368694 0.838043 0.073588
O O1 0.896252 0.329972 0.232827
O O2 0.862785 0.402559 0.086447
O O3 0.000000 0.117565 0.129383
O O4 0.848101 0.902034 0.141911
O O5 0.267032 0.491819 0.169566
O O6 0.406680 0.569001 0.115738
O O7 0.359583 0.060712 0.143275
O O8 0.774061 0.250250 0.547466
O O9 0.408120 0.000000 0.000000
#
# Coordination Sequence:
#
# PCOD9417491 Si02
#       4
#     8   8   8   8
#     4  12  23  36  55  88 123 146 177 232 296 344
#     4  10  21  34  60  82 113 146 191 231 281 331
#     4  10  21  35  58  83 112 149 190 232 280 333
#     4  10  20  35  60  85 107 142 201 243 267 314
#
# _framework density 24.727582000000002
#
# number of rings (size 3 to 8) (size 9 to 14) (size 15 to 20)
#    1.500    0.000    2.500    3.750    3.500    0.000 
#    0.000    0.000    0.000    9.000    0.000    0.000 
#    0.000    0.000    0.000    0.000    0.000    0.000 
#
# Total GULP energy -178422.618389 kJ/mol
# GULP energy per Si atom -5575.706825 kJ/mol
# Density = 2.467130 g / cm^3
# Si number density = 24.727582 Si / 1000 Ang^3
#
#
#
# Elastic Constant Matrix: (Units=GPa)
#
#
# Indices 1 2 3 4 5 6 
#
# 1 156.9288 28.9791 7.7993 0.0000 0.0000 0.0000
# 2 28.9791 158.2111 9.2098 0.0000 0.0000 0.0000
# 3 7.7993 9.2098 41.1231 0.0000 0.0000 0.0000
# 4 0.0000 0.0000 0.0000 38.5073 0.0000 0.0000
# 5 0.0000 0.0000 0.0000 0.0000 53.7945 0.0000
# 6 0.0000 0.0000 0.0000 0.0000 0.0000 -69.9525
#
#
#
# Elastic Compliance Matrix: (Units=1/GPa)
#
#
# Indices 1 2 3 4 5 6 
#
# 1 0.006636 -0.001157 -0.000999 0.000000 0.000000 0.000000
# 2 -0.001157 0.006606 -0.001260 0.000000 0.000000 0.000000
# 3 -0.000999 -0.001260 0.024789 0.000000 0.000000 0.000000
# 4 0.000000 0.000000 0.000000 0.025969 0.000000 0.000000
# 5 0.000000 0.000000 0.000000 0.000000 0.018589 0.000000
# 6 0.000000 0.000000 0.000000 0.000000 0.000000 -0.014295
#
#
# Mechanical properties :
#
#
# Convention : Reuss Voigt Hill
#
# Bulk Modulus (GPa) = 32.05385 49.80438 40.92912
# Shear Modulus (GPa) = 58.46186 25.15486 41.80836
#
# Velocity S-wave (km/s) = 4.86762 3.19294 4.11634
# Velocity P-wave (km/s) = 6.67701 5.81189 6.25942
#
# Compressibility (1/GPa) = 0.03119750
#
# Stress axis : x y z
#
# Youngs Moduli (GPa) = 150.70024 151.37785 40.34055
#
# Poissons Ratio (x) = 0.17518 0.04031
# Poissons Ratio (y) = 0.17440 0.05083
# Poissons Ratio (z) = 0.15060 0.19073
#
# Static dielectric constant tensor:
#      x y z
#    x 2.126470 0.000000 0.000000 
#    y 0.000000 1.930940 0.000000 
#    z 0.000000 0.000000 2.094780 
# 
# From -- ./inp_files/32110.got.cif
#   From: 2010.05.17/outbox.cif.g08.bks.cpg/sg53_17_cif.got.tgz:32110.got - 2010.06.03 12:45:16.
