data_PCOD9417041
_publ_section_title
;
Structure prediction by ZEFSAII (Michael W. Deem and Ramdas Pophale) SiO2 
 PCOD9417041
Probable space group: P M N A
;
_chemical_formula_sum "Si O2"
_cell_formula_units_Z 64
_cell_length_a 7.766774
_cell_length_b 18.996808
_cell_length_c 21.265948
_cell_angle_alpha 90.000000
_cell_angle_beta 90.000000
_cell_angle_gamma 90.000000
_cell_volume 3137.661213
_symmetry_space_group_name_H-M "P M N A"
_symmetry_group_IT_number 53
_symmetry_cell_setting 'orthorhombic'
loop_
_space_group_symop_operation_xyz
x,y,z
1/2-x,-y,1/2+z
x,-y,-z
1/2-x,y,1/2-z
-x,-y,-z
1/2+x,y,1/2-z
-x,y,z
1/2+x,-y,1/2+z
loop_
_atom_site_type_symbol
_atom_site_label
_atom_site_fract_x
_atom_site_fract_y
_atom_site_fract_z
Si Si1 0.705203 0.708680 0.320682
Si Si2 0.207038 0.206687 0.320531
Si Si3 0.204154 0.204444 0.557329
Si Si4 0.711121 0.044577 0.938839
Si Si5 0.291976 0.704726 0.939651
Si Si6 0.292938 0.547793 0.320421
Si Si7 0.793069 0.045673 0.320479
Si Si8 0.207013 0.459211 0.061545
O O1 0.750000 0.732152 0.250000
O O2 0.500000 0.706674 0.326049
O O3 0.771375 0.758242 0.375800
O O4 0.771686 0.628245 0.328122
O O5 0.250000 0.230788 0.250000
O O6 0.270383 0.256721 0.376221
O O7 0.271440 0.126163 0.327839
O O8 0.000000 0.204136 0.325174
O O9 0.272669 0.124926 0.557278
O O10 0.273028 0.253354 0.501047
O O11 0.000000 0.198228 0.546066
O O12 0.500000 0.045595 0.937615
O O13 0.769462 0.005139 0.875603
O O14 0.761289 0.000000 0.000000
O O15 0.500000 0.708341 0.939695
O O16 0.245714 0.623064 0.941205
O O17 0.250000 0.523904 0.250000
O O18 0.500000 0.550645 0.324813
O O19 0.227694 0.496931 0.375161
O O20 0.750000 0.021712 0.250000
O O21 0.000000 0.048467 0.325456
O O22 0.000000 0.466419 0.061809
O O23 0.272690 0.500000 0.000000
#
# Coordination Sequence:
#
# PCOD9417041 Si02
#       8
#     8   8   8   8   8   8   8   8
#     4  10  20  36  57  79 105 137 172 210 255 307
#     4   9  18  33  52  75 103 135 171 211 254 302
#     4  10  20  34  53  78 106 136 173 216 260 307
#     4   9  17  31  53  77 100 132 174 215 254 299
#     4  10  21  35  52  76 105 135 170 213 257 303
#     4   9  19  35  55  77 101 132 168 208 253 303
#     4   9  17  31  52  75 100 132 168 206 249 297
#     4  10  21  37  55  75 101 133 170 210 253 303
#
# _framework density 20.397358000000001
#
# number of rings (size 3 to 8) (size 9 to 14) (size 15 to 20)
#    0.000    2.500    0.000    1.875    0.000    7.250 
#    0.000    4.375    0.000    3.000    0.000    0.000 
#    0.000    0.000    0.000    0.000    0.000    0.000 
#
# Total GULP energy -357335.751285 kJ/mol
# GULP energy per Si atom -5583.371114 kJ/mol
# Density = 2.035093 g / cm^3
# Si number density = 20.397358 Si / 1000 Ang^3
#
#
#
# Elastic Constant Matrix: (Units=GPa)
#
#
# Indices 1 2 3 4 5 6 
#
# 1 25.2827 0.9066 -2.2282 0.0000 0.0000 0.0000
# 2 0.9066 160.9376 142.2647 0.0000 0.0000 0.0000
# 3 -2.2282 142.2647 212.8619 0.0000 0.0000 0.0000
# 4 0.0000 0.0000 0.0000 44.0314 0.0000 0.0000
# 5 0.0000 0.0000 0.0000 0.0000 24.2893 0.0000
# 6 0.0000 0.0000 0.0000 0.0000 0.0000 31.8061
#
#
#
# Elastic Compliance Matrix: (Units=1/GPa)
#
#
# Indices 1 2 3 4 5 6 
#
# 1 0.039726 -0.001445 0.001382 0.000000 0.000000 0.000000
# 2 -0.001445 0.015237 -0.010199 0.000000 0.000000 0.000000
# 3 0.001382 -0.010199 0.011529 0.000000 0.000000 0.000000
# 4 0.000000 0.000000 0.000000 0.022711 0.000000 0.000000
# 5 0.000000 0.000000 0.000000 0.000000 0.041170 0.000000
# 6 0.000000 0.000000 0.000000 0.000000 0.000000 0.031441
#
#
# Mechanical properties :
#
#
# Convention : Reuss Voigt Hill
#
# Bulk Modulus (GPa) = 21.75443 75.66313 48.70878
# Shear Modulus (GPa) = 25.29581 37.23464 31.26522
#
# Velocity S-wave (km/s) = 3.52540 4.27718 3.91936
# Velocity P-wave (km/s) = 5.22108 7.84649 6.66435
#
# Compressibility (1/GPa) = 0.04596766
#
# Stress axis : x y z
#
# Youngs Moduli (GPa) = 25.17222 65.62886 86.74055
#
# Poissons Ratio (x) = 0.09485 -0.11985
# Poissons Ratio (y) = 0.03638 0.88465
# Poissons Ratio (z) = -0.03478 0.66934
#
# Static dielectric constant tensor:
#      x y z
#    x 1.764350 0.000000 0.000000 
#    y 0.000000 1.700940 0.000000 
#    z 0.000000 0.000000 1.708940 
# 
# From -- ./inp_files/31106.got.cif
#   From: 2010.05.17/outbox.cif.g08.bks.cpg/sg53_16_cif.got.tgz:31106.got - 2010.06.03 12:45:16.
