data_PCOD9417725
_publ_section_title
;
Structure prediction by ZEFSAII (Michael W. Deem and Ramdas Pophale) SiO2 
 PCOD9417725
Probable space group: P M N A
;
_chemical_formula_sum "Si O2"
_cell_formula_units_Z 64
_cell_length_a 8.743062
_cell_length_b 20.802141
_cell_length_c 18.835789
_cell_angle_alpha 90.000000
_cell_angle_beta 90.000000
_cell_angle_gamma 90.000000
_cell_volume 3425.747983
_symmetry_space_group_name_H-M "P M N A"
_symmetry_group_IT_number 53
_symmetry_cell_setting 'orthorhombic'
loop_
_space_group_symop_operation_xyz
x,y,z
1/2-x,-y,1/2+z
x,-y,-z
1/2-x,y,1/2-z
-x,-y,-z
1/2+x,y,1/2-z
-x,y,z
1/2+x,-y,1/2+z
loop_
_atom_site_type_symbol
_atom_site_label
_atom_site_fract_x
_atom_site_fract_y
_atom_site_fract_z
Si Si1 0.816085 0.620081 0.171198
Si Si2 0.815232 0.370316 0.171129
Si Si3 0.183468 0.736192 0.419300
Si Si4 0.816203 0.250034 0.075369
Si Si5 0.183042 0.110343 0.430366
Si Si6 0.317440 0.116136 0.903523
Si Si7 0.681244 0.003207 0.327292
Si Si8 0.313820 0.494482 0.418713
O O1 0.750000 0.615830 0.250000
O O2 0.752470 0.682695 0.131622
O O3 0.770224 0.557157 0.126162
O O4 0.000000 0.622733 0.173649
O O5 0.750000 0.375573 0.250000
O O6 0.771877 0.303601 0.132977
O O7 0.764319 0.429919 0.121740
O O8 0.000000 0.372365 0.174859
O O9 0.252525 0.730008 0.498197
O O10 0.218779 0.808692 0.393200
O O11 0.000000 0.730662 0.423323
O O12 0.749957 0.179600 0.091306
O O13 0.000000 0.247004 0.071932
O O14 0.218670 0.101024 0.513922
O O15 0.000000 0.111716 0.423778
O O16 0.250907 0.053865 0.383241
O O17 0.500000 0.107295 0.893906
O O18 0.229560 0.067642 0.853127
O O19 0.750000 0.015868 0.250000
O O20 0.500000 0.009039 0.325106
O O21 0.260303 0.500000 0.500000
O O22 0.500000 0.492775 0.420844
#
# Coordination Sequence:
#
# PCOD9417725 Si02
#       8
#     8   8   8   8   8   8   8   8
#     4  11  22  36  57  83 115 152 189 233 283 339
#     4  10  21  36  56  82 114 151 187 229 281 336
#     4  10  21  38  60  85 114 148 188 234 284 337
#     4  10  20  36  59  86 114 148 192 235 280 335
#     4  10  21  39  62  86 116 151 187 232 283 336
#     4   9  20  39  61  84 112 147 184 228 282 337
#     4  12  25  39  58  84 115 150 189 235 284 337
#     4   9  18  35  58  82 109 145 189 235 284 336
#
# _framework density 18.682051999999999
#
# number of rings (size 3 to 8) (size 9 to 14) (size 15 to 20)
#    0.000    1.875    0.000    4.875    0.000    8.500 
#    0.000    1.875    0.000    2.625    0.000    0.000 
#    0.000    0.000    0.000    0.000    0.000    0.000 
#
# Total GULP energy -357647.761898 kJ/mol
# GULP energy per Si atom -5588.246280 kJ/mol
# Density = 1.863953 g / cm^3
# Si number density = 18.682052 Si / 1000 Ang^3
#
#
#
# Elastic Constant Matrix: (Units=GPa)
#
#
# Indices 1 2 3 4 5 6 
#
# 1 43.9518 18.4096 12.6742 0.0000 0.0000 0.0000
# 2 18.4096 55.6473 24.1859 0.0000 0.0000 0.0000
# 3 12.6742 24.1859 55.3265 0.0000 0.0000 0.0000
# 4 0.0000 0.0000 0.0000 -8.2162 0.0000 0.0000
# 5 0.0000 0.0000 0.0000 0.0000 32.6955 0.0000
# 6 0.0000 0.0000 0.0000 0.0000 0.0000 23.7045
#
#
#
# Elastic Compliance Matrix: (Units=1/GPa)
#
#
# Indices 1 2 3 4 5 6 
#
# 1 0.026756 -0.007639 -0.002790 0.000000 0.000000 0.000000
# 2 -0.007639 0.024367 -0.008902 0.000000 0.000000 0.000000
# 3 -0.002790 -0.008902 0.022605 0.000000 0.000000 0.000000
# 4 0.000000 0.000000 0.000000 -0.121710 0.000000 0.000000
# 5 0.000000 0.000000 0.000000 0.000000 0.030585 0.000000
# 6 0.000000 0.000000 0.000000 0.000000 0.000000 0.042186
#
#
# Mechanical properties :
#
#
# Convention : Reuss Voigt Hill
#
# Bulk Modulus (GPa) = 28.51745 29.49611 29.00678
# Shear Modulus (GPa) = 66.54296 16.28047 41.41172
#
# Velocity S-wave (km/s) = 5.97461 2.95524 4.71325
# Velocity P-wave (km/s) = 7.93047 5.24093 6.72160
#
# Compressibility (1/GPa) = 0.03506625
#
# Stress axis : x y z
#
# Youngs Moduli (GPa) = 37.37420 41.03994 44.23788
#
# Poissons Ratio (x) = 0.31351 0.12342
# Poissons Ratio (y) = 0.28551 0.39380
# Poissons Ratio (z) = 0.10427 0.36533
#
# Static dielectric constant tensor:
#      x y z
#    x 1.627720 0.000000 0.000000 
#    y 0.000000 1.630820 0.000000 
#    z 0.000000 0.000000 1.610760 
# 
# From -- ./inp_files/26974.got.cif
#   From: 2010.05.17/outbox.cif.g08.bks.cpg/sg53_14_cif.got.tgz:26974.got - 2010.06.03 12:45:16.
