data_PCOD9417572
_publ_section_title
;
Structure prediction by ZEFSAII (Michael W. Deem and Ramdas Pophale) SiO2 
 PCOD9417572
Probable space group: P M N A
;
_chemical_formula_sum "Si O2"
_cell_formula_units_Z 56
_cell_length_a 8.692655
_cell_length_b 15.865549
_cell_length_c 20.351624
_cell_angle_alpha 90.000000
_cell_angle_beta 90.000000
_cell_angle_gamma 90.000000
_cell_volume 2806.768659
_symmetry_space_group_name_H-M "P M N A"
_symmetry_group_IT_number 53
_symmetry_cell_setting 'orthorhombic'
loop_
_space_group_symop_operation_xyz
x,y,z
1/2-x,-y,1/2+z
x,-y,-z
1/2-x,y,1/2-z
-x,-y,-z
1/2+x,y,1/2-z
-x,y,z
1/2+x,-y,1/2+z
loop_
_atom_site_type_symbol
_atom_site_label
_atom_site_fract_x
_atom_site_fract_y
_atom_site_fract_z
Si Si1 0.816022 0.075781 0.547640
Si Si2 0.314769 0.745248 0.457191
Si Si3 0.684734 0.330098 0.681309
Si Si4 0.814565 0.345060 0.085178
Si Si5 0.684644 0.997473 0.321638
Si Si6 0.816748 0.518736 0.680910
Si Si7 0.184673 0.808601 0.821198
O O1 0.756821 0.165754 0.523294
O O2 0.000000 0.075360 0.550211
O O3 0.764292 0.000000 0.500000
O O4 0.748882 0.058880 0.619891
O O5 0.500000 0.753408 0.459206
O O6 0.268828 0.721117 0.383353
O O7 0.273129 0.673110 0.509694
O O8 0.750000 0.295749 0.750000
O O9 0.500000 0.332646 0.684701
O O10 0.747679 0.425145 0.674128
O O11 0.735702 0.422970 0.120982
O O12 0.770782 0.260516 0.125352
O O13 0.000000 0.355529 0.089521
O O14 0.750000 0.975167 0.250000
O O15 0.500000 0.992952 0.320365
O O16 0.732671 0.095037 0.335449
O O17 0.750000 0.553647 0.750000
O O18 0.000000 0.514398 0.685478
O O19 0.250000 0.785551 0.750000
O O20 0.000000 0.808777 0.817704
#
# Coordination Sequence:
#
# PCOD9417572 Si02
#       7
#     8   8   8   8   8   8   8
#     4  11  24  40  59  85 118 155 195 240 290 346
#     4  10  23  41  62  86 113 151 194 237 291 348
#     4  10  21  40  64  88 114 148 191 238 288 340
#     4  10  20  36  56  82 116 151 191 235 282 341
#     4  10  20  36  58  83 112 147 191 242 294 348
#     4  11  22  37  59  87 118 154 192 231 280 335
#     4   9  18  31  51  78 109 146 185 229 280 334
#
# _framework density 19.951768999999999
#
# number of rings (size 3 to 8) (size 9 to 14) (size 15 to 20)
#    0.000    1.857    0.000    4.714    0.000    7.429 
#    0.000    4.286    0.000    0.000    0.000    0.000 
#    0.000    0.000    0.000    0.000    0.000    0.000 
#
# Total GULP energy -312980.748743 kJ/mol
# GULP energy per Si atom -5588.941942 kJ/mol
# Density = 1.990636 g / cm^3
# Si number density = 19.951769 Si / 1000 Ang^3
#
#
#
# Elastic Constant Matrix: (Units=GPa)
#
#
# Indices 1 2 3 4 5 6 
#
# 1 37.6734 20.5981 28.8043 0.0000 0.0000 0.0000
# 2 20.5981 53.0237 33.3175 0.0000 0.0000 0.0000
# 3 28.8043 33.3175 100.5105 0.0000 0.0000 0.0000
# 4 0.0000 0.0000 0.0000 36.5117 0.0000 0.0000
# 5 0.0000 0.0000 0.0000 0.0000 19.3187 0.0000
# 6 0.0000 0.0000 0.0000 0.0000 0.0000 56.9689
#
#
#
# Elastic Compliance Matrix: (Units=1/GPa)
#
#
# Indices 1 2 3 4 5 6 
#
# 1 0.037722 -0.009929 -0.007519 0.000000 0.000000 0.000000
# 2 -0.009929 0.026435 -0.005917 0.000000 0.000000 0.000000
# 3 -0.007519 -0.005917 0.014065 0.000000 0.000000 0.000000
# 4 0.000000 0.000000 0.000000 0.027389 0.000000 0.000000
# 5 0.000000 0.000000 0.000000 0.000000 0.051763 0.000000
# 6 0.000000 0.000000 0.000000 0.000000 0.000000 0.017553
#
#
# Mechanical properties :
#
#
# Convention : Reuss Voigt Hill
#
# Bulk Modulus (GPa) = 31.75487 39.62750 35.69119
# Shear Modulus (GPa) = 21.53738 29.79237 25.66488
#
# Velocity S-wave (km/s) = 3.28910 3.86841 3.59046
# Velocity P-wave (km/s) = 5.51131 6.31329 5.92588
#
# Compressibility (1/GPa) = 0.03149123
#
# Stress axis : x y z
#
# Youngs Moduli (GPa) = 26.51003 37.82897 71.09641
#
# Poissons Ratio (x) = 0.37561 0.53457
# Poissons Ratio (y) = 0.26322 0.42069
# Poissons Ratio (z) = 0.19933 0.22384
#
# Static dielectric constant tensor:
#      x y z
#    x 1.669090 0.000000 0.000000 
#    y 0.000000 1.695940 0.000000 
#    z 0.000000 0.000000 1.704560 
# 
# From -- ./inp_files/30822.got.cif
#   From: 2010.05.17/outbox.cif.g08.bks.cpg/sg53_16_cif.got.tgz:30822.got - 2010.06.03 12:45:16.
