data_PCOD9417428
_publ_section_title
;
Structure prediction by ZEFSAII (Michael W. Deem and Ramdas Pophale) SiO2 
 PCOD9417428
Probable space group: P M N A
;
_chemical_formula_sum "Si O2"
_cell_formula_units_Z 56
_cell_length_a 15.663069
_cell_length_b 13.899369
_cell_length_c 12.917469
_cell_angle_alpha 90.000000
_cell_angle_beta 90.000000
_cell_angle_gamma 90.000000
_cell_volume 2812.220526
_symmetry_space_group_name_H-M "P M N A"
_symmetry_group_IT_number 53
_symmetry_cell_setting 'orthorhombic'
loop_
_space_group_symop_operation_xyz
x,y,z
1/2-x,-y,1/2+z
x,-y,-z
1/2-x,y,1/2-z
-x,-y,-z
1/2+x,y,1/2-z
-x,y,z
1/2+x,-y,1/2+z
loop_
_atom_site_type_symbol
_atom_site_label
_atom_site_fract_x
_atom_site_fract_y
_atom_site_fract_z
Si Si1 0.280304 0.386697 0.521109
Si Si2 0.666785 0.859850 0.318485
Si Si3 0.594775 0.933408 0.686169
Si Si4 0.908370 0.598538 0.434309
Si Si5 0.402568 0.097024 0.067472
Si Si6 0.904336 0.341664 0.792315
Si Si7 0.721726 0.194158 0.449065
O O1 0.283995 0.500000 0.500000
O O2 0.182124 0.357132 0.539384
O O3 0.336076 0.373273 0.623582
O O4 0.304445 0.306810 0.435470
O O5 0.750000 0.883107 0.250000
O O6 0.619417 0.768942 0.265961
O O7 0.693804 0.829240 0.433561
O O8 0.610250 0.953965 0.331922
O O9 0.500000 0.904300 0.649406
O O10 0.597458 0.923372 0.809984
O O11 0.667987 0.872095 0.629507
O O12 0.910226 0.500000 0.500000
O O13 0.903519 0.592285 0.309693
O O14 0.000000 0.647462 0.455839
O O15 0.500000 0.129133 0.040367
O O16 0.321761 0.167137 0.055290
O O17 0.386643 0.000000 0.000000
O O18 0.000000 0.343650 0.836037
#
# Coordination Sequence:
#
# PCOD9417428 Si02
#       7
#     8   8   8   8   8   8   8
#     4  10  22  39  59  82 111 153 202 252 305 364
#     4  11  21  35  59  88 120 157 199 246 300 362
#     4  11  23  38  58  86 122 160 198 242 297 365
#     4   9  18  35  59  86 116 148 189 247 309 363
#     4  10  21  38  60  88 122 159 198 241 297 368
#     4  10  20  35  57  86 119 154 195 245 301 362
#     4  11  22  37  59  84 116 155 197 252 306 359
#
# _framework density 19.91309
#
# number of rings (size 3 to 8) (size 9 to 14) (size 15 to 20)
#    0.000    1.714    0.000    6.000    0.000    4.286 
#    0.000    9.286    0.000    6.857    0.000    0.000 
#    0.000    0.000    0.000    0.000    0.000    0.000 
#
# Total GULP energy -312065.279795 kJ/mol
# GULP energy per Si atom -5572.594282 kJ/mol
# Density = 1.986777 g / cm^3
# Si number density = 19.913090 Si / 1000 Ang^3
#
#
#
# Elastic Constant Matrix: (Units=GPa)
#
#
# Indices 1 2 3 4 5 6 
#
# 1 117.9481 61.2473 39.8163 0.0000 0.0000 0.0000
# 2 61.2473 117.8880 38.8085 0.0000 0.0000 0.0000
# 3 39.8163 38.8085 60.5721 0.0000 0.0000 0.0000
# 4 0.0000 0.0000 0.0000 22.9380 0.0000 0.0000
# 5 0.0000 0.0000 0.0000 0.0000 -16.8632 0.0000
# 6 0.0000 0.0000 0.0000 0.0000 0.0000 -10.6803
#
#
#
# Elastic Compliance Matrix: (Units=1/GPa)
#
#
# Indices 1 2 3 4 5 6 
#
# 1 0.012813 -0.004922 -0.005269 0.000000 0.000000 0.000000
# 2 -0.004922 0.012641 -0.004863 0.000000 0.000000 0.000000
# 3 -0.005269 -0.004863 0.023089 0.000000 0.000000 0.000000
# 4 0.000000 0.000000 0.000000 0.043596 0.000000 0.000000
# 5 0.000000 0.000000 0.000000 0.000000 -0.059301 0.000000
# 6 0.000000 0.000000 0.000000 0.000000 0.000000 -0.093630
#
#
# Mechanical properties :
#
#
# Convention : Reuss Voigt Hill
#
# Bulk Modulus (GPa) = 54.24891 64.01696 59.13293
# Shear Modulus (GPa) = -203.75280 9.51465 -97.11908
#
# Velocity S-wave (km/s) = -10.12636 2.18826 -6.99123
# Velocity P-wave (km/s) = 10.46051 6.21310 5.95062
#
# Compressibility (1/GPa) = 0.01843355
#
# Stress axis : x y z
#
# Youngs Moduli (GPa) = 78.04621 79.10760 43.31155
#
# Poissons Ratio (x) = 0.38940 0.22819
# Poissons Ratio (y) = 0.38417 0.21064
# Poissons Ratio (z) = 0.41120 0.38473
#
# Static dielectric constant tensor:
#      x y z
#    x 1.731100 0.000000 0.000000 
#    y 0.000000 1.740070 0.000000 
#    z 0.000000 0.000000 1.682760 
# 
# From -- ./inp_files/16017.got.cif
#   From: 2010.05.17/outbox.cif.g08.bks.cpg/sg53_9_cif.got.tgz:16017.got - 2010.06.03 12:45:16.
