data_PCOD9417082
_publ_section_title
;
Structure prediction by ZEFSAII (Michael W. Deem and Ramdas Pophale) SiO2 
 PCOD9417082
Probable space group: P M N A
;
_chemical_formula_sum "Si O2"
_cell_formula_units_Z 64
_cell_length_a 9.142327
_cell_length_b 15.774760
_cell_length_c 24.762342
_cell_angle_alpha 90.000000
_cell_angle_beta 90.000000
_cell_angle_gamma 90.000000
_cell_volume 3571.175792
_symmetry_space_group_name_H-M "P M N A"
_symmetry_group_IT_number 53
_symmetry_cell_setting 'orthorhombic'
loop_
_space_group_symop_operation_xyz
x,y,z
1/2-x,-y,1/2+z
x,-y,-z
1/2-x,y,1/2-z
-x,-y,-z
1/2+x,y,1/2-z
-x,y,z
1/2+x,-y,1/2+z
loop_
_atom_site_type_symbol
_atom_site_label
_atom_site_fract_x
_atom_site_fract_y
_atom_site_fract_z
Si Si1 0.822573 0.635119 0.395131
Si Si2 0.331642 0.973181 0.694711
Si Si3 0.176378 0.707369 0.586171
Si Si4 0.170967 0.470535 0.062179
Si Si5 0.829898 0.915993 0.388897
Si Si6 0.668495 0.240033 0.804885
Si Si7 0.177235 0.788072 0.475895
Si Si8 0.329781 0.231200 0.305289
O O1 0.744232 0.546734 0.404640
O O2 0.779090 0.678801 0.338810
O O3 0.781823 0.704166 0.441424
O O4 0.000000 0.626300 0.396837
O O5 0.250000 0.000209 0.750000
O O6 0.500000 0.000632 0.698154
O O7 0.325583 0.871332 0.692893
O O8 0.258773 0.010863 0.640923
O O9 0.239906 0.615699 0.570499
O O10 0.218913 0.772117 0.537693
O O11 0.245386 0.734614 0.642705
O O12 0.000000 0.704726 0.588932
O O13 0.000000 0.458477 0.075972
O O14 0.179508 0.500000 0.000000
O O15 0.825034 0.838404 0.346156
O O16 0.773179 0.872797 0.444351
O O17 0.000000 0.941476 0.395790
O O18 0.750000 0.223072 0.750000
O O19 0.500000 0.254511 0.791766
O O20 0.000000 0.791643 0.473325
O O21 0.250000 0.257767 0.250000
O O22 0.500000 0.257064 0.305486
#
# Coordination Sequence:
#
# PCOD9417082 Si02
#       8
#     8   8   8   8   8   8   8   8
#     4   9  17  33  52  72 101 139 181 220 260 312
#     4  10  20  34  54  79 106 141 182 226 273 320
#     4  11  21  36  61  85 107 142 183 221 271 327
#     4  11  22  34  52  82 113 137 172 222 271 317
#     4   9  17  31  51  77 109 141 179 224 263 310
#     4   9  18  30  47  71 103 141 177 216 262 311
#     4   8  16  31  52  78 108 142 178 218 263 316
#     4  10  22  41  61  82 110 140 178 227 275 323
#
# _framework density 17.921268999999999
#
# number of rings (size 3 to 8) (size 9 to 14) (size 15 to 20)
#    0.000    2.375    1.250    3.375    0.000    4.000 
#    0.000    4.375    0.000    5.250    0.000    0.000 
#    0.000    0.000    0.000    0.000    0.000    0.000 
#
# Total GULP energy -356906.074509 kJ/mol
# GULP energy per Si atom -5576.657414 kJ/mol
# Density = 1.788048 g / cm^3
# Si number density = 17.921269 Si / 1000 Ang^3
#
#
#
# Elastic Constant Matrix: (Units=GPa)
#
#
# Indices 1 2 3 4 5 6 
#
# 1 82.2309 24.4281 46.5005 0.0000 0.0000 0.0000
# 2 24.4281 22.3064 18.2848 0.0000 0.0000 0.0000
# 3 46.5005 18.2848 108.6283 0.0000 0.0000 0.0000
# 4 0.0000 0.0000 0.0000 24.0434 0.0000 0.0000
# 5 0.0000 0.0000 0.0000 0.0000 20.2467 0.0000
# 6 0.0000 0.0000 0.0000 0.0000 0.0000 25.9141
#
#
#
# Elastic Compliance Matrix: (Units=1/GPa)
#
#
# Indices 1 2 3 4 5 6 
#
# 1 0.020836 -0.017989 -0.005891 0.000000 0.000000 0.000000
# 2 -0.017989 0.067536 -0.003668 0.000000 0.000000 0.000000
# 3 -0.005891 -0.003668 0.012345 0.000000 0.000000 0.000000
# 4 0.000000 0.000000 0.000000 0.041591 0.000000 0.000000
# 5 0.000000 0.000000 0.000000 0.000000 0.049391 0.000000
# 6 0.000000 0.000000 0.000000 0.000000 0.000000 0.038589
#
#
# Mechanical properties :
#
#
# Convention : Reuss Voigt Hill
#
# Bulk Modulus (GPa) = 21.91927 43.51029 32.71478
# Shear Modulus (GPa) = 16.63386 22.30433 19.46910
#
# Velocity S-wave (km/s) = 3.04988 3.53168 3.29959
# Velocity P-wave (km/s) = 4.96586 6.40013 5.72806
#
# Compressibility (1/GPa) = 0.04562196
#
# Stress axis : x y z
#
# Youngs Moduli (GPa) = 47.99320 14.80685 81.00454
#
# Poissons Ratio (x) = 0.26636 0.47723
# Poissons Ratio (y) = 0.86334 0.29709
# Poissons Ratio (z) = 0.28275 0.05430
#
# Static dielectric constant tensor:
#      x y z
#    x 1.607180 0.000000 0.000000 
#    y 0.000000 1.610060 0.000000 
#    z 0.000000 0.000000 1.617450 
# 
# From -- ./inp_files/34200.got.cif
#   From: 2010.05.17/outbox.cif.g08.bks.cpg/sg53_18_cif.got.tgz:34200.got - 2010.06.03 12:45:16.
