data_PCOD9417613
_publ_section_title
;
Structure prediction by ZEFSAII (Michael W. Deem and Ramdas Pophale) SiO2 
 PCOD9417613
Probable space group: P M N A
;
_chemical_formula_sum "Si O2"
_cell_formula_units_Z 48
_cell_length_a 8.717871
_cell_length_b 31.453237
_cell_length_c 9.513701
_cell_angle_alpha 90.000000
_cell_angle_beta 90.000000
_cell_angle_gamma 90.000000
_cell_volume 2608.706882
_symmetry_space_group_name_H-M "P M N A"
_symmetry_group_IT_number 53
_symmetry_cell_setting 'orthorhombic'
loop_
_space_group_symop_operation_xyz
x,y,z
1/2-x,-y,1/2+z
x,-y,-z
1/2-x,y,1/2-z
-x,-y,-z
1/2+x,y,1/2-z
-x,y,z
1/2+x,-y,1/2+z
loop_
_atom_site_type_symbol
_atom_site_label
_atom_site_fract_x
_atom_site_fract_y
_atom_site_fract_z
Si Si1 0.316092 0.540878 0.093620
Si Si2 0.185004 0.040392 0.093109
Si Si3 0.316827 0.211887 0.906311
Si Si4 0.683473 0.384276 0.406546
Si Si5 0.184563 0.878184 0.092820
Si Si6 0.683661 0.713428 0.594170
O O1 0.250000 0.537359 0.250000
O O2 0.500000 0.542551 0.100642
O O3 0.271672 0.500000 0.000000
O O4 0.253906 0.582502 0.014900
O O5 0.250000 0.039038 0.250000
O O6 0.000000 0.039129 0.101651
O O7 0.227687 0.083308 0.009843
O O8 0.235404 0.000000 0.000000
O O9 0.250000 0.216576 0.750000
O O10 0.500000 0.210070 0.902277
O O11 0.250954 0.166784 0.959483
O O12 0.259581 0.251498 0.996312
O O13 0.750000 0.391457 0.250000
O O14 0.500000 0.389153 0.401181
O O15 0.718318 0.335401 0.447817
O O16 0.250000 0.885446 0.250000
O O17 0.000000 0.875617 0.101585
O O18 0.750000 0.718842 0.750000
O O19 0.500000 0.718537 0.594687
#
# Coordination Sequence:
#
# PCOD9417613 Si02
#       6
#     8   8   8   8   8   8
#     4  11  24  40  60  86 116 151 190 233 281 334
#     4  10  22  38  57  83 112 144 183 226 273 328
#     4  11  22  37  58  83 113 150 190 233 282 334
#     4  10  21  38  61  86 115 150 188 233 282 335
#     4  10  20  36  57  81 111 145 185 231 278 331
#     4  10  21  38  59  85 115 149 189 232 282 336
#
# _framework density 18.399920999999999
#
# number of rings (size 3 to 8) (size 9 to 14) (size 15 to 20)
#    0.000    1.667    0.000    5.500    0.000    7.667 
#    0.000    1.667    0.000    0.000    0.000    0.000 
#    0.000    0.000    0.000    0.000    0.000    0.000 
#
# Total GULP energy -268256.473219 kJ/mol
# GULP energy per Si atom -5588.676525 kJ/mol
# Density = 1.835804 g / cm^3
# Si number density = 18.399921 Si / 1000 Ang^3
#
#
#
# Elastic Constant Matrix: (Units=GPa)
#
#
# Indices 1 2 3 4 5 6 
#
# 1 87.2508 79.1414 57.1543 0.0000 0.0000 0.0000
# 2 79.1414 188.9998 122.4485 0.0000 0.0000 0.0000
# 3 57.1543 122.4485 132.5717 0.0000 0.0000 0.0000
# 4 0.0000 0.0000 0.0000 43.8913 0.0000 0.0000
# 5 0.0000 0.0000 0.0000 0.0000 38.0832 0.0000
# 6 0.0000 0.0000 0.0000 0.0000 0.0000 32.5046
#
#
#
# Elastic Compliance Matrix: (Units=1/GPa)
#
#
# Indices 1 2 3 4 5 6 
#
# 1 0.018705 -0.006494 -0.002066 0.000000 0.000000 0.000000
# 2 -0.006494 0.015430 -0.011452 0.000000 0.000000 0.000000
# 3 -0.002066 -0.011452 0.019011 0.000000 0.000000 0.000000
# 4 0.000000 0.000000 0.000000 0.022784 0.000000 0.000000
# 5 0.000000 0.000000 0.000000 0.000000 0.026258 0.000000
# 6 0.000000 0.000000 0.000000 0.000000 0.000000 0.030765
#
#
# Mechanical properties :
#
#
# Convention : Reuss Voigt Hill
#
# Bulk Modulus (GPa) = 76.20645 102.92340 89.56493
# Shear Modulus (GPa) = 28.19291 32.90103 30.54697
#
# Velocity S-wave (km/s) = 3.91862 4.23319 4.07894
# Velocity P-wave (km/s) = 7.87278 8.94156 8.42414
#
# Compressibility (1/GPa) = 0.01312225
#
# Stress axis : x y z
#
# Youngs Moduli (GPa) = 53.46175 64.81072 52.60118
#
# Poissons Ratio (x) = 0.42088 0.10867
# Poissons Ratio (y) = 0.34718 0.60237
# Poissons Ratio (z) = 0.11045 0.74219
#
# Static dielectric constant tensor:
#      x y z
#    x 1.615980 0.000000 0.000000 
#    y 0.000000 1.634160 0.000000 
#    z 0.000000 0.000000 1.582940 
# 
# From -- ./inp_files/6660.got.cif
#   From: 2010.05.17/outbox.cif.g08.bks.cpg/sg53_4_cif.got.tgz:6660.got - 2010.06.03 12:45:16.
