data_PCOD9417737
_publ_section_title
;
Structure prediction by ZEFSAII (Michael W. Deem and Ramdas Pophale) SiO2 
 PCOD9417737
Probable space group: P M N A
;
_chemical_formula_sum "Si O2"
_cell_formula_units_Z 48
_cell_length_a 8.576972
_cell_length_b 15.876645
_cell_length_c 18.304934
_cell_angle_alpha 90.000000
_cell_angle_beta 90.000000
_cell_angle_gamma 90.000000
_cell_volume 2492.647655
_symmetry_space_group_name_H-M "P M N A"
_symmetry_group_IT_number 53
_symmetry_cell_setting 'orthorhombic'
loop_
_space_group_symop_operation_xyz
x,y,z
1/2-x,-y,1/2+z
x,-y,-z
1/2-x,y,1/2-z
-x,-y,-z
1/2+x,y,1/2-z
-x,y,z
1/2+x,-y,1/2+z
loop_
_atom_site_type_symbol
_atom_site_label
_atom_site_fract_x
_atom_site_fract_y
_atom_site_fract_z
Si Si1 0.188575 0.162937 0.077620
Si Si2 0.812611 0.667162 0.167781
Si Si3 0.812837 0.003700 0.832033
Si Si4 0.814384 0.831657 0.413568
Si Si5 0.688418 0.671211 0.667790
Si Si6 0.690135 0.497646 0.415819
O O1 0.235901 0.245595 0.123172
O O2 0.000000 0.164019 0.070535
O O3 0.232623 0.078857 0.121640
O O4 0.260218 0.163785 0.997344
O O5 0.750000 0.669084 0.250000
O O6 0.753016 0.747811 0.123654
O O7 0.761616 0.581311 0.127415
O O8 0.000000 0.668772 0.169084
O O9 0.750000 0.997470 0.750000
O O10 0.748692 0.087008 0.870765
O O11 0.000000 0.007838 0.830300
O O12 0.000000 0.830160 0.409230
O O13 0.750000 0.672847 0.750000
O O14 0.500000 0.670371 0.670050
O O15 0.740773 0.586948 0.625598
O O16 0.741841 0.500000 0.500000
O O17 0.500000 0.496846 0.416604
#
# Coordination Sequence:
#
# PCOD9417737 Si02
#       6
#     8   8   8   8   8   8
#     4  10  22  40  62  87 117 154 192 233 285 344
#     4  11  22  38  60  85 117 154 194 239 287 342
#     4  11  23  40  62  88 119 154 193 236 285 342
#     4  12  25  40  60  86 116 151 194 243 292 342
#     4  10  20  36  59  87 118 152 191 234 283 341
#     4   9  18  34  58  85 114 152 194 235 283 340
#
# _framework density 19.256633000000001
#
# number of rings (size 3 to 8) (size 9 to 14) (size 15 to 20)
#    0.000    1.500    0.000    5.500    0.000    6.667 
#    0.000    0.833    0.000    3.500    0.000    0.000 
#    0.000    0.000    0.000    0.000    0.000    0.000 
#
# Total GULP energy -268464.025720 kJ/mol
# GULP energy per Si atom -5593.000536 kJ/mol
# Density = 1.921280 g / cm^3
# Si number density = 19.256633 Si / 1000 Ang^3
#
#
#
# Elastic Constant Matrix: (Units=GPa)
#
#
# Indices 1 2 3 4 5 6 
#
# 1 42.7224 41.1169 39.1304 0.0000 0.0000 0.0000
# 2 41.1169 166.1969 70.9251 0.0000 0.0000 0.0000
# 3 39.1304 70.9251 162.9230 0.0000 0.0000 0.0000
# 4 0.0000 0.0000 0.0000 43.2574 0.0000 0.0000
# 5 0.0000 0.0000 0.0000 0.0000 38.6558 0.0000
# 6 0.0000 0.0000 0.0000 0.0000 0.0000 -0.3362
#
#
#
# Elastic Compliance Matrix: (Units=1/GPa)
#
#
# Indices 1 2 3 4 5 6 
#
# 1 0.034437 -0.006129 -0.005603 0.000000 0.000000 0.000000
# 2 -0.006129 0.008480 -0.002220 0.000000 0.000000 0.000000
# 3 -0.005603 -0.002220 0.008450 0.000000 0.000000 0.000000
# 4 0.000000 0.000000 0.000000 0.023117 0.000000 0.000000
# 5 0.000000 0.000000 0.000000 0.000000 0.025869 0.000000
# 6 0.000000 0.000000 0.000000 0.000000 0.000000 -2.974216
#
#
# Mechanical properties :
#
#
# Convention : Reuss Voigt Hill
#
# Bulk Modulus (GPa) = 42.61736 74.90968 58.76352
# Shear Modulus (GPa) = -1.76172 31.02672 14.63250
#
# Velocity S-wave (km/s) = -0.95752 4.01836 2.75956
# Velocity P-wave (km/s) = 4.57786 7.77912 6.38246
#
# Compressibility (1/GPa) = 0.02346461
#
# Stress axis : x y z
#
# Youngs Moduli (GPa) = 29.03836 117.91761 118.34368
#
# Poissons Ratio (x) = 0.72267 0.66309
# Poissons Ratio (y) = 0.17796 0.26271
# Poissons Ratio (z) = 0.16270 0.26176
#
# Static dielectric constant tensor:
#      x y z
#    x 1.656950 0.000000 0.000000 
#    y 0.000000 1.648830 0.000000 
#    z 0.000000 0.000000 1.620780 
# 
# From -- ./inp_files/26228.got.cif
#   From: 2010.05.17/outbox.cif.g08.bks.cpg/sg53_14_cif.got.tgz:26228.got - 2010.06.03 12:45:16.
