data_PCOD9417903
_publ_section_title
;
Structure prediction by ZEFSAII (Michael W. Deem and Ramdas Pophale) SiO2 
 PCOD9417903
Probable space group: P M N A
;
_chemical_formula_sum "Si O2"
_cell_formula_units_Z 40
_cell_length_a 8.761357
_cell_length_b 25.954320
_cell_length_c 9.389681
_cell_angle_alpha 90.000000
_cell_angle_beta 90.000000
_cell_angle_gamma 90.000000
_cell_volume 2135.167105
_symmetry_space_group_name_H-M "P M N A"
_symmetry_group_IT_number 53
_symmetry_cell_setting 'orthorhombic'
loop_
_space_group_symop_operation_xyz
x,y,z
1/2-x,-y,1/2+z
x,-y,-z
1/2-x,y,1/2-z
-x,-y,-z
1/2+x,y,1/2-z
-x,y,z
1/2+x,-y,1/2+z
loop_
_atom_site_type_symbol
_atom_site_label
_atom_site_fract_x
_atom_site_fract_y
_atom_site_fract_z
Si Si1 0.817400 0.448747 0.591751
Si Si2 0.182812 0.050140 0.406827
Si Si3 0.316606 0.140852 0.593598
Si Si4 0.683539 0.355542 0.407763
Si Si5 0.816577 0.740915 0.094818
O O1 0.784764 0.500000 0.500000
O O2 0.750000 0.453189 0.750000
O O3 0.745227 0.400530 0.509369
O O4 0.000000 0.442465 0.600368
O O5 0.250000 0.044578 0.250000
O O6 0.249900 0.100603 0.482342
O O7 0.000000 0.053861 0.400564
O O8 0.223414 0.000000 0.500000
O O9 0.250000 0.129122 0.750000
O O10 0.500000 0.137324 0.597279
O O11 0.272860 0.200163 0.559959
O O12 0.750000 0.361157 0.250000
O O13 0.500000 0.357963 0.401987
O O14 0.730089 0.301008 0.478320
O O15 0.750000 0.727929 0.250000
O O16 0.000000 0.739449 0.105471
#
# Coordination Sequence:
#
# PCOD9417903 Si02
#       5
#     8   8   8   8   8
#     4  11  24  41  62  88 118 152 191 236 286 340
#     4  11  24  40  59  84 114 149 189 234 285 339
#     4  10  20  37  60  86 117 151 190 234 283 338
#     4  11  23  39  59  85 118 154 194 238 286 338
#     4   9  20  37  58  85 115 150 190 234 283 337
#
# _framework density 18.733896000000001
#
# number of rings (size 3 to 8) (size 9 to 14) (size 15 to 20)
#    0.000    1.600    0.000    4.200    0.000   11.200 
#    0.000    2.000    0.000    0.000    0.000    0.000 
#    0.000    0.000    0.000    0.000    0.000    0.000 
#
# Total GULP energy -223630.052014 kJ/mol
# GULP energy per Si atom -5590.751300 kJ/mol
# Density = 1.869126 g / cm^3
# Si number density = 18.733896 Si / 1000 Ang^3
#
#
#
# Elastic Constant Matrix: (Units=GPa)
#
#
# Indices 1 2 3 4 5 6 
#
# 1 57.8629 59.6663 67.2545 0.0000 0.0000 0.0000
# 2 59.6663 122.1902 112.6376 0.0000 0.0000 0.0000
# 3 67.2545 112.6376 193.5275 0.0000 0.0000 0.0000
# 4 0.0000 0.0000 0.0000 39.3821 0.0000 0.0000
# 5 0.0000 0.0000 0.0000 0.0000 38.5090 0.0000
# 6 0.0000 0.0000 0.0000 0.0000 0.0000 29.2348
#
#
#
# Elastic Compliance Matrix: (Units=1/GPa)
#
#
# Indices 1 2 3 4 5 6 
#
# 1 0.036964 -0.013395 -0.005049 0.000000 0.000000 0.000000
# 2 -0.013395 0.022512 -0.008447 0.000000 0.000000 0.000000
# 3 -0.005049 -0.008447 0.011839 0.000000 0.000000 0.000000
# 4 0.000000 0.000000 0.000000 0.025392 0.000000 0.000000
# 5 0.000000 0.000000 0.000000 0.000000 0.025968 0.000000
# 6 0.000000 0.000000 0.000000 0.000000 0.000000 0.034206
#
#
# Mechanical properties :
#
#
# Convention : Reuss Voigt Hill
#
# Bulk Modulus (GPa) = 57.04344 94.74416 75.89380
# Shear Modulus (GPa) = 23.09397 30.35999 26.72698
#
# Velocity S-wave (km/s) = 3.51484 4.03002 3.78122
# Velocity P-wave (km/s) = 6.85475 8.50519 7.72418
#
# Compressibility (1/GPa) = 0.01753050
#
# Stress axis : x y z
#
# Youngs Moduli (GPa) = 27.05371 44.42124 84.46966
#
# Poissons Ratio (x) = 0.59502 0.42652
# Poissons Ratio (y) = 0.36238 0.71355
# Poissons Ratio (z) = 0.13660 0.37524
#
# Static dielectric constant tensor:
#      x y z
#    x 1.627680 0.000000 0.000000 
#    y 0.000000 1.644540 0.000000 
#    z 0.000000 0.000000 1.598930 
# 
# From -- ./inp_files/6263.got.cif
#   From: 2010.05.17/outbox.cif.g08.bks.cpg/sg53_4_cif.got.tgz:6263.got - 2010.06.03 12:45:16.
