data_PCOD9417549
_publ_section_title
;
Structure prediction by ZEFSAII (Michael W. Deem and Ramdas Pophale) SiO2 
 PCOD9417549
Probable space group: P M N A
;
_chemical_formula_sum "Si O2"
_cell_formula_units_Z 40
_cell_length_a 14.383199
_cell_length_b 22.771780
_cell_length_c 4.990214
_cell_angle_alpha 90.000000
_cell_angle_beta 90.000000
_cell_angle_gamma 90.000000
_cell_volume 1634.449998
_symmetry_space_group_name_H-M "P M N A"
_symmetry_group_IT_number 53
_symmetry_cell_setting 'orthorhombic'
loop_
_space_group_symop_operation_xyz
x,y,z
1/2-x,-y,1/2+z
x,-y,-z
1/2-x,y,1/2-z
-x,-y,-z
1/2+x,y,1/2-z
-x,y,z
1/2+x,-y,1/2+z
loop_
_atom_site_type_symbol
_atom_site_label
_atom_site_fract_x
_atom_site_fract_y
_atom_site_fract_z
Si Si1 0.391208 0.778388 0.572215
Si Si2 0.394690 0.539832 0.237733
Si Si3 0.114053 0.154389 0.558916
Si Si4 0.105258 0.959596 0.758981
Si Si5 0.690323 0.342335 0.517209
O O1 0.500000 0.791271 0.571794
O O2 0.357303 0.792110 0.868722
O O3 0.382094 0.708851 0.537354
O O4 0.353783 0.825178 0.352671
O O5 0.399308 0.500000 0.500000
O O6 0.500000 0.554410 0.144889
O O7 0.348324 0.599338 0.339919
O O8 0.350748 0.500000 0.000000
O O9 0.146565 0.098296 0.384321
O O10 0.000000 0.147705 0.574390
O O11 0.000000 0.943953 0.859478
O O12 0.096733 0.000000 0.500000
O O13 0.147598 0.000000 0.000000
O O14 0.750000 0.355874 0.250000
O O15 0.750000 0.313153 0.750000
#
# Coordination Sequence:
#
# PCOD9417549 Si02
#       5
#     8   8   8   8   8
#     4  10  20  36  56  78 111 154 199 241 284 344
#     4  10  22  42  67  92 119 154 196 239 289 354
#     4   9  17  29  48  74 105 148 195 236 286 348
#     4   9  15  23  38  65 104 143 178 226 291 351
#     4  12  25  40  60  89 123 155 193 243 297 352
#
# _framework density 24.473063
#
# number of rings (size 3 to 8) (size 9 to 14) (size 15 to 20)
#    0.000    2.000    0.000    4.200    0.000    6.400 
#    0.000    8.000    0.000    0.000    0.000    0.000 
#    0.000   44.800    0.000    0.000    0.000    0.000 
#
# Total GULP energy -223042.942175 kJ/mol
# GULP energy per Si atom -5576.073554 kJ/mol
# Density = 2.441736 g / cm^3
# Si number density = 24.473063 Si / 1000 Ang^3
#
#
#
# Elastic Constant Matrix: (Units=GPa)
#
#
# Indices 1 2 3 4 5 6 
#
# 1 40.5734 7.6327 12.2075 0.0000 0.0000 0.0000
# 2 7.6327 138.4672 52.7161 0.0000 0.0000 0.0000
# 3 12.2075 52.7161 172.5321 0.0000 0.0000 0.0000
# 4 0.0000 0.0000 0.0000 -103.1549 0.0000 0.0000
# 5 0.0000 0.0000 0.0000 0.0000 21.0701 0.0000
# 6 0.0000 0.0000 0.0000 0.0000 0.0000 7.1047
#
#
#
# Elastic Compliance Matrix: (Units=1/GPa)
#
#
# Indices 1 2 3 4 5 6 
#
# 1 0.025262 -0.000806 -0.001541 0.000000 0.000000 0.000000
# 2 -0.000806 0.008198 -0.002448 0.000000 0.000000 0.000000
# 3 -0.001541 -0.002448 0.006653 0.000000 0.000000 0.000000
# 4 0.000000 0.000000 0.000000 -0.009694 0.000000 0.000000
# 5 0.000000 0.000000 0.000000 0.000000 0.047461 0.000000
# 6 0.000000 0.000000 0.000000 0.000000 0.000000 0.140752
#
#
# Mechanical properties :
#
#
# Convention : Reuss Voigt Hill
#
# Bulk Modulus (GPa) = 32.76166 55.18726 43.97446
# Shear Modulus (GPa) = 20.97354 3.60507 12.28931
#
# Velocity S-wave (km/s) = 2.93064 1.21502 2.24332
# Velocity P-wave (km/s) = 4.98673 4.95656 4.97167
#
# Compressibility (1/GPa) = 0.03052348
#
# Stress axis : x y z
#
# Youngs Moduli (GPa) = 39.58522 121.97649 150.30761
#
# Poissons Ratio (x) = 0.09828 0.23166
# Poissons Ratio (y) = 0.03190 0.36794
# Poissons Ratio (z) = 0.06101 0.29859
#
# Static dielectric constant tensor:
#      x y z
#    x 2.035430 0.000000 0.000000 
#    y 0.000000 1.976400 0.000000 
#    z 0.000000 0.000000 1.994930 
# 
# From -- ./inp_files/2190.got.cif
#   From: 2010.05.17/outbox.cif.g08.bks.cpg/sg53_2_cif.got.tgz:2190.got - 2010.06.03 12:45:16.
