data_PCOD9417711
_publ_section_title
;
Structure prediction by ZEFSAII (Michael W. Deem and Ramdas Pophale) SiO2 
 PCOD9417711
Probable space group: P M N A
;
_chemical_formula_sum "Si O2"
_cell_formula_units_Z 48
_cell_length_a 19.029007
_cell_length_b 15.010849
_cell_length_c 8.061182
_cell_angle_alpha 90.000000
_cell_angle_beta 90.000000
_cell_angle_gamma 90.000000
_cell_volume 2302.608527
_symmetry_space_group_name_H-M "P M N A"
_symmetry_group_IT_number 53
_symmetry_cell_setting 'orthorhombic'
loop_
_space_group_symop_operation_xyz
x,y,z
1/2-x,-y,1/2+z
x,-y,-z
1/2-x,y,1/2-z
-x,-y,-z
1/2+x,y,1/2-z
-x,y,z
1/2+x,-y,1/2+z
loop_
_atom_site_type_symbol
_atom_site_label
_atom_site_fract_x
_atom_site_fract_y
_atom_site_fract_z
Si Si1 0.579596 0.737110 0.202475
Si Si2 0.684010 0.052895 0.347926
Si Si3 0.081266 0.217375 0.097547
Si Si4 0.829949 0.618579 0.818704
Si Si5 0.920688 0.932264 0.347986
Si Si6 0.331560 0.576556 0.286502
O O1 0.500000 0.712849 0.158346
O O2 0.581042 0.759749 0.400458
O O3 0.597678 0.829838 0.111613
O O4 0.630012 0.653317 0.183696
O O5 0.750000 0.091050 0.250000
O O6 0.628113 0.129587 0.384207
O O7 0.717714 0.000000 0.500000
O O8 0.638741 0.974789 0.263930
O O9 0.119459 0.296508 0.199418
O O10 0.000000 0.204779 0.148747
O O11 0.750000 0.633342 0.750000
O O12 0.857094 0.523774 0.748461
O O13 0.833339 0.599775 0.017417
O O14 0.000000 0.929022 0.272343
O O15 0.924609 0.000000 0.500000
O O16 0.250000 0.576294 0.250000
#
# Coordination Sequence:
#
# PCOD9417711 Si02
#       6
#     8   8   8   8   8   8
#     4   9  18  34  56  83 111 146 193 240 286 341
#     4  12  24  39  57  84 114 149 192 238 292 354
#     4  10  20  36  59  84 111 148 190 237 293 347
#     4   9  18  35  55  83 116 146 190 238 283 344
#     4  10  21  39  59  81 113 151 194 242 289 345
#     4   9  18  33  56  82 112 153 189 231 292 345
#
# _framework density 20.845924
#
# number of rings (size 3 to 8) (size 9 to 14) (size 15 to 20)
#    0.000    2.167    1.667    1.500    0.000    2.000 
#    9.000    3.333    0.000    0.000    0.000    4.667 
#    0.000    0.000    0.000    0.000    0.000    0.000 
#
# Total GULP energy -267647.268018 kJ/mol
# GULP energy per Si atom -5575.984750 kJ/mol
# Density = 2.079848 g / cm^3
# Si number density = 20.845924 Si / 1000 Ang^3
#
#
#
# Elastic Constant Matrix: (Units=GPa)
#
#
# Indices 1 2 3 4 5 6 
#
# 1 72.4239 59.5077 7.1306 0.0000 0.0000 0.0000
# 2 59.5077 156.4899 12.9888 0.0000 0.0000 0.0000
# 3 7.1306 12.9888 7.5919 0.0000 0.0000 0.0000
# 4 0.0000 0.0000 0.0000 22.8924 0.0000 0.0000
# 5 0.0000 0.0000 0.0000 0.0000 15.2639 0.0000
# 6 0.0000 0.0000 0.0000 0.0000 0.0000 58.0030
#
#
#
# Elastic Compliance Matrix: (Units=1/GPa)
#
#
# Indices 1 2 3 4 5 6 
#
# 1 0.020384 -0.007182 -0.006858 0.000000 0.000000 0.000000
# 2 -0.007182 0.009978 -0.010326 0.000000 0.000000 0.000000
# 3 -0.006858 -0.010326 0.155827 0.000000 0.000000 0.000000
# 4 0.000000 0.000000 0.000000 0.043683 0.000000 0.000000
# 5 0.000000 0.000000 0.000000 0.000000 0.065514 0.000000
# 6 0.000000 0.000000 0.000000 0.000000 0.000000 0.017240
#
#
# Mechanical properties :
#
#
# Convention : Reuss Voigt Hill
#
# Bulk Modulus (GPa) = 7.27495 43.97333 25.62414
# Shear Modulus (GPa) = 12.27963 29.69042 20.98503
#
# Velocity S-wave (km/s) = 2.42970 3.77806 3.17625
# Velocity P-wave (km/s) = 3.37175 6.33813 5.07644
#
# Compressibility (1/GPa) = 0.13745794
#
# Stress axis : x y z
#
# Youngs Moduli (GPa) = 49.05790 100.21660 6.41736
#
# Poissons Ratio (x) = 0.71977 0.04401
# Poissons Ratio (y) = 0.35234 0.06627
# Poissons Ratio (z) = 0.33643 1.03484
#
# Static dielectric constant tensor:
#      x y z
#    x 1.705230 0.000000 0.000000 
#    y 0.000000 1.659160 0.000000 
#    z 0.000000 0.000000 2.068090 
# 
# From -- ./inp_files/9914.got.cif
#   From: 2010.05.17/outbox.cif.g08.bks.cpg/sg53_5_cif.got.tgz:9914.got - 2010.06.03 12:45:16.
