data_PCOD9417397
_publ_section_title
;
Structure prediction by ZEFSAII (Michael W. Deem and Ramdas Pophale) SiO2 
 PCOD9417397
Probable space group: P M N A
;
_chemical_formula_sum "Si O2"
_cell_formula_units_Z 64
_cell_length_a 8.967134
_cell_length_b 21.142971
_cell_length_c 19.144223
_cell_angle_alpha 90.000000
_cell_angle_beta 90.000000
_cell_angle_gamma 90.000000
_cell_volume 3629.588734
_symmetry_space_group_name_H-M "P M N A"
_symmetry_group_IT_number 53
_symmetry_cell_setting 'orthorhombic'
loop_
_space_group_symop_operation_xyz
x,y,z
1/2-x,-y,1/2+z
x,-y,-z
1/2-x,y,1/2-z
-x,-y,-z
1/2+x,y,1/2-z
-x,y,z
1/2+x,-y,1/2+z
loop_
_atom_site_type_symbol
_atom_site_label
_atom_site_fract_x
_atom_site_fract_y
_atom_site_fract_z
Si Si1 0.678865 0.496968 0.081376
Si Si2 0.178430 0.934409 0.461661
Si Si3 0.177880 0.605361 0.822722
Si Si4 0.178531 0.619306 0.326254
Si Si5 0.678939 0.246937 0.322635
Si Si6 0.820224 0.812513 0.969202
Si Si7 0.677565 0.744181 0.390048
Si Si8 0.321561 0.118062 0.674905
O O1 0.500000 0.489132 0.087277
O O2 0.759235 0.438001 0.116646
O O3 0.719150 0.560815 0.123219
O O4 0.717260 0.500000 0.000000
O O5 0.239914 0.876370 0.507558
O O6 0.253546 0.925700 0.385880
O O7 0.000000 0.929889 0.454439
O O8 0.215068 0.000000 0.500000
O O9 0.250000 0.583499 0.750000
O O10 0.218799 0.679074 0.832104
O O11 0.000000 0.600782 0.818585
O O12 0.250000 0.610914 0.250000
O O13 0.235641 0.684806 0.359501
O O14 0.000000 0.621072 0.319591
O O15 0.750000 0.224668 0.250000
O O16 0.500000 0.243304 0.316825
O O17 0.723837 0.209760 0.392191
O O18 0.000000 0.821921 0.971330
O O19 0.787330 0.760279 0.029047
O O20 0.500000 0.732488 0.384335
O O21 0.710613 0.809166 0.348199
O O22 0.250000 0.105723 0.750000
O O23 0.500000 0.110990 0.677003
#
# Coordination Sequence:
#
# PCOD9417397 Si02
#       8
#     8   8   8   8   8   8   8   8
#     4  10  23  40  54  74 106 139 178 227 273 323
#     4  10  21  37  57  83 114 148 188 228 266 318
#     4  10  20  35  57  80 103 137 178 222 273 327
#     4  11  23  37  54  76 104 140 176 217 269 322
#     4   9  19  35  55  82 111 139 178 226 274 326
#     4   9  19  36  57  81 111 145 180 222 271 321
#     4   9  19  34  55  81 109 140 175 220 268 320
#     4  10  20  35  57  84 114 148 184 226 272 320
#
# _framework density 17.632852
#
# number of rings (size 3 to 8) (size 9 to 14) (size 15 to 20)
#    0.000    2.250    0.000    3.000    1.750    7.750 
#    0.000    0.625    0.000    1.500    0.000    0.000 
#    0.000    0.000    0.000    0.000    0.000    0.000 
#
# Total GULP energy -357299.921244 kJ/mol
# GULP energy per Si atom -5582.811269 kJ/mol
# Density = 1.759272 g / cm^3
# Si number density = 17.632852 Si / 1000 Ang^3
#
#
#
# Elastic Constant Matrix: (Units=GPa)
#
#
# Indices 1 2 3 4 5 6 
#
# 1 40.2509 43.1235 64.5456 0.0000 0.0000 0.0000
# 2 43.1235 76.9580 81.2592 0.0000 0.0000 0.0000
# 3 64.5456 81.2592 190.9402 0.0000 0.0000 0.0000
# 4 0.0000 0.0000 0.0000 23.7260 0.0000 0.0000
# 5 0.0000 0.0000 0.0000 0.0000 31.8120 0.0000
# 6 0.0000 0.0000 0.0000 0.0000 0.0000 23.4687
#
#
#
# Elastic Compliance Matrix: (Units=1/GPa)
#
#
# Indices 1 2 3 4 5 6 
#
# 1 0.079060 -0.029206 -0.014296 0.000000 0.000000 0.000000
# 2 -0.029206 0.034388 -0.004762 0.000000 0.000000 0.000000
# 3 -0.014296 -0.004762 0.012096 0.000000 0.000000 0.000000
# 4 0.000000 0.000000 0.000000 0.042148 0.000000 0.000000
# 5 0.000000 0.000000 0.000000 0.000000 0.031435 0.000000
# 6 0.000000 0.000000 0.000000 0.000000 0.000000 0.042610
#
#
# Mechanical properties :
#
#
# Convention : Reuss Voigt Hill
#
# Bulk Modulus (GPa) = 34.46381 76.22285 55.34333
# Shear Modulus (GPa) = 14.37049 23.74938 19.05993
#
# Velocity S-wave (km/s) = 2.85789 3.67397 3.29132
# Velocity P-wave (km/s) = 5.52066 7.83065 6.77483
#
# Compressibility (1/GPa) = 0.02901594
#
# Stress axis : x y z
#
# Youngs Moduli (GPa) = 12.64870 29.08032 82.67012
#
# Poissons Ratio (x) = 0.84932 1.18185
# Poissons Ratio (y) = 0.36942 0.39364
# Poissons Ratio (z) = 0.18083 0.13847
#
# Static dielectric constant tensor:
#      x y z
#    x 1.587620 0.000000 0.000000 
#    y 0.000000 1.576590 0.000000 
#    z 0.000000 0.000000 1.526100 
# 
# From -- ./inp_files/26796.got.cif
#   From: 2010.05.17/outbox.cif.g08.bks.cpg/sg53_14_cif.got.tgz:26796.got - 2010.06.03 12:45:16.
