data_PCOD9417764
_publ_section_title
;
Structure prediction by ZEFSAII (Michael W. Deem and Ramdas Pophale) SiO2 
 PCOD9417764
Probable space group: P M N A
;
_chemical_formula_sum "Si O2"
_cell_formula_units_Z 32
_cell_length_a 10.924249
_cell_length_b 9.007871
_cell_length_c 16.439108
_cell_angle_alpha 90.000000
_cell_angle_beta 90.000000
_cell_angle_gamma 90.000000
_cell_volume 1617.677695
_symmetry_space_group_name_H-M "P M N A"
_symmetry_group_IT_number 53
_symmetry_cell_setting 'orthorhombic'
loop_
_space_group_symop_operation_xyz
x,y,z
1/2-x,-y,1/2+z
x,-y,-z
1/2-x,y,1/2-z
-x,-y,-z
1/2+x,y,1/2-z
-x,y,z
1/2+x,-y,1/2+z
loop_
_atom_site_type_symbol
_atom_site_label
_atom_site_fract_x
_atom_site_fract_y
_atom_site_fract_z
Si Si1 0.632765 0.191064 0.342095
Si Si2 0.640224 0.831978 0.964228
Si Si3 0.143964 0.312573 0.634237
Si Si4 0.250000 0.936088 0.250000
Si Si5 0.250000 0.556955 0.750000
O O1 0.500000 0.191386 0.383316
O O2 0.751057 0.189817 0.400465
O O3 0.646536 0.333134 0.283892
O O4 0.648447 0.044289 0.287574
O O5 0.500000 0.812955 0.932846
O O6 0.659503 0.717523 0.038664
O O7 0.646756 0.000000 0.000000
O O8 0.195763 0.168684 0.680627
O O9 0.208078 0.452969 0.675710
O O10 0.000000 0.324134 0.650089
#
# Coordination Sequence:
#
# PCOD9417764 Si02
#       5
#     8   8   8   4   4
#     4  11  23  39  61  91 126 162 200 250 305 361
#     4  10  21  39  64  92 121 157 204 255 302 360
#     4  10  20  39  62  86 118 160 206 250 299 360
#     4  10  20  36  60  90 118 158 204 252 298 358
#     4  10  24  40  58  88 124 164 206 246 300 364
#
# _framework density 19.781444
#
# number of rings (size 3 to 8) (size 9 to 14) (size 15 to 20)
#    0.000    1.750    2.500    1.500    0.000    6.500 
#    0.000    6.250    0.000    0.000    0.000    0.000 
#    0.000    0.000    0.000    0.000    0.000    0.000 
#
# Total GULP energy -178676.084653 kJ/mol
# GULP energy per Si atom -5583.627645 kJ/mol
# Density = 1.973642 g / cm^3
# Si number density = 19.781444 Si / 1000 Ang^3
#
#
#
# Elastic Constant Matrix: (Units=GPa)
#
#
# Indices 1 2 3 4 5 6 
#
# 1 135.5801 28.4835 49.7069 0.0000 0.0000 0.0000
# 2 28.4835 91.8995 17.4869 0.0000 0.0000 0.0000
# 3 49.7069 17.4869 50.9110 0.0000 0.0000 0.0000
# 4 0.0000 0.0000 0.0000 23.0656 0.0000 0.0000
# 5 0.0000 0.0000 0.0000 0.0000 29.2268 0.0000
# 6 0.0000 0.0000 0.0000 0.0000 0.0000 -19.0821
#
#
#
# Elastic Compliance Matrix: (Units=1/GPa)
#
#
# Indices 1 2 3 4 5 6 
#
# 1 0.011691 -0.001553 -0.010881 0.000000 0.000000 0.000000
# 2 -0.001553 0.011849 -0.002553 0.000000 0.000000 0.000000
# 3 -0.010881 -0.002553 0.031143 0.000000 0.000000 0.000000
# 4 0.000000 0.000000 0.000000 0.043355 0.000000 0.000000
# 5 0.000000 0.000000 0.000000 0.000000 0.034215 0.000000
# 6 0.000000 0.000000 0.000000 0.000000 0.000000 -0.052405
#
#
# Mechanical properties :
#
#
# Convention : Reuss Voigt Hill
#
# Bulk Modulus (GPa) = 40.47366 52.19392 46.33379
# Shear Modulus (GPa) = 42.35154 18.82295 30.58724
#
# Velocity S-wave (km/s) = 4.63208 3.08806 3.93652
# Velocity P-wave (km/s) = 7.00807 6.25759 6.64344
#
# Compressibility (1/GPa) = 0.02470743
#
# Stress axis : x y z
#
# Youngs Moduli (GPa) = 85.53318 84.39746 32.10979
#
# Poissons Ratio (x) = 0.13108 0.34940
# Poissons Ratio (y) = 0.13284 0.08199
# Poissons Ratio (z) = 0.93072 0.21550
#
# Static dielectric constant tensor:
#      x y z
#    x 1.682970 0.000000 0.000000 
#    y 0.000000 1.698330 0.000000 
#    z 0.000000 0.000000 1.710350 
# 
# From -- ./inp_files/21491.got.cif
#   From: 2010.05.17/outbox.cif.g08.bks.cpg/sg53_11_cif.got.tgz:21491.got - 2010.06.03 12:45:16.
