data_PCOD9417019
_publ_section_title
;
Structure prediction by ZEFSAII (Michael W. Deem and Ramdas Pophale) SiO2 
 PCOD9417019
Probable space group: P M N A
;
_chemical_formula_sum "Si O2"
_cell_formula_units_Z 40
_cell_length_a 8.474919
_cell_length_b 17.102664
_cell_length_c 14.707056
_cell_angle_alpha 90.000000
_cell_angle_beta 90.000000
_cell_angle_gamma 90.000000
_cell_volume 2131.694996
_symmetry_space_group_name_H-M "P M N A"
_symmetry_group_IT_number 53
_symmetry_cell_setting 'orthorhombic'
loop_
_space_group_symop_operation_xyz
x,y,z
1/2-x,-y,1/2+z
x,-y,-z
1/2-x,y,1/2-z
-x,-y,-z
1/2+x,y,1/2-z
-x,y,z
1/2+x,-y,1/2+z
loop_
_atom_site_type_symbol
_atom_site_label
_atom_site_fract_x
_atom_site_fract_y
_atom_site_fract_z
Si Si1 0.689599 0.062449 0.352669
Si Si2 0.809359 0.201658 0.015713
Si Si3 0.807703 0.378092 0.024727
Si Si4 0.687633 0.106430 0.852239
Si Si5 0.809631 0.478429 0.851986
O O1 0.750000 0.072034 0.250000
O O2 0.500000 0.059567 0.352913
O O3 0.743512 0.135300 0.413323
O O4 0.751466 0.978356 0.385666
O O5 0.752152 0.173238 0.917716
O O6 0.000000 0.202008 0.016487
O O7 0.754195 0.289283 0.037383
O O8 0.758187 0.438850 0.103133
O O9 0.000000 0.378277 0.025484
O O10 0.760367 0.413396 0.926524
O O11 0.750000 0.116177 0.750000
O O12 0.500000 0.105937 0.851623
O O13 0.750000 0.467117 0.750000
O O14 0.000000 0.478030 0.849701
#
# Coordination Sequence:
#
# PCOD9417019 Si02
#       5
#     8   8   8   8   8
#     4  10  20  34  53  75 102 137 175 214 256 304
#     4  10  20  35  54  76 104 137 172 212 258 304
#     4   8  17  34  53  74 103 137 169 201 247 309
#     4  11  22  36  54  75 102 136 174 215 257 304
#     4   9  17  33  56  77 100 134 170 204 248 300
#
# _framework density 18.764410999999999
#
# number of rings (size 3 to 8) (size 9 to 14) (size 15 to 20)
#    0.000    2.400    0.000    5.400    0.000    5.600 
#    0.000    6.000    0.000    0.000    0.000    0.000 
#    0.000    0.000    0.000    0.000    0.000    0.000 
#
# Total GULP energy -223224.869380 kJ/mol
# GULP energy per Si atom -5580.621734 kJ/mol
# Density = 1.872170 g / cm^3
# Si number density = 18.764411 Si / 1000 Ang^3
#
#
#
# Elastic Constant Matrix: (Units=GPa)
#
#
# Indices 1 2 3 4 5 6 
#
# 1 13.3933 -1.4414 -6.8877 0.0000 0.0000 0.0000
# 2 -1.4414 46.1234 -23.9479 0.0000 0.0000 0.0000
# 3 -6.8877 -23.9479 36.2224 0.0000 0.0000 0.0000
# 4 0.0000 0.0000 0.0000 12.0625 0.0000 0.0000
# 5 0.0000 0.0000 0.0000 0.0000 29.2665 0.0000
# 6 0.0000 0.0000 0.0000 0.0000 0.0000 13.6162
#
#
#
# Elastic Compliance Matrix: (Units=1/GPa)
#
#
# Indices 1 2 3 4 5 6 
#
# 1 0.091768 0.018163 0.029458 0.000000 0.000000 0.000000
# 2 0.018163 0.036608 0.027657 0.000000 0.000000 0.000000
# 3 0.029458 0.027657 0.051493 0.000000 0.000000 0.000000
# 4 0.000000 0.000000 0.000000 0.082901 0.000000 0.000000
# 5 0.000000 0.000000 0.000000 0.000000 0.034169 0.000000
# 6 0.000000 0.000000 0.000000 0.000000 0.000000 0.073442
#
#
# Mechanical properties :
#
#
# Convention : Reuss Voigt Hill
#
# Bulk Modulus (GPa) = 3.02642 3.46501 3.24572
# Shear Modulus (GPa) = 15.15293 19.52346 17.33819
#
# Velocity S-wave (km/s) = 2.84480 3.22910 3.04302
# Velocity P-wave (km/s) = 3.52234 3.96906 3.75235
#
# Compressibility (1/GPa) = 0.33042362
#
# Stress axis : x y z
#
# Youngs Moduli (GPa) = 10.89704 27.31623 19.41995
#
# Poissons Ratio (x) = -0.49613 -0.57207
# Poissons Ratio (y) = -0.19792 -0.53709
# Poissons Ratio (z) = -0.32100 -0.75548
#
# Static dielectric constant tensor:
#      x y z
#    x 1.640310 0.000000 0.000000 
#    y 0.000000 1.654320 0.000000 
#    z 0.000000 0.000000 1.632410 
# 
# From -- ./inp_files/19833.got.cif
#   From: 2010.05.17/outbox.cif.g08.bks.cpg/sg53_10_cif.got.tgz:19833.got - 2010.06.03 12:45:16.
