data_PCOD9417798
_publ_section_title
;
Structure prediction by ZEFSAII (Michael W. Deem and Ramdas Pophale) SiO2 
 PCOD9417798
Probable space group: P M N A
;
_chemical_formula_sum "Si O2"
_cell_formula_units_Z 32
_cell_length_a 17.763034
_cell_length_b 7.032844
_cell_length_c 9.560847
_cell_angle_alpha 90.000000
_cell_angle_beta 90.000000
_cell_angle_gamma 90.000000
_cell_volume 1194.385437
_symmetry_space_group_name_H-M "P M N A"
_symmetry_group_IT_number 53
_symmetry_cell_setting 'orthorhombic'
loop_
_space_group_symop_operation_xyz
x,y,z
1/2-x,-y,1/2+z
x,-y,-z
1/2-x,y,1/2-z
-x,-y,-z
1/2+x,y,1/2-z
-x,y,z
1/2+x,-y,1/2+z
loop_
_atom_site_type_symbol
_atom_site_label
_atom_site_fract_x
_atom_site_fract_y
_atom_site_fract_z
Si Si1 0.417814 0.259971 0.379602
Si Si2 0.083550 0.597952 0.346486
Si Si3 0.746286 0.318159 0.409630
Si Si4 0.369702 0.991051 0.145586
O O1 0.500000 0.263486 0.450515
O O2 0.413240 0.439128 0.273368
O O3 0.338245 0.263241 0.458634
O O4 0.410948 0.080461 0.277166
O O5 0.084948 0.500000 0.500000
O O6 0.000000 0.685377 0.333766
O O7 0.142419 0.768808 0.328440
O O8 0.768043 0.500000 0.500000
O O9 0.750000 0.389361 0.250000
O O10 0.799378 0.131653 0.391232
O O11 0.414332 0.000000 0.000000
#
# Coordination Sequence:
#
# PCOD9417798 Si02
#       4
#     8   8   8   8
#     4  10  22  42  67  99 138 183 235 286 348 419
#     4  10  20  36  63 101 139 179 225 285 355 415
#     4  10  25  47  69 105 140 189 237 290 346 419
#     4  11  22  37  66  99 140 177 229 291 354 405
#
# _framework density 26.792020000000001
#
# number of rings (size 3 to 8) (size 9 to 14) (size 15 to 20)
#    0.000    1.750    2.500    0.750    7.000    1.500 
#   13.500    0.000    0.000    0.750    0.000    0.000 
#    0.000    1.000    0.000    0.000    0.000    0.000 
#
# Total GULP energy -178836.754170 kJ/mol
# GULP energy per Si atom -5588.648568 kJ/mol
# Density = 2.673104 g / cm^3
# Si number density = 26.792020 Si / 1000 Ang^3
#
#
#
# Elastic Constant Matrix: (Units=GPa)
#
#
# Indices 1 2 3 4 5 6 
#
# 1 217.5366 51.0074 -11.9582 0.0000 0.0000 0.0000
# 2 51.0074 213.4993 36.0530 0.0000 0.0000 0.0000
# 3 -11.9582 36.0530 53.8759 0.0000 0.0000 0.0000
# 4 0.0000 0.0000 0.0000 37.8193 0.0000 0.0000
# 5 0.0000 0.0000 0.0000 0.0000 -14.5095 0.0000
# 6 0.0000 0.0000 0.0000 0.0000 0.0000 24.0712
#
#
#
# Elastic Compliance Matrix: (Units=1/GPa)
#
#
# Indices 1 2 3 4 5 6 
#
# 1 0.005089 -0.001586 0.002191 0.000000 0.000000 0.000000
# 2 -0.001586 0.005775 -0.004216 0.000000 0.000000 0.000000
# 3 0.002191 -0.004216 0.021869 0.000000 0.000000 0.000000
# 4 0.000000 0.000000 0.000000 0.026442 0.000000 0.000000
# 5 0.000000 0.000000 0.000000 0.000000 -0.068920 0.000000
# 6 0.000000 0.000000 0.000000 0.000000 0.000000 0.041544
#
#
# Mechanical properties :
#
#
# Convention : Reuss Voigt Hill
#
# Bulk Modulus (GPa) = 39.20011 70.56847 54.88429
# Shear Modulus (GPa) = 105.21072 36.79683 71.00377
#
# Velocity S-wave (km/s) = 6.27333 3.71000 5.15358
# Velocity P-wave (km/s) = 8.19365 6.68944 7.47946
#
# Compressibility (1/GPa) = 0.02551013
#
# Stress axis : x y z
#
# Youngs Moduli (GPa) = 196.49461 173.16821 45.72692
#
# Poissons Ratio (x) = 0.27461 -0.10018
# Poissons Ratio (y) = 0.31161 0.19280
# Poissons Ratio (z) = -0.43048 0.73014
#
# Static dielectric constant tensor:
#      x y z
#    x 2.279760 0.000000 0.000000 
#    y 0.000000 2.096130 0.000000 
#    z 0.000000 0.000000 2.163260 
# 
# From -- ./inp_files/16556.got.cif
#   From: 2010.05.17/outbox.cif.g08.bks.cpg/sg53_9_cif.got.tgz:16556.got - 2010.06.03 12:45:16.
