data_PCOD9417578
_publ_section_title
;
Structure prediction by ZEFSAII (Michael W. Deem and Ramdas Pophale) SiO2 
 PCOD9417578
Probable space group: P M N A
;
_chemical_formula_sum "Si O2"
_cell_formula_units_Z 48
_cell_length_a 17.736737
_cell_length_b 14.297024
_cell_length_c 8.178223
_cell_angle_alpha 90.000000
_cell_angle_beta 90.000000
_cell_angle_gamma 90.000000
_cell_volume 2073.854680
_symmetry_space_group_name_H-M "P M N A"
_symmetry_group_IT_number 53
_symmetry_cell_setting 'orthorhombic'
loop_
_space_group_symop_operation_xyz
x,y,z
1/2-x,-y,1/2+z
x,-y,-z
1/2-x,y,1/2-z
-x,-y,-z
1/2+x,y,1/2-z
-x,y,z
1/2+x,-y,1/2+z
loop_
_atom_site_type_symbol
_atom_site_label
_atom_site_fract_x
_atom_site_fract_y
_atom_site_fract_z
Si Si1 0.663061 0.869000 0.188828
Si Si2 0.673358 0.558747 0.167872
Si Si3 0.328151 0.057674 0.327912
Si Si4 0.412618 0.275759 0.999720
Si Si5 0.089441 0.778703 0.002150
Si Si6 0.912508 0.605481 0.833183
O O1 0.750000 0.861322 0.250000
O O2 0.641764 0.813645 0.025238
O O3 0.613375 0.816420 0.323392
O O4 0.642240 0.978032 0.204205
O O5 0.750000 0.593245 0.250000
O O6 0.618024 0.642469 0.118758
O O7 0.634014 0.485526 0.289850
O O8 0.688718 0.500000 0.000000
O O9 0.250000 0.089821 0.250000
O O10 0.379121 0.144646 0.375401
O O11 0.315256 0.000000 0.500000
O O12 0.500000 0.251577 0.967424
O O13 0.409925 0.325153 0.176112
O O14 0.118579 0.673714 0.972768
O O15 0.000000 0.774542 0.985763
O O16 0.000000 0.580427 0.860745
#
# Coordination Sequence:
#
# PCOD9417578 Si02
#       6
#     8   8   8   8   8   8
#     4  10  21  36  54  80 111 143 181 224 271 324
#     4  10  21  36  55  78 106 139 176 219 267 321
#     4   9  20  36  55  78 109 146 182 223 273 326
#     4  10  20  36  57  78 106 143 180 221 269 322
#     4  10  21  37  58  83 111 144 184 228 272 323
#     4   9  20  37  55  78 106 139 178 218 266 319
#
# _framework density 23.145303999999999
#
# number of rings (size 3 to 8) (size 9 to 14) (size 15 to 20)
#    0.000    2.333    0.000    1.500    0.000   14.333 
#    0.000    0.000    0.000    7.500    0.000    0.000 
#    0.000    0.000    0.000    0.000    0.000    0.000 
#
# Total GULP energy -268450.952177 kJ/mol
# GULP energy per Si atom -5592.728170 kJ/mol
# Density = 2.309262 g / cm^3
# Si number density = 23.145304 Si / 1000 Ang^3
#
#
#
# Elastic Constant Matrix: (Units=GPa)
#
#
# Indices 1 2 3 4 5 6 
#
# 1 65.0076 22.2559 12.9530 0.0000 0.0000 0.0000
# 2 22.2559 89.3684 27.7368 0.0000 0.0000 0.0000
# 3 12.9530 27.7368 47.4535 0.0000 0.0000 0.0000
# 4 0.0000 0.0000 0.0000 34.5338 0.0000 0.0000
# 5 0.0000 0.0000 0.0000 0.0000 7.2800 0.0000
# 6 0.0000 0.0000 0.0000 0.0000 0.0000 22.5902
#
#
#
# Elastic Compliance Matrix: (Units=1/GPa)
#
#
# Indices 1 2 3 4 5 6 
#
# 1 0.017087 -0.003430 -0.002659 0.000000 0.000000 0.000000
# 2 -0.003430 0.014358 -0.007456 0.000000 0.000000 0.000000
# 3 -0.002659 -0.007456 0.026157 0.000000 0.000000 0.000000
# 4 0.000000 0.000000 0.000000 0.028957 0.000000 0.000000
# 5 0.000000 0.000000 0.000000 0.000000 0.137362 0.000000
# 6 0.000000 0.000000 0.000000 0.000000 0.000000 0.044267
#
#
# Mechanical properties :
#
#
# Convention : Reuss Voigt Hill
#
# Bulk Modulus (GPa) = 32.77442 36.41345 34.59393
# Shear Modulus (GPa) = 16.36933 22.13971 19.25452
#
# Velocity S-wave (km/s) = 2.66229 3.09617 2.88739
# Velocity P-wave (km/s) = 4.86224 5.34307 5.10832
#
# Compressibility (1/GPa) = 0.03051160
#
# Stress axis : x y z
#
# Youngs Moduli (GPa) = 58.52422 69.64807 38.23037
#
# Poissons Ratio (x) = 0.23889 0.10167
# Poissons Ratio (y) = 0.20073 0.28505
# Poissons Ratio (z) = 0.15563 0.51930
#
# Static dielectric constant tensor:
#      x y z
#    x 1.792260 0.000000 0.000000 
#    y 0.000000 1.836570 0.000000 
#    z 0.000000 0.000000 1.995370 
# 
# From -- ./inp_files/9907.got.cif
#   From: 2010.05.17/outbox.cif.g08.bks.cpg/sg53_5_cif.got.tgz:9907.got - 2010.06.03 12:45:16.
