data_PCOD9417994
_publ_section_title
;
Structure prediction by ZEFSAII (Michael W. Deem and Ramdas Pophale) SiO2 
 PCOD9417994
Probable space group: P M N A
;
_chemical_formula_sum "Si O2"
_cell_formula_units_Z 40
_cell_length_a 9.612137
_cell_length_b 24.865259
_cell_length_c 9.285090
_cell_angle_alpha 90.000000
_cell_angle_beta 90.000000
_cell_angle_gamma 90.000000
_cell_volume 2219.213354
_symmetry_space_group_name_H-M "P M N A"
_symmetry_group_IT_number 53
_symmetry_cell_setting 'orthorhombic'
loop_
_space_group_symop_operation_xyz
x,y,z
1/2-x,-y,1/2+z
x,-y,-z
1/2-x,y,1/2-z
-x,-y,-z
1/2+x,y,1/2-z
-x,y,z
1/2+x,-y,1/2+z
loop_
_atom_site_type_symbol
_atom_site_label
_atom_site_fract_x
_atom_site_fract_y
_atom_site_fract_z
Si Si1 0.755901 0.365265 0.421440
Si Si2 0.668180 0.153107 0.600022
Si Si3 0.329836 0.259319 0.902229
Si Si4 0.000000 0.559158 0.930793
Si Si5 0.000000 0.445752 0.412341
Si Si6 0.835759 0.950473 0.897264
O O1 0.750000 0.354655 0.250000
O O2 0.789664 0.310111 0.500782
O O3 0.624510 0.400435 0.466334
O O4 0.873192 0.408421 0.451079
O O5 0.750000 0.140445 0.750000
O O6 0.500000 0.163053 0.622966
O O7 0.753106 0.205077 0.542304
O O8 0.680395 0.103931 0.489771
O O9 0.250000 0.267551 0.750000
O O10 0.500000 0.254428 0.890755
O O11 0.000000 0.546935 0.759644
O O12 0.000000 0.500000 0.000000
O O13 0.000000 0.500000 0.500000
O O14 0.750000 0.949339 0.750000
O O15 0.000000 0.957229 0.864417
O O16 0.793143 0.000000 0.000000
#
# Coordination Sequence:
#
# PCOD9417994 Si02
#       6
#     8   8   8   4   4   8
#     4  10  22  39  58  83 114 151 188 234 289 347
#     4  10  21  38  60  87 119 155 196 245 293 346
#     4  11  23  39  60  87 117 153 196 242 290 345
#     4  10  22  36  58  86 112 146 187 234 289 344
#     4  10  20  38  58  80 114 146 187 234 283 344
#     4  10  22  39  60  90 124 160 204 247 294 350
#
# _framework density 18.024405000000002
#
# number of rings (size 3 to 8) (size 9 to 14) (size 15 to 20)
#    0.000    1.800    1.000    3.600    2.800    4.400 
#    0.000    2.000    0.000    0.000    0.000    0.000 
#    0.000    0.000    0.000    0.000    0.000    0.000 
#
# Total GULP energy -222838.165912 kJ/mol
# GULP energy per Si atom -5570.954148 kJ/mol
# Density = 1.798338 g / cm^3
# Si number density = 18.024405 Si / 1000 Ang^3
#
#
#
# Elastic Constant Matrix: (Units=GPa)
#
#
# Indices 1 2 3 4 5 6 
#
# 1 185.1155 88.1045 62.2118 0.0000 0.0000 0.0000
# 2 88.1045 178.9140 85.5460 0.0000 0.0000 0.0000
# 3 62.2118 85.5460 71.0926 0.0000 0.0000 0.0000
# 4 0.0000 0.0000 0.0000 41.2234 0.0000 0.0000
# 5 0.0000 0.0000 0.0000 0.0000 46.8568 0.0000
# 6 0.0000 0.0000 0.0000 0.0000 0.0000 35.8478
#
#
#
# Elastic Compliance Matrix: (Units=1/GPa)
#
#
# Indices 1 2 3 4 5 6 
#
# 1 0.007790 -0.001358 -0.005183 0.000000 0.000000 0.000000
# 2 -0.001358 0.013399 -0.014934 0.000000 0.000000 0.000000
# 3 -0.005183 -0.014934 0.036572 0.000000 0.000000 0.000000
# 4 0.000000 0.000000 0.000000 0.024258 0.000000 0.000000
# 5 0.000000 0.000000 0.000000 0.000000 0.021342 0.000000
# 6 0.000000 0.000000 0.000000 0.000000 0.000000 0.027896
#
#
# Mechanical properties :
#
#
# Convention : Reuss Voigt Hill
#
# Bulk Modulus (GPa) = 67.51961 100.76072 84.14016
# Shear Modulus (GPa) = 27.91049 38.06958 32.99004
#
# Velocity S-wave (km/s) = 3.93935 4.60076 4.28284
# Velocity P-wave (km/s) = 7.63103 9.17858 8.44035
#
# Compressibility (1/GPa) = 0.01481051
#
# Stress axis : x y z
#
# Youngs Moduli (GPa) = 128.36622 74.63380 27.34317
#
# Poissons Ratio (x) = 0.10136 0.14172
# Poissons Ratio (y) = 0.17433 0.40835
# Poissons Ratio (z) = 0.66531 1.11461
#
# Static dielectric constant tensor:
#      x y z
#    x 1.590660 0.000000 0.000000 
#    y 0.000000 1.583440 0.000000 
#    z 0.000000 0.000000 1.614870 
# 
# From -- ./inp_files/6349.got.cif
#   From: 2010.05.17/outbox.cif.g08.bks.cpg/sg53_4_cif.got.tgz:6349.got - 2010.06.03 12:45:16.
