data_PCOD9417104
_publ_section_title
;
Structure prediction by ZEFSAII (Michael W. Deem and Ramdas Pophale) SiO2 
 PCOD9417104
Probable space group: P M N A
;
_chemical_formula_sum "Si O2"
_cell_formula_units_Z 48
_cell_length_a 8.486405
_cell_length_b 15.410121
_cell_length_c 19.882089
_cell_angle_alpha 90.000000
_cell_angle_beta 90.000000
_cell_angle_gamma 90.000000
_cell_volume 2600.110567
_symmetry_space_group_name_H-M "P M N A"
_symmetry_group_IT_number 53
_symmetry_cell_setting 'orthorhombic'
loop_
_space_group_symop_operation_xyz
x,y,z
1/2-x,-y,1/2+z
x,-y,-z
1/2-x,y,1/2-z
-x,-y,-z
1/2+x,y,1/2-z
-x,y,z
1/2+x,-y,1/2+z
loop_
_atom_site_type_symbol
_atom_site_label
_atom_site_fract_x
_atom_site_fract_y
_atom_site_fract_z
Si Si1 0.809473 0.109604 0.325886
Si Si2 0.811362 0.368352 0.823951
Si Si3 0.192223 0.961325 0.427752
Si Si4 0.311393 0.432292 0.324061
Si Si5 0.309713 0.277125 0.087921
Si Si6 0.690627 0.236818 0.935840
O O1 0.750000 0.109581 0.250000
O O2 0.758203 0.195689 0.366267
O O3 0.000000 0.109676 0.325199
O O4 0.756965 0.025371 0.368259
O O5 0.750000 0.343604 0.750000
O O6 0.759508 0.468209 0.836562
O O7 0.750040 0.303914 0.880634
O O8 0.000000 0.367089 0.823233
O O9 0.243154 0.861800 0.421085
O O10 0.000000 0.961485 0.427943
O O11 0.240857 0.000000 0.500000
O O12 0.250000 0.406845 0.250000
O O13 0.500000 0.430232 0.323134
O O14 0.249608 0.365519 0.379092
O O15 0.500000 0.277529 0.088143
O O16 0.258027 0.263105 0.011086
O O17 0.500000 0.237113 0.935259
#
# Coordination Sequence:
#
# PCOD9417104 Si02
#       6
#     8   8   8   8   8   8
#     4  10  20  34  54  81 111 144 183 225 271 324
#     4  10  22  40  59  80 109 145 185 231 280 331
#     4   9  16  33  58  79 105 145 187 223 265 321
#     4  10  21  37  57  79 108 147 186 227 279 331
#     4  10  20  34  55  83 113 146 184 224 271 330
#     4  10  20  35  59  86 110 145 188 228 273 326
#
# _framework density 18.460754000000001
#
# number of rings (size 3 to 8) (size 9 to 14) (size 15 to 20)
#    0.000    2.167    1.667    1.500    0.000    6.000 
#    0.000    5.833    0.000    1.000    0.000    0.000 
#    0.000    0.000    0.000    0.000    0.000    0.000 
#
# Total GULP energy -267991.398789 kJ/mol
# GULP energy per Si atom -5583.154141 kJ/mol
# Density = 1.841874 g / cm^3
# Si number density = 18.460754 Si / 1000 Ang^3
#
#
#
# Elastic Constant Matrix: (Units=GPa)
#
#
# Indices 1 2 3 4 5 6 
#
# 1 11.0026 24.0617 27.2285 0.0000 0.0000 0.0000
# 2 24.0617 145.7091 121.6181 0.0000 0.0000 0.0000
# 3 27.2285 121.6181 193.5178 0.0000 0.0000 0.0000
# 4 0.0000 0.0000 0.0000 41.6612 0.0000 0.0000
# 5 0.0000 0.0000 0.0000 0.0000 32.2946 0.0000
# 6 0.0000 0.0000 0.0000 0.0000 0.0000 16.6462
#
#
#
# Elastic Compliance Matrix: (Units=1/GPa)
#
#
# Indices 1 2 3 4 5 6 
#
# 1 0.154457 -0.015495 -0.011995 0.000000 0.000000 0.000000
# 2 -0.015495 0.015989 -0.007868 0.000000 0.000000 0.000000
# 3 -0.011995 -0.007868 0.011800 0.000000 0.000000 0.000000
# 4 0.000000 0.000000 0.000000 0.024003 0.000000 0.000000
# 5 0.000000 0.000000 0.000000 0.000000 0.030965 0.000000
# 6 0.000000 0.000000 0.000000 0.000000 0.000000 0.060074
#
#
# Mechanical properties :
#
#
# Convention : Reuss Voigt Hill
#
# Bulk Modulus (GPa) = 8.96613 77.33843 43.15228
# Shear Modulus (GPa) = 12.34016 29.94181 21.14098
#
# Velocity S-wave (km/s) = 2.58825 4.03167 3.38773
# Velocity P-wave (km/s) = 3.71476 7.97853 6.22320
#
# Compressibility (1/GPa) = 0.11153082
#
# Stress axis : x y z
#
# Youngs Moduli (GPa) = 6.47428 62.54229 84.74474
#
# Poissons Ratio (x) = 0.96908 1.01649
# Poissons Ratio (y) = 0.10032 0.66681
# Poissons Ratio (z) = 0.07766 0.49211
#
# Static dielectric constant tensor:
#      x y z
#    x 1.639450 0.000000 0.000000 
#    y 0.000000 1.630630 0.000000 
#    z 0.000000 0.000000 1.598180 
# 
# From -- ./inp_files/26151.got.cif
#   From: 2010.05.17/outbox.cif.g08.bks.cpg/sg53_14_cif.got.tgz:26151.got - 2010.06.03 12:45:16.
