data_PCOD9417981
_publ_section_title
;
Structure prediction by ZEFSAII (Michael W. Deem and Ramdas Pophale) SiO2 
 PCOD9417981
Probable space group: P M N A
;
_chemical_formula_sum "Si O2"
_cell_formula_units_Z 56
_cell_length_a 17.641750
_cell_length_b 14.429531
_cell_length_c 11.254506
_cell_angle_alpha 90.000000
_cell_angle_beta 90.000000
_cell_angle_gamma 90.000000
_cell_volume 2864.971566
_symmetry_space_group_name_H-M "P M N A"
_symmetry_group_IT_number 53
_symmetry_cell_setting 'orthorhombic'
loop_
_space_group_symop_operation_xyz
x,y,z
1/2-x,-y,1/2+z
x,-y,-z
1/2-x,y,1/2-z
-x,-y,-z
1/2+x,y,1/2-z
-x,y,z
1/2+x,-y,1/2+z
loop_
_atom_site_type_symbol
_atom_site_label
_atom_site_fract_x
_atom_site_fract_y
_atom_site_fract_z
Si Si1 0.354606 0.321606 0.592295
Si Si2 0.669198 0.214368 0.185805
Si Si3 0.089218 0.361203 0.167907
Si Si4 0.322589 0.310189 0.930750
Si Si5 0.909708 0.826302 0.251688
Si Si6 0.411272 0.976177 0.860224
Si Si7 0.910560 0.544200 0.299666
O O1 0.373050 0.356502 0.460905
O O2 0.264392 0.321816 0.607379
O O3 0.384823 0.218631 0.626101
O O4 0.395258 0.388975 0.686437
O O5 0.750000 0.218043 0.250000
O O6 0.608108 0.266064 0.267155
O O7 0.642110 0.110091 0.165636
O O8 0.674201 0.270619 0.062886
O O9 0.116445 0.444195 0.253888
O O10 0.000000 0.375181 0.150705
O O11 0.364673 0.234534 0.848382
O O12 0.365808 0.406673 0.906410
O O13 0.000000 0.813095 0.266867
O O14 0.893546 0.933547 0.280115
O O15 0.500000 0.952124 0.840414
O O16 0.404033 0.000000 0.000000
O O17 0.000000 0.541025 0.326585
#
# Coordination Sequence:
#
# PCOD9417981 Si02
#       7
#     8   8   8   8   8   8   8
#     4  11  21  39  62  94 129 166 203 253 314 383
#     4  12  25  42  59  91 129 166 207 258 325 382
#     4  11  24  42  63  89 128 171 207 252 312 377
#     4  11  22  39  62  92 125 160 211 262 315 371
#     4  10  20  37  66  96 121 158 213 266 315 372
#     4  10  21  40  66  92 118 159 213 266 316 371
#     4  10  22  40  65  94 120 161 217 261 306 368
#
# _framework density 19.54644
#
# number of rings (size 3 to 8) (size 9 to 14) (size 15 to 20)
#    0.000    1.286    2.857    5.143    0.000    5.714 
#    2.571    2.143    0.000    2.571    0.000    0.000 
#    0.000    0.000    0.000    0.000    0.000    0.000 
#
# Total GULP energy -312851.235916 kJ/mol
# GULP energy per Si atom -5586.629213 kJ/mol
# Density = 1.950195 g / cm^3
# Si number density = 19.546440 Si / 1000 Ang^3
#
#
#
# Elastic Constant Matrix: (Units=GPa)
#
#
# Indices 1 2 3 4 5 6 
#
# 1 86.0755 49.4603 40.9465 0.0000 0.0000 0.0000
# 2 49.4603 118.4249 49.4529 0.0000 0.0000 0.0000
# 3 40.9465 49.4529 63.6132 0.0000 0.0000 0.0000
# 4 0.0000 0.0000 0.0000 29.2946 0.0000 0.0000
# 5 0.0000 0.0000 0.0000 0.0000 6.7248 0.0000
# 6 0.0000 0.0000 0.0000 0.0000 0.0000 -23.5227
#
#
#
# Elastic Compliance Matrix: (Units=1/GPa)
#
#
# Indices 1 2 3 4 5 6 
#
# 1 0.017910 -0.003948 -0.008460 0.000000 0.000000 0.000000
# 2 -0.003948 0.013373 -0.007855 0.000000 0.000000 0.000000
# 3 -0.008460 -0.007855 0.027272 0.000000 0.000000 0.000000
# 4 0.000000 0.000000 0.000000 0.034136 0.000000 0.000000
# 5 0.000000 0.000000 0.000000 0.000000 0.148704 0.000000
# 6 0.000000 0.000000 0.000000 0.000000 0.000000 -0.042512
#
#
# Mechanical properties :
#
#
# Convention : Reuss Voigt Hill
#
# Bulk Modulus (GPa) = 55.46187 60.87035 58.16611
# Shear Modulus (GPa) = 20.37332 11.04960 15.71146
#
# Velocity S-wave (km/s) = 3.23198 2.38018 2.83822
# Velocity P-wave (km/s) = 6.50873 6.22597 6.36892
#
# Compressibility (1/GPa) = 0.01803040
#
# Stress axis : x y z
#
# Youngs Moduli (GPa) = 55.83355 74.77655 36.66767
#
# Poissons Ratio (x) = 0.29519 0.31020
# Poissons Ratio (y) = 0.22041 0.28803
# Poissons Ratio (z) = 0.47233 0.58739
#
# Static dielectric constant tensor:
#      x y z
#    x 1.656010 0.000000 0.000000 
#    y 0.000000 1.689820 0.000000 
#    z 0.000000 0.000000 1.694450 
# 
# From -- ./inp_files/16026.got.cif
#   From: 2010.05.17/outbox.cif.g08.bks.cpg/sg53_9_cif.got.tgz:16026.got - 2010.06.03 12:45:16.
