data_PCOD9417243
_publ_section_title
;
Structure prediction by ZEFSAII (Michael W. Deem and Ramdas Pophale) SiO2 
 PCOD9417243
Probable space group: P M N A
;
_chemical_formula_sum "Si O2"
_cell_formula_units_Z 56
_cell_length_a 8.141080
_cell_length_b 17.297745
_cell_length_c 22.186681
_cell_angle_alpha 90.000000
_cell_angle_beta 90.000000
_cell_angle_gamma 90.000000
_cell_volume 3124.380022
_symmetry_space_group_name_H-M "P M N A"
_symmetry_group_IT_number 53
_symmetry_cell_setting 'orthorhombic'
loop_
_space_group_symop_operation_xyz
x,y,z
1/2-x,-y,1/2+z
x,-y,-z
1/2-x,y,1/2-z
-x,-y,-z
1/2+x,y,1/2-z
-x,y,z
1/2+x,-y,1/2+z
loop_
_atom_site_type_symbol
_atom_site_label
_atom_site_fract_x
_atom_site_fract_y
_atom_site_fract_z
Si Si1 0.304967 0.143519 0.318086
Si Si2 0.304015 0.541130 0.438464
Si Si3 0.699160 0.700427 0.620802
Si Si4 0.804245 0.298898 0.516124
Si Si5 0.302195 0.544032 0.682440
Si Si6 0.799437 0.123846 0.525062
Si Si7 0.302853 0.024893 0.090954
O O1 0.250000 0.151013 0.250000
O O2 0.500000 0.147303 0.320923
O O3 0.239594 0.216664 0.356085
O O4 0.249675 0.063444 0.347391
O O5 0.238757 0.500000 0.500000
O O6 0.500000 0.527509 0.438540
O O7 0.270679 0.631928 0.445190
O O8 0.241994 0.506627 0.374907
O O9 0.500000 0.700834 0.618055
O O10 0.762538 0.685378 0.553771
O O11 0.748663 0.631869 0.665941
O O12 0.742676 0.211928 0.530312
O O13 0.000000 0.300179 0.523884
O O14 0.250000 0.522207 0.750000
O O15 0.500000 0.541361 0.681869
O O16 0.746777 0.083022 0.462500
O O17 0.000000 0.126241 0.524325
O O18 0.747454 0.061987 0.575729
O O19 0.500000 0.023954 0.088092
#
# Coordination Sequence:
#
# PCOD9417243 Si02
#       7
#     8   8   8   8   8   8   8
#     4  11  22  33  49  74 106 141 177 213 255 308
#     4  10  20  37  56  74 106 146 178 212 267 324
#     4  10  20  35  51  73 107 145 175 205 259 321
#     4  11  20  31  53  83 109 133 173 222 262 304
#     4  10  21  37  56  75 102 141 179 217 260 314
#     4   8  16  30  51  76 101 132 163 205 261 305
#     4   9  16  32  53  71  99 135 171 206 250 306
#
# _framework density 17.923555
#
# number of rings (size 3 to 8) (size 9 to 14) (size 15 to 20)
#    0.000    2.143    2.857    2.143    0.000    2.000 
#    0.000    2.857    0.000    0.857    0.000    2.000 
#    0.000    0.000    0.000    0.000    0.000    0.000 
#
# Total GULP energy -312310.112396 kJ/mol
# GULP energy per Si atom -5576.966293 kJ/mol
# Density = 1.788276 g / cm^3
# Si number density = 17.923555 Si / 1000 Ang^3
#
#
#
# Elastic Constant Matrix: (Units=GPa)
#
#
# Indices 1 2 3 4 5 6 
#
# 1 4.9708 3.6596 8.3940 0.0000 0.0000 0.0000
# 2 3.6596 108.6700 54.7782 0.0000 0.0000 0.0000
# 3 8.3940 54.7782 106.0841 0.0000 0.0000 0.0000
# 4 0.0000 0.0000 0.0000 30.5849 0.0000 0.0000
# 5 0.0000 0.0000 0.0000 0.0000 10.1895 0.0000
# 6 0.0000 0.0000 0.0000 0.0000 0.0000 24.8488
#
#
#
# Elastic Compliance Matrix: (Units=1/GPa)
#
#
# Indices 1 2 3 4 5 6 
#
# 1 0.232508 0.001952 -0.019405 0.000000 0.000000 0.000000
# 2 0.001952 0.012457 -0.006587 0.000000 0.000000 0.000000
# 3 -0.019405 -0.006587 0.014363 0.000000 0.000000 0.000000
# 4 0.000000 0.000000 0.000000 0.032696 0.000000 0.000000
# 5 0.000000 0.000000 0.000000 0.000000 0.098140 0.000000
# 6 0.000000 0.000000 0.000000 0.000000 0.000000 0.040243
#
#
# Mechanical properties :
#
#
# Convention : Reuss Voigt Hill
#
# Bulk Modulus (GPa) = 4.73378 39.26536 21.99957
# Shear Modulus (GPa) = 9.10908 23.31752 16.21330
#
# Velocity S-wave (km/s) = 2.25682 3.61077 3.01089
# Velocity P-wave (km/s) = 3.07210 6.27202 4.93842
#
# Compressibility (1/GPa) = 0.21124747
#
# Stress axis : x y z
#
# Youngs Moduli (GPa) = 4.30093 80.27874 69.62331
#
# Poissons Ratio (x) = -0.15669 1.35105
# Poissons Ratio (y) = -0.00839 0.45858
# Poissons Ratio (z) = 0.08346 0.52876
#
# Static dielectric constant tensor:
#      x y z
#    x 1.633030 0.000000 0.000000 
#    y 0.000000 1.639350 0.000000 
#    z 0.000000 0.000000 1.596440 
# 
# From -- ./inp_files/31021.got.cif
#   From: 2010.05.17/outbox.cif.g08.bks.cpg/sg53_16_cif.got.tgz:31021.got - 2010.06.03 12:45:16.
