data_PCOD9417312
_publ_section_title
;
Structure prediction by ZEFSAII (Michael W. Deem and Ramdas Pophale) SiO2 
 PCOD9417312
Probable space group: P M N A
;
_chemical_formula_sum "Si O2"
_cell_formula_units_Z 32
_cell_length_a 8.607226
_cell_length_b 21.314230
_cell_length_c 9.334491
_cell_angle_alpha 90.000000
_cell_angle_beta 90.000000
_cell_angle_gamma 90.000000
_cell_volume 1712.472065
_symmetry_space_group_name_H-M "P M N A"
_symmetry_group_IT_number 53
_symmetry_cell_setting 'orthorhombic'
loop_
_space_group_symop_operation_xyz
x,y,z
1/2-x,-y,1/2+z
x,-y,-z
1/2-x,y,1/2-z
-x,-y,-z
1/2+x,y,1/2-z
-x,y,z
1/2+x,-y,1/2+z
loop_
_atom_site_type_symbol
_atom_site_label
_atom_site_fract_x
_atom_site_fract_y
_atom_site_fract_z
Si Si1 0.813446 0.805968 0.911534
Si Si2 0.813596 0.061033 0.410511
Si Si3 0.812237 0.438571 0.088922
Si Si4 0.812364 0.683824 0.089388
O O1 0.750000 0.797621 0.750000
O O2 0.752018 0.872905 0.967034
O O3 0.000000 0.807729 0.905060
O O4 0.764054 0.747934 0.010301
O O5 0.750000 0.054586 0.250000
O O6 0.000000 0.064625 0.407504
O O7 0.766685 0.000000 0.500000
O O8 0.750000 0.439677 0.250000
O O9 0.000000 0.438514 0.094574
O O10 0.762815 0.500000 0.000000
O O11 0.761880 0.376054 0.004500
O O12 0.750000 0.680172 0.250000
O O13 0.000000 0.683170 0.094297
#
# Coordination Sequence:
#
# PCOD9417312 Si02
#       4
#     8   8   8   8
#     4  10  20  35  55  78 105 138 177 219 264 316
#     4  10  21  36  55  79 106 138 176 217 264 317
#     4  10  21  37  57  82 111 143 181 222 265 315
#     4  10  22  37  54  80 110 141 179 221 265 315
#
# _framework density 18.686436
#
# number of rings (size 3 to 8) (size 9 to 14) (size 15 to 20)
#    0.000    2.000    0.000    4.500    0.000    6.500 
#    0.000    5.000    0.000    0.000    0.000    0.000 
#    0.000    0.000    0.000    0.000    0.000    0.000 
#
# Total GULP energy -178741.852294 kJ/mol
# GULP energy per Si atom -5585.682884 kJ/mol
# Density = 1.864390 g / cm^3
# Si number density = 18.686436 Si / 1000 Ang^3
#
#
#
# Elastic Constant Matrix: (Units=GPa)
#
#
# Indices 1 2 3 4 5 6 
#
# 1 28.4231 43.4787 27.4856 0.0000 0.0000 0.0000
# 2 43.4787 230.3424 122.2534 0.0000 0.0000 0.0000
# 3 27.4856 122.2534 142.3323 0.0000 0.0000 0.0000
# 4 0.0000 0.0000 0.0000 43.0710 0.0000 0.0000
# 5 0.0000 0.0000 0.0000 0.0000 31.7018 0.0000
# 6 0.0000 0.0000 0.0000 0.0000 0.0000 -6.1514
#
#
#
# Elastic Compliance Matrix: (Units=1/GPa)
#
#
# Indices 1 2 3 4 5 6 
#
# 1 0.050087 -0.007941 -0.002852 0.000000 0.000000 0.000000
# 2 -0.007941 0.009238 -0.006401 0.000000 0.000000 0.000000
# 3 -0.002852 -0.006401 0.013074 0.000000 0.000000 0.000000
# 4 0.000000 0.000000 0.000000 0.023217 0.000000 0.000000
# 5 0.000000 0.000000 0.000000 0.000000 0.031544 0.000000
# 6 0.000000 0.000000 0.000000 0.000000 0.000000 -0.162564
#
#
# Mechanical properties :
#
#
# Convention : Reuss Voigt Hill
#
# Bulk Modulus (GPa) = 26.30723 87.50370 56.90547
# Shear Modulus (GPa) = 429.03173 27.58295 228.30734
#
# Velocity S-wave (km/s) = 15.16884 3.84617 11.06541
# Velocity P-wave (km/s) = 17.91369 8.16413 13.92037
#
# Compressibility (1/GPa) = 0.03801236
#
# Stress axis : x y z
#
# Youngs Moduli (GPa) = 19.96517 108.25421 76.48502
#
# Poissons Ratio (x) = 0.85962 0.21811
# Poissons Ratio (y) = 0.15854 0.48958
# Poissons Ratio (z) = 0.05693 0.69293
#
# Static dielectric constant tensor:
#      x y z
#    x 1.636730 0.000000 0.000000 
#    y 0.000000 1.657130 0.000000 
#    z 0.000000 0.000000 1.597650 
# 
# From -- ./inp_files/6027.got.cif
#   From: 2010.05.17/outbox.cif.g08.bks.cpg/sg53_4_cif.got.tgz:6027.got - 2010.06.03 12:45:16.
