data_PCOD9417939
_publ_section_title
;
Structure prediction by ZEFSAII (Michael W. Deem and Ramdas Pophale) SiO2 
 PCOD9417939
Probable space group: P M N A
;
_chemical_formula_sum "Si O2"
_cell_formula_units_Z 64
_cell_length_a 8.616272
_cell_length_b 24.347519
_cell_length_c 15.850158
_cell_angle_alpha 90.000000
_cell_angle_beta 90.000000
_cell_angle_gamma 90.000000
_cell_volume 3325.122959
_symmetry_space_group_name_H-M "P M N A"
_symmetry_group_IT_number 53
_symmetry_cell_setting 'orthorhombic'
loop_
_space_group_symop_operation_xyz
x,y,z
1/2-x,-y,1/2+z
x,-y,-z
1/2-x,y,1/2-z
-x,-y,-z
1/2+x,y,1/2-z
-x,y,z
1/2+x,-y,1/2+z
loop_
_atom_site_type_symbol
_atom_site_label
_atom_site_fract_x
_atom_site_fract_y
_atom_site_fract_z
Si Si1 0.814694 0.884026 0.339909
Si Si2 0.313551 0.685634 0.001156
Si Si3 0.813402 0.620308 0.840668
Si Si4 0.314163 0.119610 0.340590
Si Si5 0.686464 0.618136 0.340289
Si Si6 0.187389 0.813453 0.501355
Si Si7 0.313141 0.999143 0.400627
Si Si8 0.188651 0.499124 0.097906
O O1 0.750000 0.865448 0.250000
O O2 0.760698 0.846485 0.418033
O O3 0.000000 0.882411 0.337223
O O4 0.760836 0.946194 0.357722
O O5 0.500000 0.681806 0.001348
O O6 0.247745 0.654480 0.082702
O O7 0.268901 0.749669 0.003076
O O8 0.248514 0.657012 0.917167
O O9 0.750000 0.638111 0.750000
O O10 0.761234 0.557348 0.858608
O O11 0.000000 0.621667 0.840681
O O12 0.250000 0.136891 0.250000
O O13 0.500000 0.120523 0.339612
O O14 0.254517 0.157518 0.416052
O O15 0.263716 0.056786 0.359900
O O16 0.750000 0.636600 0.250000
O O17 0.500000 0.619307 0.340190
O O18 0.738895 0.555110 0.357221
O O19 0.000000 0.816655 0.505090
O O20 0.500000 0.994734 0.394045
O O21 0.273102 0.000000 0.500000
O O22 0.000000 0.499037 0.097814
O O23 0.238297 0.500000 0.000000
#
# Coordination Sequence:
#
# PCOD9417939 Si02
#       8
#     8   8   8   8   8   8   8   8
#     4  11  23  39  62  90 120 157 197 242 296 353
#     4  11  24  43  63  87 119 157 205 255 301 354
#     4  11  22  39  63  91 123 159 199 244 300 359
#     4  11  23  39  63  91 123 158 196 242 295 355
#     4  11  22  39  63  91 124 160 198 245 299 358
#     4  10  24  44  63  85 117 156 203 253 298 348
#     4  10  20  37  61  92 125 156 192 238 294 355
#     4   9  17  34  60  89 122 157 194 241 297 358
#
# _framework density 19.247409000000001
#
# number of rings (size 3 to 8) (size 9 to 14) (size 15 to 20)
#    0.000    1.500    2.500    2.625    0.000    4.750 
#    0.000    3.750    0.000    0.000    0.000    0.000 
#    0.000    0.000    0.000    0.000    0.000    0.000 
#
# Total GULP energy -357802.236541 kJ/mol
# GULP energy per Si atom -5590.659946 kJ/mol
# Density = 1.920360 g / cm^3
# Si number density = 19.247409 Si / 1000 Ang^3
#
#
#
# Elastic Constant Matrix: (Units=GPa)
#
#
# Indices 1 2 3 4 5 6 
#
# 1 40.0049 41.4256 43.5974 0.0000 0.0000 0.0000
# 2 41.4256 146.1885 84.3161 0.0000 0.0000 0.0000
# 3 43.5974 84.3161 198.5460 0.0000 0.0000 0.0000
# 4 0.0000 0.0000 0.0000 -4.8455 0.0000 0.0000
# 5 0.0000 0.0000 0.0000 0.0000 32.3974 0.0000
# 6 0.0000 0.0000 0.0000 0.0000 0.0000 64.9675
#
#
#
# Elastic Compliance Matrix: (Units=1/GPa)
#
#
# Indices 1 2 3 4 5 6 
#
# 1 0.038947 -0.008084 -0.005119 0.000000 0.000000 0.000000
# 2 -0.008084 0.010737 -0.002785 0.000000 0.000000 0.000000
# 3 -0.005119 -0.002785 0.007343 0.000000 0.000000 0.000000
# 4 0.000000 0.000000 0.000000 -0.206376 0.000000 0.000000
# 5 0.000000 0.000000 0.000000 0.000000 0.030867 0.000000
# 6 0.000000 0.000000 0.000000 0.000000 0.000000 0.015392
#
#
# Mechanical properties :
#
#
# Convention : Reuss Voigt Hill
#
# Bulk Modulus (GPa) = 39.91710 80.37974 60.14842
# Shear Modulus (GPa) = -79.66436 32.86390 -23.40023
#
# Velocity S-wave (km/s) = -6.44046 4.13661 -3.49056
# Velocity P-wave (km/s) = 5.87555 8.04160 3.88235
#
# Compressibility (1/GPa) = 0.02505192
#
# Stress axis : x y z
#
# Youngs Moduli (GPa) = 25.67614 93.13298 136.17925
#
# Poissons Ratio (x) = 0.75287 0.69711
# Poissons Ratio (y) = 0.20756 0.37922
# Poissons Ratio (z) = 0.13144 0.25935
#
# Static dielectric constant tensor:
#      x y z
#    x 1.646930 0.000000 0.000000 
#    y 0.000000 1.656130 0.000000 
#    z 0.000000 0.000000 1.647460 
# 
# From -- ./inp_files/20877.got.cif
#   From: 2010.05.17/outbox.cif.g08.bks.cpg/sg53_11_cif.got.tgz:20877.got - 2010.06.03 12:45:16.
