data_PCOD9417771
_publ_section_title
;
Structure prediction by ZEFSAII (Michael W. Deem and Ramdas Pophale) SiO2 
 PCOD9417771
Probable space group: P M N A
;
_chemical_formula_sum "Si O2"
_cell_formula_units_Z 28
_cell_length_a 16.154062
_cell_length_b 13.658397
_cell_length_c 5.122520
_cell_angle_alpha 90.000000
_cell_angle_beta 90.000000
_cell_angle_gamma 90.000000
_cell_volume 1130.225600
_symmetry_space_group_name_H-M "P M N A"
_symmetry_group_IT_number 53
_symmetry_cell_setting 'orthorhombic'
loop_
_space_group_symop_operation_xyz
x,y,z
1/2-x,-y,1/2+z
x,-y,-z
1/2-x,y,1/2-z
-x,-y,-z
1/2+x,y,1/2-z
-x,y,z
1/2+x,-y,1/2+z
loop_
_atom_site_type_symbol
_atom_site_label
_atom_site_fract_x
_atom_site_fract_y
_atom_site_fract_z
Si Si1 0.000000 0.568676 0.255674
Si Si2 0.402113 0.214020 0.326941
Si Si3 0.829083 0.613512 0.085803
Si Si4 0.096951 0.088644 0.675328
O O1 0.000000 0.500000 0.500000
O O2 0.086498 0.623339 0.251228
O O3 0.000000 0.500000 0.000000
O O4 0.500000 0.235138 0.380381
O O5 0.347470 0.310670 0.356890
O O6 0.374798 0.132113 0.544850
O O7 0.398384 0.174179 0.036329
O O8 0.750000 0.641025 0.250000
O O9 0.820073 0.500000 0.000000
O O10 0.000000 0.061085 0.721604
O O11 0.134554 0.000000 0.500000
#
# Coordination Sequence:
#
# PCOD9417771 Si02
#       4
#     4   8   8   8
#     4  10  22  40  62  86 119 164 215 266 316 376
#     4  10  20  36  60  92 126 167 208 259 320 380
#     4  11  24  42  63  94 130 176 219 270 324 389
#     4   9  18  34  60  93 127 162 207 257 317 387
#
# _framework density 24.773816
#
# number of rings (size 3 to 8) (size 9 to 14) (size 15 to 20)
#    0.000    2.000    1.429    1.714    0.000   10.286 
#    0.000    0.000    0.000    3.429    0.000    0.000 
#    0.000    0.000    0.000    0.286    0.000    0.000 
#
# Total GULP energy -156572.138949 kJ/mol
# GULP energy per Si atom -5591.862105 kJ/mol
# Density = 2.471743 g / cm^3
# Si number density = 24.773816 Si / 1000 Ang^3
#
#
#
# Elastic Constant Matrix: (Units=GPa)
#
#
# Indices 1 2 3 4 5 6 
#
# 1 112.8114 7.1244 19.3881 0.0000 0.0000 0.0000
# 2 7.1244 94.4076 13.7243 0.0000 0.0000 0.0000
# 3 19.3881 13.7243 128.1897 0.0000 0.0000 0.0000
# 4 0.0000 0.0000 0.0000 44.8175 0.0000 0.0000
# 5 0.0000 0.0000 0.0000 0.0000 16.5613 0.0000
# 6 0.0000 0.0000 0.0000 0.0000 0.0000 -10.8113
#
#
#
# Elastic Compliance Matrix: (Units=1/GPa)
#
#
# Indices 1 2 3 4 5 6 
#
# 1 0.009124 -0.000496 -0.001327 0.000000 0.000000 0.000000
# 2 -0.000496 0.010787 -0.001080 0.000000 0.000000 0.000000
# 3 -0.001327 -0.001080 0.008117 0.000000 0.000000 0.000000
# 4 0.000000 0.000000 0.000000 0.022313 0.000000 0.000000
# 5 0.000000 0.000000 0.000000 0.000000 0.060382 0.000000
# 6 0.000000 0.000000 0.000000 0.000000 0.000000 -0.092496
#
#
# Mechanical properties :
#
#
# Convention : Reuss Voigt Hill
#
# Bulk Modulus (GPa) = 44.99856 46.20915 45.60385
# Shear Modulus (GPa) = 159.03940 29.79161 94.41551
#
# Velocity S-wave (km/s) = 8.02097 3.47153 6.18011
# Velocity P-wave (km/s) = 10.19728 5.89590 8.32905
#
# Compressibility (1/GPa) = 0.02222294
#
# Stress axis : x y z
#
# Youngs Moduli (GPa) = 109.60476 92.70621 123.19465
#
# Poissons Ratio (x) = 0.04595 0.16346
# Poissons Ratio (y) = 0.05432 0.13304
# Poissons Ratio (z) = 0.14543 0.10011
#
# Static dielectric constant tensor:
#      x y z
#    x 1.949680 0.000000 0.000000 
#    y 0.000000 2.045270 0.000000 
#    z 0.000000 0.000000 1.854580 
# 
# From -- ./inp_files/2541.got.cif
#   From: 2010.05.17/outbox.cif.g08.bks.cpg/sg53_2_cif.got.tgz:2541.got - 2010.06.03 12:45:16.
