data_PCOD9417067
_publ_section_title
;
Structure prediction by ZEFSAII (Michael W. Deem and Ramdas Pophale) SiO2 
 PCOD9417067
Probable space group: P M N A
;
_chemical_formula_sum "Si O2"
_cell_formula_units_Z 64
_cell_length_a 7.785764
_cell_length_b 22.525293
_cell_length_c 18.439075
_cell_angle_alpha 90.000000
_cell_angle_beta 90.000000
_cell_angle_gamma 90.000000
_cell_volume 3233.782563
_symmetry_space_group_name_H-M "P M N A"
_symmetry_group_IT_number 53
_symmetry_cell_setting 'orthorhombic'
loop_
_space_group_symop_operation_xyz
x,y,z
1/2-x,-y,1/2+z
x,-y,-z
1/2-x,y,1/2-z
-x,-y,-z
1/2+x,y,1/2-z
-x,y,z
1/2+x,-y,1/2+z
loop_
_atom_site_type_symbol
_atom_site_label
_atom_site_fract_x
_atom_site_fract_y
_atom_site_fract_z
Si Si1 0.706446 0.254297 0.896514
Si Si2 0.794143 0.374815 0.669961
Si Si3 0.705716 0.877727 0.410859
Si Si4 0.289747 0.565144 0.022415
Si Si5 0.795129 0.108327 0.075115
Si Si6 0.290589 0.686365 0.952859
Si Si7 0.795319 0.224685 0.334216
Si Si8 0.707157 0.996157 0.333800
O O1 0.500000 0.255536 0.896033
O O2 0.769094 0.307392 0.844654
O O3 0.758866 0.187533 0.880119
O O4 0.761605 0.273566 0.977838
O O5 0.750000 0.395489 0.750000
O O6 0.734284 0.415376 0.603153
O O7 0.000000 0.373153 0.664518
O O8 0.500000 0.883460 0.414234
O O9 0.773424 0.882093 0.493660
O O10 0.770846 0.932630 0.363119
O O11 0.500000 0.564263 0.021913
O O12 0.230466 0.500000 0.000000
O O13 0.236178 0.619019 0.969434
O O14 0.765852 0.165464 0.125171
O O15 0.000000 0.100577 0.067996
O O16 0.727601 0.049702 0.115542
O O17 0.500000 0.685564 0.952542
O O18 0.230588 0.718518 0.880013
O O19 0.750000 0.225542 0.250000
O O20 0.000000 0.224623 0.339601
O O21 0.750000 0.005808 0.250000
O O22 0.500000 0.996208 0.339013
#
# Coordination Sequence:
#
# PCOD9417067 Si02
#       8
#     8   8   8   8   8   8   8   8
#     4   9  17  32  51  72  98 130 166 204 246 294
#     4   9  18  31  50  76 106 136 169 211 254 297
#     4  10  20  34  54  77  99 127 165 209 257 303
#     4   8  14  28  52  77  99 133 179 213 242 290
#     4  10  20  36  56  75  97 128 169 210 253 304
#     4   8  15  29  48  70  98 129 163 205 245 287
#     4  11  21  33  51  75 104 133 165 208 256 301
#     4  10  22  38  52  70  99 132 165 207 255 303
#
# _framework density 19.791065
#
# number of rings (size 3 to 8) (size 9 to 14) (size 15 to 20)
#    0.000    2.625    1.250    2.625    0.000    4.500 
#    0.000    3.125    0.000    2.625    0.000    0.000 
#    0.000    0.000    0.000    0.000    0.000    0.000 
#
# Total GULP energy -357048.542957 kJ/mol
# GULP energy per Si atom -5578.883484 kJ/mol
# Density = 1.974602 g / cm^3
# Si number density = 19.791065 Si / 1000 Ang^3
#
#
#
# Elastic Constant Matrix: (Units=GPa)
#
#
# Indices 1 2 3 4 5 6 
#
# 1 23.9427 3.5567 -0.8348 0.0000 0.0000 0.0000
# 2 3.5567 150.9926 32.9593 0.0000 0.0000 0.0000
# 3 -0.8348 32.9593 56.9193 0.0000 0.0000 0.0000
# 4 0.0000 0.0000 0.0000 21.1684 0.0000 0.0000
# 5 0.0000 0.0000 0.0000 0.0000 40.2195 0.0000
# 6 0.0000 0.0000 0.0000 0.0000 0.0000 24.3187
#
#
#
# Elastic Compliance Matrix: (Units=1/GPa)
#
#
# Indices 1 2 3 4 5 6 
#
# 1 0.042005 -0.001287 0.001361 0.000000 0.000000 0.000000
# 2 -0.001287 0.007620 -0.004432 0.000000 0.000000 0.000000
# 3 0.001361 -0.004432 0.020155 0.000000 0.000000 0.000000
# 4 0.000000 0.000000 0.000000 0.047240 0.000000 0.000000
# 5 0.000000 0.000000 0.000000 0.000000 0.024864 0.000000
# 6 0.000000 0.000000 0.000000 0.000000 0.000000 0.041121
#
#
# Mechanical properties :
#
#
# Convention : Reuss Voigt Hill
#
# Bulk Modulus (GPa) = 16.37568 33.69079 25.03323
# Shear Modulus (GPa) = 23.57668 30.21956 26.89812
#
# Velocity S-wave (km/s) = 3.45524 3.91183 3.69060
# Velocity P-wave (km/s) = 4.92041 6.12074 5.55310
#
# Compressibility (1/GPa) = 0.06106616
#
# Stress axis : x y z
#
# Youngs Moduli (GPa) = 23.80671 131.22537 49.61599
#
# Poissons Ratio (x) = 0.16883 -0.06753
# Poissons Ratio (y) = 0.03063 0.21987
# Poissons Ratio (z) = -0.03240 0.58153
#
# Static dielectric constant tensor:
#      x y z
#    x 1.736760 0.000000 0.000000 
#    y 0.000000 1.690630 0.000000 
#    z 0.000000 0.000000 1.671350 
# 
# From -- ./inp_files/26991.got.cif
#   From: 2010.05.17/outbox.cif.g08.bks.cpg/sg53_14_cif.got.tgz:26991.got - 2010.06.03 12:45:16.
