data_PCOD9417247
_publ_section_title
;
Structure prediction by ZEFSAII (Michael W. Deem and Ramdas Pophale) SiO2 
 PCOD9417247
Probable space group: P M N A
;
_chemical_formula_sum "Si O2"
_cell_formula_units_Z 64
_cell_length_a 19.118377
_cell_length_b 9.483333
_cell_length_c 20.367553
_cell_angle_alpha 90.000000
_cell_angle_beta 90.000000
_cell_angle_gamma 90.000000
_cell_volume 3692.758251
_symmetry_space_group_name_H-M "P M N A"
_symmetry_group_IT_number 53
_symmetry_cell_setting 'orthorhombic'
loop_
_space_group_symop_operation_xyz
x,y,z
1/2-x,-y,1/2+z
x,-y,-z
1/2-x,y,1/2-z
-x,-y,-z
1/2+x,y,1/2-z
-x,y,z
1/2+x,-y,1/2+z
loop_
_atom_site_type_symbol
_atom_site_label
_atom_site_fract_x
_atom_site_fract_y
_atom_site_fract_z
Si Si1 0.288876 0.366402 0.080599
Si Si2 0.082323 0.316044 0.676595
Si Si3 0.673080 0.582122 0.777177
Si Si4 0.183619 0.304152 0.559933
Si Si5 0.421348 0.221710 0.310688
Si Si6 0.150442 0.805802 0.941035
Si Si7 0.919329 0.890966 0.204147
Si Si8 0.676294 0.867686 0.417141
O O1 0.317114 0.337303 0.153273
O O2 0.290426 0.535626 0.073349
O O3 0.211335 0.306124 0.072296
O O4 0.329951 0.300744 0.018326
O O5 0.125335 0.446889 0.707076
O O6 0.117583 0.281753 0.606726
O O7 0.090541 0.187664 0.727316
O O8 0.000000 0.348731 0.670266
O O9 0.750000 0.543051 0.750000
O O10 0.634402 0.679925 0.724750
O O11 0.246928 0.200107 0.578769
O O12 0.500000 0.265042 0.293490
O O13 0.410353 0.223342 0.389278
O O14 0.410640 0.059164 0.289758
O O15 0.179153 0.962815 0.924357
O O16 0.135372 0.810460 0.018464
O O17 0.865467 0.836593 0.149287
O O18 0.000000 0.866789 0.182625
#
# Coordination Sequence:
#
# PCOD9417247 Si02
#       8
#     8   8   8   8   8   8   8   8
#     4   9  18  34  51  75 104 128 172 215 263 298
#     4  10  22  38  54  77 108 140 175 219 268 313
#     4  11  21  34  55  80 104 137 176 217 261 314
#     4   9  19  34  54  75  99 137 171 218 258 307
#     4  10  20  35  52  76 108 141 171 211 262 313
#     4   9  17  32  49  76 106 135 171 215 255 306
#     4   9  20  35  51  74 109 141 173 213 259 312
#     4   9  18  30  52  77 103 135 178 213 254 302
#
# _framework density 17.331218
#
# number of rings (size 3 to 8) (size 9 to 14) (size 15 to 20)
#    0.000    2.500    1.250    0.375    3.500    1.500 
#    0.000    8.125    0.000    0.000    0.000   15.750 
#    0.000    0.000    0.000    0.000    0.000    0.000 
#
# Total GULP energy -356595.059838 kJ/mol
# GULP energy per Si atom -5571.797810 kJ/mol
# Density = 1.729177 g / cm^3
# Si number density = 17.331218 Si / 1000 Ang^3
#
#
#
# Elastic Constant Matrix: (Units=GPa)
#
#
# Indices 1 2 3 4 5 6 
#
# 1 81.8326 19.6745 44.0789 0.0000 0.0000 0.0000
# 2 19.6745 8.1646 13.0088 0.0000 0.0000 0.0000
# 3 44.0789 13.0088 89.7148 0.0000 0.0000 0.0000
# 4 0.0000 0.0000 0.0000 20.6556 0.0000 0.0000
# 5 0.0000 0.0000 0.0000 0.0000 22.3717 0.0000
# 6 0.0000 0.0000 0.0000 0.0000 0.0000 15.8762
#
#
#
# Elastic Compliance Matrix: (Units=1/GPa)
#
#
# Indices 1 2 3 4 5 6 
#
# 1 0.031179 -0.065965 -0.005754 0.000000 0.000000 0.000000
# 2 -0.065965 0.298839 -0.010922 0.000000 0.000000 0.000000
# 3 -0.005754 -0.010922 0.015557 0.000000 0.000000 0.000000
# 4 0.000000 0.000000 0.000000 0.048413 0.000000 0.000000
# 5 0.000000 0.000000 0.000000 0.000000 0.044699 0.000000
# 6 0.000000 0.000000 0.000000 0.000000 0.000000 0.062987
#
#
# Mechanical properties :
#
#
# Convention : Reuss Voigt Hill
#
# Bulk Modulus (GPa) = 5.54651 37.02626 21.28638
# Shear Modulus (GPa) = 6.87707 18.64402 12.76054
#
# Velocity S-wave (km/s) = 1.99415 3.28342 2.71638
# Velocity P-wave (km/s) = 2.91709 5.98203 4.70607
#
# Compressibility (1/GPa) = 0.18029368
#
# Stress axis : x y z
#
# Youngs Moduli (GPa) = 32.07310 3.34628 64.27893
#
# Poissons Ratio (x) = 0.22074 0.36985
# Poissons Ratio (y) = 2.11569 0.70208
# Poissons Ratio (z) = 0.18454 0.03655
#
# Static dielectric constant tensor:
#      x y z
#    x 1.564290 0.000000 0.000000 
#    y 0.000000 1.574500 0.000000 
#    z 0.000000 0.000000 1.621290 
# 
# From -- ./inp_files/32831.got.cif
#   From: 2010.05.17/outbox.cif.g08.bks.cpg/sg53_17_cif.got.tgz:32831.got - 2010.06.03 12:45:16.
