data_PCOD9417509
_publ_section_title
;
Structure prediction by ZEFSAII (Michael W. Deem and Ramdas Pophale) SiO2 
 PCOD9417509
Probable space group: P M N A
;
_chemical_formula_sum "Si O2"
_cell_formula_units_Z 48
_cell_length_a 32.247803
_cell_length_b 8.596748
_cell_length_c 8.286305
_cell_angle_alpha 90.000000
_cell_angle_beta 90.000000
_cell_angle_gamma 90.000000
_cell_volume 2297.181145
_symmetry_space_group_name_H-M "P M N A"
_symmetry_group_IT_number 53
_symmetry_cell_setting 'orthorhombic'
loop_
_space_group_symop_operation_xyz
x,y,z
1/2-x,-y,1/2+z
x,-y,-z
1/2-x,y,1/2-z
-x,-y,-z
1/2+x,y,1/2-z
-x,y,z
1/2+x,-y,1/2+z
loop_
_atom_site_type_symbol
_atom_site_label
_atom_site_fract_x
_atom_site_fract_y
_atom_site_fract_z
Si Si1 0.793296 0.500000 0.000000
Si Si2 0.500000 0.313411 0.495412
Si Si3 0.093807 0.326597 0.697320
Si Si4 0.914989 0.818605 0.952896
Si Si5 0.172317 0.172519 0.561962
Si Si6 0.500000 0.652992 0.119075
Si Si7 0.854518 0.639702 0.734160
Si Si8 0.750000 0.282468 0.750000
O O1 0.823098 0.420283 0.130557
O O2 0.764866 0.616968 0.098743
O O3 0.500000 0.500000 0.500000
O O4 0.539117 0.238231 0.406431
O O5 0.500000 0.290216 0.688661
O O6 0.091350 0.288023 0.887966
O O7 0.127369 0.204531 0.635619
O O8 0.050030 0.308492 0.604150
O O9 0.114480 0.498454 0.686371
O O10 0.882345 0.773976 0.815823
O O11 0.914098 0.000000 0.000000
O O12 0.172018 0.295532 0.414685
O O13 0.209066 0.195414 0.689293
O O14 0.175596 0.000000 0.500000
O O15 0.500000 0.500000 0.000000
#
# Coordination Sequence:
#
# PCOD9417509 Si02
#       8
#     4   4   8   8   8   4   8   4
#     4  12  24  42  72 101 126 169 230 286 340 406
#     4  10  21  35  58  89 134 180 247 290 338 408
#     4  11  22  43  64 100 134 183 239 283 341 416
#     4  11  21  37  61  95 137 181 230 291 354 409
#     4  12  27  45  69 100 141 181 224 290 354 420
#     4  10  20  35  63  93 131 176 228 293 329 388
#     4  12  22  41  69  96 131 179 228 282 342 416
#     4  12  26  46  70 100 134 170 232 280 356 422
#
# _framework density 20.895174000000001
#
# number of rings (size 3 to 8) (size 9 to 14) (size 15 to 20)
#    0.000    0.667    3.333    5.750    0.000    1.333 
#    0.000    1.250    0.000    0.000    0.000    0.000 
#    0.000    0.000    0.000    0.000    0.000    0.000 
#
# Total GULP energy -267506.195016 kJ/mol
# GULP energy per Si atom -5573.045729 kJ/mol
# Density = 2.084762 g / cm^3
# Si number density = 20.895174 Si / 1000 Ang^3
#
#
#
# Elastic Constant Matrix: (Units=GPa)
#
#
# Indices 1 2 3 4 5 6 
#
# 1 138.9857 29.6860 27.6467 0.0000 0.0000 0.0000
# 2 29.6860 92.5501 -4.6928 0.0000 0.0000 0.0000
# 3 27.6467 -4.6928 53.9811 0.0000 0.0000 0.0000
# 4 0.0000 0.0000 0.0000 26.1981 0.0000 0.0000
# 5 0.0000 0.0000 0.0000 0.0000 18.9241 0.0000
# 6 0.0000 0.0000 0.0000 0.0000 0.0000 8.1966
#
#
#
# Elastic Compliance Matrix: (Units=1/GPa)
#
#
# Indices 1 2 3 4 5 6 
#
# 1 0.008799 -0.003064 -0.004773 0.000000 0.000000 0.000000
# 2 -0.003064 0.011920 0.002606 0.000000 0.000000 0.000000
# 3 -0.004773 0.002606 0.021196 0.000000 0.000000 0.000000
# 4 0.000000 0.000000 0.000000 0.038171 0.000000 0.000000
# 5 0.000000 0.000000 0.000000 0.000000 0.052843 0.000000
# 6 0.000000 0.000000 0.000000 0.000000 0.000000 0.122001
#
#
# Mechanical properties :
#
#
# Convention : Reuss Voigt Hill
#
# Bulk Modulus (GPa) = 31.79457 43.42187 37.60822
# Shear Modulus (GPa) = 18.12407 26.18891 22.15649
#
# Velocity S-wave (km/s) = 2.94833 3.54411 3.25986
# Velocity P-wave (km/s) = 5.18068 6.12972 5.67507
#
# Compressibility (1/GPa) = 0.03145192
#
# Stress axis : x y z
#
# Youngs Moduli (GPa) = 113.65079 83.89284 47.17884
#
# Poissons Ratio (x) = 0.25707 0.22517
# Poissons Ratio (y) = 0.34826 -0.12293
# Poissons Ratio (z) = 0.54243 -0.21860
#
# Static dielectric constant tensor:
#      x y z
#    x 1.874310 0.000000 0.000000 
#    y 0.000000 1.743330 0.000000 
#    z 0.000000 0.000000 1.835560 
# 
# From -- ./inp_files/13123.got.cif
#   From: 2010.05.17/outbox.cif.g08.bks.cpg/sg53_7_cif.got.tgz:13123.got - 2010.06.03 12:45:16.
