data_PCOD9417587
_publ_section_title
;
Structure prediction by ZEFSAII (Michael W. Deem and Ramdas Pophale) SiO2 
 PCOD9417587
Probable space group: P M N A
;
_chemical_formula_sum "Si O2"
_cell_formula_units_Z 56
_cell_length_a 7.726519
_cell_length_b 17.175077
_cell_length_c 19.628186
_cell_angle_alpha 90.000000
_cell_angle_beta 90.000000
_cell_angle_gamma 90.000000
_cell_volume 2604.730134
_symmetry_space_group_name_H-M "P M N A"
_symmetry_group_IT_number 53
_symmetry_cell_setting 'orthorhombic'
loop_
_space_group_symop_operation_xyz
x,y,z
1/2-x,-y,1/2+z
x,-y,-z
1/2-x,y,1/2-z
-x,-y,-z
1/2+x,y,1/2-z
-x,y,z
1/2+x,-y,1/2+z
loop_
_atom_site_type_symbol
_atom_site_label
_atom_site_fract_x
_atom_site_fract_y
_atom_site_fract_z
Si Si1 0.707531 0.182067 0.671033
Si Si2 0.791803 0.643941 0.829647
Si Si3 0.787931 0.326267 0.917248
Si Si4 0.197766 0.925849 0.539596
Si Si5 0.705397 0.250377 0.446140
Si Si6 0.211266 0.502249 0.079629
Si Si7 0.707171 0.991593 0.329177
O O1 0.750000 0.192497 0.750000
O O2 0.500000 0.179997 0.663171
O O3 0.774003 0.254779 0.628616
O O4 0.769850 0.095680 0.651404
O O5 0.750000 0.644198 0.750000
O O6 0.729156 0.719245 0.873095
O O7 0.729555 0.567962 0.871987
O O8 0.000000 0.642346 0.832391
O O9 0.735839 0.412191 0.894519
O O10 0.000000 0.325533 0.916583
O O11 0.730265 0.306712 0.993909
O O12 0.268397 0.839016 0.532937
O O13 0.210947 0.948094 0.618971
O O14 0.000000 0.921419 0.516778
O O15 0.280263 0.000000 0.500000
O O16 0.500000 0.260927 0.444355
O O17 0.000000 0.498543 0.079021
O O18 0.263838 0.500000 0.000000
O O19 0.750000 0.004121 0.250000
O O20 0.500000 0.995248 0.336904
#
# Coordination Sequence:
#
# PCOD9417587 Si02
#       7
#     8   8   8   8   8   8   8
#     4   9  18  31  49  76 107 138 172 218 270 323
#     4  10  21  36  57  85 115 148 186 231 280 330
#     4   9  16  29  53  80 106 137 182 228 266 315
#     4  11  24  39  56  82 115 147 185 235 289 341
#     4  10  20  36  58  81 105 142 190 235 278 327
#     4   9  15  29  54  82 108 139 183 230 268 311
#     4  10  20  36  57  79 107 145 186 229 280 336
#
# _framework density 21.499348999999999
#
# number of rings (size 3 to 8) (size 9 to 14) (size 15 to 20)
#    0.000    2.286    1.429    1.714    0.000    4.571 
#    0.000    2.143    0.000    1.286    0.000    0.000 
#    0.000    0.000    0.000    0.000    0.000    0.000 
#
# Total GULP energy -312513.287060 kJ/mol
# GULP energy per Si atom -5580.594412 kJ/mol
# Density = 2.145042 g / cm^3
# Si number density = 21.499349 Si / 1000 Ang^3
#
#
#
# Elastic Constant Matrix: (Units=GPa)
#
#
# Indices 1 2 3 4 5 6 
#
# 1 34.0546 4.8940 2.1032 0.0000 0.0000 0.0000
# 2 4.8940 108.0398 41.0943 0.0000 0.0000 0.0000
# 3 2.1032 41.0943 68.7725 0.0000 0.0000 0.0000
# 4 0.0000 0.0000 0.0000 40.1115 0.0000 0.0000
# 5 0.0000 0.0000 0.0000 0.0000 14.4971 0.0000
# 6 0.0000 0.0000 0.0000 0.0000 0.0000 1.3209
#
#
#
# Elastic Compliance Matrix: (Units=1/GPa)
#
#
# Indices 1 2 3 4 5 6 
#
# 1 0.029558 -0.001288 -0.000134 0.000000 0.000000 0.000000
# 2 -0.001288 0.012034 -0.007152 0.000000 0.000000 0.000000
# 3 -0.000134 -0.007152 0.018818 0.000000 0.000000 0.000000
# 4 0.000000 0.000000 0.000000 0.024931 0.000000 0.000000
# 5 0.000000 0.000000 0.000000 0.000000 0.068979 0.000000
# 6 0.000000 0.000000 0.000000 0.000000 0.000000 0.757081
#
#
# Mechanical properties :
#
#
# Convention : Reuss Voigt Hill
#
# Bulk Modulus (GPa) = 23.11453 34.11665 28.61559
# Shear Modulus (GPa) = 5.30240 22.03759 13.66999
#
# Velocity S-wave (km/s) = 1.57215 3.20509 2.52431
# Velocity P-wave (km/s) = 3.75102 5.44058 4.67280
#
# Compressibility (1/GPa) = 0.04326283
#
# Stress axis : x y z
#
# Youngs Moduli (GPa) = 33.83185 83.09504 53.14001
#
# Poissons Ratio (x) = 0.10701 0.00714
# Poissons Ratio (y) = 0.04357 0.38004
# Poissons Ratio (z) = 0.00455 0.59427
#
# Static dielectric constant tensor:
#      x y z
#    x 1.813300 0.000000 0.000000 
#    y 0.000000 1.793030 0.000000 
#    z 0.000000 0.000000 1.780160 
# 
# From -- ./inp_files/30724.got.cif
#   From: 2010.05.17/outbox.cif.g08.bks.cpg/sg53_16_cif.got.tgz:30724.got - 2010.06.03 12:45:16.
