data_PCOD9417221
_publ_section_title
;
Structure prediction by ZEFSAII (Michael W. Deem and Ramdas Pophale) SiO2 
 PCOD9417221
Probable space group: P M N A
;
_chemical_formula_sum "Si O2"
_cell_formula_units_Z 44
_cell_length_a 7.865388
_cell_length_b 15.402591
_cell_length_c 19.706836
_cell_angle_alpha 90.000000
_cell_angle_beta 90.000000
_cell_angle_gamma 90.000000
_cell_volume 2387.431045
_symmetry_space_group_name_H-M "P M N A"
_symmetry_group_IT_number 53
_symmetry_cell_setting 'orthorhombic'
loop_
_space_group_symop_operation_xyz
x,y,z
1/2-x,-y,1/2+z
x,-y,-z
1/2-x,y,1/2-z
-x,-y,-z
1/2+x,y,1/2-z
-x,y,z
1/2+x,-y,1/2+z
loop_
_atom_site_type_symbol
_atom_site_label
_atom_site_fract_x
_atom_site_fract_y
_atom_site_fract_z
Si Si1 0.699734 0.190228 0.121687
Si Si2 0.500000 0.401174 0.533602
Si Si3 0.702433 0.625213 0.824824
Si Si4 0.000000 0.055891 0.928594
Si Si5 0.198787 0.001073 0.673092
Si Si6 0.187843 0.473084 0.578524
Si Si7 0.000000 0.211660 0.019391
O O1 0.500000 0.200235 0.101422
O O2 0.759014 0.276848 0.160905
O O3 0.710679 0.103693 0.165984
O O4 0.830418 0.183775 0.059780
O O5 0.500000 0.500000 0.500000
O O6 0.329190 0.399619 0.577806
O O7 0.500000 0.315984 0.487715
O O8 0.750000 0.596897 0.750000
O O9 0.500000 0.627373 0.830072
O O10 0.758029 0.555586 0.880357
O O11 0.833678 0.035377 0.882634
O O12 0.000000 0.156462 0.950700
O O13 0.000000 0.000000 0.000000
O O14 0.250000 0.025702 0.750000
O O15 0.000000 0.024311 0.660105
O O16 0.167003 0.500000 0.500000
O O17 0.000000 0.449282 0.604150
#
# Coordination Sequence:
#
# PCOD9417221 Si02
#       7
#     8   4   8   4   8   8   4
#     4  10  21  35  55  89 130 164 202 239 315 386
#     4  10  20  34  58  86 110 156 199 238 307 367
#     4  10  21  33  52  86 121 159 195 245 306 381
#     4  12  24  44  62  98 133 166 218 265 311 377
#     4  11  22  39  66  93 128 176 214 261 324 385
#     4   9  18  34  53  75 110 150 196 241 285 348
#     4  12  24  38  64  92 128 166 198 273 311 365
#
# _framework density 18.429850999999999
#
# number of rings (size 3 to 8) (size 9 to 14) (size 15 to 20)
#    0.000    1.636    2.727    2.727    2.545    3.273 
#    0.000    0.000    0.000    1.091    0.000    0.000 
#    0.000    0.000    0.000    0.000    0.000    0.000 
#
# Total GULP energy -245107.966417 kJ/mol
# GULP energy per Si atom -5570.635600 kJ/mol
# Density = 1.838790 g / cm^3
# Si number density = 18.429851 Si / 1000 Ang^3
#
#
#
# Elastic Constant Matrix: (Units=GPa)
#
#
# Indices 1 2 3 4 5 6 
#
# 1 118.2110 21.9245 40.6993 0.0000 0.0000 0.0000
# 2 21.9245 41.8004 33.9892 0.0000 0.0000 0.0000
# 3 40.6993 33.9892 112.4987 0.0000 0.0000 0.0000
# 4 0.0000 0.0000 0.0000 37.3206 0.0000 0.0000
# 5 0.0000 0.0000 0.0000 0.0000 11.2240 0.0000
# 6 0.0000 0.0000 0.0000 0.0000 0.0000 22.2789
#
#
#
# Elastic Compliance Matrix: (Units=1/GPa)
#
#
# Indices 1 2 3 4 5 6 
#
# 1 0.009946 -0.003037 -0.002681 0.000000 0.000000 0.000000
# 2 -0.003037 0.032642 -0.008763 0.000000 0.000000 0.000000
# 3 -0.002681 -0.008763 0.012506 0.000000 0.000000 0.000000
# 4 0.000000 0.000000 0.000000 0.026795 0.000000 0.000000
# 5 0.000000 0.000000 0.000000 0.000000 0.089095 0.000000
# 6 0.000000 0.000000 0.000000 0.000000 0.000000 0.044886
#
#
# Mechanical properties :
#
#
# Convention : Reuss Voigt Hill
#
# Bulk Modulus (GPa) = 38.26691 51.74845 45.00768
# Shear Modulus (GPa) = 19.72064 25.89118 22.80591
#
# Velocity S-wave (km/s) = 3.27469 3.75220 3.52155
# Velocity P-wave (km/s) = 5.92510 6.84920 6.40384
#
# Compressibility (1/GPa) = 0.02613224
#
# Stress axis : x y z
#
# Youngs Moduli (GPa) = 100.54705 30.63553 79.95888
#
# Poissons Ratio (x) = 0.09304 0.21433
# Poissons Ratio (y) = 0.30535 0.70071
# Poissons Ratio (z) = 0.26952 0.26847
#
# Static dielectric constant tensor:
#      x y z
#    x 1.725970 0.000000 0.000000 
#    y 0.000000 1.657490 0.000000 
#    z 0.000000 0.000000 1.654150 
# 
# From -- ./inp_files/26120.got.cif
#   From: 2010.05.17/outbox.cif.g08.bks.cpg/sg53_14_cif.got.tgz:26120.got - 2010.06.03 12:45:16.
