data_PCOD9417359
_publ_section_title
;
Structure prediction by ZEFSAII (Michael W. Deem and Ramdas Pophale) SiO2 
 PCOD9417359
Probable space group: P M N A
;
_chemical_formula_sum "Si O2"
_cell_formula_units_Z 64
_cell_length_a 8.530776
_cell_length_b 26.186810
_cell_length_c 14.711297
_cell_angle_alpha 90.000000
_cell_angle_beta 90.000000
_cell_angle_gamma 90.000000
_cell_volume 3286.412691
_symmetry_space_group_name_H-M "P M N A"
_symmetry_group_IT_number 53
_symmetry_cell_setting 'orthorhombic'
loop_
_space_group_symop_operation_xyz
x,y,z
1/2-x,-y,1/2+z
x,-y,-z
1/2-x,y,1/2-z
-x,-y,-z
1/2+x,y,1/2-z
-x,y,z
1/2+x,-y,1/2+z
loop_
_atom_site_type_symbol
_atom_site_label
_atom_site_fract_x
_atom_site_fract_y
_atom_site_fract_z
Si Si1 0.189675 0.376945 0.539885
Si Si2 0.688049 0.977907 0.646272
Si Si3 0.688990 0.592236 0.848003
Si Si4 0.187710 0.719979 0.147742
Si Si5 0.810253 0.818986 0.035692
Si Si6 0.188907 0.474805 0.651241
Si Si7 0.311278 0.136148 0.351974
Si Si8 0.313273 0.915844 0.146309
O O1 0.239170 0.374858 0.434626
O O2 0.256843 0.332183 0.601151
O O3 0.237549 0.432344 0.579028
O O4 0.000000 0.374593 0.543649
O O5 0.750000 0.978405 0.750000
O O6 0.500000 0.981656 0.644177
O O7 0.756190 0.029872 0.605286
O O8 0.734191 0.921198 0.614548
O O9 0.750000 0.608875 0.750000
O O10 0.500000 0.591940 0.845697
O O11 0.741215 0.533213 0.863567
O O12 0.250000 0.724298 0.250000
O O13 0.242530 0.767764 0.086412
O O14 0.000000 0.720739 0.150719
O O15 0.750698 0.868082 0.090474
O O16 0.000000 0.819833 0.037023
O O17 0.760100 0.824932 0.930517
O O18 0.250000 0.458840 0.750000
O O19 0.000000 0.475698 0.651497
O O20 0.250000 0.144749 0.250000
O O21 0.500000 0.136725 0.346599
O O22 0.250000 0.912154 0.250000
O O23 0.500000 0.915387 0.149032
#
# Coordination Sequence:
#
# PCOD9417359 Si02
#       8
#     8   8   8   8   8   8   8   8
#     4  10  20  35  56  80 109 145 185 226 270 321
#     4   9  16  29  50  76 107 141 173 210 259 315
#     4   9  18  33  53  79 112 149 185 223 267 316
#     4  11  24  41  61  82 108 139 176 223 271 320
#     4  10  22  40  58  78 105 140 180 222 269 318
#     4   9  17  30  50  78 111 146 182 221 268 320
#     4   9  19  36  58  81 107 139 176 218 264 314
#     4  11  21  33  52  79 110 143 178 218 264 319
#
# _framework density 19.474122000000001
#
# number of rings (size 3 to 8) (size 9 to 14) (size 15 to 20)
#    0.000    2.250    0.000    3.750    0.000    7.000 
#    0.000    3.125    0.000    6.750    0.000    0.000 
#    0.000    0.000    0.000    0.000    0.000    0.000 
#
# Total GULP energy -357181.733704 kJ/mol
# GULP energy per Si atom -5580.964589 kJ/mol
# Density = 1.942980 g / cm^3
# Si number density = 19.474122 Si / 1000 Ang^3
#
#
#
# Elastic Constant Matrix: (Units=GPa)
#
#
# Indices 1 2 3 4 5 6 
#
# 1 16.2705 10.7189 15.7441 0.0000 0.0000 0.0000
# 2 10.7189 44.4792 48.4406 0.0000 0.0000 0.0000
# 3 15.7441 48.4406 134.3012 0.0000 0.0000 0.0000
# 4 0.0000 0.0000 0.0000 34.6353 0.0000 0.0000
# 5 0.0000 0.0000 0.0000 0.0000 23.2116 0.0000
# 6 0.0000 0.0000 0.0000 0.0000 0.0000 28.1620
#
#
#
# Elastic Compliance Matrix: (Units=1/GPa)
#
#
# Indices 1 2 3 4 5 6 
#
# 1 0.074161 -0.013840 -0.003702 0.000000 0.000000 0.000000
# 2 -0.013840 0.039610 -0.012664 0.000000 0.000000 0.000000
# 3 -0.003702 -0.012664 0.012448 0.000000 0.000000 0.000000
# 4 0.000000 0.000000 0.000000 0.028872 0.000000 0.000000
# 5 0.000000 0.000000 0.000000 0.000000 0.043082 0.000000
# 6 0.000000 0.000000 0.000000 0.000000 0.000000 0.035509
#
#
# Mechanical properties :
#
#
# Convention : Reuss Voigt Hill
#
# Bulk Modulus (GPa) = 15.19622 38.31756 26.75689
# Shear Modulus (GPa) = 15.82130 25.21160 20.51645
#
# Velocity S-wave (km/s) = 2.85340 3.60199 3.24932
# Velocity P-wave (km/s) = 4.32159 6.08424 5.27703
#
# Compressibility (1/GPa) = 0.06580583
#
# Stress axis : x y z
#
# Youngs Moduli (GPa) = 13.48419 25.24622 80.33585
#
# Poissons Ratio (x) = 0.34941 0.29739
# Poissons Ratio (y) = 0.18662 1.01739
# Poissons Ratio (z) = 0.04992 0.31972
#
# Static dielectric constant tensor:
#      x y z
#    x 1.668730 0.000000 0.000000 
#    y 0.000000 1.685060 0.000000 
#    z 0.000000 0.000000 1.686620 
# 
# From -- ./inp_files/21009.got.cif
#   From: 2010.05.17/outbox.cif.g08.bks.cpg/sg53_11_cif.got.tgz:21009.got - 2010.06.03 12:45:16.
