data_PCOD9417722
_publ_section_title
;
Structure prediction by ZEFSAII (Michael W. Deem and Ramdas Pophale) SiO2 
 PCOD9417722
Probable space group: P M N A
;
_chemical_formula_sum "Si O2"
_cell_formula_units_Z 48
_cell_length_a 8.749885
_cell_length_b 31.400281
_cell_length_c 9.320075
_cell_angle_alpha 90.000000
_cell_angle_beta 90.000000
_cell_angle_gamma 90.000000
_cell_volume 2560.679867
_symmetry_space_group_name_H-M "P M N A"
_symmetry_group_IT_number 53
_symmetry_cell_setting 'orthorhombic'
loop_
_space_group_symop_operation_xyz
x,y,z
1/2-x,-y,1/2+z
x,-y,-z
1/2-x,y,1/2-z
-x,-y,-z
1/2+x,y,1/2-z
-x,y,z
1/2+x,-y,1/2+z
loop_
_atom_site_type_symbol
_atom_site_label
_atom_site_fract_x
_atom_site_fract_y
_atom_site_fract_z
Si Si1 0.815824 0.295518 0.591785
Si Si2 0.683664 0.621196 0.910052
Si Si3 0.183110 0.457321 0.910041
Si Si4 0.183092 0.958279 0.091875
Si Si5 0.184107 0.215336 0.407893
Si Si6 0.316497 0.881906 0.908670
O O1 0.750000 0.301187 0.750000
O O2 0.773020 0.334660 0.488345
O O3 0.764644 0.251166 0.519655
O O4 0.000000 0.294994 0.601219
O O5 0.750000 0.619359 0.750000
O O6 0.500000 0.618698 0.903513
O O7 0.747153 0.582565 0.005203
O O8 0.250000 0.459958 0.750000
O O9 0.000000 0.452868 0.901881
O O10 0.218361 0.500000 0.000000
O O11 0.250000 0.962451 0.250000
O O12 0.000000 0.955528 0.097479
O O13 0.249155 0.916432 0.015960
O O14 0.225099 0.000000 0.000000
O O15 0.250000 0.224075 0.250000
O O16 0.225813 0.166839 0.448171
O O17 0.000000 0.217194 0.398881
O O18 0.250000 0.889860 0.750000
O O19 0.500000 0.885065 0.904654
#
# Coordination Sequence:
#
# PCOD9417722 Si02
#       6
#     8   8   8   8   8   8
#     4  10  22  38  56  82 115 150 189 233 282 335
#     4  11  23  39  61  87 116 151 192 238 287 340
#     4  11  24  41  62  88 119 154 192 236 285 338
#     4  11  24  40  59  83 112 147 186 230 281 335
#     4   9  19  36  57  83 113 147 187 229 276 331
#     4  10  20  36  59  85 115 149 187 232 280 333
#
# _framework density 18.745021999999999
#
# number of rings (size 3 to 8) (size 9 to 14) (size 15 to 20)
#    0.000    1.667    0.000    4.000    0.000   10.000 
#    0.000    1.667    0.000    0.000    0.000    0.000 
#    0.000    0.000    0.000    0.000    0.000    0.000 
#
# Total GULP energy -268322.869094 kJ/mol
# GULP energy per Si atom -5590.059773 kJ/mol
# Density = 1.870236 g / cm^3
# Si number density = 18.745022 Si / 1000 Ang^3
#
#
#
# Elastic Constant Matrix: (Units=GPa)
#
#
# Indices 1 2 3 4 5 6 
#
# 1 45.3635 60.0260 59.8971 0.0000 0.0000 0.0000
# 2 60.0260 152.9512 121.7901 0.0000 0.0000 0.0000
# 3 59.8971 121.7901 192.5654 0.0000 0.0000 0.0000
# 4 0.0000 0.0000 0.0000 42.2073 0.0000 0.0000
# 5 0.0000 0.0000 0.0000 0.0000 40.3321 0.0000
# 6 0.0000 0.0000 0.0000 0.0000 0.0000 29.7561
#
#
#
# Elastic Compliance Matrix: (Units=1/GPa)
#
#
# Indices 1 2 3 4 5 6 
#
# 1 0.049323 -0.014385 -0.006244 0.000000 0.000000 0.000000
# 2 -0.014385 0.017367 -0.006509 0.000000 0.000000 0.000000
# 3 -0.006244 -0.006509 0.011252 0.000000 0.000000 0.000000
# 4 0.000000 0.000000 0.000000 0.023693 0.000000 0.000000
# 5 0.000000 0.000000 0.000000 0.000000 0.024794 0.000000
# 6 0.000000 0.000000 0.000000 0.000000 0.000000 0.033607
#
#
# Mechanical properties :
#
#
# Convention : Reuss Voigt Hill
#
# Bulk Modulus (GPa) = 42.25588 97.14514 69.70051
# Shear Modulus (GPa) = 22.50224 32.40357 27.45291
#
# Velocity S-wave (km/s) = 3.46849 4.16221 3.83109
# Velocity P-wave (km/s) = 6.21546 8.66232 7.53882
#
# Compressibility (1/GPa) = 0.02366534
#
# Stress axis : x y z
#
# Youngs Moduli (GPa) = 20.27441 57.58169 88.87334
#
# Poissons Ratio (x) = 0.82833 0.55490
# Poissons Ratio (y) = 0.29165 0.57849
# Poissons Ratio (z) = 0.12659 0.37481
#
# Static dielectric constant tensor:
#      x y z
#    x 1.630280 0.000000 0.000000 
#    y 0.000000 1.644780 0.000000 
#    z 0.000000 0.000000 1.605720 
# 
# From -- ./inp_files/6710.got.cif
#   From: 2010.05.17/outbox.cif.g08.bks.cpg/sg53_4_cif.got.tgz:6710.got - 2010.06.03 12:45:16.
