data_PCOD9417447
_publ_section_title
;
Structure prediction by ZEFSAII (Michael W. Deem and Ramdas Pophale) SiO2 
 PCOD9417447
Probable space group: P M N A
;
_chemical_formula_sum "Si O2"
_cell_formula_units_Z 64
_cell_length_a 26.631042
_cell_length_b 13.618484
_cell_length_c 9.595392
_cell_angle_alpha 90.000000
_cell_angle_beta 90.000000
_cell_angle_gamma 90.000000
_cell_volume 3480.003222
_symmetry_space_group_name_H-M "P M N A"
_symmetry_group_IT_number 53
_symmetry_cell_setting 'orthorhombic'
loop_
_space_group_symop_operation_xyz
x,y,z
1/2-x,-y,1/2+z
x,-y,-z
1/2-x,y,1/2-z
-x,-y,-z
1/2+x,y,1/2-z
-x,y,z
1/2+x,-y,1/2+z
loop_
_atom_site_type_symbol
_atom_site_label
_atom_site_fract_x
_atom_site_fract_y
_atom_site_fract_z
Si Si1 0.121881 0.876412 0.254330
Si Si2 0.354588 0.795762 0.688246
Si Si3 0.212596 0.110911 0.950415
Si Si4 0.614229 0.588151 0.593638
Si Si5 0.057728 0.700335 0.149406
Si Si6 0.441185 0.479353 0.843329
Si Si7 0.823664 0.119765 0.487514
Si Si8 0.559343 0.947816 0.651966
O O1 0.092648 0.793805 0.169348
O O2 0.132692 0.843489 0.410640
O O3 0.088712 0.974772 0.249648
O O4 0.176611 0.891647 0.184018
O O5 0.318900 0.835993 0.568407
O O6 0.355957 0.679354 0.660442
O O7 0.333102 0.836278 0.834761
O O8 0.409273 0.847045 0.664591
O O9 0.269142 0.151041 0.952296
O O10 0.217922 0.000000 0.000000
O O11 0.639016 0.500000 0.500000
O O12 0.575749 0.636926 0.482655
O O13 0.586986 0.540015 0.724999
O O14 0.062080 0.632230 0.287146
O O15 0.000000 0.730332 0.131641
O O16 0.500000 0.506514 0.840547
O O17 0.422695 0.500000 0.000000
O O18 0.826047 0.000000 0.500000
O O19 0.500000 0.936914 0.680419
O O20 0.564604 0.000000 0.500000
#
# Coordination Sequence:
#
# PCOD9417447 Si02
#       8
#     8   8   8   8   8   8   8   8
#     4  12  20  37  56  88 121 157 195 236 294 359
#     4  12  21  39  58  90 119 157 199 241 300 355
#     4  11  20  39  62  88 114 153 198 246 289 345
#     4  10  21  37  60  86 112 152 202 253 290 348
#     4  10  20  35  58  84 115 156 196 239 287 352
#     4   9  19  35  55  84 114 147 194 247 299 347
#     4  11  24  37  60  88 124 153 195 250 301 351
#     4  11  21  35  56  84 122 163 201 234 278 355
#
# _framework density 18.390787
#
# number of rings (size 3 to 8) (size 9 to 14) (size 15 to 20)
#    0.000    1.250    5.000    1.500    1.750    5.500 
#    0.000    1.875    0.000    0.000   13.000    0.000 
#    0.000    0.000    0.000    0.000    0.000    0.000 
#
# Total GULP energy -356818.785137 kJ/mol
# GULP energy per Si atom -5575.293518 kJ/mol
# Density = 1.834893 g / cm^3
# Si number density = 18.390787 Si / 1000 Ang^3
#
#
#
# Elastic Constant Matrix: (Units=GPa)
#
#
# Indices 1 2 3 4 5 6 
#
# 1 79.4697 27.4014 5.8246 0.0000 0.0000 0.0000
# 2 27.4014 85.4858 21.9544 0.0000 0.0000 0.0000
# 3 5.8246 21.9544 62.5048 0.0000 0.0000 0.0000
# 4 0.0000 0.0000 0.0000 24.5915 0.0000 0.0000
# 5 0.0000 0.0000 0.0000 0.0000 86.8011 0.0000
# 6 0.0000 0.0000 0.0000 0.0000 0.0000 24.5589
#
#
#
# Elastic Compliance Matrix: (Units=1/GPa)
#
#
# Indices 1 2 3 4 5 6 
#
# 1 0.014152 -0.004614 0.000302 0.000000 0.000000 0.000000
# 2 -0.004614 0.014362 -0.004615 0.000000 0.000000 0.000000
# 3 0.000302 -0.004615 0.017592 0.000000 0.000000 0.000000
# 4 0.000000 0.000000 0.000000 0.040664 0.000000 0.000000
# 5 0.000000 0.000000 0.000000 0.000000 0.011521 0.000000
# 6 0.000000 0.000000 0.000000 0.000000 0.000000 0.040718
#
#
# Mechanical properties :
#
#
# Convention : Reuss Voigt Hill
#
# Bulk Modulus (GPa) = 35.39530 37.53566 36.46548
# Shear Modulus (GPa) = 30.06985 38.67563 34.37274
#
# Velocity S-wave (km/s) = 4.04796 4.59081 4.32791
# Velocity P-wave (km/s) = 6.41373 6.96815 6.69668
#
# Compressibility (1/GPa) = 0.02825234
#
# Stress axis : x y z
#
# Youngs Moduli (GPa) = 70.66072 69.62892 56.84563
#
# Poissons Ratio (x) = 0.32125 -0.01716
# Poissons Ratio (y) = 0.32601 0.26232
# Poissons Ratio (z) = -0.02132 0.32131
#
# Static dielectric constant tensor:
#      x y z
#    x 1.641260 0.000000 0.000000 
#    y 0.000000 1.514550 0.000000 
#    z 0.000000 0.000000 1.652940 
# 
# From -- ./inp_files/13238.got.cif
#   From: 2010.05.17/outbox.cif.g08.bks.cpg/sg53_7_cif.got.tgz:13238.got - 2010.06.03 12:45:16.
