data_PCOD9417109
_publ_section_title
;
Structure prediction by ZEFSAII (Michael W. Deem and Ramdas Pophale) SiO2 
 PCOD9417109
Probable space group: P M N A
;
_chemical_formula_sum "Si O2"
_cell_formula_units_Z 64
_cell_length_a 7.838696
_cell_length_b 24.197731
_cell_length_c 13.711828
_cell_angle_alpha 90.000000
_cell_angle_beta 90.000000
_cell_angle_gamma 90.000000
_cell_volume 2600.841123
_symmetry_space_group_name_H-M "P M N A"
_symmetry_group_IT_number 53
_symmetry_cell_setting 'orthorhombic'
loop_
_space_group_symop_operation_xyz
x,y,z
1/2-x,-y,1/2+z
x,-y,-z
1/2-x,y,1/2-z
-x,-y,-z
1/2+x,y,1/2-z
-x,y,z
1/2+x,-y,1/2+z
loop_
_atom_site_type_symbol
_atom_site_label
_atom_site_fract_x
_atom_site_fract_y
_atom_site_fract_z
Si Si1 0.311399 0.611010 0.354259
Si Si2 0.204926 0.213463 0.637939
Si Si3 0.205125 0.851722 0.636460
Si Si4 0.808867 0.504127 0.616952
Si Si5 0.793569 0.734896 0.552972
Si Si6 0.706253 0.028837 0.134173
Si Si7 0.205784 0.909008 0.365327
Si Si8 0.699400 0.617911 0.570427
O O1 0.250000 0.632726 0.250000
O O2 0.500000 0.633037 0.366404
O O3 0.311613 0.544003 0.345405
O O4 0.221806 0.619077 0.459588
O O5 0.250000 0.222962 0.750000
O O6 0.260413 0.259308 0.560673
O O7 0.266855 0.152119 0.604592
O O8 0.000000 0.211521 0.632556
O O9 0.250000 0.852570 0.750000
O O10 0.265998 0.793118 0.596958
O O11 0.266632 0.911294 0.595803
O O12 0.000000 0.851713 0.622932
O O13 0.794604 0.500000 0.500000
O O14 0.776995 0.568749 0.634231
O O15 0.000000 0.489267 0.646040
O O16 0.722354 0.680520 0.604032
O O17 0.000000 0.732038 0.558649
O O18 0.750000 0.029068 0.250000
O O19 0.500000 0.028592 0.124020
O O20 0.767644 0.968872 0.096850
O O21 0.250000 0.909595 0.250000
O O22 0.000000 0.909017 0.377884
O O23 0.500000 0.603683 0.562569
#
# Coordination Sequence:
#
# PCOD9417109 Si02
#       8
#     8   8   8   8   8   8   8   8
#     4  10  20  34  54  82 113 140 169 208 251 297
#     4   9  18  32  49  70  99 135 173 214 260 312
#     4   9  18  33  52  73  97 127 165 213 267 319
#     4   9  17  32  55  79 103 132 163 197 243 294
#     4  10  21  36  52  72 102 139 178 219 264 312
#     4   8  13  23  42  67  92 119 155 201 256 316
#     4   8  13  23  41  65  92 123 159 201 253 312
#     4  10  21  36  54  76 103 137 177 216 252 297
#
# _framework density 24.607423000000001
#
# number of rings (size 3 to 8) (size 9 to 14) (size 15 to 20)
#    0.000    2.875    0.000    1.125    0.000    4.500 
#    0.000    3.750    0.000    5.250    0.000    0.000 
#    0.000   21.000    0.000    0.000    0.000    0.000 
#
# Total GULP energy -357017.173452 kJ/mol
# GULP energy per Si atom -5578.393335 kJ/mol
# Density = 2.455142 g / cm^3
# Si number density = 24.607423 Si / 1000 Ang^3
#
#
#
# Elastic Constant Matrix: (Units=GPa)
#
#
# Indices 1 2 3 4 5 6 
#
# 1 41.4258 -5.7939 -0.6004 0.0000 0.0000 0.0000
# 2 -5.7939 161.0556 8.4865 0.0000 0.0000 0.0000
# 3 -0.6004 8.4865 53.8357 0.0000 0.0000 0.0000
# 4 0.0000 0.0000 0.0000 10.9722 0.0000 0.0000
# 5 0.0000 0.0000 0.0000 0.0000 7.4918 0.0000
# 6 0.0000 0.0000 0.0000 0.0000 0.0000 21.7081
#
#
#
# Elastic Compliance Matrix: (Units=1/GPa)
#
#
# Indices 1 2 3 4 5 6 
#
# 1 0.024263 0.000866 0.000134 0.000000 0.000000 0.000000
# 2 0.000866 0.006292 -0.000982 0.000000 0.000000 0.000000
# 3 0.000134 -0.000982 0.018731 0.000000 0.000000 0.000000
# 4 0.000000 0.000000 0.000000 0.091140 0.000000 0.000000
# 5 0.000000 0.000000 0.000000 0.000000 0.133479 0.000000
# 6 0.000000 0.000000 0.000000 0.000000 0.000000 0.046066
#
#
# Mechanical properties :
#
#
# Convention : Reuss Voigt Hill
#
# Bulk Modulus (GPa) = 20.27523 28.94461 24.60992
# Shear Modulus (GPa) = 14.86433 24.98274 19.92353
#
# Velocity S-wave (km/s) = 2.46043 3.18976 2.84853
# Velocity P-wave (km/s) = 4.04091 5.03529 4.56526
#
# Compressibility (1/GPa) = 0.04932127
#
# Stress axis : x y z
#
# Youngs Moduli (GPa) = 41.21572 158.93363 53.38639
#
# Poissons Ratio (x) = -0.13760 -0.00716
# Poissons Ratio (y) = -0.03568 0.05244
# Poissons Ratio (z) = -0.00553 0.15610
#
# Static dielectric constant tensor:
#      x y z
#    x 1.910300 0.000000 0.000000 
#    y 0.000000 1.997240 0.000000 
#    z 0.000000 0.000000 2.036470 
# 
# From -- ./inp_files/20855.got.cif
#   From: 2010.05.17/outbox.cif.g08.bks.cpg/sg53_11_cif.got.tgz:20855.got - 2010.06.03 12:45:16.
