data_PCOD9417710
_publ_section_title
;
Structure prediction by ZEFSAII (Michael W. Deem and Ramdas Pophale) SiO2 
 PCOD9417710
Probable space group: P M N A
;
_chemical_formula_sum "Si O2"
_cell_formula_units_Z 48
_cell_length_a 8.667593
_cell_length_b 19.230678
_cell_length_c 15.594379
_cell_angle_alpha 90.000000
_cell_angle_beta 90.000000
_cell_angle_gamma 90.000000
_cell_volume 2599.328635
_symmetry_space_group_name_H-M "P M N A"
_symmetry_group_IT_number 53
_symmetry_cell_setting 'orthorhombic'
loop_
_space_group_symop_operation_xyz
x,y,z
1/2-x,-y,1/2+z
x,-y,-z
1/2-x,y,1/2-z
-x,-y,-z
1/2+x,y,1/2-z
-x,y,z
1/2+x,-y,1/2+z
loop_
_atom_site_type_symbol
_atom_site_label
_atom_site_fract_x
_atom_site_fract_y
_atom_site_fract_z
Si Si1 0.314639 0.328519 0.342550
Si Si2 0.314495 0.167037 0.343607
Si Si3 0.315208 0.918492 0.002957
Si Si4 0.184075 0.674628 0.344129
Si Si5 0.313503 0.581157 0.494116
Si Si6 0.315602 0.173084 0.655490
O O1 0.250000 0.349337 0.250000
O O2 0.500000 0.330639 0.338326
O O3 0.270081 0.248038 0.358825
O O4 0.264941 0.377935 0.419938
O O5 0.250000 0.147650 0.250000
O O6 0.500000 0.162560 0.343719
O O7 0.245984 0.119739 0.418127
O O8 0.500000 0.911570 0.007610
O O9 0.241138 0.881425 0.085250
O O10 0.276172 0.000000 0.000000
O O11 0.250000 0.657842 0.250000
O O12 0.237799 0.618519 0.413109
O O13 0.252607 0.750250 0.368110
O O14 0.000000 0.679440 0.340099
O O15 0.274300 0.500000 0.500000
O O16 0.500000 0.586956 0.486571
O O17 0.250000 0.156876 0.750000
O O18 0.500000 0.175354 0.658650
#
# Coordination Sequence:
#
# PCOD9417710 Si02
#       6
#     8   8   8   8   8   8
#     4   9  19  35  56  81 108 142 184 230 278 328
#     4  10  20  36  59  84 111 146 190 238 285 336
#     4  11  24  40  58  84 118 153 189 231 282 340
#     4  11  22  38  61  86 114 149 192 240 289 342
#     4  10  21  37  56  82 118 155 190 234 287 339
#     4  11  22  39  63  88 115 148 191 239 289 344
#
# _framework density 18.466308000000001
#
# number of rings (size 3 to 8) (size 9 to 14) (size 15 to 20)
#    0.000    1.667    0.000    6.000    0.000    5.667 
#    0.000    1.667    0.000    0.000    0.000    0.000 
#    0.000    0.000    0.000    0.000    0.000    0.000 
#
# Total GULP energy -268317.310142 kJ/mol
# GULP energy per Si atom -5589.943961 kJ/mol
# Density = 1.842428 g / cm^3
# Si number density = 18.466308 Si / 1000 Ang^3
#
#
#
# Elastic Constant Matrix: (Units=GPa)
#
#
# Indices 1 2 3 4 5 6 
#
# 1 100.0038 77.3201 71.1780 0.0000 0.0000 0.0000
# 2 77.3201 144.4242 128.0932 0.0000 0.0000 0.0000
# 3 71.1780 128.0932 145.6333 0.0000 0.0000 0.0000
# 4 0.0000 0.0000 0.0000 -26.9627 0.0000 0.0000
# 5 0.0000 0.0000 0.0000 0.0000 37.5301 0.0000
# 6 0.0000 0.0000 0.0000 0.0000 0.0000 23.2995
#
#
#
# Elastic Compliance Matrix: (Units=1/GPa)
#
#
# Indices 1 2 3 4 5 6 
#
# 1 0.017124 -0.007934 -0.001391 0.000000 0.000000 0.000000
# 2 -0.007934 0.035164 -0.027051 0.000000 0.000000 0.000000
# 3 -0.001391 -0.027051 0.031339 0.000000 0.000000 0.000000
# 4 0.000000 0.000000 0.000000 -0.037088 0.000000 0.000000
# 5 0.000000 0.000000 0.000000 0.000000 0.026645 0.000000
# 6 0.000000 0.000000 0.000000 0.000000 0.000000 0.042919
#
#
# Mechanical properties :
#
#
# Convention : Reuss Voigt Hill
#
# Bulk Modulus (GPa) = 91.95083 104.80488 98.37786
# Shear Modulus (GPa) = 25.97678 14.33803 20.15741
#
# Velocity S-wave (km/s) = 3.75469 2.78950 3.30749
# Velocity P-wave (km/s) = 8.28847 8.20079 8.24475
#
# Compressibility (1/GPa) = 0.01087538
#
# Stress axis : x y z
#
# Youngs Moduli (GPa) = 58.39786 28.43845 31.90905
#
# Poissons Ratio (x) = 0.22563 0.04438
# Poissons Ratio (y) = 0.46333 0.86316
# Poissons Ratio (z) = 0.08122 0.76928
#
# Static dielectric constant tensor:
#      x y z
#    x 1.618810 0.000000 0.000000 
#    y 0.000000 1.602420 0.000000 
#    z 0.000000 0.000000 1.606800 
# 
# From -- ./inp_files/20121.got.cif
#   From: 2010.05.17/outbox.cif.g08.bks.cpg/sg53_11_cif.got.tgz:20121.got - 2010.06.03 12:45:16.
