data_PCOD9417398
_publ_section_title
;
Structure prediction by ZEFSAII (Michael W. Deem and Ramdas Pophale) SiO2 
 PCOD9417398
Probable space group: P M N A
;
_chemical_formula_sum "Si O2"
_cell_formula_units_Z 48
_cell_length_a 18.177504
_cell_length_b 7.397998
_cell_length_c 20.110939
_cell_angle_alpha 90.000000
_cell_angle_beta 90.000000
_cell_angle_gamma 90.000000
_cell_volume 2704.461524
_symmetry_space_group_name_H-M "P M N A"
_symmetry_group_IT_number 53
_symmetry_cell_setting 'orthorhombic'
loop_
_space_group_symop_operation_xyz
x,y,z
1/2-x,-y,1/2+z
x,-y,-z
1/2-x,y,1/2-z
-x,-y,-z
1/2+x,y,1/2-z
-x,y,z
1/2+x,-y,1/2+z
loop_
_atom_site_type_symbol
_atom_site_label
_atom_site_fract_x
_atom_site_fract_y
_atom_site_fract_z
Si Si1 0.281647 0.822693 0.580611
Si Si2 0.667890 0.521984 0.926387
Si Si3 0.587489 0.760722 0.315729
Si Si4 0.831587 0.127189 0.222790
Si Si5 0.913251 0.449299 0.292560
Si Si6 0.696801 0.755329 0.435251
O O1 0.204001 0.720754 0.579246
O O2 0.321848 0.783726 0.649753
O O3 0.322383 0.754304 0.513771
O O4 0.275298 0.039524 0.577361
O O5 0.614876 0.490772 0.864819
O O6 0.737439 0.385164 0.923102
O O7 0.634766 0.500000 0.000000
O O8 0.500000 0.776843 0.326149
O O9 0.601550 0.603715 0.262162
O O10 0.630499 0.722542 0.384474
O O11 0.621001 0.946832 0.287066
O O12 0.750000 0.083993 0.250000
O O13 0.870204 0.270306 0.270413
O O14 0.000000 0.414659 0.293652
#
# Coordination Sequence:
#
# PCOD9417398 Si02
#       6
#     8   8   8   8   8   8
#     4   9  18  34  53  87 105 139 188 228 265 318
#     4  10  20  35  57  80 106 144 188 233 272 327
#     4  10  23  38  55  85 119 149 181 228 283 333
#     4  11  21  35  61  83 109 149 191 228 274 328
#     4  11  24  38  54  82 116 145 181 234 284 330
#     4   9  19  34  57  79 114 141 185 226 265 330
#
# _framework density 17.748449999999998
#
# number of rings (size 3 to 8) (size 9 to 14) (size 15 to 20)
#    0.000    2.000    1.667    1.500    4.667    0.333 
#    0.000    7.500    0.000    6.500    0.000    8.167 
#    0.000    0.000    0.000    0.000    0.000    0.000 
#
# Total GULP energy -267780.009053 kJ/mol
# GULP energy per Si atom -5578.750189 kJ/mol
# Density = 1.770805 g / cm^3
# Si number density = 17.748450 Si / 1000 Ang^3
#
#
#
# Elastic Constant Matrix: (Units=GPa)
#
#
# Indices 1 2 3 4 5 6 
#
# 1 51.8962 18.4807 44.8045 0.0000 0.0000 0.0000
# 2 18.4807 28.5676 21.7611 0.0000 0.0000 0.0000
# 3 44.8045 21.7611 133.8891 0.0000 0.0000 0.0000
# 4 0.0000 0.0000 0.0000 20.9342 0.0000 0.0000
# 5 0.0000 0.0000 0.0000 0.0000 16.2837 0.0000
# 6 0.0000 0.0000 0.0000 0.0000 0.0000 18.8681
#
#
#
# Elastic Compliance Matrix: (Units=1/GPa)
#
#
# Indices 1 2 3 4 5 6 
#
# 1 0.031355 -0.014028 -0.008213 0.000000 0.000000 0.000000
# 2 -0.014028 0.046227 -0.002819 0.000000 0.000000 0.000000
# 3 -0.008213 -0.002819 0.010675 0.000000 0.000000 0.000000
# 4 0.000000 0.000000 0.000000 0.047769 0.000000 0.000000
# 5 0.000000 0.000000 0.000000 0.000000 0.061411 0.000000
# 6 0.000000 0.000000 0.000000 0.000000 0.000000 0.052999
#
#
# Mechanical properties :
#
#
# Convention : Reuss Voigt Hill
#
# Bulk Modulus (GPa) = 26.22053 42.71614 34.46834
# Shear Modulus (GPa) = 15.96075 19.83765 17.89920
#
# Velocity S-wave (km/s) = 3.00205 3.34685 3.17912
# Velocity P-wave (km/s) = 5.17898 6.24940 5.73920
#
# Compressibility (1/GPa) = 0.03813805
#
# Stress axis : x y z
#
# Youngs Moduli (GPa) = 31.89273 21.63241 93.67414
#
# Poissons Ratio (x) = 0.30346 0.76931
# Poissons Ratio (y) = 0.44739 0.26407
# Poissons Ratio (z) = 0.26192 0.06098
#
# Static dielectric constant tensor:
#      x y z
#    x 1.563750 0.000000 0.000000 
#    y 0.000000 1.610500 0.000000 
#    z 0.000000 0.000000 1.641010 
# 
# From -- ./inp_files/28265.got.cif
#   From: 2010.05.17/outbox.cif.g08.bks.cpg/sg53_15_cif.got.tgz:28265.got - 2010.06.03 12:45:16.
