data_PCOD9417937
_publ_section_title
;
Structure prediction by ZEFSAII (Michael W. Deem and Ramdas Pophale) SiO2 
 PCOD9417937
Probable space group: P M N A
;
_chemical_formula_sum "Si O2"
_cell_formula_units_Z 48
_cell_length_a 9.334316
_cell_length_b 29.331965
_cell_length_c 9.490723
_cell_angle_alpha 90.000000
_cell_angle_beta 90.000000
_cell_angle_gamma 90.000000
_cell_volume 2598.501402
_symmetry_space_group_name_H-M "P M N A"
_symmetry_group_IT_number 53
_symmetry_cell_setting 'orthorhombic'
loop_
_space_group_symop_operation_xyz
x,y,z
1/2-x,-y,1/2+z
x,-y,-z
1/2-x,y,1/2-z
-x,-y,-z
1/2+x,y,1/2-z
-x,y,z
1/2+x,-y,1/2+z
loop_
_atom_site_type_symbol
_atom_site_label
_atom_site_fract_x
_atom_site_fract_y
_atom_site_fract_z
Si Si1 0.500000 0.450978 0.073326
Si Si2 0.000000 0.456378 0.097146
Si Si3 0.672206 0.124454 0.392339
Si Si4 0.330658 0.040817 0.602316
Si Si5 0.676082 0.778726 0.899562
Si Si6 0.325940 0.705131 0.401557
Si Si7 0.742722 0.616132 0.584474
O O1 0.500000 0.465689 0.237095
O O2 0.624527 0.415036 0.044229
O O3 0.500000 0.500000 0.000000
O O4 0.127380 0.422748 0.068452
O O5 0.000000 0.500000 0.000000
O O6 0.750000 0.106728 0.250000
O O7 0.500000 0.133028 0.369347
O O8 0.685927 0.087727 0.515901
O O9 0.760012 0.170612 0.425763
O O10 0.250000 0.041352 0.750000
O O11 0.500000 0.033768 0.628430
O O12 0.280964 0.000000 0.500000
O O13 0.750000 0.765299 0.750000
O O14 0.500000 0.777612 0.894809
O O15 0.744337 0.745649 0.015864
O O16 0.250000 0.701308 0.250000
O O17 0.500000 0.711628 0.393226
O O18 0.292222 0.659448 0.490142
O O19 0.750000 0.630139 0.750000
#
# Coordination Sequence:
#
# PCOD9417937 Si02
#       7
#     4   4   8   8   8   8   8
#     4  10  22  36  60  92 120 154 200 244 291 358
#     4  10  20  38  60  86 120 158 196 240 295 348
#     4  10  20  37  61  90 124 160 206 257 305 365
#     4  10  22  38  58  87 122 163 209 258 311 367
#     4  11  23  41  67  94 124 164 206 251 306 370
#     4  12  26  43  63  91 124 159 203 256 312 367
#     4  10  22  40  63  87 119 159 199 243 296 361
#
# _framework density 18.472183999999999
#
# number of rings (size 3 to 8) (size 9 to 14) (size 15 to 20)
#    0.000    1.500    0.833    5.000    2.333    3.667 
#    0.000    1.667    0.000    0.000    0.000    0.000 
#    0.000    0.000    0.000    0.000    0.000    0.000 
#
# Total GULP energy -267494.568018 kJ/mol
# GULP energy per Si atom -5572.803500 kJ/mol
# Density = 1.843014 g / cm^3
# Si number density = 18.472184 Si / 1000 Ang^3
#
#
#
# Elastic Constant Matrix: (Units=GPa)
#
#
# Indices 1 2 3 4 5 6 
#
# 1 191.8436 59.0634 78.2502 0.0000 0.0000 0.0000
# 2 59.0634 86.9594 86.3064 0.0000 0.0000 0.0000
# 3 78.2502 86.3064 139.2634 0.0000 0.0000 0.0000
# 4 0.0000 0.0000 0.0000 37.3258 0.0000 0.0000
# 5 0.0000 0.0000 0.0000 0.0000 32.3131 0.0000
# 6 0.0000 0.0000 0.0000 0.0000 0.0000 32.4146
#
#
#
# Elastic Compliance Matrix: (Units=1/GPa)
#
#
# Indices 1 2 3 4 5 6 
#
# 1 0.006919 -0.002185 -0.002534 0.000000 0.000000 0.000000
# 2 -0.002185 0.030565 -0.017715 0.000000 0.000000 0.000000
# 3 -0.002534 -0.017715 0.019583 0.000000 0.000000 0.000000
# 4 0.000000 0.000000 0.000000 0.026791 0.000000 0.000000
# 5 0.000000 0.000000 0.000000 0.000000 0.030947 0.000000
# 6 0.000000 0.000000 0.000000 0.000000 0.000000 0.030850
#
#
# Mechanical properties :
#
#
# Convention : Reuss Voigt Hill
#
# Bulk Modulus (GPa) = 81.96390 96.14516 89.05453
# Shear Modulus (GPa) = 25.69532 33.37381 29.53456
#
# Velocity S-wave (km/s) = 3.73369 4.25515 4.00292
# Velocity P-wave (km/s) = 7.94073 8.73518 8.34741
#
# Compressibility (1/GPa) = 0.01220049
#
# Stress axis : x y z
#
# Youngs Moduli (GPa) = 144.53870 32.71694 51.06533
#
# Poissons Ratio (x) = 0.07147 0.12938
# Poissons Ratio (y) = 0.31575 0.90462
# Poissons Ratio (z) = 0.36620 0.57958
#
# Static dielectric constant tensor:
#      x y z
#    x 1.612390 0.000000 0.000000 
#    y 0.000000 1.605700 0.000000 
#    z 0.000000 0.000000 1.619370 
# 
# From -- ./inp_files/6845.got.cif
#   From: 2010.05.17/outbox.cif.g08.bks.cpg/sg53_4_cif.got.tgz:6845.got - 2010.06.03 12:45:16.
