data_PCOD9417979
_publ_section_title
;
Structure prediction by ZEFSAII (Michael W. Deem and Ramdas Pophale) SiO2 
 PCOD9417979
Probable space group: P M N A
;
_chemical_formula_sum "Si O2"
_cell_formula_units_Z 56
_cell_length_a 19.533013
_cell_length_b 16.451380
_cell_length_c 9.546794
_cell_angle_alpha 90.000000
_cell_angle_beta 90.000000
_cell_angle_gamma 90.000000
_cell_volume 3067.814703
_symmetry_space_group_name_H-M "P M N A"
_symmetry_group_IT_number 53
_symmetry_cell_setting 'orthorhombic'
loop_
_space_group_symop_operation_xyz
x,y,z
1/2-x,-y,1/2+z
x,-y,-z
1/2-x,y,1/2-z
-x,-y,-z
1/2+x,y,1/2-z
-x,y,z
1/2+x,-y,1/2+z
loop_
_atom_site_type_symbol
_atom_site_label
_atom_site_fract_x
_atom_site_fract_y
_atom_site_fract_z
Si Si1 0.419583 0.227397 0.794567
Si Si2 0.732498 0.426403 0.586988
Si Si3 0.858437 0.340188 0.483304
Si Si4 0.500000 0.578836 0.900994
Si Si5 0.827489 0.199648 0.269700
Si Si6 0.081201 0.906242 0.526568
Si Si7 0.123827 0.291083 0.992567
Si Si8 0.000000 0.587286 0.926278
O O1 0.500000 0.247482 0.811032
O O2 0.373960 0.294589 0.871901
O O3 0.401684 0.232611 0.632179
O O4 0.407525 0.145521 0.883768
O O5 0.698575 0.500000 0.500000
O O6 0.750000 0.442761 0.750000
O O7 0.804167 0.409647 0.509885
O O8 0.686617 0.346041 0.564459
O O9 0.827349 0.276612 0.374297
O O10 0.931397 0.371122 0.431333
O O11 0.500000 0.563642 0.736543
O O12 0.500000 0.500000 0.000000
O O13 0.750000 0.169509 0.250000
O O14 0.875678 0.134601 0.348395
O O15 0.855933 0.235652 0.124534
O O16 0.000000 0.900200 0.559112
O O17 0.098391 0.000000 0.500000
O O18 0.064943 0.355824 0.035042
O O19 0.000000 0.500000 0.000000
#
# Coordination Sequence:
#
# PCOD9417979 Si02
#       8
#     8   8   8   4   8   8   8   4
#     4  10  20  37  66  91 118 156 198 248 306 365
#     4  12  27  40  58  83 121 167 213 272 320 364
#     4  11  22  40  60  84 115 160 215 256 305 376
#     4  12  26  38  60  84 115 162 217 267 316 370
#     4  11  23  40  66  93 124 167 205 251 307 382
#     4   9  21  43  72 101 129 159 201 250 307 379
#     4  12  24  40  61  89 125 162 212 259 314 375
#     4  12  28  40  56  86 125 163 207 280 327 355
#
# _framework density 18.254037
#
# number of rings (size 3 to 8) (size 9 to 14) (size 15 to 20)
#    0.000    1.000    5.714    0.857    6.000    2.286 
#    0.000    2.143    0.000    2.571    0.000    0.000 
#    0.000    0.000    0.000    0.000    0.000    0.000 
#
# Total GULP energy -312644.671077 kJ/mol
# GULP energy per Si atom -5582.940555 kJ/mol
# Density = 1.821249 g / cm^3
# Si number density = 18.254037 Si / 1000 Ang^3
#
#
#
# Elastic Constant Matrix: (Units=GPa)
#
#
# Indices 1 2 3 4 5 6 
#
# 1 84.1618 39.7546 38.2123 0.0000 0.0000 0.0000
# 2 39.7546 103.9146 54.7456 0.0000 0.0000 0.0000
# 3 38.2123 54.7456 155.3249 0.0000 0.0000 0.0000
# 4 0.0000 0.0000 0.0000 13.8568 0.0000 0.0000
# 5 0.0000 0.0000 0.0000 0.0000 22.3133 0.0000
# 6 0.0000 0.0000 0.0000 0.0000 0.0000 24.8805
#
#
#
# Elastic Compliance Matrix: (Units=1/GPa)
#
#
# Indices 1 2 3 4 5 6 
#
# 1 0.015016 -0.004665 -0.002050 0.000000 0.000000 0.000000
# 2 -0.004665 0.013267 -0.003528 0.000000 0.000000 0.000000
# 3 -0.002050 -0.003528 0.008186 0.000000 0.000000 0.000000
# 4 0.000000 0.000000 0.000000 0.072167 0.000000 0.000000
# 5 0.000000 0.000000 0.000000 0.000000 0.044816 0.000000
# 6 0.000000 0.000000 0.000000 0.000000 0.000000 0.040192
#
#
# Mechanical properties :
#
#
# Convention : Reuss Voigt Hill
#
# Bulk Modulus (GPa) = 62.56799 67.64736 65.10768
# Shear Modulus (GPa) = 22.78340 26.25604 24.51972
#
# Velocity S-wave (km/s) = 3.53672 3.79670 3.66901
# Velocity P-wave (km/s) = 7.14342 7.50728 7.32761
#
# Compressibility (1/GPa) = 0.01598261
#
# Stress axis : x y z
#
# Youngs Moduli (GPa) = 66.59533 75.37662 122.15862
#
# Poissons Ratio (x) = 0.35161 0.25044
# Poissons Ratio (y) = 0.31064 0.43102
# Poissons Ratio (z) = 0.13653 0.26596
#
# Static dielectric constant tensor:
#      x y z
#    x 1.671380 0.000000 0.000000 
#    y 0.000000 1.607360 0.000000 
#    z 0.000000 0.000000 1.675330 
# 
# From -- ./inp_files/11105.got.cif
#   From: 2010.05.17/outbox.cif.g08.bks.cpg/sg53_6_cif.got.tgz:11105.got - 2010.06.03 12:45:16.
