data_PCOD9417503
_publ_section_title
;
Structure prediction by ZEFSAII (Michael W. Deem and Ramdas Pophale) SiO2 
 PCOD9417503
Probable space group: P M N A
;
_chemical_formula_sum "Si O2"
_cell_formula_units_Z 64
_cell_length_a 8.707009
_cell_length_b 12.806141
_cell_length_c 29.062008
_cell_angle_alpha 90.000000
_cell_angle_beta 90.000000
_cell_angle_gamma 90.000000
_cell_volume 3240.506453
_symmetry_space_group_name_H-M "P M N A"
_symmetry_group_IT_number 53
_symmetry_cell_setting 'orthorhombic'
loop_
_space_group_symop_operation_xyz
x,y,z
1/2-x,-y,1/2+z
x,-y,-z
1/2-x,y,1/2-z
-x,-y,-z
1/2+x,y,1/2-z
-x,y,z
1/2+x,-y,1/2+z
loop_
_atom_site_type_symbol
_atom_site_label
_atom_site_fract_x
_atom_site_fract_y
_atom_site_fract_z
Si Si1 0.317799 0.999349 0.799044
Si Si2 0.182897 0.430965 0.300789
Si Si3 0.181666 0.608416 0.134611
Si Si4 0.812865 0.887297 0.019158
Si Si5 0.817929 0.211751 0.164410
Si Si6 0.320358 0.489730 0.054244
Si Si7 0.814301 0.152661 0.875713
Si Si8 0.683245 0.735553 0.562410
O O1 0.250000 0.033419 0.750000
O O2 0.500000 0.004638 0.797457
O O3 0.264367 0.881126 0.808992
O O4 0.254565 0.070637 0.840215
O O5 0.250000 0.446452 0.250000
O O6 0.230471 0.528809 0.332256
O O7 0.255003 0.324499 0.320879
O O8 0.000000 0.420767 0.299383
O O9 0.220258 0.570794 0.083063
O O10 0.225914 0.729286 0.138895
O O11 0.000000 0.598290 0.142976
O O12 0.763769 0.867350 0.071539
O O13 0.000000 0.886742 0.019106
O O14 0.765644 0.798801 0.982636
O O15 0.763796 0.000000 0.000000
O O16 0.794575 0.199934 0.109416
O O17 0.000000 0.207545 0.173481
O O18 0.500000 0.506401 0.064461
O O19 0.270863 0.373048 0.067433
O O20 0.295582 0.500000 0.000000
O O21 0.000000 0.143719 0.874927
O O22 0.500000 0.714242 0.558760
#
# Coordination Sequence:
#
# PCOD9417503 Si02
#       8
#     8   8   8   8   8   8   8   8
#     4  12  26  44  67  93 124 163 210 263 326 389
#     4  12  25  42  65  93 128 166 211 264 325 388
#     4  11  23  41  64  91 124 166 216 265 319 382
#     4   9  17  33  59  92 124 162 210 260 313 369
#     4  11  22  40  66  97 131 165 210 264 321 379
#     4  11  23  37  56  86 126 169 211 260 317 375
#     4  10  22  41  65  92 127 166 212 267 317 376
#     4  10  20  35  61  91 123 165 212 261 312 375
#
# _framework density 19.75
#
# number of rings (size 3 to 8) (size 9 to 14) (size 15 to 20)
#    0.000    1.250    1.250    5.250    0.000    6.000 
#    0.000    0.625    0.000    1.500    0.000    0.000 
#    0.000    0.000    0.000    0.000    0.000    0.000 
#
# Total GULP energy -357964.896124 kJ/mol
# GULP energy per Si atom -5593.201502 kJ/mol
# Density = 1.970505 g / cm^3
# Si number density = 19.750000 Si / 1000 Ang^3
#
#
#
# Elastic Constant Matrix: (Units=GPa)
#
#
# Indices 1 2 3 4 5 6 
#
# 1 46.4107 26.2263 35.5146 0.0000 0.0000 0.0000
# 2 26.2263 100.1617 37.2603 0.0000 0.0000 0.0000
# 3 35.5146 37.2603 109.8915 0.0000 0.0000 0.0000
# 4 0.0000 0.0000 0.0000 26.5000 0.0000 0.0000
# 5 0.0000 0.0000 0.0000 0.0000 57.6899 0.0000
# 6 0.0000 0.0000 0.0000 0.0000 0.0000 -206.4790
#
#
#
# Elastic Compliance Matrix: (Units=1/GPa)
#
#
# Indices 1 2 3 4 5 6 
#
# 1 0.030642 -0.004966 -0.008219 0.000000 0.000000 0.000000
# 2 -0.004966 0.012230 -0.002542 0.000000 0.000000 0.000000
# 3 -0.008219 -0.002542 0.012618 0.000000 0.000000 0.000000
# 4 0.000000 0.000000 0.000000 0.037736 0.000000 0.000000
# 5 0.000000 0.000000 0.000000 0.000000 0.017334 0.000000
# 6 0.000000 0.000000 0.000000 0.000000 0.000000 -0.004843
#
#
# Mechanical properties :
#
#
# Convention : Reuss Voigt Hill
#
# Bulk Modulus (GPa) = 41.60362 50.49626 46.04994
# Shear Modulus (GPa) = 34.43934 -13.96030 10.23952
#
# Velocity S-wave (km/s) = 4.18037 -2.66155 2.27943
# Velocity P-wave (km/s) = 6.66420 4.02220 5.50407
#
# Compressibility (1/GPa) = 0.02403637
#
# Stress axis : x y z
#
# Youngs Moduli (GPa) = 32.63446 81.76843 79.25189
#
# Poissons Ratio (x) = 0.40605 0.65139
# Poissons Ratio (y) = 0.16206 0.20144
# Poissons Ratio (z) = 0.26823 0.20784
#
# Static dielectric constant tensor:
#      x y z
#    x 1.661620 0.000000 0.000000 
#    y 0.000000 1.667740 0.000000 
#    z 0.000000 0.000000 1.691870 
# 
# From -- ./inp_files/38213.got.cif
#   From: 2010.05.17/outbox.cif.g08.bks.cpg/sg53_20_cif.got.tgz:38213.got - 2010.06.03 12:45:16.
