data_PCOD9417986
_publ_section_title
;
Structure prediction by ZEFSAII (Michael W. Deem and Ramdas Pophale) SiO2 
 PCOD9417986
Probable space group: P M N A
;
_chemical_formula_sum "Si O2"
_cell_formula_units_Z 64
_cell_length_a 9.164844
_cell_length_b 19.418827
_cell_length_c 22.110835
_cell_angle_alpha 90.000000
_cell_angle_beta 90.000000
_cell_angle_gamma 90.000000
_cell_volume 3935.076805
_symmetry_space_group_name_H-M "P M N A"
_symmetry_group_IT_number 53
_symmetry_cell_setting 'orthorhombic'
loop_
_space_group_symop_operation_xyz
x,y,z
1/2-x,-y,1/2+z
x,-y,-z
1/2-x,y,1/2-z
-x,-y,-z
1/2+x,y,1/2-z
-x,y,z
1/2+x,-y,1/2+z
loop_
_atom_site_type_symbol
_atom_site_label
_atom_site_fract_x
_atom_site_fract_y
_atom_site_fract_z
Si Si1 0.170122 0.914789 0.609477
Si Si2 0.675800 0.673321 0.008072
Si Si3 0.325456 0.166075 0.985888
Si Si4 0.326030 0.469345 0.313555
Si Si5 0.672066 0.212736 0.187156
Si Si6 0.823950 0.454125 0.939832
Si Si7 0.674492 0.668551 0.618357
Si Si8 0.669871 0.960417 0.435305
O O1 0.209522 0.865692 0.552200
O O2 0.186885 0.866275 0.667067
O O3 0.000000 0.932789 0.601265
O O4 0.261309 0.984364 0.610025
O O5 0.500000 0.669304 0.005191
O O6 0.716269 0.753695 0.019102
O O7 0.748070 0.651515 0.944555
O O8 0.741944 0.618617 0.054682
O O9 0.500000 0.162546 0.979035
O O10 0.250106 0.112552 0.940434
O O11 0.250000 0.487473 0.250000
O O12 0.500000 0.476807 0.305732
O O13 0.286766 0.510499 0.375381
O O14 0.295459 0.390026 0.331811
O O15 0.750000 0.224825 0.250000
O O16 0.500000 0.229528 0.188113
O O17 0.754766 0.260822 0.139927
O O18 0.000000 0.445254 0.941556
O O19 0.787062 0.500000 0.000000
O O20 0.500000 0.672683 0.610086
O O21 0.500000 0.950035 0.424435
O O22 0.687173 0.000000 0.500000
#
# Coordination Sequence:
#
# PCOD9417986 Si02
#       8
#     8   8   8   8   8   8   8   8
#     4   9  17  31  47  63  93 133 166 202 250 300
#     4  11  21  33  52  80 107 137 177 219 261 315
#     4   9  17  31  47  67  98 131 161 198 251 306
#     4  10  22  38  56  77 103 138 178 221 267 318
#     4  11  22  35  48  70 100 137 181 220 258 307
#     4  10  20  38  56  75 107 142 177 217 269 326
#     4  11  21  35  53  73 102 143 179 217 265 313
#     4   9  17  27  43  70  95 119 159 201 238 288
#
# _framework density 16.263977000000001
#
# number of rings (size 3 to 8) (size 9 to 14) (size 15 to 20)
#    0.000    2.000    2.500    1.875    0.000    6.250 
#    0.000    0.000    0.000    0.000    0.000    0.875 
#    0.000    6.000    0.000    0.000    0.000    0.000 
#
# Total GULP energy -356712.277335 kJ/mol
# GULP energy per Si atom -5573.629333 kJ/mol
# Density = 1.622696 g / cm^3
# Si number density = 16.263977 Si / 1000 Ang^3
#
#
#
# Elastic Constant Matrix: (Units=GPa)
#
#
# Indices 1 2 3 4 5 6 
#
# 1 40.8690 45.7318 30.4870 0.0000 0.0000 0.0000
# 2 45.7318 99.9445 35.7833 0.0000 0.0000 0.0000
# 3 30.4870 35.7833 67.3500 0.0000 0.0000 0.0000
# 4 0.0000 0.0000 0.0000 15.4793 0.0000 0.0000
# 5 0.0000 0.0000 0.0000 0.0000 14.8680 0.0000
# 6 0.0000 0.0000 0.0000 0.0000 0.0000 29.1574
#
#
#
# Elastic Compliance Matrix: (Units=1/GPa)
#
#
# Indices 1 2 3 4 5 6 
#
# 1 0.061383 -0.022400 -0.015885 0.000000 0.000000 0.000000
# 2 -0.022400 0.020530 -0.000768 0.000000 0.000000 0.000000
# 3 -0.015885 -0.000768 0.022446 0.000000 0.000000 0.000000
# 4 0.000000 0.000000 0.000000 0.064602 0.000000 0.000000
# 5 0.000000 0.000000 0.000000 0.000000 0.067258 0.000000
# 6 0.000000 0.000000 0.000000 0.000000 0.000000 0.034297
#
#
# Mechanical properties :
#
#
# Convention : Reuss Voigt Hill
#
# Bulk Modulus (GPa) = 38.08941 48.01864 43.05403
# Shear Modulus (GPa) = 13.99094 18.31171 16.15133
#
# Velocity S-wave (km/s) = 2.93617 3.35909 3.15473
# Velocity P-wave (km/s) = 5.91313 6.68082 6.30866
#
# Compressibility (1/GPa) = 0.02625401
#
# Stress axis : x y z
#
# Youngs Moduli (GPa) = 16.29112 48.70900 44.55051
#
# Poissons Ratio (x) = 1.09108 0.70768
# Poissons Ratio (y) = 0.36492 0.03422
# Poissons Ratio (z) = 0.25878 0.03741
#
# Static dielectric constant tensor:
#      x y z
#    x 1.537520 0.000000 0.000000 
#    y 0.000000 1.555000 0.000000 
#    z 0.000000 0.000000 1.525570 
# 
# From -- ./inp_files/31319.got.cif
#   From: 2010.05.17/outbox.cif.g08.bks.cpg/sg53_16_cif.got.tgz:31319.got - 2010.06.03 12:45:16.
