data_PCOD9417947
_publ_section_title
;
Structure prediction by ZEFSAII (Michael W. Deem and Ramdas Pophale) SiO2 
 PCOD9417947
Probable space group: P M N A
;
_chemical_formula_sum "Si O2"
_cell_formula_units_Z 40
_cell_length_a 15.146771
_cell_length_b 12.719124
_cell_length_c 8.876868
_cell_angle_alpha 90.000000
_cell_angle_beta 90.000000
_cell_angle_gamma 90.000000
_cell_volume 1710.161097
_symmetry_space_group_name_H-M "P M N A"
_symmetry_group_IT_number 53
_symmetry_cell_setting 'orthorhombic'
loop_
_space_group_symop_operation_xyz
x,y,z
1/2-x,-y,1/2+z
x,-y,-z
1/2-x,y,1/2-z
-x,-y,-z
1/2+x,y,1/2-z
-x,y,z
1/2+x,-y,1/2+z
loop_
_atom_site_type_symbol
_atom_site_label
_atom_site_fract_x
_atom_site_fract_y
_atom_site_fract_z
Si Si1 0.155065 0.357065 0.799204
Si Si2 0.893414 0.147995 0.623050
Si Si3 0.401131 0.551611 0.851935
Si Si4 0.391761 0.723799 0.623702
Si Si5 0.892558 0.076124 0.288141
O O1 0.250000 0.397604 0.750000
O O2 0.137238 0.256772 0.692919
O O3 0.093619 0.455941 0.765352
O O4 0.146595 0.319330 0.969354
O O5 0.867491 0.124958 0.450545
O O6 0.000000 0.150508 0.626101
O O7 0.863972 0.044945 0.716985
O O8 0.500000 0.585784 0.900559
O O9 0.363184 0.650758 0.764014
O O10 0.358213 0.500000 0.000000
O O11 0.500000 0.718483 0.614105
O O12 0.365153 0.843434 0.659009
O O13 0.000000 0.074562 0.286730
#
# Coordination Sequence:
#
# PCOD9417947 Si02
#       5
#     8   8   8   8   8
#     4  12  25  37  51  79 119 157 190 226 277 336
#     4   9  17  35  60  83 111 146 188 235 283 335
#     4  10  21  39  64  87 107 140 188 239 289 340
#     4  10  20  37  62  89 114 143 187 240 289 337
#     4   8  16  33  61  89 108 138 187 241 289 331
#
# _framework density 23.389610000000001
#
# number of rings (size 3 to 8) (size 9 to 14) (size 15 to 20)
#    0.000    2.200    0.000    4.800    0.000    7.200 
#    0.000   10.000    0.000    0.000    0.000    0.000 
#    0.000    0.000    0.000    0.000    0.000    0.000 
#
# Total GULP energy -223527.490962 kJ/mol
# GULP energy per Si atom -5588.187274 kJ/mol
# Density = 2.333637 g / cm^3
# Si number density = 23.389610 Si / 1000 Ang^3
#
#
#
# Elastic Constant Matrix: (Units=GPa)
#
#
# Indices 1 2 3 4 5 6 
#
# 1 57.6620 -0.7202 9.0635 0.0000 0.0000 0.0000
# 2 -0.7202 84.9473 -13.3608 0.0000 0.0000 0.0000
# 3 9.0635 -13.3608 32.1569 0.0000 0.0000 0.0000
# 4 0.0000 0.0000 0.0000 42.3482 0.0000 0.0000
# 5 0.0000 0.0000 0.0000 0.0000 35.9070 0.0000
# 6 0.0000 0.0000 0.0000 0.0000 0.0000 38.4687
#
#
#
# Elastic Compliance Matrix: (Units=1/GPa)
#
#
# Indices 1 2 3 4 5 6 
#
# 1 0.018185 -0.000698 -0.005415 0.000000 0.000000 0.000000
# 2 -0.000698 0.012622 0.005441 0.000000 0.000000 0.000000
# 3 -0.005415 0.005441 0.034884 0.000000 0.000000 0.000000
# 4 0.000000 0.000000 0.000000 0.023614 0.000000 0.000000
# 5 0.000000 0.000000 0.000000 0.000000 0.027850 0.000000
# 6 0.000000 0.000000 0.000000 0.000000 0.000000 0.025995
#
#
# Mechanical properties :
#
#
# Convention : Reuss Voigt Hill
#
# Bulk Modulus (GPa) = 15.54070 18.30347 16.92209
# Shear Modulus (GPa) = 30.13084 35.33037 32.73061
#
# Velocity S-wave (km/s) = 3.59306 3.89075 3.74487
# Velocity P-wave (km/s) = 4.88592 5.29400 5.09404
#
# Compressibility (1/GPa) = 0.06434715
#
# Stress axis : x y z
#
# Youngs Moduli (GPa) = 54.99062 79.22780 28.66605
#
# Poissons Ratio (x) = 0.05527 0.15524
# Poissons Ratio (y) = 0.03836 -0.15597
# Poissons Ratio (z) = 0.29779 -0.43106
#
# Static dielectric constant tensor:
#      x y z
#    x 1.941280 0.000000 0.000000 
#    y 0.000000 1.850340 0.000000 
#    z 0.000000 0.000000 1.861460 
# 
# From -- ./inp_files/8373.got.cif
#   From: 2010.05.17/outbox.cif.g08.bks.cpg/sg53_5_cif.got.tgz:8373.got - 2010.06.03 12:45:16.
