data_PCOD9417838
_publ_section_title
;
Structure prediction by ZEFSAII (Michael W. Deem and Ramdas Pophale) SiO2 
 PCOD9417838
Probable space group: P M N A
;
_chemical_formula_sum "Si O2"
_cell_formula_units_Z 64
_cell_length_a 8.141674
_cell_length_b 14.809703
_cell_length_c 25.656997
_cell_angle_alpha 90.000000
_cell_angle_beta 90.000000
_cell_angle_gamma 90.000000
_cell_volume 3093.612268
_symmetry_space_group_name_H-M "P M N A"
_symmetry_group_IT_number 53
_symmetry_cell_setting 'orthorhombic'
loop_
_space_group_symop_operation_xyz
x,y,z
1/2-x,-y,1/2+z
x,-y,-z
1/2-x,y,1/2-z
-x,-y,-z
1/2+x,y,1/2-z
-x,y,z
1/2+x,-y,1/2+z
loop_
_atom_site_type_symbol
_atom_site_label
_atom_site_fract_x
_atom_site_fract_y
_atom_site_fract_z
Si Si1 0.301037 0.787833 0.308185
Si Si2 0.692664 0.532752 0.942566
Si Si3 0.192886 0.270342 0.086369
Si Si4 0.808333 0.989203 0.167655
Si Si5 0.807723 0.968333 0.444238
Si Si6 0.698535 0.816115 0.694577
Si Si7 0.811556 0.642537 0.107048
Si Si8 0.314800 0.234534 0.976279
O O1 0.250000 0.762175 0.250000
O O2 0.500000 0.790837 0.312849
O O3 0.237609 0.890483 0.318312
O O4 0.244171 0.713273 0.350136
O O5 0.500000 0.553607 0.947567
O O6 0.779418 0.623313 0.923028
O O7 0.718743 0.450567 0.902651
O O8 0.750966 0.500000 0.000000
O O9 0.253519 0.236724 0.142706
O O10 0.279352 0.223007 0.037193
O O11 0.000000 0.249896 0.083084
O O12 0.789869 0.000819 0.105630
O O13 0.000000 0.986033 0.182041
O O14 0.736060 0.080457 0.191718
O O15 0.801384 0.860270 0.447197
O O16 0.000000 0.995759 0.439782
O O17 0.743633 0.000000 0.500000
O O18 0.750000 0.775991 0.750000
O O19 0.500000 0.818883 0.692902
O O20 0.000000 0.622002 0.120126
O O21 0.803022 0.695768 0.052167
O O22 0.500000 0.269702 0.970040
#
# Coordination Sequence:
#
# PCOD9417838 Si02
#       8
#     8   8   8   8   8   8   8   8
#     4  10  22  38  59  87 118 156 200 242 289 344
#     4  11  23  39  62  92 120 151 194 241 293 357
#     4  11  23  39  61  90 120 155 197 243 297 356
#     4  10  20  37  58  85 118 154 201 246 288 346
#     4  10  21  34  50  79 118 159 200 241 291 348
#     4  10  23  41  62  88 119 157 203 249 295 346
#     4  11  22  38  60  87 119 155 193 239 293 350
#     4  11  21  34  55  85 120 156 194 239 293 352
#
# _framework density 20.687788000000001
#
# number of rings (size 3 to 8) (size 9 to 14) (size 15 to 20)
#    0.000    1.500    2.500    2.625    0.000    4.250 
#    0.000    0.625    0.000    0.000    0.000    0.000 
#    0.000    0.000    0.000    0.000    0.000    0.000 
#
# Total GULP energy -357509.523187 kJ/mol
# GULP energy per Si atom -5586.086300 kJ/mol
# Density = 2.064070 g / cm^3
# Si number density = 20.687788 Si / 1000 Ang^3
#
#
#
# Elastic Constant Matrix: (Units=GPa)
#
#
# Indices 1 2 3 4 5 6 
#
# 1 17.1529 4.7229 -8.8466 0.0000 0.0000 0.0000
# 2 4.7229 69.5697 37.5598 0.0000 0.0000 0.0000
# 3 -8.8466 37.5598 124.3827 0.0000 0.0000 0.0000
# 4 0.0000 0.0000 0.0000 19.4928 0.0000 0.0000
# 5 0.0000 0.0000 0.0000 0.0000 26.6933 0.0000
# 6 0.0000 0.0000 0.0000 0.0000 0.0000 13.4839
#
#
#
# Elastic Compliance Matrix: (Units=1/GPa)
#
#
# Indices 1 2 3 4 5 6 
#
# 1 0.064165 -0.008148 0.007024 0.000000 0.000000 0.000000
# 2 -0.008148 0.018209 -0.006078 0.000000 0.000000 0.000000
# 3 0.007024 -0.006078 0.010375 0.000000 0.000000 0.000000
# 4 0.000000 0.000000 0.000000 0.051301 0.000000 0.000000
# 5 0.000000 0.000000 0.000000 0.000000 0.037463 0.000000
# 6 0.000000 0.000000 0.000000 0.000000 0.000000 0.074162
#
#
# Mechanical properties :
#
#
# Convention : Reuss Voigt Hill
#
# Bulk Modulus (GPa) = 12.76412 30.88637 21.82524
# Shear Modulus (GPa) = 16.88084 23.77862 20.32973
#
# Velocity S-wave (km/s) = 2.85964 3.39396 3.13819
# Velocity P-wave (km/s) = 4.13360 5.50643 4.86865
#
# Compressibility (1/GPa) = 0.07834464
#
# Stress axis : x y z
#
# Youngs Moduli (GPa) = 15.58472 54.91884 96.38859
#
# Poissons Ratio (x) = 0.44750 -0.67706
# Poissons Ratio (y) = 0.12699 0.58585
# Poissons Ratio (z) = -0.10947 0.33380
#
# Static dielectric constant tensor:
#      x y z
#    x 1.729300 0.000000 0.000000 
#    y 0.000000 1.756930 0.000000 
#    z 0.000000 0.000000 1.732470 
# 
# From -- ./inp_files/34231.got.cif
#   From: 2010.05.17/outbox.cif.g08.bks.cpg/sg53_18_cif.got.tgz:34231.got - 2010.06.03 12:45:16.
