data_PCOD9417191
_publ_section_title
;
Structure prediction by ZEFSAII (Michael W. Deem and Ramdas Pophale) SiO2 
 PCOD9417191
Probable space group: P M N A
;
_chemical_formula_sum "Si O2"
_cell_formula_units_Z 48
_cell_length_a 10.479054
_cell_length_b 7.593727
_cell_length_c 28.710656
_cell_angle_alpha 90.000000
_cell_angle_beta 90.000000
_cell_angle_gamma 90.000000
_cell_volume 2284.652613
_symmetry_space_group_name_H-M "P M N A"
_symmetry_group_IT_number 53
_symmetry_cell_setting 'orthorhombic'
loop_
_space_group_symop_operation_xyz
x,y,z
1/2-x,-y,1/2+z
x,-y,-z
1/2-x,y,1/2-z
-x,-y,-z
1/2+x,y,1/2-z
-x,y,z
1/2+x,-y,1/2+z
loop_
_atom_site_type_symbol
_atom_site_label
_atom_site_fract_x
_atom_site_fract_y
_atom_site_fract_z
Si Si1 0.296393 0.947177 0.895088
Si Si2 0.135201 0.177657 0.029917
Si Si3 0.648314 0.722558 0.038318
Si Si4 0.641966 0.556848 0.889016
Si Si5 0.647749 0.519305 0.212428
Si Si6 0.148139 0.055253 0.710646
O O1 0.162027 0.886666 0.917495
O O2 0.367769 0.761606 0.899461
O O3 0.306564 0.005542 0.841613
O O4 0.345087 0.101364 0.929463
O O5 0.000000 0.274732 0.026787
O O6 0.257987 0.263725 0.005453
O O7 0.124888 0.000000 0.000000
O O8 0.500000 0.695938 0.024300
O O9 0.698793 0.565203 0.071199
O O10 0.500000 0.478667 0.883679
O O11 0.699474 0.537244 0.838050
O O12 0.750000 0.456968 0.250000
O O13 0.500000 0.458523 0.218959
O O14 0.644742 0.731930 0.213267
O O15 0.250000 0.995462 0.750000
O O16 0.000000 0.994516 0.716916
#
# Coordination Sequence:
#
# PCOD9417191 Si02
#       6
#     8   8   8   8   8   8
#     4  11  21  36  60  85 114 150 191 234 281 332
#     4   9  21  40  60  84 117 154 187 229 285 339
#     4  10  20  37  60  85 113 147 191 236 278 330
#     4  10  20  34  56  85 114 145 186 238 283 327
#     4   9  18  35  55  78 111 146 185 230 279 333
#     4  10  20  35  57  83 112 147 186 229 279 332
#
# _framework density 21.009758999999999
#
# number of rings (size 3 to 8) (size 9 to 14) (size 15 to 20)
#    0.000    2.167    1.667    1.500    0.000    6.333 
#    0.000    5.000    0.000    0.000    0.000    0.000 
#    0.000    0.000    0.000    0.000    0.000    0.000 
#
# Total GULP energy -267460.302433 kJ/mol
# GULP energy per Si atom -5572.089634 kJ/mol
# Density = 2.096194 g / cm^3
# Si number density = 21.009759 Si / 1000 Ang^3
#
#
#
# Elastic Constant Matrix: (Units=GPa)
#
#
# Indices 1 2 3 4 5 6 
#
# 1 128.3849 20.1695 89.8395 0.0000 0.0000 0.0000
# 2 20.1695 86.4538 31.5990 0.0000 0.0000 0.0000
# 3 89.8395 31.5990 145.9678 0.0000 0.0000 0.0000
# 4 0.0000 0.0000 0.0000 22.9146 0.0000 0.0000
# 5 0.0000 0.0000 0.0000 0.0000 163.2317 0.0000
# 6 0.0000 0.0000 0.0000 0.0000 0.0000 -5.6105
#
#
#
# Elastic Compliance Matrix: (Units=1/GPa)
#
#
# Indices 1 2 3 4 5 6 
#
# 1 0.013683 -0.000124 -0.008395 0.000000 0.000000 0.000000
# 2 -0.000124 0.012562 -0.002643 0.000000 0.000000 0.000000
# 3 -0.008395 -0.002643 0.012590 0.000000 0.000000 0.000000
# 4 0.000000 0.000000 0.000000 0.043640 0.000000 0.000000
# 5 0.000000 0.000000 0.000000 0.000000 0.006126 0.000000
# 6 0.000000 0.000000 0.000000 0.000000 0.000000 -0.178236
#
#
# Mechanical properties :
#
#
# Convention : Reuss Voigt Hill
#
# Bulk Modulus (GPa) = 60.56550 71.55808 66.06179
# Shear Modulus (GPa) = -80.89558 50.72037 -15.08760
#
# Velocity S-wave (km/s) = -6.21188 4.91871 -2.68269
# Velocity P-wave (km/s) = 4.74973 8.14811 4.68144
#
# Compressibility (1/GPa) = 0.01651105
#
# Stress axis : x y z
#
# Youngs Moduli (GPa) = 73.08438 79.60618 79.43023
#
# Poissons Ratio (x) = 0.00987 0.66678
# Poissons Ratio (y) = 0.00906 0.20994
# Poissons Ratio (z) = 0.61351 0.21041
#
# Static dielectric constant tensor:
#      x y z
#    x 1.825010 0.000000 0.000000 
#    y 0.000000 1.770310 0.000000 
#    z 0.000000 0.000000 1.787460 
# 
# From -- ./inp_files/34891.got.cif
#   From: 2010.05.17/outbox.cif.g08.bks.cpg/sg53_18_cif.got.tgz:34891.got - 2010.06.03 12:45:16.
