data_PCOD9417177
_publ_section_title
;
Structure prediction by ZEFSAII (Michael W. Deem and Ramdas Pophale) SiO2 
 PCOD9417177
Probable space group: P M N A
;
_chemical_formula_sum "Si O2"
_cell_formula_units_Z 64
_cell_length_a 16.454236
_cell_length_b 10.003770
_cell_length_c 20.687025
_cell_angle_alpha 90.000000
_cell_angle_beta 90.000000
_cell_angle_gamma 90.000000
_cell_volume 3405.175182
_symmetry_space_group_name_H-M "P M N A"
_symmetry_group_IT_number 53
_symmetry_cell_setting 'orthorhombic'
loop_
_space_group_symop_operation_xyz
x,y,z
1/2-x,-y,1/2+z
x,-y,-z
1/2-x,y,1/2-z
-x,-y,-z
1/2+x,y,1/2-z
-x,y,z
1/2+x,-y,1/2+z
loop_
_atom_site_type_symbol
_atom_site_label
_atom_site_fract_x
_atom_site_fract_y
_atom_site_fract_z
Si Si1 0.177625 0.007158 0.803433
Si Si2 0.708723 0.669059 0.118311
Si Si3 0.904115 0.154978 0.379353
Si Si4 0.669717 0.460508 0.704764
Si Si5 0.590654 0.555666 0.927604
Si Si6 0.909664 0.768388 0.273833
Si Si7 0.597133 0.747113 0.732235
Si Si8 0.223789 0.939172 0.430957
O O1 0.250000 0.998688 0.750000
O O2 0.134197 0.865787 0.809595
O O3 0.211431 0.050421 0.872758
O O4 0.114053 0.110949 0.772905
O O5 0.795624 0.611529 0.140569
O O6 0.654404 0.538164 0.107779
O O7 0.661057 0.753632 0.173284
O O8 0.709397 0.779489 0.062120
O O9 0.890941 0.287544 0.422636
O O10 0.884011 0.207188 0.306653
O O11 0.851502 0.030425 0.404556
O O12 0.000000 0.120778 0.380475
O O13 0.750000 0.453546 0.750000
O O14 0.599681 0.367727 0.733838
O O15 0.638888 0.610893 0.709038
O O16 0.500000 0.538905 0.898484
O O17 0.588404 0.500000 0.000000
O O18 0.000000 0.784718 0.301020
O O19 0.500000 0.736155 0.727852
O O20 0.247540 0.000000 0.500000
#
# Coordination Sequence:
#
# PCOD9417177 Si02
#       8
#     8   8   8   8   8   8   8   8
#     4  12  21  40  60  86 120 152 198 253 297 351
#     4  11  21  37  57  88 120 159 201 246 300 358
#     4  10  21  37  58  88 125 163 202 243 297 364
#     4  10  20  34  55  88 124 152 186 248 300 355
#     4  10  21  36  53  80 123 168 204 239 290 363
#     4  11  20  35  60  87 119 155 194 245 299 350
#     4  11  22  36  60  92 119 152 198 250 312 362
#     4  12  25  40  60  87 123 164 207 249 297 360
#
# _framework density 18.794922
#
# number of rings (size 3 to 8) (size 9 to 14) (size 15 to 20)
#    0.000    1.125    3.750    4.125    1.750    3.250 
#    0.000    0.000    0.000    1.500    0.000    0.875 
#    0.000    0.000    0.000    0.000    0.000    0.000 
#
# Total GULP energy -357082.912323 kJ/mol
# GULP energy per Si atom -5579.420505 kJ/mol
# Density = 1.875214 g / cm^3
# Si number density = 18.794922 Si / 1000 Ang^3
#
#
#
# Elastic Constant Matrix: (Units=GPa)
#
#
# Indices 1 2 3 4 5 6 
#
# 1 52.1609 15.1546 12.9318 0.0000 0.0000 0.0000
# 2 15.1546 89.4545 -5.1622 0.0000 0.0000 0.0000
# 3 12.9318 -5.1622 44.3873 0.0000 0.0000 0.0000
# 4 0.0000 0.0000 0.0000 4.4983 0.0000 0.0000
# 5 0.0000 0.0000 0.0000 0.0000 5835.7487 0.0000
# 6 0.0000 0.0000 0.0000 0.0000 0.0000 16.6814
#
#
#
# Elastic Compliance Matrix: (Units=1/GPa)
#
#
# Indices 1 2 3 4 5 6 
#
# 1 0.022090 -0.004141 -0.006917 0.000000 0.000000 0.000000
# 2 -0.004141 0.012031 0.002606 0.000000 0.000000 0.000000
# 3 -0.006917 0.002606 0.024847 0.000000 0.000000 0.000000
# 4 0.000000 0.000000 0.000000 0.222307 0.000000 0.000000
# 5 0.000000 0.000000 0.000000 0.000000 0.000171 0.000000
# 6 0.000000 0.000000 0.000000 0.000000 0.000000 0.059947
#
#
# Mechanical properties :
#
#
# Convention : Reuss Voigt Hill
#
# Bulk Modulus (GPa) = 23.77447 25.76123 24.76785
# Shear Modulus (GPa) = 13.42933 1182.25758 597.84346
#
# Velocity S-wave (km/s) = 2.67595 25.10769 17.85436
# Velocity P-wave (km/s) = 4.71428 29.22780 20.93428
#
# Compressibility (1/GPa) = 0.04206193
#
# Stress axis : x y z
#
# Youngs Moduli (GPa) = 45.27017 83.11971 40.24581
#
# Poissons Ratio (x) = 0.34423 0.27839
# Poissons Ratio (y) = 0.18748 -0.10487
# Poissons Ratio (z) = 0.31315 -0.21659
#
# Static dielectric constant tensor:
#      x y z
#    x 1.650910 0.000000 0.000000 
#    y 0.000000 1.689610 0.000000 
#    z 0.000000 0.000000 1.662310 
# 
# From -- ./inp_files/32852.got.cif
#   From: 2010.05.17/outbox.cif.g08.bks.cpg/sg53_17_cif.got.tgz:32852.got - 2010.06.03 12:45:16.
