data_PCOD9417025
_publ_section_title
;
Structure prediction by ZEFSAII (Michael W. Deem and Ramdas Pophale) SiO2 
 PCOD9417025
Probable space group: P M N A
;
_chemical_formula_sum "Si O2"
_cell_formula_units_Z 56
_cell_length_a 26.863866
_cell_length_b 7.765865
_cell_length_c 15.792078
_cell_angle_alpha 90.000000
_cell_angle_beta 90.000000
_cell_angle_gamma 90.000000
_cell_volume 3294.561580
_symmetry_space_group_name_H-M "P M N A"
_symmetry_group_IT_number 53
_symmetry_cell_setting 'orthorhombic'
loop_
_space_group_symop_operation_xyz
x,y,z
1/2-x,-y,1/2+z
x,-y,-z
1/2-x,y,1/2-z
-x,-y,-z
1/2+x,y,1/2-z
-x,y,z
1/2+x,-y,1/2+z
loop_
_atom_site_type_symbol
_atom_site_label
_atom_site_fract_x
_atom_site_fract_y
_atom_site_fract_z
Si Si1 0.694858 0.799247 0.283883
Si Si2 0.194858 0.799247 0.783883
Si Si3 0.844492 0.500000 0.899962
Si Si4 0.055647 0.500000 0.201844
Si Si5 0.904701 0.196862 0.316335
Si Si6 0.595299 0.803137 0.183664
Si Si7 0.441745 0.707369 1.000000
O O1 0.750000 0.763215 0.250000
O O2 0.680441 0.667903 0.357703
O O3 0.652887 0.776434 0.210946
O O4 0.692879 0.000000 0.310384
O O5 0.250000 0.763215 0.750000
O O6 0.180441 0.667902 0.857703
O O7 0.152887 0.776434 0.710946
O O8 0.901794 0.499999 0.868978
O O9 0.840122 0.500000 0.000000
O O10 0.064565 0.334272 0.261681
O O11 0.064565 0.665727 0.261682
O O12 0.000000 0.500001 0.167946
O O13 0.915524 0.227488 0.414833
O O14 0.917825 0.999999 0.294880
O O15 0.584476 0.772512 0.085167
O O16 0.500000 0.759949 0.000000
O O17 0.440228 0.500000 0.000000
#
# Coordination Sequence:
#
# PCOD9417025 Si02
#       7
#     8   8   8   8   8   8   8
#     4   9  19  38  59  78 106 141 176 217 264 314
#     4   9  19  38  59  78 106 141 176 217 264 314
#     4  10  21  36  55  82 108 135 174 218 264 311
#     4  10  20  35  54  75 103 138 176 217 260 311
#     4  10  20  34  53  76 104 139 178 217 260 314
#     4  10  20  34  53  76 104 139 178 217 260 314
#     4  11  21  33  49  74 111 145 174 217 265 311
#
# _framework density 16.997710999999999
#
# number of rings (size 3 to 8) (size 9 to 14) (size 15 to 20)
#    0.000    2.143    1.429    1.714    0.000    3.714 
#    2.571    0.000    0.000    0.000    0.000    8.000 
#    0.000    0.000    0.000    0.000    0.000    0.000 
#
# Total GULP energy -312482.728791 kJ/mol
# GULP energy per Si atom -5580.048728 kJ/mol
# Density = 1.695902 g / cm^3
# Si number density = 16.997711 Si / 1000 Ang^3
#
#
#
# Elastic Constant Matrix: (Units=GPa)
#
#
# Indices 1 2 3 4 5 6 
#
# 1 127.9108 70.7300 68.9737 0.0000 0.0000 0.0000
# 2 70.7300 108.2295 68.7142 0.0000 0.0000 0.0000
# 3 68.9737 68.7142 143.8227 0.0000 0.0000 0.0000
# 4 0.0000 0.0000 0.0000 3.0555 0.0000 0.0000
# 5 0.0000 0.0000 0.0000 0.0000 5.4485 0.0000
# 6 0.0000 0.0000 0.0000 0.0000 0.0000 87.8462
#
#
#
# Elastic Compliance Matrix: (Units=1/GPa)
#
#
# Indices 1 2 3 4 5 6 
#
# 1 0.013174 -0.006600 -0.003164 0.000000 0.000000 0.000000
# 2 -0.006600 0.016570 -0.004751 0.000000 0.000000 0.000000
# 3 -0.003164 -0.004751 0.010741 0.000000 0.000000 0.000000
# 4 0.000000 0.000000 0.000000 0.327282 0.000000 0.000000
# 5 0.000000 0.000000 0.000000 0.000000 0.183538 0.000000
# 6 0.000000 0.000000 0.000000 0.000000 0.000000 0.011384
#
#
# Mechanical properties :
#
#
# Convention : Reuss Voigt Hill
#
# Bulk Modulus (GPa) = 87.31887 88.53320 87.92604
# Shear Modulus (GPa) = 8.39579 30.70636 19.55107
#
# Velocity S-wave (km/s) = 2.22488 4.25490 3.39517
# Velocity P-wave (km/s) = 7.62119 8.73713 8.19817
#
# Compressibility (1/GPa) = 0.01145228
#
# Stress axis : x y z
#
# Youngs Moduli (GPa) = 75.90620 60.35169 93.10538
#
# Poissons Ratio (x) = 0.39835 0.29463
# Poissons Ratio (y) = 0.50101 0.44235
# Poissons Ratio (z) = 0.24020 0.28673
#
# Static dielectric constant tensor:
#      x y z
#    x 1.573510 0.000000 0.000000 
#    y 0.000000 1.590510 0.000000 
#    z 0.000000 0.000000 1.525170 
# 
# From -- ./inp_files/24329.got.cif
#   From: 2010.05.17/outbox.cif.g08.bks.cpg/sg53_13_cif.got.tgz:24329.got - 2010.06.03 12:45:16.
