data_PCOD9417053
_publ_section_title
;
Structure prediction by ZEFSAII (Michael W. Deem and Ramdas Pophale) SiO2 
 PCOD9417053
Probable space group: P M N A
;
_chemical_formula_sum "Si O2"
_cell_formula_units_Z 56
_cell_length_a 8.566020
_cell_length_b 16.094766
_cell_length_c 20.435225
_cell_angle_alpha 90.000000
_cell_angle_beta 90.000000
_cell_angle_gamma 90.000000
_cell_volume 2817.365387
_symmetry_space_group_name_H-M "P M N A"
_symmetry_group_IT_number 53
_symmetry_cell_setting 'orthorhombic'
loop_
_space_group_symop_operation_xyz
x,y,z
1/2-x,-y,1/2+z
x,-y,-z
1/2-x,y,1/2-z
-x,-y,-z
1/2+x,y,1/2-z
-x,y,z
1/2+x,-y,1/2+z
loop_
_atom_site_type_symbol
_atom_site_label
_atom_site_fract_x
_atom_site_fract_y
_atom_site_fract_z
Si Si1 0.813125 0.073017 0.549385
Si Si2 0.311364 0.748229 0.455566
Si Si3 0.688360 0.329050 0.680022
Si Si4 0.811426 0.333691 0.085758
Si Si5 0.686014 0.004126 0.321526
Si Si6 0.688394 0.521410 0.679611
Si Si7 0.186540 0.810993 0.677925
O O1 0.757255 0.162728 0.525721
O O2 0.000000 0.071034 0.553465
O O3 0.762390 0.000000 0.500000
O O4 0.742012 0.055261 0.620635
O O5 0.500000 0.754153 0.454897
O O6 0.258838 0.722104 0.383135
O O7 0.267313 0.680494 0.510348
O O8 0.750000 0.298956 0.750000
O O9 0.500000 0.327371 0.681517
O O10 0.738017 0.425557 0.671794
O O11 0.759099 0.417900 0.121598
O O12 0.747569 0.256087 0.126796
O O13 0.000000 0.332108 0.088879
O O14 0.750000 0.980215 0.250000
O O15 0.500000 0.007233 0.318896
O O16 0.751152 0.096462 0.336469
O O17 0.750000 0.551437 0.750000
O O18 0.500000 0.522262 0.681304
O O19 0.250000 0.788913 0.750000
O O20 0.000000 0.812791 0.678742
#
# Coordination Sequence:
#
# PCOD9417053 Si02
#       7
#     8   8   8   8   8   8   8
#     4  11  24  41  60  83 113 149 189 233 283 339
#     4  10  22  38  57  82 111 146 187 231 283 338
#     4   9  19  37  59  83 111 145 186 232 281 332
#     4  10  20  34  53  80 113 148 187 230 277 331
#     4  11  22  38  60  84 111 143 184 233 284 338
#     4   9  18  33  55  82 112 147 186 228 274 326
#     4  11  21  34  53  79 113 150 187 228 276 330
#
# _framework density 19.876726999999999
#
# number of rings (size 3 to 8) (size 9 to 14) (size 15 to 20)
#    0.000    1.857    0.000    5.143    0.000    7.429 
#    0.000    4.286    0.000    0.000    0.000    6.000 
#    0.000    0.000    0.000    0.000    0.000    0.000 
#
# Total GULP energy -312928.704917 kJ/mol
# GULP energy per Si atom -5588.012588 kJ/mol
# Density = 1.983149 g / cm^3
# Si number density = 19.876727 Si / 1000 Ang^3
#
#
#
# Elastic Constant Matrix: (Units=GPa)
#
#
# Indices 1 2 3 4 5 6 
#
# 1 28.4509 11.5499 19.2538 0.0000 0.0000 0.0000
# 2 11.5499 58.0287 42.4051 0.0000 0.0000 0.0000
# 3 19.2538 42.4051 94.5678 0.0000 0.0000 0.0000
# 4 0.0000 0.0000 0.0000 37.8544 0.0000 0.0000
# 5 0.0000 0.0000 0.0000 0.0000 23.3062 0.0000
# 6 0.0000 0.0000 0.0000 0.0000 0.0000 17.1715
#
#
#
# Elastic Compliance Matrix: (Units=1/GPa)
#
#
# Indices 1 2 3 4 5 6 
#
# 1 0.041130 -0.003075 -0.006995 0.000000 0.000000 0.000000
# 2 -0.003075 0.025862 -0.010971 0.000000 0.000000 0.000000
# 3 -0.006995 -0.010971 0.016918 0.000000 0.000000 0.000000
# 4 0.000000 0.000000 0.000000 0.026417 0.000000 0.000000
# 5 0.000000 0.000000 0.000000 0.000000 0.042907 0.000000
# 6 0.000000 0.000000 0.000000 0.000000 0.000000 0.058236
#
#
# Mechanical properties :
#
#
# Convention : Reuss Voigt Hill
#
# Bulk Modulus (GPa) = 23.90687 36.38500 30.14593
# Shear Modulus (GPa) = 18.69196 22.85566 20.77381
#
# Velocity S-wave (km/s) = 3.06991 3.39465 3.23636
# Velocity P-wave (km/s) = 4.96180 5.80603 5.40044
#
# Compressibility (1/GPa) = 0.04182899
#
# Stress axis : x y z
#
# Youngs Moduli (GPa) = 24.31287 38.66714 59.10853
#
# Poissons Ratio (x) = 0.11888 0.41349
# Poissons Ratio (y) = 0.07475 0.64846
# Poissons Ratio (z) = 0.17008 0.42421
#
# Static dielectric constant tensor:
#      x y z
#    x 1.672590 0.000000 0.000000 
#    y 0.000000 1.693420 0.000000 
#    z 0.000000 0.000000 1.699220 
# 
# From -- ./inp_files/30824.got.cif
#   From: 2010.05.17/outbox.cif.g08.bks.cpg/sg53_16_cif.got.tgz:30824.got - 2010.06.03 12:45:16.
