data_PCOD9417636
_publ_section_title
;
Structure prediction by ZEFSAII (Michael W. Deem and Ramdas Pophale) SiO2 
 PCOD9417636
Probable space group: P M N A
;
_chemical_formula_sum "Si O2"
_cell_formula_units_Z 58
_cell_length_a 7.826409
_cell_length_b 18.524558
_cell_length_c 17.950935
_cell_angle_alpha 90.000000
_cell_angle_beta 90.000000
_cell_angle_gamma 90.000000
_cell_volume 2602.540333
_symmetry_space_group_name_H-M "P M N A"
_symmetry_group_IT_number 53
_symmetry_cell_setting 'orthorhombic'
loop_
_space_group_symop_operation_xyz
x,y,z
1/2-x,-y,1/2+z
x,-y,-z
1/2-x,y,1/2-z
-x,-y,-z
1/2+x,y,1/2-z
-x,y,z
1/2+x,-y,1/2+z
loop_
_atom_site_type_symbol
_atom_site_label
_atom_site_fract_x
_atom_site_fract_y
_atom_site_fract_z
Si Si1 0.702679 0.793291 0.552339
Si Si2 0.296971 0.789469 0.380605
Si Si3 0.303519 0.055048 0.608346
Si Si4 0.294477 0.481056 0.168958
Si Si5 0.706375 0.634982 0.949523
Si Si6 0.697372 0.089526 0.171523
Si Si7 0.796580 0.365822 0.620245
Si Si8 0.000000 0.000000 0.500000
O O1 0.500000 0.803839 0.551475
O O2 0.766096 0.794293 0.466877
O O3 0.743780 0.713324 0.581530
O O4 0.778282 0.855488 0.603682
O O5 0.500000 0.780408 0.382468
O O6 0.262787 0.869439 0.350154
O O7 0.232564 0.714168 0.347753
O O8 0.500000 0.062460 0.577666
O O9 0.301069 0.983682 0.658679
O O10 0.153905 0.040195 0.548893
O O11 0.250000 0.451757 0.250000
O O12 0.500000 0.482333 0.163382
O O13 0.231760 0.429964 0.102341
O O14 0.228452 0.563278 0.161341
O O15 0.500000 0.631525 0.952072
O O16 0.769907 0.631580 0.034826
O O17 0.750000 0.123488 0.250000
O O18 0.500000 0.068981 0.172467
O O19 0.000000 0.373941 0.616160
#
# Coordination Sequence:
#
# PCOD9417636 Si02
#       8
#     8   8   8   8   8   8   8   2
#     4  10  20  36  57  86 118 151 191 241 301 358
#     4   9  20  36  59  87 121 150 184 248 308 354
#     4  11  23  40  60  92 127 159 205 258 311 369
#     4  10  21  36  55  82 114 151 193 243 299 359
#     4   9  18  35  57  82 113 150 196 244 296 355
#     4  12  25  42  61  84 118 166 212 250 307 374
#     4   9  18  34  59  84 111 148 195 247 296 358
#     4  12  22  36  64  94 120 160 200 254 316 366
#
# _framework density 22.285917999999999
#
# number of rings (size 3 to 8) (size 9 to 14) (size 15 to 20)
#    0.000    1.931    0.690    3.103    0.966    4.966 
#    0.000    2.069    0.000    5.793    0.000    0.000 
#    0.000    0.000    0.000    0.000    0.000    0.000 
#
# Total GULP energy -323282.089658 kJ/mol
# GULP energy per Si atom -5573.829132 kJ/mol
# Density = 2.223519 g / cm^3
# Si number density = 22.285918 Si / 1000 Ang^3
#
#
#
# Elastic Constant Matrix: (Units=GPa)
#
#
# Indices 1 2 3 4 5 6 
#
# 1 80.8333 4.6042 -0.1024 0.0000 0.0000 0.0000
# 2 4.6042 87.7661 22.1274 0.0000 0.0000 0.0000
# 3 -0.1024 22.1274 41.7956 0.0000 0.0000 0.0000
# 4 0.0000 0.0000 0.0000 -71.2193 0.0000 0.0000
# 5 0.0000 0.0000 0.0000 0.0000 29.8191 0.0000
# 6 0.0000 0.0000 0.0000 0.0000 0.0000 28.8602
#
#
#
# Elastic Compliance Matrix: (Units=1/GPa)
#
#
# Indices 1 2 3 4 5 6 
#
# 1 0.012415 -0.000760 0.000433 0.000000 0.000000 0.000000
# 2 -0.000760 0.013196 -0.006988 0.000000 0.000000 0.000000
# 3 0.000433 -0.006988 0.027627 0.000000 0.000000 0.000000
# 4 0.000000 0.000000 0.000000 -0.014041 0.000000 0.000000
# 5 0.000000 0.000000 0.000000 0.000000 0.033536 0.000000
# 6 0.000000 0.000000 0.000000 0.000000 0.000000 0.034650
#
#
# Mechanical properties :
#
#
# Convention : Reuss Voigt Hill
#
# Bulk Modulus (GPa) = 25.90236 29.29482 27.59859
# Shear Modulus (GPa) = 37.06978 9.74306 23.40642
#
# Velocity S-wave (km/s) = 4.08287 2.09316 3.24432
# Velocity P-wave (km/s) = 5.82017 4.36066 5.14246
#
# Compressibility (1/GPa) = 0.03860653
#
# Stress axis : x y z
#
# Youngs Moduli (GPa) = 80.54771 75.78296 36.19705
#
# Poissons Ratio (x) = 0.05763 -0.01567
# Poissons Ratio (y) = 0.06125 0.25294
# Poissons Ratio (z) = -0.03488 0.52956
#
# Static dielectric constant tensor:
#      x y z
#    x 1.800930 0.000000 0.000000 
#    y 0.000000 1.847240 0.000000 
#    z 0.000000 0.000000 1.837700 
# 
# From -- ./inp_files/26551.got.cif
#   From: 2010.05.17/outbox.cif.g08.bks.cpg/sg53_14_cif.got.tgz:26551.got - 2010.06.03 12:45:16.
