data_PCOD9417689
_publ_section_title
;
Structure prediction by ZEFSAII (Michael W. Deem and Ramdas Pophale) SiO2 
 PCOD9417689
Probable space group: P M N A
;
_chemical_formula_sum "Si O2"
_cell_formula_units_Z 64
_cell_length_a 8.644848
_cell_length_b 21.416926
_cell_length_c 19.153091
_cell_angle_alpha 90.000000
_cell_angle_beta 90.000000
_cell_angle_gamma 90.000000
_cell_volume 3546.119525
_symmetry_space_group_name_H-M "P M N A"
_symmetry_group_IT_number 53
_symmetry_cell_setting 'orthorhombic'
loop_
_space_group_symop_operation_xyz
x,y,z
1/2-x,-y,1/2+z
x,-y,-z
1/2-x,y,1/2-z
-x,-y,-z
1/2+x,y,1/2-z
-x,y,z
1/2+x,-y,1/2+z
loop_
_atom_site_type_symbol
_atom_site_label
_atom_site_fract_x
_atom_site_fract_y
_atom_site_fract_z
Si Si1 0.185292 0.875409 0.325712
Si Si2 0.815709 0.193108 0.032834
Si Si3 0.812573 0.496389 0.580731
Si Si4 0.185682 0.390043 0.324388
Si Si5 0.186235 0.255186 0.603144
Si Si6 0.186040 0.245940 0.325617
Si Si7 0.187285 0.933291 0.468856
Si Si8 0.815152 0.618379 0.171310
O O1 0.250000 0.889943 0.250000
O O2 0.231946 0.805807 0.351191
O O3 0.231040 0.922520 0.387797
O O4 0.000000 0.875549 0.321897
O O5 0.753094 0.208434 0.109457
O O6 0.000000 0.197519 0.030706
O O7 0.744568 0.240304 0.975033
O O8 0.760651 0.124289 0.010268
O O9 0.766859 0.500000 0.500000
O O10 0.765973 0.561148 0.617251
O O11 0.742417 0.438939 0.623596
O O12 0.000000 0.490755 0.583795
O O13 0.250000 0.411201 0.250000
O O14 0.234712 0.318578 0.335802
O O15 0.000000 0.390014 0.321376
O O16 0.255397 0.317410 0.636500
O O17 0.000000 0.259299 0.602357
O O18 0.250000 0.226130 0.250000
O O19 0.000000 0.242621 0.325394
O O20 0.000000 0.927673 0.473350
O O21 0.232116 0.000000 0.500000
O O22 0.750000 0.612779 0.250000
O O23 0.000000 0.618840 0.174407
#
# Coordination Sequence:
#
# PCOD9417689 Si02
#       8
#     8   8   8   8   8   8   8   8
#     4   9  18  32  54  83 111 143 183 229 279 331
#     4  11  22  36  57  88 120 150 186 234 289 343
#     4  10  22  39  58  81 110 148 190 234 286 344
#     4   9  19  35  56  80 103 140 185 232 284 338
#     4  10  21  38  59  83 113 151 191 234 284 342
#     4  10  20  36  58  84 113 148 191 240 292 343
#     4   9  19  38  60  81 111 156 201 235 277 334
#     4  12  25  40  58  84 115 151 190 235 289 344
#
# _framework density 18.047895
#
# number of rings (size 3 to 8) (size 9 to 14) (size 15 to 20)
#    0.000    2.000    0.000    4.500    1.750    6.000 
#    0.000    0.625    0.000    1.500    0.000    0.000 
#    0.000    0.000    0.000    0.000    0.000    0.000 
#
# Total GULP energy -357392.307074 kJ/mol
# GULP energy per Si atom -5584.254798 kJ/mol
# Density = 1.800682 g / cm^3
# Si number density = 18.047895 Si / 1000 Ang^3
#
#
#
# Elastic Constant Matrix: (Units=GPa)
#
#
# Indices 1 2 3 4 5 6 
#
# 1 59.6037 36.0774 53.1625 0.0000 0.0000 0.0000
# 2 36.0774 85.0066 92.0983 0.0000 0.0000 0.0000
# 3 53.1625 92.0983 197.5894 0.0000 0.0000 0.0000
# 4 0.0000 0.0000 0.0000 24.3140 0.0000 0.0000
# 5 0.0000 0.0000 0.0000 0.0000 32.3152 0.0000
# 6 0.0000 0.0000 0.0000 0.0000 0.0000 15.9283
#
#
#
# Elastic Compliance Matrix: (Units=1/GPa)
#
#
# Indices 1 2 3 4 5 6 
#
# 1 0.023659 -0.006352 -0.003405 0.000000 0.000000 0.000000
# 2 -0.006352 0.025471 -0.010163 0.000000 0.000000 0.000000
# 3 -0.003405 -0.010163 0.010714 0.000000 0.000000 0.000000
# 4 0.000000 0.000000 0.000000 0.041129 0.000000 0.000000
# 5 0.000000 0.000000 0.000000 0.000000 0.030945 0.000000
# 6 0.000000 0.000000 0.000000 0.000000 0.000000 0.062781
#
#
# Mechanical properties :
#
#
# Convention : Reuss Voigt Hill
#
# Bulk Modulus (GPa) = 49.99036 78.31956 64.15496
# Shear Modulus (GPa) = 20.72908 25.23561 22.98234
#
# Velocity S-wave (km/s) = 3.39272 3.74338 3.57236
# Velocity P-wave (km/s) = 6.56553 7.88502 7.25533
#
# Compressibility (1/GPa) = 0.02000386
#
# Stress axis : x y z
#
# Youngs Moduli (GPa) = 42.26659 39.26099 93.33488
#
# Poissons Ratio (x) = 0.24940 0.31778
# Poissons Ratio (y) = 0.26849 0.94856
# Poissons Ratio (z) = 0.14391 0.39901
#
# Static dielectric constant tensor:
#      x y z
#    x 1.609280 0.000000 0.000000 
#    y 0.000000 1.601330 0.000000 
#    z 0.000000 0.000000 1.514870 
# 
# From -- ./inp_files/26840.got.cif
#   From: 2010.05.17/outbox.cif.g08.bks.cpg/sg53_14_cif.got.tgz:26840.got - 2010.06.03 12:45:16.
