data_PCOD9417353
_publ_section_title
;
Structure prediction by ZEFSAII (Michael W. Deem and Ramdas Pophale) SiO2 
 PCOD9417353
Probable space group: P M N A
;
_chemical_formula_sum "Si O2"
_cell_formula_units_Z 48
_cell_length_a 16.965045
_cell_length_b 12.897860
_cell_length_c 12.157629
_cell_angle_alpha 90.000000
_cell_angle_beta 90.000000
_cell_angle_gamma 90.000000
_cell_volume 2660.244543
_symmetry_space_group_name_H-M "P M N A"
_symmetry_group_IT_number 53
_symmetry_cell_setting 'orthorhombic'
loop_
_space_group_symop_operation_xyz
x,y,z
1/2-x,-y,1/2+z
x,-y,-z
1/2-x,y,1/2-z
-x,-y,-z
1/2+x,y,1/2-z
-x,y,z
1/2+x,-y,1/2+z
loop_
_atom_site_type_symbol
_atom_site_label
_atom_site_fract_x
_atom_site_fract_y
_atom_site_fract_z
Si Si1 0.091817 0.042169 0.626069
Si Si2 0.592339 0.585620 0.250821
Si Si3 0.196266 0.386816 0.968232
Si Si4 0.906225 0.360071 0.184269
Si Si5 0.405259 0.821011 0.835117
Si Si6 0.847439 0.744759 0.428905
O O1 0.143031 0.145781 0.635107
O O2 0.000000 0.066166 0.654422
O O3 0.090618 0.000000 0.500000
O O4 0.122466 0.938614 0.685293
O O5 0.500000 0.600438 0.278112
O O6 0.648027 0.611997 0.354191
O O7 0.605718 0.461870 0.239755
O O8 0.613025 0.655279 0.145593
O O9 0.261404 0.298512 0.956518
O O10 0.232652 0.500000 0.000000
O O11 0.136079 0.371031 0.068235
O O12 0.875300 0.259374 0.245872
O O13 0.000000 0.351662 0.166897
O O14 0.500000 0.826972 0.828164
O O15 0.387194 0.772952 0.954646
#
# Coordination Sequence:
#
# PCOD9417353 Si02
#       6
#     8   8   8   8   8   8
#     4   8  15  31  54  77 105 140 174 211 264 321
#     4  10  20  35  56  79 105 142 185 222 260 315
#     4  10  22  36  52  75 112 152 177 212 267 328
#     4   9  19  36  57  79 105 142 186 220 257 318
#     4   9  18  33  57  84 107 138 180 223 265 313
#     4  11  20  31  54  83 110 138 170 220 276 320
#
# _framework density 18.043453
#
# number of rings (size 3 to 8) (size 9 to 14) (size 15 to 20)
#    0.000    2.500    0.000    3.500    2.333    2.667 
#    0.000    2.500   22.000    0.000    0.000    4.667 
#    0.000    0.000    0.000    0.000    0.000    0.000 
#
# Total GULP energy -267322.398597 kJ/mol
# GULP energy per Si atom -5569.216637 kJ/mol
# Density = 1.800239 g / cm^3
# Si number density = 18.043453 Si / 1000 Ang^3
#
#
#
# Elastic Constant Matrix: (Units=GPa)
#
#
# Indices 1 2 3 4 5 6 
#
# 1 31.6222 46.8174 5.3070 0.0000 0.0000 0.0000
# 2 46.8174 138.9018 25.7304 0.0000 0.0000 0.0000
# 3 5.3070 25.7304 24.2804 0.0000 0.0000 0.0000
# 4 0.0000 0.0000 0.0000 15.3962 0.0000 0.0000
# 5 0.0000 0.0000 0.0000 0.0000 -0.7751 0.0000
# 6 0.0000 0.0000 0.0000 0.0000 0.0000 25.3333
#
#
#
# Elastic Compliance Matrix: (Units=1/GPa)
#
#
# Indices 1 2 3 4 5 6 
#
# 1 0.065523 -0.024178 0.011300 0.000000 0.000000 0.000000
# 2 -0.024178 0.017880 -0.013663 0.000000 0.000000 0.000000
# 3 0.011300 -0.013663 0.053194 0.000000 0.000000 0.000000
# 4 0.000000 0.000000 0.000000 0.064951 0.000000 0.000000
# 5 0.000000 0.000000 0.000000 0.000000 -1.290110 0.000000
# 6 0.000000 0.000000 0.000000 0.000000 0.000000 0.039474
#
#
# Mechanical properties :
#
#
# Convention : Reuss Voigt Hill
#
# Bulk Modulus (GPa) = 11.97373 38.94600 25.45987
# Shear Modulus (GPa) = -5.16438 15.78752 5.31157
#
# Velocity S-wave (km/s) = -1.69364 2.96120 1.71760
# Velocity P-wave (km/s) = 1.68105 5.77261 4.25141
#
# Compressibility (1/GPa) = 0.08351617
#
# Stress axis : x y z
#
# Youngs Moduli (GPa) = 15.26179 55.92981 18.79907
#
# Poissons Ratio (x) = 1.35228 -0.21244
# Poissons Ratio (y) = 0.36900 0.25684
# Poissons Ratio (z) = -0.17247 0.76415
#
# Static dielectric constant tensor:
#      x y z
#    x 1.606630 0.000000 0.000000 
#    y 0.000000 1.675020 0.000000 
#    z 0.000000 0.000000 1.609710 
# 
# From -- ./inp_files/16951.got.cif
#   From: 2010.05.17/outbox.cif.g08.bks.cpg/sg53_9_cif.got.tgz:16951.got - 2010.06.03 12:45:16.
