data_PCOD9417905
_publ_section_title
;
Structure prediction by ZEFSAII (Michael W. Deem and Ramdas Pophale) SiO2 
 PCOD9417905
Probable space group: P M N A
;
_chemical_formula_sum "Si O2"
_cell_formula_units_Z 56
_cell_length_a 7.759629
_cell_length_b 18.241678
_cell_length_c 18.527060
_cell_angle_alpha 90.000000
_cell_angle_beta 90.000000
_cell_angle_gamma 90.000000
_cell_volume 2622.480398
_symmetry_space_group_name_H-M "P M N A"
_symmetry_group_IT_number 53
_symmetry_cell_setting 'orthorhombic'
loop_
_space_group_symop_operation_xyz
x,y,z
1/2-x,-y,1/2+z
x,-y,-z
1/2-x,y,1/2-z
-x,-y,-z
1/2+x,y,1/2-z
-x,y,z
1/2+x,-y,1/2+z
loop_
_atom_site_type_symbol
_atom_site_label
_atom_site_fract_x
_atom_site_fract_y
_atom_site_fract_z
Si Si1 0.703546 0.460912 0.928292
Si Si2 0.796511 0.979489 0.421675
Si Si3 0.794678 0.405839 0.166853
Si Si4 0.205817 0.877432 0.834090
Si Si5 0.703475 0.298018 0.913706
Si Si6 0.290666 0.735363 0.576184
Si Si7 0.291869 0.841625 0.167208
O O1 0.500000 0.449962 0.942434
O O2 0.723334 0.517938 0.863488
O O3 0.777640 0.380375 0.912889
O O4 0.777769 0.500000 0.000000
O O5 0.724636 0.906506 0.384290
O O6 0.000000 0.965788 0.432445
O O7 0.721822 0.000000 0.500000
O O8 0.777102 0.048111 0.368300
O O9 0.750000 0.393733 0.250000
O O10 0.732308 0.338004 0.117951
O O11 0.000000 0.408819 0.159860
O O12 0.250000 0.869815 0.750000
O O13 0.266683 0.807155 0.880037
O O14 0.000000 0.880418 0.840447
O O15 0.500000 0.304295 0.897536
O O16 0.775317 0.237315 0.859224
O O17 0.725383 0.267439 0.994646
O O18 0.500000 0.735178 0.574684
O O19 0.250000 0.856486 0.250000
O O20 0.500000 0.840821 0.160926
#
# Coordination Sequence:
#
# PCOD9417905 Si02
#       7
#     8   8   8   8   8   8   8
#     4  10  20  37  60  87 116 149 192 242 294 350
#     4  10  21  39  62  87 115 149 193 240 290 349
#     4  11  23  38  58  84 117 154 193 238 291 348
#     4  11  23  38  57  84 117 152 191 236 287 342
#     4  10  21  38  62  87 114 151 194 237 287 347
#     4  10  22  38  57  85 117 150 191 237 287 345
#     4  10  22  39  59  85 117 154 194 238 289 345
#
# _framework density 21.353829999999999
#
# number of rings (size 3 to 8) (size 9 to 14) (size 15 to 20)
#    0.000    1.714    1.429    2.571    0.000    6.857 
#    0.000    1.429    0.000    0.000    0.000    0.000 
#    0.000    0.000    0.000    0.000    0.000    0.000 
#
# Total GULP energy -313014.615370 kJ/mol
# GULP energy per Si atom -5589.546703 kJ/mol
# Density = 2.130523 g / cm^3
# Si number density = 21.353830 Si / 1000 Ang^3
#
#
#
# Elastic Constant Matrix: (Units=GPa)
#
#
# Indices 1 2 3 4 5 6 
#
# 1 27.2013 9.3015 -7.4763 0.0000 0.0000 0.0000
# 2 9.3015 144.6136 26.1270 0.0000 0.0000 0.0000
# 3 -7.4763 26.1270 67.1848 0.0000 0.0000 0.0000
# 4 0.0000 0.0000 0.0000 40.2061 0.0000 0.0000
# 5 0.0000 0.0000 0.0000 0.0000 29.4080 0.0000
# 6 0.0000 0.0000 0.0000 0.0000 0.0000 7.7530
#
#
#
# Elastic Compliance Matrix: (Units=1/GPa)
#
#
# Indices 1 2 3 4 5 6 
#
# 1 0.039587 -0.003595 0.005803 0.000000 0.000000 0.000000
# 2 -0.003595 0.007764 -0.003419 0.000000 0.000000 0.000000
# 3 0.005803 -0.003419 0.016860 0.000000 0.000000 0.000000
# 4 0.000000 0.000000 0.000000 0.024872 0.000000 0.000000
# 5 0.000000 0.000000 0.000000 0.000000 0.034004 0.000000
# 6 0.000000 0.000000 0.000000 0.000000 0.000000 0.128983
#
#
# Mechanical properties :
#
#
# Convention : Reuss Voigt Hill
#
# Bulk Modulus (GPa) = 16.18407 32.76714 24.47560
# Shear Modulus (GPa) = 18.17603 29.54325 23.85964
#
# Velocity S-wave (km/s) = 2.92067 3.72359 3.34630
# Velocity P-wave (km/s) = 4.35537 5.81937 5.13976
#
# Compressibility (1/GPa) = 0.06178916
#
# Stress axis : x y z
#
# Youngs Moduli (GPa) = 25.26076 128.80059 59.31277
#
# Poissons Ratio (x) = 0.46300 -0.34420
# Poissons Ratio (y) = 0.09080 0.20281
# Poissons Ratio (z) = -0.14659 0.44040
#
# Static dielectric constant tensor:
#      x y z
#    x 1.735390 0.000000 0.000000 
#    y 0.000000 1.780000 0.000000 
#    z 0.000000 0.000000 1.726550 
# 
# From -- ./inp_files/30882.got.cif
#   From: 2010.05.17/outbox.cif.g08.bks.cpg/sg53_16_cif.got.tgz:30882.got - 2010.06.03 12:45:16.
