data_PCOD9417010
_publ_section_title
;
Structure prediction by ZEFSAII (Michael W. Deem and Ramdas Pophale) SiO2 
 PCOD9417010
Probable space group: P M N A
;
_chemical_formula_sum "Si O2"
_cell_formula_units_Z 40
_cell_length_a 8.750113
_cell_length_b 14.986172
_cell_length_c 13.041666
_cell_angle_alpha 90.000000
_cell_angle_beta 90.000000
_cell_angle_gamma 90.000000
_cell_volume 1710.162771
_symmetry_space_group_name_H-M "P M N A"
_symmetry_group_IT_number 53
_symmetry_cell_setting 'orthorhombic'
loop_
_space_group_symop_operation_xyz
x,y,z
1/2-x,-y,1/2+z
x,-y,-z
1/2-x,y,1/2-z
-x,-y,-z
1/2+x,y,1/2-z
-x,y,z
1/2+x,-y,1/2+z
loop_
_atom_site_type_symbol
_atom_site_label
_atom_site_fract_x
_atom_site_fract_y
_atom_site_fract_z
Si Si1 0.174745 0.173576 0.352494
Si Si2 0.322799 0.200696 0.575163
Si Si3 0.665965 0.030348 0.882024
Si Si4 0.817882 0.565062 0.859326
Si Si5 0.680415 0.381282 0.927305
O O1 0.250000 0.212387 0.250000
O O2 0.271125 0.186933 0.456124
O O3 0.000000 0.204467 0.368582
O O4 0.166721 0.066679 0.332895
O O5 0.500000 0.223030 0.579457
O O6 0.289807 0.107066 0.632329
O O7 0.224491 0.284128 0.613848
O O8 0.500000 0.073143 0.865392
O O9 0.675654 0.000000 0.000000
O O10 0.750000 0.590768 0.750000
O O11 0.776155 0.460565 0.875436
O O12 0.000000 0.578597 0.865399
O O13 0.732740 0.613807 0.953336
O O14 0.500000 0.398802 0.918362
#
# Coordination Sequence:
#
# PCOD9417010 Si02
#       5
#     8   8   8   8   8
#     4  10  20  34  52  76 107 142 181 226 276 329
#     4  11  21  34  54  80 108 141 182 227 275 328
#     4   8  16  32  51  71  99 136 174 213 261 315
#     4  11  22  40  63  89 118 150 188 231 283 343
#     4  11  22  39  61  87 117 152 192 235 285 339
#
# _framework density 23.389588
#
# number of rings (size 3 to 8) (size 9 to 14) (size 15 to 20)
#    0.000    1.800    0.000    8.400    0.000    5.200 
#    0.000    5.000    0.000    2.400    0.000    0.000 
#    0.000    0.000    0.000    0.000    0.000    0.000 
#
# Total GULP energy -223571.083141 kJ/mol
# GULP energy per Si atom -5589.277079 kJ/mol
# Density = 2.333635 g / cm^3
# Si number density = 23.389588 Si / 1000 Ang^3
#
#
#
# Elastic Constant Matrix: (Units=GPa)
#
#
# Indices 1 2 3 4 5 6 
#
# 1 110.7996 1.1628 6.1879 0.0000 0.0000 0.0000
# 2 1.1628 112.3322 -16.4811 0.0000 0.0000 0.0000
# 3 6.1879 -16.4811 63.6518 0.0000 0.0000 0.0000
# 4 0.0000 0.0000 0.0000 -10.0396 0.0000 0.0000
# 5 0.0000 0.0000 0.0000 0.0000 7.8982 0.0000
# 6 0.0000 0.0000 0.0000 0.0000 0.0000 23.0566
#
#
#
# Elastic Compliance Matrix: (Units=1/GPa)
#
#
# Indices 1 2 3 4 5 6 
#
# 1 0.009080 -0.000232 -0.000943 0.000000 0.000000 0.000000
# 2 -0.000232 0.009260 0.002420 0.000000 0.000000 0.000000
# 3 -0.000943 0.002420 0.016429 0.000000 0.000000 0.000000
# 4 0.000000 0.000000 0.000000 -0.099606 0.000000 0.000000
# 5 0.000000 0.000000 0.000000 0.000000 0.126611 0.000000
# 6 0.000000 0.000000 0.000000 0.000000 0.000000 0.043371
#
#
# Mechanical properties :
#
#
# Convention : Reuss Voigt Hill
#
# Bulk Modulus (GPa) = 26.83943 29.83589 28.33766
# Shear Modulus (GPa) = 43.44972 23.91065 33.68018
#
# Velocity S-wave (km/s) = 4.31472 3.20078 3.79880
# Velocity P-wave (km/s) = 6.02680 5.14234 5.60205
#
# Compressibility (1/GPa) = 0.03725861
#
# Stress axis : x y z
#
# Youngs Moduli (GPa) = 110.12728 107.99544 60.86881
#
# Poissons Ratio (x) = 0.02509 0.05739
# Poissons Ratio (y) = 0.02559 -0.14731
# Poissons Ratio (z) = 0.10384 -0.26136
#
# Static dielectric constant tensor:
#      x y z
#    x 1.823810 0.000000 0.000000 
#    y 0.000000 1.920300 0.000000 
#    z 0.000000 0.000000 3.051890 
# 
# From -- ./inp_files/19863.got.cif
#   From: 2010.05.17/outbox.cif.g08.bks.cpg/sg53_10_cif.got.tgz:19863.got - 2010.06.03 12:45:16.
