data_PCOD9417211
_publ_section_title
;
Structure prediction by ZEFSAII (Michael W. Deem and Ramdas Pophale) SiO2 
 PCOD9417211
Probable space group: P M N A
;
_chemical_formula_sum "Si O2"
_cell_formula_units_Z 64
_cell_length_a 18.304056
_cell_length_b 11.943013
_cell_length_c 15.293099
_cell_angle_alpha 90.000000
_cell_angle_beta 90.000000
_cell_angle_gamma 90.000000
_cell_volume 3343.156758
_symmetry_space_group_name_H-M "P M N A"
_symmetry_group_IT_number 53
_symmetry_cell_setting 'orthorhombic'
loop_
_space_group_symop_operation_xyz
x,y,z
1/2-x,-y,1/2+z
x,-y,-z
1/2-x,y,1/2-z
-x,-y,-z
1/2+x,y,1/2-z
-x,y,z
1/2+x,-y,1/2+z
loop_
_atom_site_type_symbol
_atom_site_label
_atom_site_fract_x
_atom_site_fract_y
_atom_site_fract_z
Si Si1 0.917074 0.863840 0.637918
Si Si2 0.306287 0.941611 0.371387
Si Si3 0.585831 0.658614 0.122577
Si Si4 0.328119 0.471620 0.213919
Si Si5 0.817549 0.313296 0.454740
Si Si6 0.416174 0.716514 0.689772
Si Si7 0.141919 0.101436 0.676358
Si Si8 0.828096 0.821720 0.957370
O O1 0.862448 0.795066 0.577885
O O2 0.908566 0.812484 0.735582
O O3 0.000000 0.842272 0.609769
O O4 0.899656 0.994268 0.638472
O O5 0.345015 0.921113 0.279232
O O6 0.223346 0.896833 0.364420
O O7 0.345885 0.876012 0.449453
O O8 0.301906 0.072553 0.397691
O O9 0.500000 0.641217 0.103894
O O10 0.616168 0.571175 0.193573
O O11 0.600589 0.784275 0.156222
O O12 0.637667 0.642930 0.037852
O O13 0.250000 0.511349 0.250000
O O14 0.317276 0.402139 0.124001
O O15 0.363143 0.383363 0.281310
O O16 0.736141 0.268568 0.470737
O O17 0.500000 0.679571 0.691123
O O18 0.392621 0.765462 0.596951
#
# Coordination Sequence:
#
# PCOD9417211 Si02
#       8
#     8   8   8   8   8   8   8   8
#     4  10  20  34  57  89 124 160 198 248 312 375
#     4  10  22  34  60  91 129 162 204 258 306 382
#     4  12  27  43  61  91 133 172 210 262 325 387
#     4  11  24  41  68  93 119 164 214 263 312 377
#     4  11  22  39  63  92 123 161 208 260 314 378
#     4  10  21  39  64  92 122 155 201 262 318 364
#     4  11  21  38  58  86 126 171 208 248 310 377
#     4  11  19  38  61  96 123 158 205 259 316 367
#
# _framework density 19.143584000000001
#
# number of rings (size 3 to 8) (size 9 to 14) (size 15 to 20)
#    0.000    1.250    5.000    1.500    1.750    2.500 
#    0.000    3.750    0.000    0.000    0.000    2.625 
#    0.000    0.000    0.000    0.000    0.000    0.000 
#
# Total GULP energy -357574.692044 kJ/mol
# GULP energy per Si atom -5587.104563 kJ/mol
# Density = 1.910001 g / cm^3
# Si number density = 19.143584 Si / 1000 Ang^3
#
#
#
# Elastic Constant Matrix: (Units=GPa)
#
#
# Indices 1 2 3 4 5 6 
#
# 1 50.2733 1.8991 1.5652 0.0000 0.0000 0.0000
# 2 1.8991 67.3769 1.5698 0.0000 0.0000 0.0000
# 3 1.5652 1.5698 58.3599 0.0000 0.0000 0.0000
# 4 0.0000 0.0000 0.0000 15.9105 0.0000 0.0000
# 5 0.0000 0.0000 0.0000 0.0000 20.1743 0.0000
# 6 0.0000 0.0000 0.0000 0.0000 0.0000 23.5235
#
#
#
# Elastic Compliance Matrix: (Units=1/GPa)
#
#
# Indices 1 2 3 4 5 6 
#
# 1 0.019928 -0.000550 -0.000520 0.000000 0.000000 0.000000
# 2 -0.000550 0.014866 -0.000385 0.000000 0.000000 0.000000
# 3 -0.000520 -0.000385 0.017159 0.000000 0.000000 0.000000
# 4 0.000000 0.000000 0.000000 0.062851 0.000000 0.000000
# 5 0.000000 0.000000 0.000000 0.000000 0.049568 0.000000
# 6 0.000000 0.000000 0.000000 0.000000 0.000000 0.042511
#
#
# Mechanical properties :
#
#
# Convention : Reuss Voigt Hill
#
# Bulk Modulus (GPa) = 20.38942 20.67537 20.53239
# Shear Modulus (GPa) = 22.11008 23.32007 22.71508
#
# Velocity S-wave (km/s) = 3.40216 3.49401 3.44839
# Velocity P-wave (km/s) = 5.10948 5.20587 5.15790
#
# Compressibility (1/GPa) = 0.04904505
#
# Stress axis : x y z
#
# Youngs Moduli (GPa) = 50.18014 67.26600 58.27731
#
# Poissons Ratio (x) = 0.03697 0.03029
# Poissons Ratio (y) = 0.02758 0.02245
# Poissons Ratio (z) = 0.02608 0.02591
#
# Static dielectric constant tensor:
#      x y z
#    x 1.629920 0.000000 0.000000 
#    y 0.000000 1.654900 0.000000 
#    z 0.000000 0.000000 1.671760 
# 
# From -- ./inp_files/23892.got.cif
#   From: 2010.05.17/outbox.cif.g08.bks.cpg/sg53_12_cif.got.tgz:23892.got - 2010.06.03 12:45:16.
