data_PCOD9417721
_publ_section_title
;
Structure prediction by ZEFSAII (Michael W. Deem and Ramdas Pophale) SiO2 
 PCOD9417721
Probable space group: P M N A
;
_chemical_formula_sum "Si O2"
_cell_formula_units_Z 48
_cell_length_a 8.488999
_cell_length_b 10.611064
_cell_length_c 27.542650
_cell_angle_alpha 90.000000
_cell_angle_beta 90.000000
_cell_angle_gamma 90.000000
_cell_volume 2480.967869
_symmetry_space_group_name_H-M "P M N A"
_symmetry_group_IT_number 53
_symmetry_cell_setting 'orthorhombic'
loop_
_space_group_symop_operation_xyz
x,y,z
1/2-x,-y,1/2+z
x,-y,-z
1/2-x,y,1/2-z
-x,-y,-z
1/2+x,y,1/2-z
-x,y,z
1/2+x,-y,1/2+z
loop_
_atom_site_type_symbol
_atom_site_label
_atom_site_fract_x
_atom_site_fract_y
_atom_site_fract_z
Si Si1 0.809284 0.621427 0.859425
Si Si2 0.692190 0.374996 0.471551
Si Si3 0.688925 0.626320 0.195083
Si Si4 0.309249 0.125150 0.529039
Si Si5 0.311016 0.123393 0.304892
Si Si6 0.188790 0.121366 0.638820
O O1 0.757179 0.624304 0.915547
O O2 0.748494 0.497588 0.832514
O O3 0.758618 0.748128 0.831586
O O4 0.000000 0.618529 0.859003
O O5 0.743748 0.500000 0.500000
O O6 0.500000 0.375012 0.471363
O O7 0.742103 0.249533 0.499874
O O8 0.750000 0.627603 0.250000
O O9 0.500000 0.624964 0.195768
O O10 0.742093 0.752256 0.166842
O O11 0.500000 0.125768 0.531173
O O12 0.246043 0.124626 0.583502
O O13 0.260751 0.000000 0.500000
O O14 0.250000 0.120353 0.250000
O O15 0.500000 0.122294 0.304403
O O16 0.252651 0.001919 0.334165
O O17 0.000000 0.118247 0.639897
#
# Coordination Sequence:
#
# PCOD9417721 Si02
#       6
#     8   8   8   8   8   8
#     4  10  21  38  61  88 117 151 192 238 289 344
#     4   9  17  31  54  83 112 145 186 229 276 332
#     4  11  24  40  59  85 116 152 195 240 289 346
#     4  10  20  36  59  85 114 150 193 239 286 339
#     4  11  23  39  60  86 116 151 194 242 293 350
#     4  11  24  40  59  86 119 156 197 239 289 346
#
# _framework density 19.347287999999999
#
# number of rings (size 3 to 8) (size 9 to 14) (size 15 to 20)
#    0.000    1.667    0.000    4.500    0.000   11.000 
#    0.000    0.833    0.000    3.000    0.000    0.000 
#    0.000    0.000    0.000    0.000    0.000    0.000 
#
# Total GULP energy -268386.501120 kJ/mol
# GULP energy per Si atom -5591.385440 kJ/mol
# Density = 1.930325 g / cm^3
# Si number density = 19.347288 Si / 1000 Ang^3
#
#
#
# Elastic Constant Matrix: (Units=GPa)
#
#
# Indices 1 2 3 4 5 6 
#
# 1 21.7328 39.0805 35.4497 0.0000 0.0000 0.0000
# 2 39.0805 239.1075 143.9451 0.0000 0.0000 0.0000
# 3 35.4497 143.9451 236.3677 0.0000 0.0000 0.0000
# 4 0.0000 0.0000 0.0000 46.8620 0.0000 0.0000
# 5 0.0000 0.0000 0.0000 0.0000 29.9906 0.0000
# 6 0.0000 0.0000 0.0000 0.0000 0.0000 -2.9129
#
#
#
# Elastic Compliance Matrix: (Units=1/GPa)
#
#
# Indices 1 2 3 4 5 6 
#
# 1 0.069464 -0.008023 -0.005532 0.000000 0.000000 0.000000
# 2 -0.008023 0.007530 -0.003382 0.000000 0.000000 0.000000
# 3 -0.005532 -0.003382 0.007120 0.000000 0.000000 0.000000
# 4 0.000000 0.000000 0.000000 0.021339 0.000000 0.000000
# 5 0.000000 0.000000 0.000000 0.000000 0.033344 0.000000
# 6 0.000000 0.000000 0.000000 0.000000 0.000000 -0.343298
#
#
# Mechanical properties :
#
#
# Convention : Reuss Voigt Hill
#
# Bulk Modulus (GPa) = 19.90471 103.79540 61.85006
# Shear Modulus (GPa) = -32.49283 33.37013 0.43865
#
# Velocity S-wave (km/s) = -4.10256 4.15757 0.47667
# Velocity P-wave (km/s) = 3.48294 8.76426 5.68689
#
# Compressibility (1/GPa) = 0.05023935
#
# Stress axis : x y z
#
# Youngs Moduli (GPa) = 14.39588 132.80826 140.44769
#
# Poissons Ratio (x) = 1.06554 0.77697
# Poissons Ratio (y) = 0.11550 0.47502
# Poissons Ratio (z) = 0.07964 0.44918
#
# Static dielectric constant tensor:
#      x y z
#    x 1.665600 0.000000 0.000000 
#    y 0.000000 1.650310 0.000000 
#    z 0.000000 0.000000 1.629770 
# 
# From -- ./inp_files/37768.got.cif
#   From: 2010.05.17/outbox.cif.g08.bks.cpg/sg53_19_cif.got.tgz:37768.got - 2010.06.03 12:45:16.
