data_PCOD9417530
_publ_section_title
;
Structure prediction by ZEFSAII (Michael W. Deem and Ramdas Pophale) SiO2 
 PCOD9417530
Probable space group: P M N A
;
_chemical_formula_sum "Si O2"
_cell_formula_units_Z 48
_cell_length_a 7.593834
_cell_length_b 10.386957
_cell_length_c 29.444805
_cell_angle_alpha 90.000000
_cell_angle_beta 90.000000
_cell_angle_gamma 90.000000
_cell_volume 2322.512797
_symmetry_space_group_name_H-M "P M N A"
_symmetry_group_IT_number 53
_symmetry_cell_setting 'orthorhombic'
loop_
_space_group_symop_operation_xyz
x,y,z
1/2-x,-y,1/2+z
x,-y,-z
1/2-x,y,1/2-z
-x,-y,-z
1/2+x,y,1/2-z
-x,y,z
1/2+x,-y,1/2+z
loop_
_atom_site_type_symbol
_atom_site_label
_atom_site_fract_x
_atom_site_fract_y
_atom_site_fract_z
Si Si1 0.211642 0.016639 0.302993
Si Si2 0.794579 0.508784 0.368060
Si Si3 0.787868 0.782048 0.621605
Si Si4 0.788480 0.272608 0.697321
Si Si5 0.211573 0.864043 0.981411
Si Si6 0.713305 0.386582 0.534238
O O1 0.250000 0.045020 0.250000
O O2 0.277269 0.122218 0.338848
O O3 0.000000 0.013703 0.307016
O O4 0.277774 0.871779 0.313724
O O5 0.719822 0.364302 0.372203
O O6 0.716445 0.609644 0.332217
O O7 0.782592 0.577923 0.416547
O O8 0.000000 0.491991 0.355878
O O9 0.748808 0.834645 0.571261
O O10 0.000000 0.777391 0.624870
O O11 0.750000 0.294527 0.750000
O O12 0.000000 0.268897 0.690829
O O13 0.000000 0.865567 0.985703
O O14 0.275751 0.747138 0.012877
O O15 0.279277 0.000000 0.000000
O O16 0.764068 0.500000 0.500000
O O17 0.500000 0.384512 0.536867
#
# Coordination Sequence:
#
# PCOD9417530 Si02
#       6
#     8   8   8   8   8   8
#     4   9  19  36  55  76 104 137 173 215 262 311
#     4  10  21  35  54  80 108 139 175 216 261 310
#     4  10  21  36  54  79 109 139 175 217 261 311
#     4   9  19  36  55  77 105 136 173 216 261 311
#     4  10  22  38  54  77 108 140 176 219 262 309
#     4  10  20  36  55  76 106 141 176 214 258 308
#
# _framework density 20.667271
#
# number of rings (size 3 to 8) (size 9 to 14) (size 15 to 20)
#    0.000    2.333    1.667    0.000    2.333    3.333 
#    0.000    0.000    0.000    0.000    0.000    0.000 
#    0.000    0.000    0.000    0.000    0.000    0.000 
#
# Total GULP energy -267951.252306 kJ/mol
# GULP energy per Si atom -5582.317756 kJ/mol
# Density = 2.062023 g / cm^3
# Si number density = 20.667271 Si / 1000 Ang^3
#
#
#
# Elastic Constant Matrix: (Units=GPa)
#
#
# Indices 1 2 3 4 5 6 
#
# 1 44.0421 10.7087 -7.1707 0.0000 0.0000 0.0000
# 2 10.7087 237.8426 132.0707 0.0000 0.0000 0.0000
# 3 -7.1707 132.0707 130.2853 0.0000 0.0000 0.0000
# 4 0.0000 0.0000 0.0000 37.7151 0.0000 0.0000
# 5 0.0000 0.0000 0.0000 0.0000 26.0318 0.0000
# 6 0.0000 0.0000 0.0000 0.0000 0.0000 -2.6775
#
#
#
# Elastic Compliance Matrix: (Units=1/GPa)
#
#
# Indices 1 2 3 4 5 6 
#
# 1 0.024668 -0.004266 0.005682 0.000000 0.000000 0.000000
# 2 -0.004266 0.010357 -0.010733 0.000000 0.000000 0.000000
# 3 0.005682 -0.010733 0.018869 0.000000 0.000000 0.000000
# 4 0.000000 0.000000 0.000000 0.026515 0.000000 0.000000
# 5 0.000000 0.000000 0.000000 0.000000 0.038415 0.000000
# 6 0.000000 0.000000 0.000000 0.000000 0.000000 -0.373485
#
#
# Mechanical properties :
#
#
# Convention : Reuss Voigt Hill
#
# Bulk Modulus (GPa) = 28.36183 75.93193 52.14688
# Shear Modulus (GPa) = -22.29396 30.65130 4.17867
#
# Velocity S-wave (km/s) = -3.28793 3.85526 1.42347
# Velocity P-wave (km/s) = 0.81311 7.52578 5.29038
#
# Compressibility (1/GPa) = 0.03525866
#
# Stress axis : x y z
#
# Youngs Moduli (GPa) = 40.53863 96.55733 52.99834
#
# Poissons Ratio (x) = 0.41188 -0.30113
# Poissons Ratio (y) = 0.17292 0.56884
# Poissons Ratio (z) = -0.23033 1.03637
#
# Static dielectric constant tensor:
#      x y z
#    x 1.791220 0.000000 0.000000 
#    y 0.000000 1.760120 0.000000 
#    z 0.000000 0.000000 2.392080 
# 
# From -- ./inp_files/34874.got.cif
#   From: 2010.05.17/outbox.cif.g08.bks.cpg/sg53_18_cif.got.tgz:34874.got - 2010.06.03 12:45:16.
