data_PCOD9417876
_publ_section_title
;
Structure prediction by ZEFSAII (Michael W. Deem and Ramdas Pophale) SiO2 
 PCOD9417876
Probable space group: P M N A
;
_chemical_formula_sum "Si O2"
_cell_formula_units_Z 48
_cell_length_a 8.613726
_cell_length_b 31.422943
_cell_length_c 9.303545
_cell_angle_alpha 90.000000
_cell_angle_beta 90.000000
_cell_angle_gamma 90.000000
_cell_volume 2518.177697
_symmetry_space_group_name_H-M "P M N A"
_symmetry_group_IT_number 53
_symmetry_cell_setting 'orthorhombic'
loop_
_space_group_symop_operation_xyz
x,y,z
1/2-x,-y,1/2+z
x,-y,-z
1/2-x,y,1/2-z
-x,-y,-z
1/2+x,y,1/2-z
-x,y,z
1/2+x,-y,1/2+z
loop_
_atom_site_type_symbol
_atom_site_label
_atom_site_fract_x
_atom_site_fract_y
_atom_site_fract_z
Si Si1 0.813048 0.780877 0.588805
Si Si2 0.185507 0.702779 0.089064
Si Si3 0.186095 0.457043 0.911761
Si Si4 0.687574 0.958727 0.090301
Si Si5 0.814437 0.376991 0.411644
Si Si6 0.686969 0.877860 0.909221
O O1 0.750000 0.772775 0.750000
O O2 0.742373 0.746979 0.479949
O O3 0.768830 0.829559 0.550153
O O4 0.000000 0.777379 0.589646
O O5 0.250000 0.697905 0.250000
O O6 0.000000 0.701117 0.091653
O O7 0.249882 0.665045 0.989166
O O8 0.250000 0.459620 0.750000
O O9 0.000000 0.451955 0.907068
O O10 0.221937 0.500000 0.000000
O O11 0.259242 0.417357 0.995670
O O12 0.750000 0.961614 0.250000
O O13 0.500000 0.958478 0.092958
O O14 0.740530 0.915011 0.014949
O O15 0.737472 0.000000 0.000000
O O16 0.750000 0.380078 0.250000
O O17 0.000000 0.375364 0.407365
O O18 0.750000 0.886138 0.750000
O O19 0.500000 0.878991 0.903898
#
# Coordination Sequence:
#
# PCOD9417876 Si02
#       6
#     8   8   8   8   8   8
#     4  10  20  37  59  85 116 151 192 236 286 343
#     4  12  25  42  62  87 119 155 196 242 295 349
#     4  11  24  42  65  94 128 165 205 249 298 351
#     4  10  21  36  54  79 110 144 185 231 280 336
#     4  12  25  43  66  92 123 159 201 247 297 352
#     4   9  19  35  56  82 112 146 186 232 280 336
#
# _framework density 19.061404
#
# number of rings (size 3 to 8) (size 9 to 14) (size 15 to 20)
#    0.000    1.333    0.000    6.000    0.000    5.000 
#    0.000    1.667    0.000    0.000    0.000    0.000 
#    0.000    0.000    0.000    0.000    0.000    0.000 
#
# Total GULP energy -268465.343550 kJ/mol
# GULP energy per Si atom -5593.027991 kJ/mol
# Density = 1.901802 g / cm^3
# Si number density = 19.061404 Si / 1000 Ang^3
#
#
#
# Elastic Constant Matrix: (Units=GPa)
#
#
# Indices 1 2 3 4 5 6 
#
# 1 99.2061 66.0506 66.8069 0.0000 0.0000 0.0000
# 2 66.0506 151.8134 116.5479 0.0000 0.0000 0.0000
# 3 66.8069 116.5479 185.7163 0.0000 0.0000 0.0000
# 4 0.0000 0.0000 0.0000 41.5306 0.0000 0.0000
# 5 0.0000 0.0000 0.0000 0.0000 38.9424 0.0000
# 6 0.0000 0.0000 0.0000 0.0000 0.0000 26.0567
#
#
#
# Elastic Compliance Matrix: (Units=1/GPa)
#
#
# Indices 1 2 3 4 5 6 
#
# 1 0.014755 -0.004525 -0.002468 0.000000 0.000000 0.000000
# 2 -0.004525 0.014098 -0.007220 0.000000 0.000000 0.000000
# 3 -0.002468 -0.007220 0.010803 0.000000 0.000000 0.000000
# 4 0.000000 0.000000 0.000000 0.024079 0.000000 0.000000
# 5 0.000000 0.000000 0.000000 0.000000 0.025679 0.000000
# 6 0.000000 0.000000 0.000000 0.000000 0.000000 0.038378
#
#
# Mechanical properties :
#
#
# Convention : Reuss Voigt Hill
#
# Bulk Modulus (GPa) = 89.03984 103.94962 96.49473
# Shear Modulus (GPa) = 31.25769 33.79464 32.52617
#
# Velocity S-wave (km/s) = 4.05389 4.21519 4.13533
# Velocity P-wave (km/s) = 8.29009 8.85115 8.57521
#
# Compressibility (1/GPa) = 0.01123093
#
# Stress axis : x y z
#
# Youngs Moduli (GPa) = 67.77585 70.93024 92.56373
#
# Poissons Ratio (x) = 0.32093 0.22846
# Poissons Ratio (y) = 0.30665 0.66831
# Poissons Ratio (z) = 0.16728 0.51211
#
# Static dielectric constant tensor:
#      x y z
#    x 1.641070 0.000000 0.000000 
#    y 0.000000 1.659820 0.000000 
#    z 0.000000 0.000000 1.611190 
# 
# From -- ./inp_files/6698.got.cif
#   From: 2010.05.17/outbox.cif.g08.bks.cpg/sg53_4_cif.got.tgz:6698.got - 2010.06.03 12:45:16.
