data_PCOD9417420
_publ_section_title
;
Structure prediction by ZEFSAII (Michael W. Deem and Ramdas Pophale) SiO2 
 PCOD9417420
Probable space group: P M N A
;
_chemical_formula_sum "Si O2"
_cell_formula_units_Z 52
_cell_length_a 9.459480
_cell_length_b 12.252700
_cell_length_c 24.671259
_cell_angle_alpha 90.000000
_cell_angle_beta 90.000000
_cell_angle_gamma 90.000000
_cell_volume 2859.501812
_symmetry_space_group_name_H-M "P M N A"
_symmetry_group_IT_number 53
_symmetry_cell_setting 'orthorhombic'
loop_
_space_group_symop_operation_xyz
x,y,z
1/2-x,-y,1/2+z
x,-y,-z
1/2-x,y,1/2-z
-x,-y,-z
1/2+x,y,1/2-z
-x,y,z
1/2+x,-y,1/2+z
loop_
_atom_site_type_symbol
_atom_site_label
_atom_site_fract_x
_atom_site_fract_y
_atom_site_fract_z
Si Si1 0.844134 0.479131 0.205232
Si Si2 0.662191 0.749512 0.048762
Si Si3 0.333234 0.158742 0.358552
Si Si4 0.250000 0.739129 0.750000
Si Si5 0.337226 0.665703 0.547236
Si Si6 0.334807 0.513825 0.098386
Si Si7 0.833937 0.992800 0.435232
O O1 0.750000 0.539828 0.250000
O O2 0.857509 0.355102 0.228479
O O3 0.752115 0.484033 0.151677
O O4 0.000000 0.523289 0.196612
O O5 0.500000 0.749026 0.027057
O O6 0.678087 0.641384 0.084706
O O7 0.680364 0.864536 0.078381
O O8 0.773361 0.738897 0.000381
O O9 0.500000 0.135931 0.346345
O O10 0.245577 0.185151 0.303480
O O11 0.330744 0.264940 0.397406
O O12 0.261620 0.065443 0.395711
O O13 0.500000 0.635782 0.537315
O O14 0.237097 0.561398 0.553153
O O15 0.500000 0.486943 0.103973
O O16 0.000000 0.024604 0.429988
O O17 0.799715 0.000000 0.500000
#
# Coordination Sequence:
#
# PCOD9417420 Si02
#       7
#     8   8   8   4   8   8   8
#     4  10  20  35  57  84 115 149 191 234 289 353
#     4  10  22  39  56  83 118 155 200 241 289 354
#     4  11  23  38  60  91 122 152 196 248 299 355
#     4  10  22  38  62  84 122 150 192 246 302 350
#     4  11  21  35  56  86 122 155 192 241 292 348
#     4  11  22  35  56  83 119 158 193 240 294 351
#     4  10  21  39  63  87 116 159 206 250 299 356
#
# _framework density 18.184985999999999
#
# number of rings (size 3 to 8) (size 9 to 14) (size 15 to 20)
#    0.462    1.077    3.077    2.308    0.000    5.846 
#    0.000    0.000    1.692    0.000    0.000    0.000 
#    0.000    0.000    0.000    0.000    0.000    0.000 
#
# Total GULP energy -289537.850078 kJ/mol
# GULP energy per Si atom -5568.035578 kJ/mol
# Density = 1.814360 g / cm^3
# Si number density = 18.184986 Si / 1000 Ang^3
#
#
#
# Elastic Constant Matrix: (Units=GPa)
#
#
# Indices 1 2 3 4 5 6 
#
# 1 122.7827 51.0309 56.7639 0.0000 0.0000 0.0000
# 2 51.0309 88.2331 21.6528 0.0000 0.0000 0.0000
# 3 56.7639 21.6528 93.4953 0.0000 0.0000 0.0000
# 4 0.0000 0.0000 0.0000 22.8885 0.0000 0.0000
# 5 0.0000 0.0000 0.0000 0.0000 -19.5092 0.0000
# 6 0.0000 0.0000 0.0000 0.0000 0.0000 26.5477
#
#
#
# Elastic Compliance Matrix: (Units=1/GPa)
#
#
# Indices 1 2 3 4 5 6 
#
# 1 0.014070 -0.006405 -0.007059 0.000000 0.000000 0.000000
# 2 -0.006405 0.014933 0.000431 0.000000 0.000000 0.000000
# 3 -0.007059 0.000431 0.014882 0.000000 0.000000 0.000000
# 4 0.000000 0.000000 0.000000 0.043690 0.000000 0.000000
# 5 0.000000 0.000000 0.000000 0.000000 -0.051258 0.000000
# 6 0.000000 0.000000 0.000000 0.000000 0.000000 0.037668
#
#
# Mechanical properties :
#
#
# Convention : Reuss Voigt Hill
#
# Bulk Modulus (GPa) = 56.12623 62.60072 59.36347
# Shear Modulus (GPa) = 47.17381 17.65630 32.41506
#
# Velocity S-wave (km/s) = 5.09876 3.11935 4.22657
# Velocity P-wave (km/s) = 8.09903 6.89006 7.51888
#
# Compressibility (1/GPa) = 0.01781698
#
# Stress axis : x y z
#
# Youngs Moduli (GPa) = 71.07272 66.96774 67.19652
#
# Poissons Ratio (x) = 0.42895 0.47434
# Poissons Ratio (y) = 0.45525 -0.02894
# Poissons Ratio (z) = 0.50170 -0.02884
#
# Static dielectric constant tensor:
#      x y z
#    x 1.647090 0.000000 0.000000 
#    y 0.000000 1.646270 0.000000 
#    z 0.000000 0.000000 1.680770 
# 
# From -- ./inp_files/36265.got.cif
#   From: 2010.05.17/outbox.cif.g08.bks.cpg/sg53_19_cif.got.tgz:36265.got - 2010.06.03 12:45:16.
