data_PCOD9417559
_publ_section_title
;
Structure prediction by ZEFSAII (Michael W. Deem and Ramdas Pophale) SiO2 
 PCOD9417559
Probable space group: P M N A
;
_chemical_formula_sum "Si O2"
_cell_formula_units_Z 48
_cell_length_a 8.618966
_cell_length_b 31.843236
_cell_length_c 9.400911
_cell_angle_alpha 90.000000
_cell_angle_beta 90.000000
_cell_angle_gamma 90.000000
_cell_volume 2580.134252
_symmetry_space_group_name_H-M "P M N A"
_symmetry_group_IT_number 53
_symmetry_cell_setting 'orthorhombic'
loop_
_space_group_symop_operation_xyz
x,y,z
1/2-x,-y,1/2+z
x,-y,-z
1/2-x,y,1/2-z
-x,-y,-z
1/2+x,y,1/2-z
-x,y,z
1/2+x,-y,1/2+z
loop_
_atom_site_type_symbol
_atom_site_label
_atom_site_fract_x
_atom_site_fract_y
_atom_site_fract_z
Si Si1 0.314522 0.793471 0.090332
Si Si2 0.687534 0.540927 0.410120
Si Si3 0.813919 0.959011 0.590594
Si Si4 0.814681 0.129377 0.089713
Si Si5 0.686751 0.296409 0.590129
Si Si6 0.812797 0.622240 0.909511
O O1 0.250000 0.798057 0.250000
O O2 0.500000 0.793332 0.092145
O O3 0.253033 0.748198 0.038549
O O4 0.251579 0.831786 0.998039
O O5 0.736003 0.500000 0.500000
O O6 0.750000 0.540077 0.250000
O O7 0.500000 0.541064 0.403641
O O8 0.737921 0.582600 0.495082
O O9 0.750000 0.964065 0.750000
O O10 0.743003 0.915676 0.531689
O O11 0.000000 0.954886 0.595135
O O12 0.773111 0.000000 0.500000
O O13 0.750000 0.132031 0.250000
O O14 0.000000 0.130382 0.091516
O O15 0.750000 0.303452 0.750000
O O16 0.500000 0.294079 0.596446
O O17 0.733113 0.334731 0.488486
O O18 0.750000 0.619710 0.750000
O O19 0.000000 0.621385 0.903599
#
# Coordination Sequence:
#
# PCOD9417559 Si02
#       6
#     8   8   8   8   8   8
#     4  11  22  38  59  84 113 146 186 230 279 332
#     4  10  21  37  57  83 113 146 186 229 275 328
#     4  10  21  37  57  82 112 146 186 230 277 330
#     4  11  22  38  59  83 113 148 186 229 279 333
#     4  10  20  36  56  80 109 142 183 227 275 329
#     4  10  22  37  55  81 112 145 184 229 274 328
#
# _framework density 18.603684000000001
#
# number of rings (size 3 to 8) (size 9 to 14) (size 15 to 20)
#    0.000    1.667    0.000    7.000    0.000    5.000 
#    0.000    3.333    0.000    0.000    0.000    0.000 
#    0.000    0.000    0.000    0.000    0.000    0.000 
#
# Total GULP energy -268231.171691 kJ/mol
# GULP energy per Si atom -5588.149410 kJ/mol
# Density = 1.856134 g / cm^3
# Si number density = 18.603684 Si / 1000 Ang^3
#
#
#
# Elastic Constant Matrix: (Units=GPa)
#
#
# Indices 1 2 3 4 5 6 
#
# 1 94.5283 71.6317 40.9530 0.0000 0.0000 0.0000
# 2 71.6317 223.8408 112.7117 0.0000 0.0000 0.0000
# 3 40.9530 112.7117 114.2091 0.0000 0.0000 0.0000
# 4 0.0000 0.0000 0.0000 41.5803 0.0000 0.0000
# 5 0.0000 0.0000 0.0000 0.0000 36.6962 0.0000
# 6 0.0000 0.0000 0.0000 0.0000 0.0000 -171.4396
#
#
#
# Elastic Compliance Matrix: (Units=1/GPa)
#
#
# Indices 1 2 3 4 5 6 
#
# 1 0.014047 -0.003894 -0.001194 0.000000 0.000000 0.000000
# 2 -0.003894 0.009960 -0.008433 0.000000 0.000000 0.000000
# 3 -0.001194 -0.008433 0.017506 0.000000 0.000000 0.000000
# 4 0.000000 0.000000 0.000000 0.024050 0.000000 0.000000
# 5 0.000000 0.000000 0.000000 0.000000 0.027251 0.000000
# 6 0.000000 0.000000 0.000000 0.000000 0.000000 -0.005833
#
#
# Mechanical properties :
#
#
# Convention : Reuss Voigt Hill
#
# Bulk Modulus (GPa) = 69.10243 98.13011 83.61627
# Shear Modulus (GPa) = 42.07099 -4.81385 18.62857
#
# Velocity S-wave (km/s) = 4.76061 -1.61034 3.16783
# Velocity P-wave (km/s) = 8.21237 7.02884 7.64355
#
# Compressibility (1/GPa) = 0.01447127
#
# Stress axis : x y z
#
# Youngs Moduli (GPa) = 71.19010 100.40270 57.12168
#
# Poissons Ratio (x) = 0.39096 0.06821
# Poissons Ratio (y) = 0.27721 0.48171
# Poissons Ratio (z) = 0.08500 0.84670
#
# Static dielectric constant tensor:
#      x y z
#    x 1.628330 0.000000 0.000000 
#    y 0.000000 1.648180 0.000000 
#    z 0.000000 0.000000 1.596630 
# 
# From -- ./inp_files/6750.got.cif
#   From: 2010.05.17/outbox.cif.g08.bks.cpg/sg53_4_cif.got.tgz:6750.got - 2010.06.03 12:45:16.
