data_PCOD9417439
_publ_section_title
;
Structure prediction by ZEFSAII (Michael W. Deem and Ramdas Pophale) SiO2 
 PCOD9417439
Probable space group: P M N A
;
_chemical_formula_sum "Si O2"
_cell_formula_units_Z 64
_cell_length_a 23.978334
_cell_length_b 6.907541
_cell_length_c 16.597736
_cell_angle_alpha 90.000000
_cell_angle_beta 90.000000
_cell_angle_gamma 90.000000
_cell_volume 2749.105009
_symmetry_space_group_name_H-M "P M N A"
_symmetry_group_IT_number 53
_symmetry_cell_setting 'orthorhombic'
loop_
_space_group_symop_operation_xyz
x,y,z
1/2-x,-y,1/2+z
x,-y,-z
1/2-x,y,1/2-z
-x,-y,-z
1/2+x,y,1/2-z
-x,y,z
1/2+x,-y,1/2+z
loop_
_atom_site_type_symbol
_atom_site_label
_atom_site_fract_x
_atom_site_fract_y
_atom_site_fract_z
Si Si1 0.104623 0.661101 0.323985
Si Si2 0.062696 0.961085 0.613003
Si Si3 0.562180 0.152633 0.300773
Si Si4 0.935986 0.158710 0.936320
Si Si5 0.283918 0.089739 0.832143
Si Si6 0.765363 0.568621 0.082222
Si Si7 0.840641 0.289849 0.395278
Si Si8 0.621843 0.521083 0.347059
O O1 0.161969 0.779737 0.319366
O O2 0.117902 0.454407 0.361939
O O3 0.091510 0.609644 0.232029
O O4 0.067112 0.806288 0.376066
O O5 0.071328 0.892735 0.706821
O O6 0.112485 0.853409 0.564626
O O7 0.000000 0.907933 0.587760
O O8 0.500000 0.237842 0.308570
O O9 0.605123 0.298574 0.341188
O O10 0.563308 0.958647 0.352545
O O11 0.900995 0.350661 0.920437
O O12 0.000000 0.205683 0.959648
O O13 0.914289 0.000000 0.000000
O O14 0.250000 0.091123 0.750000
O O15 0.252296 0.206909 0.904039
O O16 0.304943 0.874208 0.849153
O O17 0.710603 0.431172 0.079780
O O18 0.810945 0.532601 0.152180
O O19 0.794273 0.500000 0.000000
#
# Coordination Sequence:
#
# PCOD9417439 Si02
#       8
#     8   8   8   8   8   8   8   8
#     4  10  20  35  57  91 122 157 197 259 317 382
#     4  10  20  36  62  98 127 156 203 257 328 402
#     4  10  21  35  55  84 118 160 208 264 321 376
#     4  10  23  40  54  74 116 172 223 270 322 378
#     4  10  21  39  63  88 122 165 210 261 320 383
#     4  11  27  43  60  92 130 173 224 271 321 391
#     4  10  23  40  64  90 128 167 205 258 333 386
#     4  12  22  36  59  86 124 164 219 268 324 378
#
# _framework density 23.280303
#
# number of rings (size 3 to 8) (size 9 to 14) (size 15 to 20)
#    0.000    1.625    3.750    0.375    3.500    2.500 
#    0.000    1.875    0.000    0.375    0.000    7.875 
#    0.000    0.000    0.000    0.000    0.000    0.000 
#
# Total GULP energy -356492.970538 kJ/mol
# GULP energy per Si atom -5570.202665 kJ/mol
# Density = 2.322732 g / cm^3
# Si number density = 23.280303 Si / 1000 Ang^3
#
#
#
# Elastic Constant Matrix: (Units=GPa)
#
#
# Indices 1 2 3 4 5 6 
#
# 1 86.4042 37.1867 13.5739 0.0000 0.0000 0.0000
# 2 37.1867 147.4815 35.4329 0.0000 0.0000 0.0000
# 3 13.5739 35.4329 40.9453 0.0000 0.0000 0.0000
# 4 0.0000 0.0000 0.0000 23.2552 0.0000 0.0000
# 5 0.0000 0.0000 0.0000 0.0000 7.3857 0.0000
# 6 0.0000 0.0000 0.0000 0.0000 0.0000 33.2317
#
#
#
# Elastic Compliance Matrix: (Units=1/GPa)
#
#
# Indices 1 2 3 4 5 6 
#
# 1 0.013095 -0.002852 -0.001873 0.000000 0.000000 0.000000
# 2 -0.002852 0.009181 -0.007000 0.000000 0.000000 0.000000
# 3 -0.001873 -0.007000 0.031101 0.000000 0.000000 0.000000
# 4 0.000000 0.000000 0.000000 0.043001 0.000000 0.000000
# 5 0.000000 0.000000 0.000000 0.000000 0.135397 0.000000
# 6 0.000000 0.000000 0.000000 0.000000 0.000000 0.030092
#
#
# Mechanical properties :
#
#
# Convention : Reuss Voigt Hill
#
# Bulk Modulus (GPa) = 33.41374 49.69090 41.55232
# Shear Modulus (GPa) = 16.93232 25.35034 21.14133
#
# Velocity S-wave (km/s) = 2.69982 3.30346 3.01677
# Velocity P-wave (km/s) = 4.90945 5.99511 5.47923
#
# Compressibility (1/GPa) = 0.02992781
#
# Stress axis : x y z
#
# Youngs Moduli (GPa) = 76.36397 108.91695 32.15301
#
# Poissons Ratio (x) = 0.31061 0.06023
# Poissons Ratio (y) = 0.21778 0.22507
# Poissons Ratio (z) = 0.14306 0.76240
#
# Static dielectric constant tensor:
#      x y z
#    x 1.908100 0.000000 0.000000 
#    y 0.000000 1.903600 0.000000 
#    z 0.000000 0.000000 1.966490 
# 
# From -- ./inp_files/33284.got.cif
#   From: 2010.05.17/outbox.cif.g08.bks.cpg/sg53_17_cif.got.tgz:33284.got - 2010.06.03 12:45:16.
