data_PCOD9417380
_publ_section_title
;
Structure prediction by ZEFSAII (Michael W. Deem and Ramdas Pophale) SiO2 
 PCOD9417380
Probable space group: P M N A
;
_chemical_formula_sum "Si O2"
_cell_formula_units_Z 60
_cell_length_a 11.936075
_cell_length_b 8.827579
_cell_length_c 28.254492
_cell_angle_alpha 90.000000
_cell_angle_beta 90.000000
_cell_angle_gamma 90.000000
_cell_volume 2977.081029
_symmetry_space_group_name_H-M "P M N A"
_symmetry_group_IT_number 53
_symmetry_cell_setting 'orthorhombic'
loop_
_space_group_symop_operation_xyz
x,y,z
1/2-x,-y,1/2+z
x,-y,-z
1/2-x,y,1/2-z
-x,-y,-z
1/2+x,y,1/2-z
-x,y,z
1/2+x,-y,1/2+z
loop_
_atom_site_type_symbol
_atom_site_label
_atom_site_fract_x
_atom_site_fract_y
_atom_site_fract_z
Si Si1 0.750000 0.072037 0.750000
Si Si2 0.190828 0.072167 0.896096
Si Si3 0.709057 0.161097 0.989223
Si Si4 0.135001 0.103757 0.336103
Si Si5 0.879654 0.235740 0.071722
Si Si6 0.624344 0.448026 0.950933
Si Si7 0.371014 0.693643 0.316434
Si Si8 0.248897 0.573297 0.639390
O O1 0.665990 0.186801 0.723486
O O2 0.815776 0.967210 0.712463
O O3 0.197706 0.128757 0.949604
O O4 0.145657 0.205906 0.863790
O O5 0.309514 0.007709 0.875712
O O6 0.119774 0.919263 0.898312
O O7 0.625795 0.271375 0.962214
O O8 0.774581 0.219769 0.035759
O O9 0.655048 0.000000 0.000000
O O10 0.182932 0.275361 0.343621
O O11 0.000000 0.103955 0.337481
O O12 0.854596 0.366744 0.109177
O O13 0.000000 0.256154 0.047841
O O14 0.500000 0.515442 0.950703
O O15 0.677655 0.487537 0.901104
O O16 0.683454 0.500000 0.000000
O O17 0.500000 0.648637 0.310616
O O18 0.290920 0.546849 0.321844
#
# Coordination Sequence:
#
# PCOD9417380 Si02
#       8
#     4   8   8   8   8   8   8   8
#     4  10  24  46  66  96 122 144 198 248 302 390
#     4   9  20  36  58  87 122 155 210 252 286 355
#     4  10  20  36  53  84 121 159 208 254 284 345
#     4  10  22  43  68  90 120 161 198 249 311 366
#     4  10  20  35  56  82 121 168 208 249 295 343
#     4  11  22  38  56  80 122 169 205 250 299 336
#     4  11  22  40  66  92 123 155 189 249 313 361
#     4  11  22  40  60  92 123 154 207 248 294 372
#
# _framework density 20.153969
#
# number of rings (size 3 to 8) (size 9 to 14) (size 15 to 20)
#    0.000    1.733    2.667    1.600    0.000    4.267 
#    0.000    6.000    0.000    0.000    0.000    0.000 
#    0.000    0.000    0.000    0.000    0.000    0.000 
#
# Total GULP energy -334142.232055 kJ/mol
# GULP energy per Si atom -5569.037201 kJ/mol
# Density = 2.010810 g / cm^3
# Si number density = 20.153969 Si / 1000 Ang^3
#
#
#
# Elastic Constant Matrix: (Units=GPa)
#
#
# Indices 1 2 3 4 5 6 
#
# 1 104.6059 27.2816 19.7050 0.0000 0.0000 0.0000
# 2 27.2816 82.8538 29.9995 0.0000 0.0000 0.0000
# 3 19.7050 29.9995 73.2384 0.0000 0.0000 0.0000
# 4 0.0000 0.0000 0.0000 39.3133 0.0000 0.0000
# 5 0.0000 0.0000 0.0000 0.0000 7.2816 0.0000
# 6 0.0000 0.0000 0.0000 0.0000 0.0000 -9.6407
#
#
#
# Elastic Compliance Matrix: (Units=1/GPa)
#
#
# Indices 1 2 3 4 5 6 
#
# 1 0.010630 -0.002894 -0.001675 0.000000 0.000000 0.000000
# 2 -0.002894 0.014959 -0.005349 0.000000 0.000000 0.000000
# 3 -0.001675 -0.005349 0.016296 0.000000 0.000000 0.000000
# 4 0.000000 0.000000 0.000000 0.025437 0.000000 0.000000
# 5 0.000000 0.000000 0.000000 0.000000 0.137333 0.000000
# 6 0.000000 0.000000 0.000000 0.000000 0.000000 -0.103726
#
#
# Mechanical properties :
#
#
# Convention : Reuss Voigt Hill
#
# Bulk Modulus (GPa) = 45.35176 46.07450 45.71313
# Shear Modulus (GPa) = 39.02843 19.63830 29.33336
#
# Velocity S-wave (km/s) = 4.40536 3.12495 3.81919
# Velocity P-wave (km/s) = 6.95900 5.99427 6.49457
#
# Compressibility (1/GPa) = 0.02204986
#
# Stress axis : x y z
#
# Youngs Moduli (GPa) = 94.07463 66.84942 61.36637
#
# Poissons Ratio (x) = 0.19345 0.10277
# Poissons Ratio (y) = 0.27223 0.32824
# Poissons Ratio (z) = 0.15754 0.35757
#
# Static dielectric constant tensor:
#      x y z
#    x 1.732440 0.000000 0.000000 
#    y 0.000000 1.809130 0.000000 
#    z 0.000000 0.000000 1.714780 
# 
# From -- ./inp_files/38702.got.cif
#   From: 2010.05.17/outbox.cif.g08.bks.cpg/sg53_20_cif.got.tgz:38702.got - 2010.06.03 12:45:16.
