data_PCOD9417128
_publ_section_title
;
Structure prediction by ZEFSAII (Michael W. Deem and Ramdas Pophale) SiO2 
 PCOD9417128
Probable space group: P M N A
;
_chemical_formula_sum "Si O2"
_cell_formula_units_Z 64
_cell_length_a 8.563638
_cell_length_b 21.407887
_cell_length_c 19.279511
_cell_angle_alpha 90.000000
_cell_angle_beta 90.000000
_cell_angle_gamma 90.000000
_cell_volume 3534.501080
_symmetry_space_group_name_H-M "P M N A"
_symmetry_group_IT_number 53
_symmetry_cell_setting 'orthorhombic'
loop_
_space_group_symop_operation_xyz
x,y,z
1/2-x,-y,1/2+z
x,-y,-z
1/2-x,y,1/2-z
-x,-y,-z
1/2+x,y,1/2-z
-x,y,z
1/2+x,-y,1/2+z
loop_
_atom_site_type_symbol
_atom_site_label
_atom_site_fract_x
_atom_site_fract_y
_atom_site_fract_z
Si Si1 0.689641 0.693073 0.531781
Si Si2 0.187563 0.881275 0.327800
Si Si3 0.689058 0.563687 0.462077
Si Si4 0.812135 0.248391 0.888685
Si Si5 0.188427 0.999007 0.420746
Si Si6 0.813848 0.377238 0.674359
Si Si7 0.811572 0.250361 0.175546
Si Si8 0.186665 0.105279 0.175670
O O1 0.500000 0.694078 0.533747
O O2 0.736135 0.623831 0.507927
O O3 0.735052 0.739509 0.469038
O O4 0.744947 0.712854 0.607693
O O5 0.250000 0.890064 0.250000
O O6 0.245795 0.815299 0.357891
O O7 0.240107 0.938015 0.377595
O O8 0.000000 0.880854 0.325827
O O9 0.735927 0.500000 0.500000
O O10 0.500000 0.564196 0.456215
O O11 0.757966 0.575688 0.385922
O O12 0.752937 0.309011 0.846789
O O13 0.000000 0.247273 0.885086
O O14 0.000000 0.998560 0.420717
O O15 0.243091 0.000000 0.500000
O O16 0.246307 0.060766 0.382631
O O17 0.750000 0.394270 0.750000
O O18 0.000000 0.374188 0.675653
O O19 0.750000 0.272619 0.250000
O O20 0.765205 0.177604 0.167241
O O21 0.000000 0.252752 0.177295
O O22 0.250000 0.083416 0.250000
O O23 0.000000 0.102689 0.175578
#
# Coordination Sequence:
#
# PCOD9417128 Si02
#       8
#     8   8   8   8   8   8   8   8
#     4   8  16  32  54  78 107 140 175 217 263 316
#     4  11  23  38  55  77 106 140 176 216 269 325
#     4   9  18  35  58  82 111 150 189 225 273 325
#     4  10  20  35  57  82 109 141 178 223 274 326
#     4  10  23  40  55  75 106 140 175 222 273 322
#     4  11  21  35  56  82 114 147 186 229 272 325
#     4   9  18  33  52  77 105 135 173 219 268 316
#     4  10  20  34  55  77 100 133 176 221 268 325
#
# _framework density 18.107223999999999
#
# number of rings (size 3 to 8) (size 9 to 14) (size 15 to 20)
#    0.000    2.250    0.000    3.750    1.750    3.000 
#    0.000    3.750    0.000    1.500    0.000    0.000 
#    0.000    0.000    0.000    0.000    0.000    0.000 
#
# Total GULP energy -357246.789268 kJ/mol
# GULP energy per Si atom -5581.981082 kJ/mol
# Density = 1.806601 g / cm^3
# Si number density = 18.107224 Si / 1000 Ang^3
#
#
#
# Elastic Constant Matrix: (Units=GPa)
#
#
# Indices 1 2 3 4 5 6 
#
# 1 36.2839 26.1939 37.3043 0.0000 0.0000 0.0000
# 2 26.1939 85.2143 90.7829 0.0000 0.0000 0.0000
# 3 37.3043 90.7829 207.2475 0.0000 0.0000 0.0000
# 4 0.0000 0.0000 0.0000 27.1246 0.0000 0.0000
# 5 0.0000 0.0000 0.0000 0.0000 26.5103 0.0000
# 6 0.0000 0.0000 0.0000 0.0000 0.0000 3.4274
#
#
#
# Elastic Compliance Matrix: (Units=1/GPa)
#
#
# Indices 1 2 3 4 5 6 
#
# 1 0.036452 -0.007903 -0.003100 0.000000 0.000000 0.000000
# 2 -0.007903 0.023717 -0.008966 0.000000 0.000000 0.000000
# 3 -0.003100 -0.008966 0.009311 0.000000 0.000000 0.000000
# 4 0.000000 0.000000 0.000000 0.036867 0.000000 0.000000
# 5 0.000000 0.000000 0.000000 0.000000 0.037721 0.000000
# 6 0.000000 0.000000 0.000000 0.000000 0.000000 0.291763
#
#
# Mechanical properties :
#
#
# Convention : Reuss Voigt Hill
#
# Bulk Modulus (GPa) = 33.85004 70.81199 52.33102
# Shear Modulus (GPa) = 10.29621 23.04344 16.66982
#
# Velocity S-wave (km/s) = 2.38717 3.57124 3.03746
# Velocity P-wave (km/s) = 5.13156 7.49646 6.42378
#
# Compressibility (1/GPa) = 0.02954206
#
# Stress axis : x y z
#
# Youngs Moduli (GPa) = 27.43303 42.16445 107.40333
#
# Poissons Ratio (x) = 0.33322 0.33291
# Poissons Ratio (y) = 0.21680 0.96302
# Poissons Ratio (z) = 0.08503 0.37806
#
# Static dielectric constant tensor:
#      x y z
#    x 1.613000 0.000000 0.000000 
#    y 0.000000 1.599150 0.000000 
#    z 0.000000 0.000000 1.621550 
# 
# From -- ./inp_files/26803.got.cif
#   From: 2010.05.17/outbox.cif.g08.bks.cpg/sg53_14_cif.got.tgz:26803.got - 2010.06.03 12:45:16.
