data_PCOD9417316
_publ_section_title
;
Structure prediction by ZEFSAII (Michael W. Deem and Ramdas Pophale) SiO2 
 PCOD9417316
Probable space group: P M N A
;
_chemical_formula_sum "Si O2"
_cell_formula_units_Z 48
_cell_length_a 8.735631
_cell_length_b 31.571041
_cell_length_c 9.444171
_cell_angle_alpha 90.000000
_cell_angle_beta 90.000000
_cell_angle_gamma 90.000000
_cell_volume 2604.635917
_symmetry_space_group_name_H-M "P M N A"
_symmetry_group_IT_number 53
_symmetry_cell_setting 'orthorhombic'
loop_
_space_group_symop_operation_xyz
x,y,z
1/2-x,-y,1/2+z
x,-y,-z
1/2-x,y,1/2-z
-x,-y,-z
1/2+x,y,1/2-z
-x,y,z
1/2+x,-y,1/2+z
loop_
_atom_site_type_symbol
_atom_site_label
_atom_site_fract_x
_atom_site_fract_y
_atom_site_fract_z
Si Si1 0.184618 0.539577 0.907478
Si Si2 0.817128 0.957688 0.408185
Si Si3 0.683300 0.366577 0.407583
Si Si4 0.183868 0.805416 0.408255
Si Si5 0.183181 0.119207 0.091874
Si Si6 0.182632 0.708243 0.406014
O O1 0.250000 0.536260 0.750000
O O2 0.225690 0.586439 0.964854
O O3 0.000000 0.537911 0.900270
O O4 0.238807 0.500000 0.000000
O O5 0.750000 0.961355 0.250000
O O6 0.741917 0.918908 0.492658
O O7 0.000000 0.951167 0.398910
O O8 0.788940 0.000000 0.500000
O O9 0.750000 0.364407 0.250000
O O10 0.500000 0.363901 0.403165
O O11 0.748820 0.327781 0.495503
O O12 0.250000 0.812709 0.250000
O O13 0.256916 0.837977 0.517969
O O14 0.219344 0.756701 0.449084
O O15 0.000000 0.810642 0.404332
O O16 0.250000 0.114846 0.250000
O O17 0.000000 0.118969 0.098141
O O18 0.250000 0.702563 0.250000
O O19 0.000000 0.704461 0.402247
#
# Coordination Sequence:
#
# PCOD9417316 Si02
#       6
#     8   8   8   8   8   8
#     4   9  19  35  53  76 105 138 178 222 270 325
#     4  11  24  42  65  92 123 159 198 240 287 339
#     4  10  20  35  55  78 108 144 182 226 275 330
#     4  10  21  39  61  85 114 149 189 232 281 335
#     4  12  25  41  62  88 120 155 194 240 287 338
#     4  10  21  37  58  83 112 146 185 230 278 332
#
# _framework density 18.428678000000001
#
# number of rings (size 3 to 8) (size 9 to 14) (size 15 to 20)
#    0.000    1.667    0.000    4.500    0.000    7.000 
#    0.000    1.667    0.000    0.000    0.000    0.000 
#    0.000    0.000    0.000    0.000    0.000    0.000 
#
# Total GULP energy -268175.584150 kJ/mol
# GULP energy per Si atom -5586.991336 kJ/mol
# Density = 1.838673 g / cm^3
# Si number density = 18.428678 Si / 1000 Ang^3
#
#
#
# Elastic Constant Matrix: (Units=GPa)
#
#
# Indices 1 2 3 4 5 6 
#
# 1 97.5788 87.5094 65.7387 0.0000 0.0000 0.0000
# 2 87.5094 170.8662 107.6808 0.0000 0.0000 0.0000
# 3 65.7387 107.6808 128.9413 0.0000 0.0000 0.0000
# 4 0.0000 0.0000 0.0000 40.8144 0.0000 0.0000
# 5 0.0000 0.0000 0.0000 0.0000 37.4450 0.0000
# 6 0.0000 0.0000 0.0000 0.0000 0.0000 27.2562
#
#
#
# Elastic Compliance Matrix: (Units=1/GPa)
#
#
# Indices 1 2 3 4 5 6 
#
# 1 0.019637 -0.007911 -0.003405 0.000000 0.000000 0.000000
# 2 -0.007911 0.015542 -0.008946 0.000000 0.000000 0.000000
# 3 -0.003405 -0.008946 0.016962 0.000000 0.000000 0.000000
# 4 0.000000 0.000000 0.000000 0.024501 0.000000 0.000000
# 5 0.000000 0.000000 0.000000 0.000000 0.026706 0.000000
# 6 0.000000 0.000000 0.000000 0.000000 0.000000 0.036689
#
#
# Mechanical properties :
#
#
# Convention : Reuss Voigt Hill
#
# Bulk Modulus (GPa) = 86.07942 102.13824 94.10883
# Shear Modulus (GPa) = 27.11007 30.20031 28.65519
#
# Velocity S-wave (km/s) = 3.83963 4.05256 3.94753
# Velocity P-wave (km/s) = 8.15278 8.80009 8.48261
#
# Compressibility (1/GPa) = 0.01161718
#
# Stress axis : x y z
#
# Youngs Moduli (GPa) = 50.92481 64.34088 58.95480
#
# Poissons Ratio (x) = 0.50903 0.20071
# Poissons Ratio (y) = 0.40289 0.52741
# Poissons Ratio (z) = 0.17337 0.57559
#
# Static dielectric constant tensor:
#      x y z
#    x 1.623150 0.000000 0.000000 
#    y 0.000000 1.647830 0.000000 
#    z 0.000000 0.000000 1.583970 
# 
# From -- ./inp_files/6720.got.cif
#   From: 2010.05.17/outbox.cif.g08.bks.cpg/sg53_4_cif.got.tgz:6720.got - 2010.06.03 12:45:16.
