data_PCOD9417199
_publ_section_title
;
Structure prediction by ZEFSAII (Michael W. Deem and Ramdas Pophale) SiO2 
 PCOD9417199
Probable space group: P M N A
;
_chemical_formula_sum "Si O2"
_cell_formula_units_Z 28
_cell_length_a 13.155893
_cell_length_b 10.008132
_cell_length_c 12.226476
_cell_angle_alpha 90.000000
_cell_angle_beta 90.000000
_cell_angle_gamma 90.000000
_cell_volume 1609.810134
_symmetry_space_group_name_H-M "P M N A"
_symmetry_group_IT_number 53
_symmetry_cell_setting 'orthorhombic'
loop_
_space_group_symop_operation_xyz
x,y,z
1/2-x,-y,1/2+z
x,-y,-z
1/2-x,y,1/2-z
-x,-y,-z
1/2+x,y,1/2-z
-x,y,z
1/2+x,-y,1/2+z
loop_
_atom_site_type_symbol
_atom_site_label
_atom_site_fract_x
_atom_site_fract_y
_atom_site_fract_z
Si Si1 0.250000 0.976725 0.750000
Si Si2 0.306534 0.633037 0.569356
Si Si3 0.386333 0.873410 0.421113
Si Si4 0.118596 0.722245 0.694040
O O1 0.190174 0.073470 0.830560
O O2 0.167516 0.871479 0.700997
O O3 0.326224 0.500000 0.500000
O O4 0.340627 0.753901 0.491889
O O5 0.188803 0.646044 0.606306
O O6 0.364173 0.654648 0.685886
O O7 0.500000 0.838909 0.380335
O O8 0.396464 0.000000 0.500000
O O9 0.000000 0.725898 0.669171
#
# Coordination Sequence:
#
# PCOD9417199 Si02
#       4
#     4   8   8   8
#     4  10  20  34  56  88 114 140 190 240 270 324
#     4  10  22  38  57  84 114 148 189 230 275 338
#     4  11  20  36  60  82 109 148 188 228 275 329
#     4  10  20  36  58  81 113 149 184 231 287 333
#
# _framework density 17.393356000000001
#
# number of rings (size 3 to 8) (size 9 to 14) (size 15 to 20)
#    0.000    2.000    5.714    1.714    0.000    5.143 
#    0.000    4.286    0.000    0.000    0.000    0.000 
#    0.000    0.000    0.000    0.000    0.000    0.000 
#
# Total GULP energy -155988.487067 kJ/mol
# GULP energy per Si atom -5571.017395 kJ/mol
# Density = 1.735377 g / cm^3
# Si number density = 17.393356 Si / 1000 Ang^3
#
#
#
# Elastic Constant Matrix: (Units=GPa)
#
#
# Indices 1 2 3 4 5 6 
#
# 1 137.0812 29.4552 40.6284 0.0000 0.0000 0.0000
# 2 29.4552 120.2793 50.8437 0.0000 0.0000 0.0000
# 3 40.6284 50.8437 81.6596 0.0000 0.0000 0.0000
# 4 0.0000 0.0000 0.0000 20.7031 0.0000 0.0000
# 5 0.0000 0.0000 0.0000 0.0000 27.3775 0.0000
# 6 0.0000 0.0000 0.0000 0.0000 0.0000 4.5970
#
#
#
# Elastic Compliance Matrix: (Units=1/GPa)
#
#
# Indices 1 2 3 4 5 6 
#
# 1 0.008571 -0.000402 -0.004014 0.000000 0.000000 0.000000
# 2 -0.000402 0.011303 -0.006837 0.000000 0.000000 0.000000
# 3 -0.004014 -0.006837 0.018500 0.000000 0.000000 0.000000
# 4 0.000000 0.000000 0.000000 0.048302 0.000000 0.000000
# 5 0.000000 0.000000 0.000000 0.000000 0.036526 0.000000
# 6 0.000000 0.000000 0.000000 0.000000 0.000000 0.217533
#
#
# Mechanical properties :
#
#
# Convention : Reuss Voigt Hill
#
# Bulk Modulus (GPa) = 63.02397 64.54162 63.78280
# Shear Modulus (GPa) = 13.56737 25.07505 19.32121
#
# Velocity S-wave (km/s) = 2.79593 3.80102 3.33654
# Velocity P-wave (km/s) = 6.83639 7.51341 7.18288
#
# Compressibility (1/GPa) = 0.01586698
#
# Stress axis : x y z
#
# Youngs Moduli (GPa) = 116.67209 88.47446 54.05364
#
# Poissons Ratio (x) = 0.03559 0.21697
# Poissons Ratio (y) = 0.04693 0.36958
# Poissons Ratio (z) = 0.46832 0.60493
#
# Static dielectric constant tensor:
#      x y z
#    x 1.620420 0.000000 0.000000 
#    y 0.000000 1.576230 0.000000 
#    z 0.000000 0.000000 1.600670 
# 
# From -- ./inp_files/15292.got.cif
#   From: 2010.05.17/outbox.cif.g08.bks.cpg/sg53_8_cif.got.tgz:15292.got - 2010.06.03 12:45:16.
