data_PCOD9417299
_publ_section_title
;
Structure prediction by ZEFSAII (Michael W. Deem and Ramdas Pophale) SiO2 
 PCOD9417299
Probable space group: P M N A
;
_chemical_formula_sum "Si O2"
_cell_formula_units_Z 64
_cell_length_a 14.566787
_cell_length_b 23.621384
_cell_length_c 10.218070
_cell_angle_alpha 90.000000
_cell_angle_beta 90.000000
_cell_angle_gamma 90.000000
_cell_volume 3515.911892
_symmetry_space_group_name_H-M "P M N A"
_symmetry_group_IT_number 53
_symmetry_cell_setting 'orthorhombic'
loop_
_space_group_symop_operation_xyz
x,y,z
1/2-x,-y,1/2+z
x,-y,-z
1/2-x,y,1/2-z
-x,-y,-z
1/2+x,y,1/2-z
-x,y,z
1/2+x,-y,1/2+z
loop_
_atom_site_type_symbol
_atom_site_label
_atom_site_fract_x
_atom_site_fract_y
_atom_site_fract_z
Si Si1 0.248868 0.853414 0.092282
Si Si2 0.889300 0.372553 0.954334
Si Si3 0.890672 0.050699 0.902625
Si Si4 0.610442 0.637285 0.982143
Si Si5 0.888613 0.448307 0.706044
Si Si6 0.390721 0.051538 0.903898
Si Si7 0.748416 0.724545 0.408229
Si Si8 0.888386 0.574196 0.771867
O O1 0.250000 0.848945 0.250000
O O2 0.161562 0.892084 0.058425
O O3 0.336610 0.891764 0.057132
O O4 0.246781 0.789266 0.043621
O O5 0.861828 0.407550 0.083064
O O6 0.000000 0.366363 0.953058
O O7 0.861385 0.408303 0.826630
O O8 0.838959 0.312551 0.951435
O O9 0.868641 0.038545 0.749214
O O10 0.000000 0.057993 0.911389
O O11 0.864093 0.000000 0.000000
O O12 0.500000 0.644575 0.989958
O O13 0.637364 0.620873 0.835181
O O14 0.636100 0.583370 0.072748
O O15 0.663441 0.691065 0.037687
O O16 0.856251 0.512120 0.728146
O O17 0.000000 0.450727 0.706984
O O18 0.500000 0.060124 0.912221
O O19 0.366077 0.000000 0.000000
O O20 0.750000 0.724029 0.250000
O O21 0.000000 0.571933 0.771084
#
# Coordination Sequence:
#
# PCOD9417299 Si02
#       8
#     8   8   8   8   8   8   8   8
#     4   9  19  33  51  76 105 137 175 216 248 287
#     4  10  20  35  55  76 102 136 170 214 268 315
#     4   9  17  31  54  82 109 135 165 205 254 301
#     4  10  20  35  55  76 102 136 170 214 268 315
#     4   9  16  31  55  81 102 127 167 214 268 324
#     4   9  17  31  54  82 109 135 165 205 254 301
#     4  11  22  36  53  76 104 137 186 225 247 298
#     4   9  18  33  55  79 104 131 165 214 272 330
#
# _framework density 18.202959
#
# number of rings (size 3 to 8) (size 9 to 14) (size 15 to 20)
#    0.000    2.500    1.250    1.125    0.000    4.500 
#    0.000    6.250    5.500    0.000    0.000    0.000 
#    0.000    0.000    0.000    0.000    0.000    0.000 
#
# Total GULP energy -357085.734447 kJ/mol
# GULP energy per Si atom -5579.464601 kJ/mol
# Density = 1.816153 g / cm^3
# Si number density = 18.202959 Si / 1000 Ang^3
#
#
#
# Elastic Constant Matrix: (Units=GPa)
#
#
# Indices 1 2 3 4 5 6 
#
# 1 63.1869 30.1694 7.3193 0.0000 0.0000 0.0000
# 2 30.1694 138.9287 22.6192 0.0000 0.0000 0.0000
# 3 7.3193 22.6192 61.0816 0.0000 0.0000 0.0000
# 4 0.0000 0.0000 0.0000 20.5631 0.0000 0.0000
# 5 0.0000 0.0000 0.0000 0.0000 14.3892 0.0000
# 6 0.0000 0.0000 0.0000 0.0000 0.0000 0.1242
#
#
#
# Elastic Compliance Matrix: (Units=1/GPa)
#
#
# Indices 1 2 3 4 5 6 
#
# 1 0.017688 -0.003720 -0.000742 0.000000 0.000000 0.000000
# 2 -0.003720 0.008442 -0.002680 0.000000 0.000000 0.000000
# 3 -0.000742 -0.002680 0.017453 0.000000 0.000000 0.000000
# 4 0.000000 0.000000 0.000000 0.048631 0.000000 0.000000
# 5 0.000000 0.000000 0.000000 0.000000 0.069497 0.000000
# 6 0.000000 0.000000 0.000000 0.000000 0.000000 8.050214
#
#
# Mechanical properties :
#
#
# Convention : Reuss Voigt Hill
#
# Bulk Modulus (GPa) = 34.13173 42.60144 38.36658
# Shear Modulus (GPa) = 0.60709 20.55459 10.58084
#
# Velocity S-wave (km/s) = 0.57813 3.36399 2.41357
# Velocity P-wave (km/s) = 4.38600 6.20830 5.37494
#
# Compressibility (1/GPa) = 0.02929825
#
# Stress axis : x y z
#
# Youngs Moduli (GPa) = 56.53438 118.45181 57.29659
#
# Poissons Ratio (x) = 0.44068 0.04251
# Poissons Ratio (y) = 0.21033 0.15358
# Poissons Ratio (z) = 0.04194 0.31750
#
# Static dielectric constant tensor:
#      x y z
#    x 1.669340 0.000000 0.000000 
#    y 0.000000 1.591130 0.000000 
#    z 0.000000 0.000000 1.614150 
# 
# From -- ./inp_files/8912.got.cif
#   From: 2010.05.17/outbox.cif.g08.bks.cpg/sg53_5_cif.got.tgz:8912.got - 2010.06.03 12:45:16.
