data_PCOD9417283
_publ_section_title
;
Structure prediction by ZEFSAII (Michael W. Deem and Ramdas Pophale) SiO2 
 PCOD9417283
Probable space group: P M N A
;
_chemical_formula_sum "Si O2"
_cell_formula_units_Z 64
_cell_length_a 8.164524
_cell_length_b 19.937729
_cell_length_c 20.396571
_cell_angle_alpha 90.000000
_cell_angle_beta 90.000000
_cell_angle_gamma 90.000000
_cell_volume 3320.195986
_symmetry_space_group_name_H-M "P M N A"
_symmetry_group_IT_number 53
_symmetry_cell_setting 'orthorhombic'
loop_
_space_group_symop_operation_xyz
x,y,z
1/2-x,-y,1/2+z
x,-y,-z
1/2-x,y,1/2-z
-x,-y,-z
1/2+x,y,1/2-z
-x,y,z
1/2+x,-y,1/2+z
loop_
_atom_site_type_symbol
_atom_site_label
_atom_site_fract_x
_atom_site_fract_y
_atom_site_fract_z
Si Si1 0.195737 0.209776 0.061103
Si Si2 0.196707 0.982903 0.177894
Si Si3 0.197836 0.432553 0.411334
Si Si4 0.194953 0.693663 0.825565
Si Si5 0.305134 0.723610 0.070709
Si Si6 0.303820 0.830313 0.323214
Si Si7 0.198836 0.578293 0.434918
Si Si8 0.700374 0.058358 0.449950
O O1 0.259987 0.246270 0.126970
O O2 0.258065 0.135005 0.043283
O O3 0.000000 0.203217 0.068916
O O4 0.230103 0.256746 0.999092
O O5 0.250000 0.003343 0.250000
O O6 0.255428 0.906758 0.165310
O O7 0.000000 0.980683 0.176025
O O8 0.250281 0.032837 0.121621
O O9 0.261412 0.376186 0.362053
O O10 0.254680 0.509590 0.400685
O O11 0.243034 0.420179 0.487706
O O12 0.000000 0.430068 0.407824
O O13 0.250000 0.696053 0.750000
O O14 0.000000 0.300786 0.174842
O O15 0.500000 0.720860 0.061834
O O16 0.262619 0.779719 0.123325
O O17 0.247867 0.649759 0.093006
O O18 0.250000 0.811478 0.250000
O O19 0.500000 0.830449 0.327024
O O20 0.000000 0.575146 0.433158
O O21 0.500000 0.059440 0.454787
O O22 0.754719 0.000000 0.500000
#
# Coordination Sequence:
#
# PCOD9417283 Si02
#       8
#     8   8   8   8   8   8   8   8
#     4  10  21  36  54  79 109 142 185 227 269 325
#     4   9  18  33  54  75  98 133 176 219 265 319
#     4   9  16  34  58  79 104 137 177 218 264 318
#     4  11  23  37  54  79 112 149 188 231 277 324
#     4  11  20  33  55  83 111 141 176 218 269 322
#     4  10  20  35  54  78 107 140 177 219 268 323
#     4   8  16  30  55  83 106 135 172 215 264 318
#     4   9  17  32  54  77 102 136 176 220 269 320
#
# _framework density 19.275970999999998
#
# number of rings (size 3 to 8) (size 9 to 14) (size 15 to 20)
#    0.000    2.375    1.250    2.625    0.000    3.500 
#    0.000    3.750    0.000    1.500    0.000    0.000 
#    0.000    0.000    0.000    0.000    0.000    0.000 
#
# Total GULP energy -356862.346037 kJ/mol
# GULP energy per Si atom -5575.974157 kJ/mol
# Density = 1.923210 g / cm^3
# Si number density = 19.275971 Si / 1000 Ang^3
#
#
#
# Elastic Constant Matrix: (Units=GPa)
#
#
# Indices 1 2 3 4 5 6 
#
# 1 5.0601 15.0660 4.7442 0.0000 0.0000 0.0000
# 2 15.0660 129.4021 57.7759 0.0000 0.0000 0.0000
# 3 4.7442 57.7759 55.2558 0.0000 0.0000 0.0000
# 4 0.0000 0.0000 0.0000 30.6529 0.0000 0.0000
# 5 0.0000 0.0000 0.0000 0.0000 22.5215 0.0000
# 6 0.0000 0.0000 0.0000 0.0000 0.0000 -1.6097
#
#
#
# Elastic Compliance Matrix: (Units=1/GPa)
#
#
# Indices 1 2 3 4 5 6 
#
# 1 0.315197 -0.046168 0.021211 0.000000 0.000000 0.000000
# 2 -0.046168 0.021257 -0.018263 0.000000 0.000000 0.000000
# 3 0.021211 -0.018263 0.035372 0.000000 0.000000 0.000000
# 4 0.000000 0.000000 0.000000 0.032623 0.000000 0.000000
# 5 0.000000 0.000000 0.000000 0.000000 0.044402 0.000000
# 6 0.000000 0.000000 0.000000 0.000000 0.000000 -0.621215
#
#
# Mechanical properties :
#
#
# Convention : Reuss Voigt Hill
#
# Bulk Modulus (GPa) = 3.50402 38.32115 20.91259
# Shear Modulus (GPa) = 543.23967 17.78839 280.51403
#
# Velocity S-wave (km/s) = 16.80577 3.04110 12.07647
# Velocity P-wave (km/s) = 19.45252 5.67931 14.32925
#
# Compressibility (1/GPa) = 0.28538669
#
# Stress axis : x y z
#
# Youngs Moduli (GPa) = 3.17262 47.04327 28.27100
#
# Poissons Ratio (x) = 2.17190 -0.59966
# Poissons Ratio (y) = 0.14647 0.51630
# Poissons Ratio (z) = -0.06729 0.85913
#
# Static dielectric constant tensor:
#      x y z
#    x 1.686340 0.000000 0.000000 
#    y 0.000000 1.711150 0.000000 
#    z 0.000000 0.000000 1.641890 
# 
# From -- ./inp_files/31177.got.cif
#   From: 2010.05.17/outbox.cif.g08.bks.cpg/sg53_16_cif.got.tgz:31177.got - 2010.06.03 12:45:16.
