data_PCOD9417664
_publ_section_title
;
Structure prediction by ZEFSAII (Michael W. Deem and Ramdas Pophale) SiO2 
 PCOD9417664
Probable space group: P M N A
;
_chemical_formula_sum "Si O2"
_cell_formula_units_Z 56
_cell_length_a 8.631921
_cell_length_b 24.393052
_cell_length_c 14.668917
_cell_angle_alpha 90.000000
_cell_angle_beta 90.000000
_cell_angle_gamma 90.000000
_cell_volume 3088.670996
_symmetry_space_group_name_H-M "P M N A"
_symmetry_group_IT_number 53
_symmetry_cell_setting 'orthorhombic'
loop_
_space_group_symop_operation_xyz
x,y,z
1/2-x,-y,1/2+z
x,-y,-z
1/2-x,y,1/2-z
-x,-y,-z
1/2+x,y,1/2-z
-x,y,z
1/2+x,-y,1/2+z
loop_
_atom_site_type_symbol
_atom_site_label
_atom_site_fract_x
_atom_site_fract_y
_atom_site_fract_z
Si Si1 0.811758 0.562318 0.499581
Si Si2 0.313617 0.348509 0.852240
Si Si3 0.185304 0.144384 0.503130
Si Si4 0.684914 0.060453 0.647813
Si Si5 0.685276 0.055928 0.148834
Si Si6 0.313685 0.650907 0.852132
Si Si7 0.815273 0.266357 0.000655
O O1 0.754769 0.500000 0.500000
O O2 0.766262 0.597539 0.410634
O O3 0.766415 0.597285 0.588772
O O4 0.000000 0.560794 0.499398
O O5 0.250000 0.348979 0.750000
O O6 0.500000 0.346206 0.850434
O O7 0.251399 0.297734 0.911988
O O8 0.246461 0.108976 0.587614
O O9 0.222281 0.107136 0.415129
O O10 0.262187 0.203646 0.499029
O O11 0.000000 0.150444 0.508807
O O12 0.750000 0.065037 0.750000
O O13 0.500000 0.062160 0.648206
O O14 0.741667 0.000869 0.613560
O O15 0.750000 0.064812 0.250000
O O16 0.500000 0.048945 0.152149
O O17 0.250000 0.649998 0.750000
O O18 0.500000 0.653228 0.850305
O O19 0.251347 0.701918 0.911159
O O20 0.000000 0.270388 0.000417
#
# Coordination Sequence:
#
# PCOD9417664 Si02
#       7
#     8   8   8   8   8   8   8
#     4   8  16  32  54  82 116 150 185 227 272 321
#     4  10  20  36  58  82 112 149 187 227 275 328
#     4  11  23  39  58  82 112 144 182 227 278 330
#     4  11  22  37  58  83 112 145 182 224 272 328
#     4  10  21  37  58  82 111 145 179 221 271 326
#     4  10  20  36  58  82 112 150 188 228 276 327
#     4  11  23  39  58  81 109 142 186 234 280 330
#
# _framework density 18.130776000000001
#
# number of rings (size 3 to 8) (size 9 to 14) (size 15 to 20)
#    0.000    1.857    0.000    6.429    0.000    5.714 
#    0.000    4.286    0.000   14.571    0.000    0.000 
#    0.000    0.000    0.000    0.000    0.000    0.000 
#
# Total GULP energy -312804.920169 kJ/mol
# GULP energy per Si atom -5585.802146 kJ/mol
# Density = 1.808951 g / cm^3
# Si number density = 18.130776 Si / 1000 Ang^3
#
#
#
# Elastic Constant Matrix: (Units=GPa)
#
#
# Indices 1 2 3 4 5 6 
#
# 1 87.0930 58.0275 56.8345 0.0000 0.0000 0.0000
# 2 58.0275 177.3429 95.2199 0.0000 0.0000 0.0000
# 3 56.8345 95.2199 165.7785 0.0000 0.0000 0.0000
# 4 0.0000 0.0000 0.0000 10.5335 0.0000 0.0000
# 5 0.0000 0.0000 0.0000 0.0000 27.2455 0.0000
# 6 0.0000 0.0000 0.0000 0.0000 0.0000 21.4878
#
#
#
# Elastic Compliance Matrix: (Units=1/GPa)
#
#
# Indices 1 2 3 4 5 6 
#
# 1 0.016037 -0.003319 -0.003592 0.000000 0.000000 0.000000
# 2 -0.003319 0.008840 -0.003940 0.000000 0.000000 0.000000
# 3 -0.003592 -0.003940 0.009526 0.000000 0.000000 0.000000
# 4 0.000000 0.000000 0.000000 0.094935 0.000000 0.000000
# 5 0.000000 0.000000 0.000000 0.000000 0.036703 0.000000
# 6 0.000000 0.000000 0.000000 0.000000 0.000000 0.046538
#
#
# Mechanical properties :
#
#
# Convention : Reuss Voigt Hill
#
# Bulk Modulus (GPa) = 78.72254 94.48645 86.60450
# Shear Modulus (GPa) = 20.96302 26.52886 23.74594
#
# Velocity S-wave (km/s) = 3.40400 3.82932 3.62291
# Velocity P-wave (km/s) = 7.67875 8.47223 8.08523
#
# Compressibility (1/GPa) = 0.01270284
#
# Stress axis : x y z
#
# Youngs Moduli (GPa) = 62.35519 113.12070 104.97114
#
# Poissons Ratio (x) = 0.37544 0.37703
# Poissons Ratio (y) = 0.20695 0.41356
# Poissons Ratio (z) = 0.22396 0.44567
#
# Static dielectric constant tensor:
#      x y z
#    x 1.605600 0.000000 0.000000 
#    y 0.000000 1.606070 0.000000 
#    z 0.000000 0.000000 1.601910 
# 
# From -- ./inp_files/20576.got.cif
#   From: 2010.05.17/outbox.cif.g08.bks.cpg/sg53_11_cif.got.tgz:20576.got - 2010.06.03 12:45:16.
