data_PCOD9417456
_publ_section_title
;
Structure prediction by ZEFSAII (Michael W. Deem and Ramdas Pophale) SiO2 
 PCOD9417456
Probable space group: P M N A
;
_chemical_formula_sum "Si O2"
_cell_formula_units_Z 64
_cell_length_a 8.739108
_cell_length_b 15.185055
_cell_length_c 24.278149
_cell_angle_alpha 90.000000
_cell_angle_beta 90.000000
_cell_angle_gamma 90.000000
_cell_volume 3221.803494
_symmetry_space_group_name_H-M "P M N A"
_symmetry_group_IT_number 53
_symmetry_cell_setting 'orthorhombic'
loop_
_space_group_symop_operation_xyz
x,y,z
1/2-x,-y,1/2+z
x,-y,-z
1/2-x,y,1/2-z
-x,-y,-z
1/2+x,y,1/2-z
-x,y,z
1/2+x,-y,1/2+z
loop_
_atom_site_type_symbol
_atom_site_label
_atom_site_fract_x
_atom_site_fract_y
_atom_site_fract_z
Si Si1 0.314235 0.858524 0.105067
Si Si2 0.815240 0.214250 0.488456
Si Si3 0.819204 0.447906 0.851749
Si Si4 0.818765 0.719993 0.305438
Si Si5 0.816277 0.181647 0.130128
Si Si6 0.184250 0.011946 0.310976
Si Si7 0.815652 0.362103 0.188843
Si Si8 0.320481 0.592317 0.032279
O O1 0.500000 0.860709 0.103268
O O2 0.267750 0.774180 0.141204
O O3 0.266369 0.942126 0.141636
O O4 0.265463 0.841915 0.042274
O O5 0.739796 0.179577 0.432804
O O6 0.779233 0.318072 0.499646
O O7 0.000000 0.207861 0.483428
O O8 0.735311 0.379491 0.812362
O O9 0.767152 0.547431 0.840437
O O10 0.778668 0.418917 0.913280
O O11 0.000000 0.442364 0.842231
O O12 0.750000 0.759461 0.250000
O O13 0.000000 0.724351 0.302306
O O14 0.741445 0.106083 0.167291
O O15 0.769567 0.276417 0.154631
O O16 0.000000 0.173748 0.132525
O O17 0.250000 0.993460 0.250000
O O18 0.000000 0.009745 0.307618
O O19 0.750000 0.358749 0.250000
O O20 0.000000 0.362344 0.191784
O O21 0.500000 0.603021 0.048169
O O22 0.306536 0.500000 0.000000
#
# Coordination Sequence:
#
# PCOD9417456 Si02
#       8
#     8   8   8   8   8   8   8   8
#     4   9  20  39  63  88 122 161 198 242 297 359
#     4  10  20  39  62  88 122 162 205 245 298 362
#     4  11  22  36  55  84 118 157 199 245 301 358
#     4  11  21  37  58  85 120 157 197 244 293 355
#     4  11  24  42  62  89 122 158 201 255 309 360
#     4  11  23  42  67  94 121 156 199 248 305 366
#     4  10  23  40  58  82 117 157 201 249 304 362
#     4  10  20  35  58  86 118 160 208 254 297 351
#
# _framework density 19.864650000000001
#
# number of rings (size 3 to 8) (size 9 to 14) (size 15 to 20)
#    0.000    1.625    1.250    3.375    0.000    5.250 
#    0.000    5.625    0.000    0.000    0.000    0.000 
#    0.000    0.000    0.000    0.000    0.000    0.000 
#
# Total GULP energy -357526.238947 kJ/mol
# GULP energy per Si atom -5586.347484 kJ/mol
# Density = 1.981944 g / cm^3
# Si number density = 19.864650 Si / 1000 Ang^3
#
#
#
# Elastic Constant Matrix: (Units=GPa)
#
#
# Indices 1 2 3 4 5 6 
#
# 1 29.6312 15.5514 20.5178 0.0000 0.0000 0.0000
# 2 15.5514 90.3908 23.4928 0.0000 0.0000 0.0000
# 3 20.5178 23.4928 71.7910 0.0000 0.0000 0.0000
# 4 0.0000 0.0000 0.0000 31.0929 0.0000 0.0000
# 5 0.0000 0.0000 0.0000 0.0000 38.3353 0.0000
# 6 0.0000 0.0000 0.0000 0.0000 0.0000 16.2541
#
#
#
# Elastic Compliance Matrix: (Units=1/GPa)
#
#
# Indices 1 2 3 4 5 6 
#
# 1 0.043816 -0.004682 -0.010990 0.000000 0.000000 0.000000
# 2 -0.004682 0.012592 -0.002782 0.000000 0.000000 0.000000
# 3 -0.010990 -0.002782 0.017981 0.000000 0.000000 0.000000
# 4 0.000000 0.000000 0.000000 0.032162 0.000000 0.000000
# 5 0.000000 0.000000 0.000000 0.000000 0.026086 0.000000
# 6 0.000000 0.000000 0.000000 0.000000 0.000000 0.061523
#
#
# Mechanical properties :
#
#
# Convention : Reuss Voigt Hill
#
# Bulk Modulus (GPa) = 26.68169 34.54855 30.61512
# Shear Modulus (GPa) = 20.52876 25.95319 23.24098
#
# Velocity S-wave (km/s) = 3.21819 3.61848 3.42419
# Velocity P-wave (km/s) = 5.22206 5.90657 5.57483
#
# Compressibility (1/GPa) = 0.03747888
#
# Stress axis : x y z
#
# Youngs Moduli (GPa) = 22.82290 79.41716 55.61458
#
# Poissons Ratio (x) = 0.37182 0.61123
# Poissons Ratio (y) = 0.10685 0.15474
# Poissons Ratio (z) = 0.25083 0.22097
#
# Static dielectric constant tensor:
#      x y z
#    x 1.676190 0.000000 0.000000 
#    y 0.000000 1.714300 0.000000 
#    z 0.000000 0.000000 1.708430 
# 
# From -- ./inp_files/34212.got.cif
#   From: 2010.05.17/outbox.cif.g08.bks.cpg/sg53_18_cif.got.tgz:34212.got - 2010.06.03 12:45:16.
