data_PCOD9417488
_publ_section_title
;
Structure prediction by ZEFSAII (Michael W. Deem and Ramdas Pophale) SiO2 
 PCOD9417488
Probable space group: P M N A
;
_chemical_formula_sum "Si O2"
_cell_formula_units_Z 48
_cell_length_a 14.588892
_cell_length_b 13.782278
_cell_length_c 10.099592
_cell_angle_alpha 90.000000
_cell_angle_beta 90.000000
_cell_angle_gamma 90.000000
_cell_volume 2030.706433
_symmetry_space_group_name_H-M "P M N A"
_symmetry_group_IT_number 53
_symmetry_cell_setting 'orthorhombic'
loop_
_space_group_symop_operation_xyz
x,y,z
1/2-x,-y,1/2+z
x,-y,-z
1/2-x,y,1/2-z
-x,-y,-z
1/2+x,y,1/2-z
-x,y,z
1/2+x,-y,1/2+z
loop_
_atom_site_type_symbol
_atom_site_label
_atom_site_fract_x
_atom_site_fract_y
_atom_site_fract_z
Si Si1 0.825903 0.952982 0.865122
Si Si2 0.000000 0.853669 0.534091
Si Si3 0.852633 0.262282 0.040184
Si Si4 0.860769 0.351248 0.771698
Si Si5 0.135794 0.307325 0.477473
Si Si6 0.860978 0.569550 0.762131
Si Si7 0.500000 0.964459 0.228388
O O1 0.750000 0.947158 0.750000
O O2 0.862409 0.845458 0.902555
O O3 0.909188 0.021432 0.816093
O O4 0.786188 0.000000 0.000000
O O5 0.912721 0.789628 0.569878
O O6 0.000000 0.945831 0.626453
O O7 0.000000 0.877531 0.377342
O O8 0.743832 0.286403 0.031572
O O9 0.889294 0.345961 0.137185
O O10 0.886884 0.280246 0.890929
O O11 0.750000 0.349046 0.750000
O O12 0.894755 0.325775 0.626601
O O13 0.887591 0.461869 0.804393
O O14 0.109992 0.396558 0.383507
O O15 0.750000 0.567949 0.750000
#
# Coordination Sequence:
#
# PCOD9417488 Si02
#       7
#     8   4   8   8   8   8   4
#     4  12  28  46  73 102 137 180 233 296 358 422
#     4  11  24  40  69  87 131 176 228 281 355 410
#     4  10  20  36  61  91 126 163 219 266 338 398
#     4   9  18  31  56  89 124 163 209 267 326 392
#     4  10  20  35  59  91 124 165 214 271 329 404
#     4   9  16  32  56  86 124 162 208 262 325 395
#     4  11  27  48  68  99 134 181 239 288 358 424
#
# _framework density 23.637094999999999
#
# number of rings (size 3 to 8) (size 9 to 14) (size 15 to 20)
#    0.000    1.833    0.000    4.750    7.000    4.667 
#    0.000    1.667    0.000    0.000    0.000    4.667 
#    0.000    0.000    0.000    0.000    0.000    0.000 
#
# Total GULP energy -268501.997749 kJ/mol
# GULP energy per Si atom -5593.791620 kJ/mol
# Density = 2.358330 g / cm^3
# Si number density = 23.637095 Si / 1000 Ang^3
#
#
#
# Elastic Constant Matrix: (Units=GPa)
#
#
# Indices 1 2 3 4 5 6 
#
# 1 81.4071 2.7122 20.8519 0.0000 0.0000 0.0000
# 2 2.7122 88.4888 31.3003 0.0000 0.0000 0.0000
# 3 20.8519 31.3003 152.0579 0.0000 0.0000 0.0000
# 4 0.0000 0.0000 0.0000 45.7349 0.0000 0.0000
# 5 0.0000 0.0000 0.0000 0.0000 18.4092 0.0000
# 6 0.0000 0.0000 0.0000 0.0000 0.0000 12.2346
#
#
#
# Elastic Compliance Matrix: (Units=1/GPa)
#
#
# Indices 1 2 3 4 5 6 
#
# 1 0.012736 0.000245 -0.001797 0.000000 0.000000 0.000000
# 2 0.000245 0.012193 -0.002544 0.000000 0.000000 0.000000
# 3 -0.001797 -0.002544 0.007346 0.000000 0.000000 0.000000
# 4 0.000000 0.000000 0.000000 0.021865 0.000000 0.000000
# 5 0.000000 0.000000 0.000000 0.000000 0.054321 0.000000
# 6 0.000000 0.000000 0.000000 0.000000 0.000000 0.081736
#
#
# Mechanical properties :
#
#
# Convention : Reuss Voigt Hill
#
# Bulk Modulus (GPa) = 41.51949 47.96473 44.74211
# Shear Modulus (GPa) = 24.22295 33.08170 28.65233
#
# Velocity S-wave (km/s) = 3.20470 3.74514 3.48541
# Velocity P-wave (km/s) = 5.59437 6.24801 5.93020
#
# Compressibility (1/GPa) = 0.02408508
#
# Stress axis : x y z
#
# Youngs Moduli (GPa) = 78.51719 82.01403 136.12046
#
# Poissons Ratio (x) = -0.02012 0.24461
# Poissons Ratio (y) = -0.01926 0.34622
# Poissons Ratio (z) = 0.14110 0.20860
#
# Static dielectric constant tensor:
#      x y z
#    x 1.351280 0.000000 0.000000 
#    y 0.000000 1.851520 0.000000 
#    z 0.000000 0.000000 1.891160 
# 
# From -- ./inp_files/10053.got.cif
#   From: 2010.05.17/outbox.cif.g08.bks.cpg/sg53_6_cif.got.tgz:10053.got - 2010.06.03 12:45:16.
