data_PCOD9417350
_publ_section_title
;
Structure prediction by ZEFSAII (Michael W. Deem and Ramdas Pophale) SiO2 
 PCOD9417350
Probable space group: P M N A
;
_chemical_formula_sum "Si O2"
_cell_formula_units_Z 48
_cell_length_a 8.420888
_cell_length_b 19.376536
_cell_length_c 15.795571
_cell_angle_alpha 90.000000
_cell_angle_beta 90.000000
_cell_angle_gamma 90.000000
_cell_volume 2577.326034
_symmetry_space_group_name_H-M "P M N A"
_symmetry_group_IT_number 53
_symmetry_cell_setting 'orthorhombic'
loop_
_space_group_symop_operation_xyz
x,y,z
1/2-x,-y,1/2+z
x,-y,-z
1/2-x,y,1/2-z
-x,-y,-z
1/2+x,y,1/2-z
-x,y,z
1/2+x,-y,1/2+z
loop_
_atom_site_type_symbol
_atom_site_label
_atom_site_fract_x
_atom_site_fract_y
_atom_site_fract_z
Si Si1 0.305722 0.827828 0.997076
Si Si2 0.690565 0.426829 0.156590
Si Si3 0.688980 0.417821 0.656538
Si Si4 0.692206 0.330738 0.001454
Si Si5 0.808288 0.924304 0.656733
Si Si6 0.191640 0.917097 0.343179
O O1 0.500000 0.828116 0.996832
O O2 0.254385 0.748547 0.993561
O O3 0.254163 0.866351 0.082712
O O4 0.253755 0.872531 0.916239
O O5 0.750000 0.406741 0.250000
O O6 0.500000 0.428168 0.157728
O O7 0.750007 0.504447 0.139345
O O8 0.744414 0.375089 0.082976
O O9 0.750000 0.398079 0.750000
O O10 0.500000 0.418810 0.657720
O O11 0.749803 0.367394 0.583721
O O12 0.500000 0.331268 0.000895
O O13 0.750000 0.904587 0.750000
O O14 0.000000 0.924089 0.656646
O O15 0.756982 0.003588 0.640378
O O16 0.250000 0.897166 0.250000
O O17 0.000000 0.916828 0.342957
#
# Coordination Sequence:
#
# PCOD9417350 Si02
#       6
#     8   8   8   8   8   8
#     4   9  18  33  52  73 101 138 173 204 247 305
#     4  10  20  35  56  79 104 135 172 214 257 304
#     4  11  22  37  58  80 103 133 171 214 257 305
#     4  10  21  36  53  76 107 140 172 210 258 308
#     4   9  17  31  52  76 100 131 171 212 253 296
#     4   9  17  31  52  75  99 130 171 214 252 296
#
# _framework density 18.623953
#
# number of rings (size 3 to 8) (size 9 to 14) (size 15 to 20)
#    0.000    2.333    0.000    4.000    0.000    6.667 
#    0.000    4.167    0.000    4.000    0.000    0.000 
#    0.000    0.000    0.000    0.000    0.000    0.000 
#
# Total GULP energy -267969.561468 kJ/mol
# GULP energy per Si atom -5582.699197 kJ/mol
# Density = 1.858156 g / cm^3
# Si number density = 18.623953 Si / 1000 Ang^3
#
#
#
# Elastic Constant Matrix: (Units=GPa)
#
#
# Indices 1 2 3 4 5 6 
#
# 1 18.8433 11.3530 9.7705 0.0000 0.0000 0.0000
# 2 11.3530 99.1463 91.1102 0.0000 0.0000 0.0000
# 3 9.7705 91.1102 129.7136 0.0000 0.0000 0.0000
# 4 0.0000 0.0000 0.0000 2.0046 0.0000 0.0000
# 5 0.0000 0.0000 0.0000 0.0000 32.9999 0.0000
# 6 0.0000 0.0000 0.0000 0.0000 0.0000 15.1205
#
#
#
# Elastic Compliance Matrix: (Units=1/GPa)
#
#
# Indices 1 2 3 4 5 6 
#
# 1 0.057033 -0.007285 0.000821 0.000000 0.000000 0.000000
# 2 -0.007285 0.029379 -0.020087 0.000000 0.000000 0.000000
# 3 0.000821 -0.020087 0.021757 0.000000 0.000000 0.000000
# 4 0.000000 0.000000 0.000000 0.498846 0.000000 0.000000
# 5 0.000000 0.000000 0.000000 0.000000 0.030303 0.000000
# 6 0.000000 0.000000 0.000000 0.000000 0.000000 0.066135
#
#
# Mechanical properties :
#
#
# Convention : Reuss Voigt Hill
#
# Bulk Modulus (GPa) = 18.15991 52.46339 35.31165
# Shear Modulus (GPa) = 6.45235 19.05631 12.75433
#
# Velocity S-wave (km/s) = 1.86335 3.20224 2.61977
# Velocity P-wave (km/s) = 3.79492 6.47329 5.30589
#
# Compressibility (1/GPa) = 0.05506634
#
# Stress axis : x y z
#
# Youngs Moduli (GPa) = 17.53372 34.03740 45.96308
#
# Poissons Ratio (x) = 0.24798 -0.03775
# Poissons Ratio (y) = 0.12774 0.92327
# Poissons Ratio (z) = -0.01440 0.68372
#
# Static dielectric constant tensor:
#      x y z
#    x 1.641480 0.000000 0.000000 
#    y 0.000000 1.627890 0.000000 
#    z 0.000000 0.000000 1.620520 
# 
# From -- ./inp_files/20168.got.cif
#   From: 2010.05.17/outbox.cif.g08.bks.cpg/sg53_11_cif.got.tgz:20168.got - 2010.06.03 12:45:16.
