data_PCOD9417756
_publ_section_title
;
Structure prediction by ZEFSAII (Michael W. Deem and Ramdas Pophale) SiO2 
 PCOD9417756
Probable space group: P M N A
;
_chemical_formula_sum "Si O2"
_cell_formula_units_Z 56
_cell_length_a 15.493558
_cell_length_b 15.167375
_cell_length_c 11.780580
_cell_angle_alpha 90.000000
_cell_angle_beta 90.000000
_cell_angle_gamma 90.000000
_cell_volume 2768.396296
_symmetry_space_group_name_H-M "P M N A"
_symmetry_group_IT_number 53
_symmetry_cell_setting 'orthorhombic'
loop_
_space_group_symop_operation_xyz
x,y,z
1/2-x,-y,1/2+z
x,-y,-z
1/2-x,y,1/2-z
-x,-y,-z
1/2+x,y,1/2-z
-x,y,z
1/2+x,-y,1/2+z
loop_
_atom_site_type_symbol
_atom_site_label
_atom_site_fract_x
_atom_site_fract_y
_atom_site_fract_z
Si Si1 0.903697 0.326718 0.837877
Si Si2 0.402634 0.074355 0.091795
Si Si3 0.729485 0.165822 0.416322
Si Si4 0.903765 0.310168 0.108023
Si Si5 0.681333 0.845260 0.334943
Si Si6 0.594119 0.980502 0.652224
Si Si7 0.693174 0.509455 0.635644
O O1 0.858935 0.242475 0.781167
O O2 0.850200 0.416030 0.835591
O O3 0.000000 0.340522 0.793664
O O4 0.910114 0.302010 0.971425
O O5 0.500000 0.105677 0.061897
O O6 0.328975 0.147391 0.109542
O O7 0.407794 0.028042 0.212864
O O8 0.376311 0.000000 0.000000
O O9 0.673587 0.243736 0.359120
O O10 0.729195 0.181776 0.550689
O O11 0.673449 0.077984 0.391229
O O12 0.875128 0.410294 0.130664
O O13 0.000000 0.290074 0.154397
O O14 0.750000 0.887412 0.250000
O O15 0.610682 0.916945 0.369781
O O16 0.500000 0.949987 0.610038
O O17 0.725647 0.500000 0.500000
O O18 0.750000 0.528346 0.750000
#
# Coordination Sequence:
#
# PCOD9417756 Si02
#       7
#     8   8   8   8   8   8   8
#     4   9  18  34  57  83 109 140 186 241 288 335
#     4  10  21  37  54  73 103 147 194 232 273 337
#     4  11  21  35  55  79 110 146 187 235 278 327
#     4   9  19  35  57  85 112 144 191 240 286 339
#     4  11  21  33  52  79 111 144 181 228 286 341
#     4  11  22  34  52  77 106 143 185 231 284 334
#     4  10  20  36  60  87 116 152 192 237 291 348
#
# _framework density 20.228318000000002
#
# number of rings (size 3 to 8) (size 9 to 14) (size 15 to 20)
#    0.000    1.857    0.000    5.143    0.000    5.143 
#    0.000    0.714    0.000    2.571    0.000    0.000 
#    0.000    0.000    0.000    0.000    0.000    0.000 
#
# Total GULP energy -312013.328612 kJ/mol
# GULP energy per Si atom -5571.666582 kJ/mol
# Density = 2.018228 g / cm^3
# Si number density = 20.228318 Si / 1000 Ang^3
#
#
#
# Elastic Constant Matrix: (Units=GPa)
#
#
# Indices 1 2 3 4 5 6 
#
# 1 101.1877 28.6923 10.3620 0.0000 0.0000 0.0000
# 2 28.6923 88.2367 -16.6238 0.0000 0.0000 0.0000
# 3 10.3620 -16.6238 71.6899 0.0000 0.0000 0.0000
# 4 0.0000 0.0000 0.0000 8.2098 0.0000 0.0000
# 5 0.0000 0.0000 0.0000 0.0000 11.4586 0.0000
# 6 0.0000 0.0000 0.0000 0.0000 0.0000 19.6866
#
#
#
# Elastic Compliance Matrix: (Units=1/GPa)
#
#
# Indices 1 2 3 4 5 6 
#
# 1 0.011334 -0.004177 -0.002607 0.000000 0.000000 0.000000
# 2 -0.004177 0.013390 0.003709 0.000000 0.000000 0.000000
# 3 -0.002607 0.003709 0.015186 0.000000 0.000000 0.000000
# 4 0.000000 0.000000 0.000000 0.121805 0.000000 0.000000
# 5 0.000000 0.000000 0.000000 0.000000 0.087271 0.000000
# 6 0.000000 0.000000 0.000000 0.000000 0.000000 0.050796
#
#
# Mechanical properties :
#
#
# Convention : Reuss Voigt Hill
#
# Bulk Modulus (GPa) = 29.62063 33.99725 31.80894
# Shear Modulus (GPa) = 15.76371 23.78324 19.77347
#
# Velocity S-wave (km/s) = 2.79460 3.43263 3.12991
# Velocity P-wave (km/s) = 5.00879 5.70559 5.36851
#
# Compressibility (1/GPa) = 0.03376025
#
# Stress axis : x y z
#
# Youngs Moduli (GPa) = 88.23132 74.68276 65.85143
#
# Poissons Ratio (x) = 0.31192 0.17165
# Poissons Ratio (y) = 0.36850 -0.24422
# Poissons Ratio (z) = 0.22999 -0.27697
#
# Static dielectric constant tensor:
#      x y z
#    x 1.785010 0.000000 0.000000 
#    y 0.000000 1.717270 0.000000 
#    z 0.000000 0.000000 1.744730 
# 
# From -- ./inp_files/16043.got.cif
#   From: 2010.05.17/outbox.cif.g08.bks.cpg/sg53_9_cif.got.tgz:16043.got - 2010.06.03 12:45:16.
