data_PCOD9417963
_publ_section_title
;
Structure prediction by ZEFSAII (Michael W. Deem and Ramdas Pophale) SiO2 
 PCOD9417963
Probable space group: P M N A
;
_chemical_formula_sum "Si O2"
_cell_formula_units_Z 48
_cell_length_a 8.226478
_cell_length_b 8.071790
_cell_length_c 38.229797
_cell_angle_alpha 90.000000
_cell_angle_beta 90.000000
_cell_angle_gamma 90.000000
_cell_volume 2538.550381
_symmetry_space_group_name_H-M "P M N A"
_symmetry_group_IT_number 53
_symmetry_cell_setting 'orthorhombic'
loop_
_space_group_symop_operation_xyz
x,y,z
1/2-x,-y,1/2+z
x,-y,-z
1/2-x,y,1/2-z
-x,-y,-z
1/2+x,y,1/2-z
-x,y,z
1/2+x,-y,1/2+z
loop_
_atom_site_type_symbol
_atom_site_label
_atom_site_fract_x
_atom_site_fract_y
_atom_site_fract_z
Si Si1 0.180028 0.262546 0.587979
Si Si2 0.000000 0.861217 0.050996
Si Si3 0.324488 0.580251 0.961339
Si Si4 0.309784 0.703244 0.335451
Si Si5 0.195184 0.608209 0.709793
Si Si6 0.000000 0.234822 0.026050
Si Si7 0.195406 0.985463 0.709794
O O1 0.335782 0.166975 0.572796
O O2 0.181165 0.435951 0.567257
O O3 0.207546 0.290665 0.628956
O O4 0.000000 0.187153 0.581913
O O5 0.000000 0.044657 0.036239
O O6 0.000000 0.745401 0.016262
O O7 0.500000 0.668580 0.957843
O O8 0.163818 0.687602 0.958928
O O9 0.322840 0.500000 0.000000
O O10 0.500000 0.701021 0.344291
O O11 0.267794 0.538555 0.313440
O O12 0.270617 0.867805 0.313049
O O13 0.250000 0.586627 0.750000
O O14 0.242487 0.796811 0.699116
O O15 0.000000 0.597669 0.708294
O O16 0.250000 0.005892 0.750000
O O17 0.000000 0.997440 0.707971
#
# Coordination Sequence:
#
# PCOD9417963 Si02
#       7
#     8   4   8   8   8   4   8
#     4  11  23  42  62  84 122 159 202 253 304 368
#     4  11  23  40  59  96 121 164 197 250 311 368
#     4  10  20  37  63  89 115 158 205 249 302 360
#     4  12  24  39  61  88 122 163 206 251 314 377
#     4  10  21  39  63  91 121 156 206 257 306 364
#     4  11  22  37  66  89 128 153 206 253 302 369
#     4  10  21  39  62  87 120 160 205 257 309 365
#
# _framework density 18.908428000000001
#
# number of rings (size 3 to 8) (size 9 to 14) (size 15 to 20)
#    0.000    1.333    2.500    3.750    0.000    2.667 
#    3.000    1.667    0.000    0.000    0.000    0.000 
#    0.000    0.000    0.000    0.000    0.000    0.000 
#
# Total GULP energy -268028.878066 kJ/mol
# GULP energy per Si atom -5583.934960 kJ/mol
# Density = 1.886539 g / cm^3
# Si number density = 18.908428 Si / 1000 Ang^3
#
#
#
# Elastic Constant Matrix: (Units=GPa)
#
#
# Indices 1 2 3 4 5 6 
#
# 1 151.1597 48.5339 27.7763 0.0000 0.0000 0.0000
# 2 48.5339 89.3801 48.8539 0.0000 0.0000 0.0000
# 3 27.7763 48.8539 87.9742 0.0000 0.0000 0.0000
# 4 0.0000 0.0000 0.0000 13.0993 0.0000 0.0000
# 5 0.0000 0.0000 0.0000 0.0000 39.1726 0.0000
# 6 0.0000 0.0000 0.0000 0.0000 0.0000 -28.9037
#
#
#
# Elastic Compliance Matrix: (Units=1/GPa)
#
#
# Indices 1 2 3 4 5 6 
#
# 1 0.008014 -0.004262 -0.000163 0.000000 0.000000 0.000000
# 2 -0.004262 0.018331 -0.008834 0.000000 0.000000 0.000000
# 3 -0.000163 -0.008834 0.016324 0.000000 0.000000 0.000000
# 4 0.000000 0.000000 0.000000 0.076340 0.000000 0.000000
# 5 0.000000 0.000000 0.000000 0.000000 0.025528 0.000000
# 6 0.000000 0.000000 0.000000 0.000000 0.000000 -0.034598
#
#
# Mechanical properties :
#
#
# Convention : Reuss Voigt Hill
#
# Bulk Modulus (GPa) = 61.91876 64.31580 63.11728
# Shear Modulus (GPa) = 35.25035 18.23029 26.74032
#
# Velocity S-wave (km/s) = 4.32240 3.10842 3.76467
# Velocity P-wave (km/s) = 7.59793 6.85356 7.23532
#
# Compressibility (1/GPa) = 0.01615020
#
# Stress axis : x y z
#
# Youngs Moduli (GPa) = 124.78011 54.55180 61.25883
#
# Poissons Ratio (x) = 0.23252 0.01000
# Poissons Ratio (y) = 0.53187 0.54115
# Poissons Ratio (z) = 0.02037 0.48191
#
# Static dielectric constant tensor:
#      x y z
#    x 1.679910 0.000000 0.000000 
#    y 0.000000 1.629700 0.000000 
#    z 0.000000 0.000000 1.627360 
# 
# From -- ./inp_files/37827.got.cif
#   From: 2010.05.17/outbox.cif.g08.bks.cpg/sg53_19_cif.got.tgz:37827.got - 2010.06.03 12:45:16.
