data_PCOD9417561
_publ_section_title
;
Structure prediction by ZEFSAII (Michael W. Deem and Ramdas Pophale) SiO2 
 PCOD9417561
Probable space group: P M N A
;
_chemical_formula_sum "Si O2"
_cell_formula_units_Z 48
_cell_length_a 8.627259
_cell_length_b 31.696946
_cell_length_c 9.544015
_cell_angle_alpha 90.000000
_cell_angle_beta 90.000000
_cell_angle_gamma 90.000000
_cell_volume 2609.884989
_symmetry_space_group_name_H-M "P M N A"
_symmetry_group_IT_number 53
_symmetry_cell_setting 'orthorhombic'
loop_
_space_group_symop_operation_xyz
x,y,z
1/2-x,-y,1/2+z
x,-y,-z
1/2-x,y,1/2-z
-x,-y,-z
1/2+x,y,1/2-z
-x,y,z
1/2+x,-y,1/2+z
loop_
_atom_site_type_symbol
_atom_site_label
_atom_site_fract_x
_atom_site_fract_y
_atom_site_fract_z
Si Si1 0.813639 0.379549 0.407424
Si Si2 0.313767 0.214227 0.906602
Si Si3 0.812859 0.540127 0.407370
Si Si4 0.687345 0.040191 0.093179
Si Si5 0.686777 0.881296 0.093628
Si Si6 0.684858 0.289330 0.406512
O O1 0.750000 0.386789 0.250000
O O2 0.766994 0.417341 0.510434
O O3 0.749861 0.334412 0.457735
O O4 0.000000 0.377784 0.400168
O O5 0.250000 0.219597 0.750000
O O6 0.500000 0.217350 0.907303
O O7 0.269906 0.166363 0.950309
O O8 0.242739 0.250333 0.002353
O O9 0.762037 0.500000 0.500000
O O10 0.750000 0.538499 0.250000
O O11 0.000000 0.539302 0.400956
O O12 0.750000 0.037558 0.250000
O O13 0.500000 0.040363 0.098819
O O14 0.739007 0.082781 0.013827
O O15 0.735315 0.000000 0.000000
O O16 0.750000 0.888951 0.250000
O O17 0.500000 0.882888 0.101166
O O18 0.750000 0.284249 0.250000
O O19 0.500000 0.290963 0.403431
#
# Coordination Sequence:
#
# PCOD9417561 Si02
#       6
#     8   8   8   8   8   8
#     4  10  20  36  57  81 110 143 182 225 270 321
#     4  10  20  36  56  80 110 143 182 225 272 324
#     4  10  22  38  57  83 112 143 180 221 265 317
#     4  10  21  36  54  79 109 140 177 219 264 316
#     4   9  19  35  55  79 107 140 178 221 266 317
#     4  11  22  37  57  81 110 145 184 226 275 325
#
# _framework density 18.391615000000002
#
# number of rings (size 3 to 8) (size 9 to 14) (size 15 to 20)
#    0.000    2.000    0.000    4.500    0.000    4.667 
#    0.000    3.333    0.000    0.000    0.000    0.000 
#    0.000    0.000    0.000    0.000    0.000    0.000 
#
# Total GULP energy -268074.463391 kJ/mol
# GULP energy per Si atom -5584.884654 kJ/mol
# Density = 1.834976 g / cm^3
# Si number density = 18.391615 Si / 1000 Ang^3
#
#
#
# Elastic Constant Matrix: (Units=GPa)
#
#
# Indices 1 2 3 4 5 6 
#
# 1 57.3110 55.0726 36.6657 0.0000 0.0000 0.0000
# 2 55.0726 209.6745 129.1449 0.0000 0.0000 0.0000
# 3 36.6657 129.1449 131.5545 0.0000 0.0000 0.0000
# 4 0.0000 0.0000 0.0000 43.2145 0.0000 0.0000
# 5 0.0000 0.0000 0.0000 0.0000 36.4312 0.0000
# 6 0.0000 0.0000 0.0000 0.0000 0.0000 -17.7011
#
#
#
# Elastic Compliance Matrix: (Units=1/GPa)
#
#
# Indices 1 2 3 4 5 6 
#
# 1 0.023419 -0.005390 -0.001236 0.000000 0.000000 0.000000
# 2 -0.005390 0.013304 -0.011558 0.000000 0.000000 0.000000
# 3 -0.001236 -0.011558 0.019292 0.000000 0.000000 0.000000
# 4 0.000000 0.000000 0.000000 0.023140 0.000000 0.000000
# 5 0.000000 0.000000 0.000000 0.000000 0.027449 0.000000
# 6 0.000000 0.000000 0.000000 0.000000 0.000000 -0.056494
#
#
# Mechanical properties :
#
#
# Convention : Reuss Voigt Hill
#
# Bulk Modulus (GPa) = 50.89777 93.36736 72.13256
# Shear Modulus (GPa) = 53.74781 24.23273 38.99027
#
# Velocity S-wave (km/s) = 5.41179 3.63381 4.60934
# Velocity P-wave (km/s) = 8.17218 8.27542 8.22396
#
# Compressibility (1/GPa) = 0.01964723
#
# Stress axis : x y z
#
# Youngs Moduli (GPa) = 42.70091 75.16582 51.83444
#
# Poissons Ratio (x) = 0.40513 0.06406
# Poissons Ratio (y) = 0.23015 0.59910
# Poissons Ratio (z) = 0.05277 0.86877
#
# Static dielectric constant tensor:
#      x y z
#    x 1.620340 0.000000 0.000000 
#    y 0.000000 1.643560 0.000000 
#    z 0.000000 0.000000 1.577110 
# 
# From -- ./inp_files/6702.got.cif
#   From: 2010.05.17/outbox.cif.g08.bks.cpg/sg53_4_cif.got.tgz:6702.got - 2010.06.03 12:45:16.
