data_PCOD9417645
_publ_section_title
;
Structure prediction by ZEFSAII (Michael W. Deem and Ramdas Pophale) SiO2 
 PCOD9417645
Probable space group: P M N A
;
_chemical_formula_sum "Si O2"
_cell_formula_units_Z 48
_cell_length_a 10.138791
_cell_length_b 29.377120
_cell_length_c 9.245563
_cell_angle_alpha 90.000000
_cell_angle_beta 90.000000
_cell_angle_gamma 90.000000
_cell_volume 2753.776885
_symmetry_space_group_name_H-M "P M N A"
_symmetry_group_IT_number 53
_symmetry_cell_setting 'orthorhombic'
loop_
_space_group_symop_operation_xyz
x,y,z
1/2-x,-y,1/2+z
x,-y,-z
1/2-x,y,1/2-z
-x,-y,-z
1/2+x,y,1/2-z
-x,y,z
1/2+x,-y,1/2+z
loop_
_atom_site_type_symbol
_atom_site_label
_atom_site_fract_x
_atom_site_fract_y
_atom_site_fract_z
Si Si1 0.345532 0.117937 0.617069
Si Si2 0.151968 0.775028 0.120894
Si Si3 0.157818 0.696627 0.890348
Si Si4 0.000000 0.546463 0.085659
Si Si5 0.254450 0.389599 0.577395
Si Si6 0.345116 0.041131 0.386781
Si Si7 0.000000 0.549937 0.429571
O O1 0.250000 0.105549 0.750000
O O2 0.500000 0.110758 0.656471
O O3 0.327036 0.171622 0.586732
O O4 0.318816 0.087108 0.477622
O O5 0.250000 0.762187 0.250000
O O6 0.000000 0.769782 0.169609
O O7 0.170241 0.742730 0.983696
O O8 0.250000 0.699115 0.750000
O O9 0.000000 0.689680 0.860887
O O10 0.214438 0.655642 0.988522
O O11 0.873282 0.576012 0.049278
O O12 0.000000 0.540120 0.258043
O O13 0.000000 0.500000 0.000000
O O14 0.250000 0.379434 0.750000
O O15 0.124669 0.418008 0.536419
O O16 0.250000 0.036997 0.250000
O O17 0.500000 0.040644 0.343618
O O18 0.325347 0.000000 0.500000
O O19 0.000000 0.500000 0.500000
#
# Coordination Sequence:
#
# PCOD9417645 Si02
#       7
#     8   8   8   4   8   8   4
#     4   9  18  34  56  81 110 144 184 230 277 331
#     4   9  19  37  59  83 111 145 184 226 275 330
#     4  11  24  39  56  82 113 144 180 227 275 321
#     4  10  20  36  58  80 112 146 174 216 265 312
#     4  10  21  39  59  81 109 145 181 218 265 319
#     4  10  21  35  52  78 111 148 190 236 285 334
#     4  10  22  36  58  88 110 138 182 220 261 320
#
# _framework density 17.430606999999998
#
# number of rings (size 3 to 8) (size 9 to 14) (size 15 to 20)
#    0.000    2.167    0.833    1.500    1.167    3.667 
#    0.000    0.000    0.000    0.000    0.000    0.000 
#    0.000    0.000    0.000    0.000    0.000    0.000 
#
# Total GULP energy -267787.911241 kJ/mol
# GULP energy per Si atom -5578.914818 kJ/mol
# Density = 1.739093 g / cm^3
# Si number density = 17.430607 Si / 1000 Ang^3
#
#
#
# Elastic Constant Matrix: (Units=GPa)
#
#
# Indices 1 2 3 4 5 6 
#
# 1 149.2460 68.6911 90.0993 0.0000 0.0000 0.0000
# 2 68.6911 85.0946 68.8538 0.0000 0.0000 0.0000
# 3 90.0993 68.8538 105.3307 0.0000 0.0000 0.0000
# 4 0.0000 0.0000 0.0000 29.9691 0.0000 0.0000
# 5 0.0000 0.0000 0.0000 0.0000 50.2238 0.0000
# 6 0.0000 0.0000 0.0000 0.0000 0.0000 32.0119
#
#
#
# Elastic Compliance Matrix: (Units=1/GPa)
#
#
# Indices 1 2 3 4 5 6 
#
# 1 0.014330 -0.003501 -0.009969 0.000000 0.000000 0.000000
# 2 -0.003501 0.025802 -0.013872 0.000000 0.000000 0.000000
# 3 -0.009969 -0.013872 0.027089 0.000000 0.000000 0.000000
# 4 0.000000 0.000000 0.000000 0.033368 0.000000 0.000000
# 5 0.000000 0.000000 0.000000 0.000000 0.019911 0.000000
# 6 0.000000 0.000000 0.000000 0.000000 0.000000 0.031238
#
#
# Mechanical properties :
#
#
# Convention : Reuss Voigt Hill
#
# Bulk Modulus (GPa) = 79.76180 88.32886 84.04533
# Shear Modulus (GPa) = 23.74146 29.90945 26.82545
#
# Velocity S-wave (km/s) = 3.69461 4.14685 3.92725
# Velocity P-wave (km/s) = 8.00369 8.58563 8.29977
#
# Compressibility (1/GPa) = 0.01253733
#
# Stress axis : x y z
#
# Youngs Moduli (GPa) = 69.78264 38.75650 36.91490
#
# Poissons Ratio (x) = 0.13570 0.36801
# Poissons Ratio (y) = 0.24433 0.51207
# Poissons Ratio (z) = 0.69568 0.53762
#
# Static dielectric constant tensor:
#      x y z
#    x 1.581080 0.000000 0.000000 
#    y 0.000000 1.584270 0.000000 
#    z 0.000000 0.000000 1.563080 
# 
# From -- ./inp_files/6765.got.cif
#   From: 2010.05.17/outbox.cif.g08.bks.cpg/sg53_4_cif.got.tgz:6765.got - 2010.06.03 12:45:16.
