data_PCOD9417736
_publ_section_title
;
Structure prediction by ZEFSAII (Michael W. Deem and Ramdas Pophale) SiO2 
 PCOD9417736
Probable space group: P M N A
;
_chemical_formula_sum "Si O2"
_cell_formula_units_Z 64
_cell_length_a 20.276578
_cell_length_b 18.516121
_cell_length_c 9.240538
_cell_angle_alpha 90.000000
_cell_angle_beta 90.000000
_cell_angle_gamma 90.000000
_cell_volume 3469.300591
_symmetry_space_group_name_H-M "P M N A"
_symmetry_group_IT_number 53
_symmetry_cell_setting 'orthorhombic'
loop_
_space_group_symop_operation_xyz
x,y,z
1/2-x,-y,1/2+z
x,-y,-z
1/2-x,y,1/2-z
-x,-y,-z
1/2+x,y,1/2-z
-x,y,z
1/2+x,-y,1/2+z
loop_
_atom_site_type_symbol
_atom_site_label
_atom_site_fract_x
_atom_site_fract_y
_atom_site_fract_z
Si Si1 0.924095 0.343765 0.694975
Si Si2 0.428662 0.852527 0.696903
Si Si3 0.683357 0.971919 0.662586
Si Si4 0.625753 0.219643 0.022381
Si Si5 0.618657 0.245212 0.543306
Si Si6 0.299829 0.561835 0.119788
Si Si7 0.749212 0.686500 0.587816
Si Si8 0.829050 0.124940 0.736369
O O1 0.908892 0.282779 0.572126
O O2 0.912074 0.304058 0.848613
O O3 0.869649 0.406733 0.676737
O O4 0.000000 0.367427 0.683008
O O5 0.500000 0.889637 0.695632
O O6 0.368491 0.907013 0.665343
O O7 0.416652 0.812835 0.848863
O O8 0.427379 0.791108 0.574615
O O9 0.750000 0.952649 0.750000
O O10 0.699467 0.000000 0.500000
O O11 0.651833 0.042381 0.738207
O O12 0.693110 0.253973 0.083657
O O13 0.646680 0.155715 0.915101
O O14 0.680323 0.278668 0.457466
O O15 0.643560 0.179907 0.644643
O O16 0.250000 0.541093 0.250000
O O17 0.309463 0.500000 0.000000
O O18 0.266303 0.628121 0.033910
O O19 0.750000 0.655457 0.750000
O O20 0.750000 0.127467 0.750000
#
# Coordination Sequence:
#
# PCOD9417736 Si02
#       8
#     8   8   8   8   8   8   8   8
#     4  10  22  41  64  93 130 169 207 246 302 370
#     4  12  26  41  59  88 125 163 204 258 318 375
#     4  11  26  42  61  86 116 158 212 262 316 381
#     4  10  22  35  63  90 122 156 206 261 312 365
#     4  11  20  37  64  91 120 161 204 261 309 365
#     4  11  23  41  65  97 132 165 206 251 300 358
#     4  11  20  35  63  99 120 155 207 260 309 355
#     4  10  20  36  59  87 117 152 202 266 319 370
#
# _framework density 18.447523
#
# number of rings (size 3 to 8) (size 9 to 14) (size 15 to 20)
#    0.000    1.250    5.000    1.125    5.250    0.500 
#    0.000    1.875    0.000    0.375    0.000    0.000 
#    0.000    0.000    0.000    0.000    0.000    0.000 
#
# Total GULP energy -357376.095606 kJ/mol
# GULP energy per Si atom -5584.001494 kJ/mol
# Density = 1.840554 g / cm^3
# Si number density = 18.447523 Si / 1000 Ang^3
#
#
#
# Elastic Constant Matrix: (Units=GPa)
#
#
# Indices 1 2 3 4 5 6 
#
# 1 131.0215 44.9981 48.4510 0.0000 0.0000 0.0000
# 2 44.9981 75.5855 29.6029 0.0000 0.0000 0.0000
# 3 48.4510 29.6029 119.4390 0.0000 0.0000 0.0000
# 4 0.0000 0.0000 0.0000 30.1203 0.0000 0.0000
# 5 0.0000 0.0000 0.0000 0.0000 6.4099 0.0000
# 6 0.0000 0.0000 0.0000 0.0000 0.0000 59.9717
#
#
#
# Elastic Compliance Matrix: (Units=1/GPa)
#
#
# Indices 1 2 3 4 5 6 
#
# 1 0.010480 -0.005066 -0.002996 0.000000 0.000000 0.000000
# 2 -0.005066 0.017101 -0.002184 0.000000 0.000000 0.000000
# 3 -0.002996 -0.002184 0.010129 0.000000 0.000000 0.000000
# 4 0.000000 0.000000 0.000000 0.033200 0.000000 0.000000
# 5 0.000000 0.000000 0.000000 0.000000 0.156010 0.000000
# 6 0.000000 0.000000 0.000000 0.000000 0.000000 0.016675
#
#
# Mechanical properties :
#
#
# Convention : Reuss Voigt Hill
#
# Bulk Modulus (GPa) = 58.07242 63.57223 60.82232
# Shear Modulus (GPa) = 18.53059 32.83330 25.68194
#
# Velocity S-wave (km/s) = 3.17283 4.22337 3.73522
# Velocity P-wave (km/s) = 6.70601 7.63665 7.18641
#
# Compressibility (1/GPa) = 0.01721988
#
# Stress axis : x y z
#
# Youngs Moduli (GPa) = 95.42087 58.47618 98.72760
#
# Poissons Ratio (x) = 0.29622 0.29576
# Poissons Ratio (y) = 0.48337 0.21558
# Poissons Ratio (z) = 0.28585 0.12769
#
# Static dielectric constant tensor:
#      x y z
#    x 1.631820 0.000000 0.000000 
#    y 0.000000 1.619320 0.000000 
#    z 0.000000 0.000000 1.650680 
# 
# From -- ./inp_files/11179.got.cif
#   From: 2010.05.17/outbox.cif.g08.bks.cpg/sg53_6_cif.got.tgz:11179.got - 2010.06.03 12:45:16.
