data_PCOD9417056
_publ_section_title
;
Structure prediction by ZEFSAII (Michael W. Deem and Ramdas Pophale) SiO2 
 PCOD9417056
Probable space group: P M N A
;
_chemical_formula_sum "Si O2"
_cell_formula_units_Z 64
_cell_length_a 8.784282
_cell_length_b 16.723638
_cell_length_c 23.922343
_cell_angle_alpha 90.000000
_cell_angle_beta 90.000000
_cell_angle_gamma 90.000000
_cell_volume 3514.315441
_symmetry_space_group_name_H-M "P M N A"
_symmetry_group_IT_number 53
_symmetry_cell_setting 'orthorhombic'
loop_
_space_group_symop_operation_xyz
x,y,z
1/2-x,-y,1/2+z
x,-y,-z
1/2-x,y,1/2-z
-x,-y,-z
1/2+x,y,1/2-z
-x,y,z
1/2+x,-y,1/2+z
loop_
_atom_site_type_symbol
_atom_site_label
_atom_site_fract_x
_atom_site_fract_y
_atom_site_fract_z
Si Si1 0.315486 0.386305 0.686999
Si Si2 0.318641 0.110768 0.311872
Si Si3 0.317086 0.283503 0.310583
Si Si4 0.317128 0.293233 0.575680
Si Si5 0.318024 0.960340 0.916757
Si Si6 0.317326 0.130747 0.974423
Si Si7 0.182697 0.556452 0.865970
Si Si8 0.670291 0.408197 0.016961
O O1 0.250000 0.376174 0.750000
O O2 0.500000 0.387116 0.691501
O O3 0.274587 0.320204 0.639302
O O4 0.264360 0.471747 0.659647
O O5 0.250000 0.100402 0.250000
O O6 0.500000 0.107610 0.306703
O O7 0.276300 0.198462 0.337612
O O8 0.258560 0.049293 0.357098
O O9 0.250000 0.273496 0.250000
O O10 0.500000 0.288389 0.310310
O O11 0.257938 0.367840 0.331608
O O12 0.500000 0.297032 0.572438
O O13 0.260469 0.206677 0.554620
O O14 0.247091 0.357083 0.532017
O O15 0.500000 0.952011 0.911505
O O16 0.288525 0.048599 0.940898
O O17 0.267827 0.893562 0.962474
O O18 0.500000 0.144272 0.975257
O O19 0.229658 0.582364 0.927869
O O20 0.000000 0.552409 0.863782
O O21 0.500000 0.375801 0.028530
O O22 0.654669 0.500000 0.000000
#
# Coordination Sequence:
#
# PCOD9417056 Si02
#       8
#     8   8   8   8   8   8   8   8
#     4  10  22  38  58  81 109 149 192 236 284 330
#     4  10  20  34  53  81 115 150 191 232 278 338
#     4   9  19  33  50  75 108 145 184 225 269 320
#     4  11  23  39  59  85 117 151 188 232 285 337
#     4   9  19  38  61  85 115 147 182 228 287 343
#     4   9  20  39  62  87 114 146 184 231 285 343
#     4  10  20  36  55  78 111 148 186 230 280 330
#     4  11  23  37  55  82 112 147 189 231 276 329
#
# _framework density 18.211227999999998
#
# number of rings (size 3 to 8) (size 9 to 14) (size 15 to 20)
#    0.000    2.125    1.250    2.250    1.750    4.000 
#    0.000    1.875    0.000    1.500    0.000    0.000 
#    0.000    0.000    0.000    0.000    0.000    0.000 
#
# Total GULP energy -356411.264777 kJ/mol
# GULP energy per Si atom -5568.926012 kJ/mol
# Density = 1.816978 g / cm^3
# Si number density = 18.211228 Si / 1000 Ang^3
#
#
#
# Elastic Constant Matrix: (Units=GPa)
#
#
# Indices 1 2 3 4 5 6 
#
# 1 23.7527 37.9895 31.3985 0.0000 0.0000 0.0000
# 2 37.9895 82.3299 65.8108 0.0000 0.0000 0.0000
# 3 31.3985 65.8108 127.0803 0.0000 0.0000 0.0000
# 4 0.0000 0.0000 0.0000 28.6574 0.0000 0.0000
# 5 0.0000 0.0000 0.0000 0.0000 35.9817 0.0000
# 6 0.0000 0.0000 0.0000 0.0000 0.0000 23.6732
#
#
#
# Elastic Compliance Matrix: (Units=1/GPa)
#
#
# Indices 1 2 3 4 5 6 
#
# 1 0.161059 -0.072534 -0.002231 0.000000 0.000000 0.000000
# 2 -0.072534 0.053392 -0.009729 0.000000 0.000000 0.000000
# 3 -0.002231 -0.009729 0.013458 0.000000 0.000000 0.000000
# 4 0.000000 0.000000 0.000000 0.034895 0.000000 0.000000
# 5 0.000000 0.000000 0.000000 0.000000 0.027792 0.000000
# 6 0.000000 0.000000 0.000000 0.000000 0.000000 0.042242
#
#
# Mechanical properties :
#
#
# Convention : Reuss Voigt Hill
#
# Bulk Modulus (GPa) = 16.97148 55.95116 36.46132
# Shear Modulus (GPa) = 9.58835 24.19340 16.89087
#
# Velocity S-wave (km/s) = 2.29706 3.64880 3.04879
# Velocity P-wave (km/s) = 4.04658 6.96719 5.69722
#
# Compressibility (1/GPa) = 0.05892237
#
# Stress axis : x y z
#
# Youngs Moduli (GPa) = 6.20891 18.72924 74.30321
#
# Poissons Ratio (x) = 1.35851 0.16574
# Poissons Ratio (y) = 0.45036 0.72288
# Poissons Ratio (z) = 0.01385 0.18221
#
# Static dielectric constant tensor:
#      x y z
#    x 1.621730 0.000000 0.000000 
#    y 0.000000 2.874630 0.000000 
#    z 0.000000 0.000000 1.592110 
# 
# From -- ./inp_files/34139.got.cif
#   From: 2010.05.17/outbox.cif.g08.bks.cpg/sg53_18_cif.got.tgz:34139.got - 2010.06.03 12:45:16.
