data_PCOD9417858
_publ_section_title
;
Structure prediction by ZEFSAII (Michael W. Deem and Ramdas Pophale) SiO2 
 PCOD9417858
Probable space group: P M N A
;
_chemical_formula_sum "Si O2"
_cell_formula_units_Z 64
_cell_length_a 8.378052
_cell_length_b 14.709633
_cell_length_c 25.999315
_cell_angle_alpha 90.000000
_cell_angle_beta 90.000000
_cell_angle_gamma 90.000000
_cell_volume 3204.105406
_symmetry_space_group_name_H-M "P M N A"
_symmetry_group_IT_number 53
_symmetry_cell_setting 'orthorhombic'
loop_
_space_group_symop_operation_xyz
x,y,z
1/2-x,-y,1/2+z
x,-y,-z
1/2-x,y,1/2-z
-x,-y,-z
1/2+x,y,1/2-z
-x,y,z
1/2+x,-y,1/2+z
loop_
_atom_site_type_symbol
_atom_site_label
_atom_site_fract_x
_atom_site_fract_y
_atom_site_fract_z
Si Si1 0.809444 0.184548 0.696117
Si Si2 0.192960 0.729822 0.412131
Si Si3 0.810376 0.788315 0.805484
Si Si4 0.305166 0.475289 0.941884
Si Si5 0.185429 0.344508 0.393562
Si Si6 0.314936 0.971256 0.553023
Si Si7 0.818925 0.768693 0.981023
Si Si8 0.194048 0.990836 0.834503
O O1 0.750000 0.225510 0.750000
O O2 0.753846 0.234127 0.643596
O O3 0.000000 0.186102 0.696053
O O4 0.751444 0.080238 0.693956
O O5 0.240357 0.625391 0.423848
O O6 0.264086 0.784355 0.460613
O O7 0.000000 0.735497 0.414128
O O8 0.750000 0.756527 0.750000
O O9 0.764739 0.719893 0.851227
O O10 0.749935 0.892055 0.814847
O O11 0.000000 0.793963 0.804253
O O12 0.500000 0.478096 0.942606
O O13 0.250915 0.553637 0.902367
O O14 0.252147 0.500000 0.000000
O O15 0.206159 0.298721 0.449774
O O16 0.000000 0.349298 0.380230
O O17 0.500000 0.004885 0.552001
O O18 0.319329 0.862533 0.550327
O O19 0.245416 0.001104 0.606840
O O20 0.234673 0.000000 0.500000
O O21 0.000000 0.733235 0.980924
O O22 0.000000 0.989399 0.834682
#
# Coordination Sequence:
#
# PCOD9417858 Si02
#       8
#     8   8   8   8   8   8   8   8
#     4  11  24  40  60  84 114 150 194 245 288 336
#     4  10  21  39  60  86 116 150 194 240 289 348
#     4  11  23  40  60  85 117 154 198 243 289 342
#     4   9  17  34  61  87 114 153 192 228 282 351
#     4  11  21  36  60  86 117 155 192 235 288 343
#     4   9  17  30  49  76 112 153 188 223 276 336
#     4  11  20  33  55  85 120 153 188 234 287 344
#     4  10  20  37  59  83 115 153 195 237 280 339
#
# _framework density 19.974373
#
# number of rings (size 3 to 8) (size 9 to 14) (size 15 to 20)
#    0.000    1.750    2.500    2.625    0.000    4.000 
#    0.000    2.500    0.000    4.125    0.000    0.000 
#    0.000    0.000    0.000    0.000    0.000    0.000 
#
# Total GULP energy -357218.501884 kJ/mol
# GULP energy per Si atom -5581.539092 kJ/mol
# Density = 1.992891 g / cm^3
# Si number density = 19.974373 Si / 1000 Ang^3
#
#
#
# Elastic Constant Matrix: (Units=GPa)
#
#
# Indices 1 2 3 4 5 6 
#
# 1 21.0804 9.0737 12.9064 0.0000 0.0000 0.0000
# 2 9.0737 74.9373 41.3611 0.0000 0.0000 0.0000
# 3 12.9064 41.3611 153.7878 0.0000 0.0000 0.0000
# 4 0.0000 0.0000 0.0000 11.9174 0.0000 0.0000
# 5 0.0000 0.0000 0.0000 0.0000 59.3313 0.0000
# 6 0.0000 0.0000 0.0000 0.0000 0.0000 0.7091
#
#
#
# Elastic Compliance Matrix: (Units=1/GPa)
#
#
# Indices 1 2 3 4 5 6 
#
# 1 0.051268 -0.004501 -0.003092 0.000000 0.000000 0.000000
# 2 -0.004501 0.016066 -0.003943 0.000000 0.000000 0.000000
# 3 -0.003092 -0.003943 0.007822 0.000000 0.000000 0.000000
# 4 0.000000 0.000000 0.000000 0.083911 0.000000 0.000000
# 5 0.000000 0.000000 0.000000 0.000000 0.016855 0.000000
# 6 0.000000 0.000000 0.000000 0.000000 0.000000 1.410254
#
#
# Mechanical properties :
#
#
# Convention : Reuss Voigt Hill
#
# Bulk Modulus (GPa) = 19.19988 41.83201 30.51594
# Shear Modulus (GPa) = 3.07388 26.82250 14.94819
#
# Velocity S-wave (km/s) = 1.24187 3.66846 2.73860
# Velocity P-wave (km/s) = 3.41899 6.23953 5.03097
#
# Compressibility (1/GPa) = 0.05208366
#
# Stress axis : x y z
#
# Youngs Moduli (GPa) = 19.50538 62.24360 127.83689
#
# Poissons Ratio (x) = 0.28017 0.39527
# Poissons Ratio (y) = 0.08780 0.50408
# Poissons Ratio (z) = 0.06031 0.24544
#
# Static dielectric constant tensor:
#      x y z
#    x 1.686940 0.000000 0.000000 
#    y 0.000000 1.725220 0.000000 
#    z 0.000000 0.000000 1.719640 
# 
# From -- ./inp_files/34302.got.cif
#   From: 2010.05.17/outbox.cif.g08.bks.cpg/sg53_18_cif.got.tgz:34302.got - 2010.06.03 12:45:16.
