data_PCOD9417553
_publ_section_title
;
Structure prediction by ZEFSAII (Michael W. Deem and Ramdas Pophale) SiO2 
 PCOD9417553
Probable space group: P M N A
;
_chemical_formula_sum "Si O2"
_cell_formula_units_Z 40
_cell_length_a 8.628356
_cell_length_b 26.372514
_cell_length_c 9.678001
_cell_angle_alpha 90.000000
_cell_angle_beta 90.000000
_cell_angle_gamma 90.000000
_cell_volume 2202.243058
_symmetry_space_group_name_H-M "P M N A"
_symmetry_group_IT_number 53
_symmetry_cell_setting 'orthorhombic'
loop_
_space_group_symop_operation_xyz
x,y,z
1/2-x,-y,1/2+z
x,-y,-z
1/2-x,y,1/2-z
-x,-y,-z
1/2+x,y,1/2-z
-x,y,z
1/2+x,-y,1/2+z
loop_
_atom_site_type_symbol
_atom_site_label
_atom_site_fract_x
_atom_site_fract_y
_atom_site_fract_z
Si Si1 0.687103 0.952473 0.405500
Si Si2 0.813610 0.141970 0.095749
Si Si3 0.315074 0.748010 0.903497
Si Si4 0.313753 0.340412 0.594766
Si Si5 0.313160 0.454201 0.595788
O O1 0.750000 0.954787 0.250000
O O2 0.500000 0.953660 0.398330
O O3 0.732361 0.901387 0.487282
O O4 0.737507 0.000000 0.500000
O O5 0.750000 0.130910 0.250000
O O6 0.749767 0.196961 0.053122
O O7 0.000000 0.143937 0.103403
O O8 0.250000 0.738984 0.750000
O O9 0.500000 0.749970 0.899752
O O10 0.257476 0.703336 0.001543
O O11 0.250000 0.335543 0.750000
O O12 0.500000 0.336309 0.595324
O O13 0.270938 0.397481 0.545961
O O14 0.257348 0.500000 0.500000
O O15 0.250000 0.460119 0.750000
O O16 0.500000 0.456106 0.600807
#
# Coordination Sequence:
#
# PCOD9417553 Si02
#       5
#     8   8   8   8   8
#     4  10  22  38  57  83 112 143 180 221 265 317
#     4  10  20  36  57  81 110 142 180 223 268 319
#     4  11  22  37  57  81 110 144 183 225 272 322
#     4  10  20  36  56  79 109 143 181 223 270 323
#     4   9  19  35  54  78 107 139 176 219 266 318
#
# _framework density 18.1633
#
# number of rings (size 3 to 8) (size 9 to 14) (size 15 to 20)
#    0.000    2.000    0.000    4.800    0.000    4.800 
#    0.000    4.000    0.000    0.000    0.000    0.000 
#    0.000    0.000    0.000    0.000    0.000    0.000 
#
# Total GULP energy -223351.228807 kJ/mol
# GULP energy per Si atom -5583.780720 kJ/mol
# Density = 1.812196 g / cm^3
# Si number density = 18.163300 Si / 1000 Ang^3
#
#
#
# Elastic Constant Matrix: (Units=GPa)
#
#
# Indices 1 2 3 4 5 6 
#
# 1 69.4422 59.2210 39.3421 0.0000 0.0000 0.0000
# 2 59.2210 201.8403 127.5890 0.0000 0.0000 0.0000
# 3 39.3421 127.5890 114.7257 0.0000 0.0000 0.0000
# 4 0.0000 0.0000 0.0000 44.3878 0.0000 0.0000
# 5 0.0000 0.0000 0.0000 0.0000 34.8462 0.0000
# 6 0.0000 0.0000 0.0000 0.0000 0.0000 -55.6871
#
#
#
# Elastic Compliance Matrix: (Units=1/GPa)
#
#
# Indices 1 2 3 4 5 6 
#
# 1 0.019246 -0.004966 -0.001077 0.000000 0.000000 0.000000
# 2 -0.004966 0.017963 -0.018274 0.000000 0.000000 0.000000
# 3 -0.001077 -0.018274 0.029409 0.000000 0.000000 0.000000
# 4 0.000000 0.000000 0.000000 0.022529 0.000000 0.000000
# 5 0.000000 0.000000 0.000000 0.000000 0.028698 0.000000
# 6 0.000000 0.000000 0.000000 0.000000 0.000000 -0.017957
#
#
# Mechanical properties :
#
#
# Convention : Reuss Voigt Hill
#
# Bulk Modulus (GPa) = 55.60716 93.14583 74.37649
# Shear Modulus (GPa) = 32.35922 15.36645 23.86284
#
# Velocity S-wave (km/s) = 4.22545 2.91179 3.62856
# Velocity P-wave (km/s) = 7.38156 7.91824 7.65460
#
# Compressibility (1/GPa) = 0.01798330
#
# Stress axis : x y z
#
# Youngs Moduli (GPa) = 51.95972 55.66964 34.00322
#
# Poissons Ratio (x) = 0.27645 0.03662
# Poissons Ratio (y) = 0.25803 0.62138
# Poissons Ratio (z) = 0.05596 1.01732
#
# Static dielectric constant tensor:
#      x y z
#    x 1.610800 0.000000 0.000000 
#    y 0.000000 1.632250 0.000000 
#    z 0.000000 0.000000 1.565700 
# 
# From -- ./inp_files/6273.got.cif
#   From: 2010.05.17/outbox.cif.g08.bks.cpg/sg53_4_cif.got.tgz:6273.got - 2010.06.03 12:45:16.
