data_PCOD9417352
_publ_section_title
;
Structure prediction by ZEFSAII (Michael W. Deem and Ramdas Pophale) SiO2 
 PCOD9417352
Probable space group: P M N A
;
_chemical_formula_sum "Si O2"
_cell_formula_units_Z 40
_cell_length_a 8.250284
_cell_length_b 11.944869
_cell_length_c 22.432430
_cell_angle_alpha 90.000000
_cell_angle_beta 90.000000
_cell_angle_gamma 90.000000
_cell_volume 2210.683710
_symmetry_space_group_name_H-M "P M N A"
_symmetry_group_IT_number 53
_symmetry_cell_setting 'orthorhombic'
loop_
_space_group_symop_operation_xyz
x,y,z
1/2-x,-y,1/2+z
x,-y,-z
1/2-x,y,1/2-z
-x,-y,-z
1/2+x,y,1/2-z
-x,y,z
1/2+x,-y,1/2+z
loop_
_atom_site_type_symbol
_atom_site_label
_atom_site_fract_x
_atom_site_fract_y
_atom_site_fract_z
Si Si1 0.302918 0.446382 0.085381
Si Si2 0.692109 0.072979 0.557213
Si Si3 0.804320 0.325142 0.538976
Si Si4 0.306325 0.023656 0.183520
Si Si5 0.804394 0.720354 0.684995
O O1 0.500000 0.450418 0.087452
O O2 0.250441 0.575739 0.083798
O O3 0.241865 0.369409 0.138221
O O4 0.264092 0.380111 0.024821
O O5 0.500000 0.055472 0.558965
O O6 0.730348 0.203452 0.546711
O O7 0.756928 0.039305 0.622825
O O8 0.755636 0.000000 0.500000
O O9 0.000000 0.313367 0.542374
O O10 0.250000 0.985073 0.250000
O O11 0.500000 0.024033 0.185807
O O12 0.246509 0.152174 0.175689
O O13 0.750000 0.685784 0.750000
O O14 0.000000 0.723038 0.681093
#
# Coordination Sequence:
#
# PCOD9417352 Si02
#       5
#     8   8   8   8   8
#     4   8  15  30  52  75  98 125 162 208 253 302
#     4  11  23  36  51  76 109 140 175 220 263 306
#     4   9  17  32  54  75  96 128 169 210 255 305
#     4  10  20  35  56  79 105 138 174 213 259 312
#     4   9  17  30  49  74 100 126 160 201 246 297
#
# _framework density 18.09395
#
# number of rings (size 3 to 8) (size 9 to 14) (size 15 to 20)
#    0.000    2.600    0.000    3.600    0.000    4.000 
#    0.000    5.000    0.000    2.400    0.000    0.000 
#    0.000    0.000    0.000    0.000    0.000    0.000 
#
# Total GULP energy -222800.982979 kJ/mol
# GULP energy per Si atom -5570.024574 kJ/mol
# Density = 1.805277 g / cm^3
# Si number density = 18.093950 Si / 1000 Ang^3
#
#
#
# Elastic Constant Matrix: (Units=GPa)
#
#
# Indices 1 2 3 4 5 6 
#
# 1 22.2634 10.6381 19.3130 0.0000 0.0000 0.0000
# 2 10.6381 119.2825 83.2202 0.0000 0.0000 0.0000
# 3 19.3130 83.2202 120.5926 0.0000 0.0000 0.0000
# 4 0.0000 0.0000 0.0000 19.7070 0.0000 0.0000
# 5 0.0000 0.0000 0.0000 0.0000 25.3494 0.0000
# 6 0.0000 0.0000 0.0000 0.0000 0.0000 19.1540
#
#
#
# Elastic Compliance Matrix: (Units=1/GPa)
#
#
# Indices 1 2 3 4 5 6 
#
# 1 0.052484 0.002282 -0.009980 0.000000 0.000000 0.000000
# 2 0.002282 0.016267 -0.011591 0.000000 0.000000 0.000000
# 3 -0.009980 -0.011591 0.017890 0.000000 0.000000 0.000000
# 4 0.000000 0.000000 0.000000 0.050743 0.000000 0.000000
# 5 0.000000 0.000000 0.000000 0.000000 0.039449 0.000000
# 6 0.000000 0.000000 0.000000 0.000000 0.000000 0.052208
#
#
# Mechanical properties :
#
#
# Convention : Reuss Voigt Hill
#
# Bulk Modulus (GPa) = 20.80646 54.27566 37.54106
# Shear Modulus (GPa) = 17.62803 22.77325 20.20064
#
# Velocity S-wave (km/s) = 3.12468 3.55154 3.34493
# Velocity P-wave (km/s) = 4.95402 6.84687 5.97586
#
# Compressibility (1/GPa) = 0.04806199
#
# Stress axis : x y z
#
# Youngs Moduli (GPa) = 19.05350 61.47537 55.89826
#
# Poissons Ratio (x) = -0.14030 0.55788
# Poissons Ratio (y) = -0.04349 0.64792
# Poissons Ratio (z) = 0.19016 0.71256
#
# Static dielectric constant tensor:
#      x y z
#    x 1.631060 0.000000 0.000000 
#    y 0.000000 1.619880 0.000000 
#    z 0.000000 0.000000 1.633720 
# 
# From -- ./inp_files/25855.got.cif
#   From: 2010.05.17/outbox.cif.g08.bks.cpg/sg53_13_cif.got.tgz:25855.got - 2010.06.03 12:45:16.
