data_PCOD9417248
_publ_section_title
;
Structure prediction by ZEFSAII (Michael W. Deem and Ramdas Pophale) SiO2 
 PCOD9417248
Probable space group: P M N A
;
_chemical_formula_sum "Si O2"
_cell_formula_units_Z 56
_cell_length_a 24.349741
_cell_length_b 12.289935
_cell_length_c 10.559411
_cell_angle_alpha 90.000000
_cell_angle_beta 90.000000
_cell_angle_gamma 90.000000
_cell_volume 3159.974850
_symmetry_space_group_name_H-M "P M N A"
_symmetry_group_IT_number 53
_symmetry_cell_setting 'orthorhombic'
loop_
_space_group_symop_operation_xyz
x,y,z
1/2-x,-y,1/2+z
x,-y,-z
1/2-x,y,1/2-z
-x,-y,-z
1/2+x,y,1/2-z
-x,y,z
1/2+x,-y,1/2+z
loop_
_atom_site_type_symbol
_atom_site_label
_atom_site_fract_x
_atom_site_fract_y
_atom_site_fract_z
Si Si1 0.681546 0.496531 0.642294
Si Si2 0.878888 0.308433 0.726169
Si Si3 0.187925 0.914046 0.807113
Si Si4 0.830412 0.148659 0.898164
Si Si5 0.938814 0.369710 0.485091
Si Si6 0.666979 0.304847 0.176001
Si Si7 0.767702 0.314509 0.576751
O O1 0.660099 0.500000 0.500000
O O2 0.637831 0.425508 0.719637
O O3 0.682536 0.612604 0.710721
O O4 0.738835 0.427744 0.621372
O O5 0.879370 0.223475 0.842077
O O6 0.926527 0.317303 0.623271
O O7 0.823881 0.283950 0.645389
O O8 0.250000 0.912141 0.750000
O O9 0.161147 0.818723 0.723806
O O10 0.171778 0.040997 0.811647
O O11 0.173499 0.881210 0.952924
O O12 0.776715 0.224317 0.889947
O O13 0.936145 0.500000 0.500000
O O14 0.889831 0.338113 0.390925
O O15 0.000000 0.339952 0.441645
O O16 0.714707 0.316101 0.069823
#
# Coordination Sequence:
#
# PCOD9417248 Si02
#       7
#     8   8   8   8   8   8   8
#     4  11  22  28  48  77 117 149 178 221 272 340
#     4  10  20  35  52  80 106 145 187 233 280 334
#     4  11  21  34  54  78 120 158 192 222 261 338
#     4  10  20  36  52  78 114 161 191 218 270 328
#     4  10  21  41  64  81 107 145 190 246 299 342
#     4  11  22  36  52  87 112 150 190 234 285 330
#     4  10  21  31  50  73 115 152 186 222 266 332
#
# _framework density 17.721661000000001
#
# number of rings (size 3 to 8) (size 9 to 14) (size 15 to 20)
#    0.000    1.571    2.857    4.286    4.000    0.000 
#    0.000    0.000    0.000    6.000    0.000    2.000 
#    0.000    0.000    0.000    0.000    0.000    0.000 
#
# Total GULP energy -311798.111957 kJ/mol
# GULP energy per Si atom -5567.823428 kJ/mol
# Density = 1.768133 g / cm^3
# Si number density = 17.721661 Si / 1000 Ang^3
#
#
#
# Elastic Constant Matrix: (Units=GPa)
#
#
# Indices 1 2 3 4 5 6 
#
# 1 70.5974 34.3029 26.3893 0.0000 0.0000 0.0000
# 2 34.3029 83.9185 27.9649 0.0000 0.0000 0.0000
# 3 26.3893 27.9649 97.5385 0.0000 0.0000 0.0000
# 4 0.0000 0.0000 0.0000 27.4397 0.0000 0.0000
# 5 0.0000 0.0000 0.0000 0.0000 16.9174 0.0000
# 6 0.0000 0.0000 0.0000 0.0000 0.0000 19.6118
#
#
#
# Elastic Compliance Matrix: (Units=1/GPa)
#
#
# Indices 1 2 3 4 5 6 
#
# 1 0.018505 -0.006519 -0.003138 0.000000 0.000000 0.000000
# 2 -0.006519 0.015471 -0.002672 0.000000 0.000000 0.000000
# 3 -0.003138 -0.002672 0.011867 0.000000 0.000000 0.000000
# 4 0.000000 0.000000 0.000000 0.036444 0.000000 0.000000
# 5 0.000000 0.000000 0.000000 0.000000 0.059111 0.000000
# 6 0.000000 0.000000 0.000000 0.000000 0.000000 0.050990
#
#
# Mechanical properties :
#
#
# Convention : Reuss Voigt Hill
#
# Bulk Modulus (GPa) = 47.19875 47.70764 47.45320
# Shear Modulus (GPa) = 22.31080 23.68694 22.99887
#
# Velocity S-wave (km/s) = 3.55203 3.65993 3.60638
# Velocity P-wave (km/s) = 6.59649 6.69620 6.64653
#
# Compressibility (1/GPa) = 0.02118700
#
# Stress axis : x y z
#
# Youngs Moduli (GPa) = 54.03930 64.63553 84.26466
#
# Poissons Ratio (x) = 0.42133 0.26439
# Poissons Ratio (y) = 0.35226 0.22516
# Poissons Ratio (z) = 0.16956 0.17271
#
# Static dielectric constant tensor:
#      x y z
#    x 1.572600 0.000000 0.000000 
#    y 0.000000 1.647550 0.000000 
#    z 0.000000 0.000000 1.786760 
# 
# From -- ./inp_files/18422.got.cif
#   From: 2010.05.17/outbox.cif.g08.bks.cpg/sg53_10_cif.got.tgz:18422.got - 2010.06.03 12:45:16.
