data_PCOD9417068
_publ_section_title
;
Structure prediction by ZEFSAII (Michael W. Deem and Ramdas Pophale) SiO2 
 PCOD9417068
Probable space group: P M N A
;
_chemical_formula_sum "Si O2"
_cell_formula_units_Z 48
_cell_length_a 31.300288
_cell_length_b 16.579796
_cell_length_c 4.969884
_cell_angle_alpha 90.000000
_cell_angle_beta 90.000000
_cell_angle_gamma 90.000000
_cell_volume 2579.133179
_symmetry_space_group_name_H-M "P M N A"
_symmetry_group_IT_number 53
_symmetry_cell_setting 'orthorhombic'
loop_
_space_group_symop_operation_xyz
x,y,z
1/2-x,-y,1/2+z
x,-y,-z
1/2-x,y,1/2-z
-x,-y,-z
1/2+x,y,1/2-z
-x,y,z
1/2+x,-y,1/2+z
loop_
_atom_site_type_symbol
_atom_site_label
_atom_site_fract_x
_atom_site_fract_y
_atom_site_fract_z
Si Si1 0.779053 0.000000 0.000000
Si Si2 0.699497 0.833991 0.742191
Si Si3 0.500000 0.169472 0.945941
Si Si4 0.354092 0.803043 0.265127
Si Si5 0.049606 0.410319 0.075744
Si Si6 0.928932 0.306413 0.559855
Si Si7 0.421235 0.056272 0.754061
O O1 0.803897 0.074907 0.124788
O O2 0.750000 0.969938 0.250000
O O3 0.750000 0.815886 0.750000
O O4 0.672103 0.781850 0.532398
O O5 0.678979 0.827669 0.033582
O O6 0.537701 0.236201 0.021999
O O7 0.462667 0.105279 0.850814
O O8 0.384840 0.733669 0.152332
O O9 0.385590 0.878201 0.321801
O O10 0.075080 0.368010 0.314604
O O11 0.000000 0.416598 0.164624
O O12 0.064209 0.500000 0.000000
O O13 0.052114 0.353453 0.815695
O O14 0.431305 0.000000 0.500000
O O15 0.406371 0.000000 0.000000
#
# Coordination Sequence:
#
# PCOD9417068 Si02
#       7
#     4   8   4   8   8   8   8
#     4  10  20  34  54  78 100 139 182 237 292 342
#     4  11  22  39  57  78 108 144 192 237 296 355
#     4  10  22  38  57  74 106 156 192 234 293 322
#     4  11  24  37  57  82 111 149 186 244 298 330
#     4  11  21  36  61  88 116 153 189 221 264 336
#     4  11  22  39  57  85 120 149 189 231 280 340
#     4  11  24  38  53  74 103 145 201 252 280 328
#
# _framework density 18.610901999999999
#
# number of rings (size 3 to 8) (size 9 to 14) (size 15 to 20)
#    0.000    1.167    1.667    5.500    3.500    6.667 
#    0.000    0.000    0.000    0.000    0.000    0.000 
#    0.000   37.333    0.000    0.000    0.000    0.000 
#
# Total GULP energy -267278.199277 kJ/mol
# GULP energy per Si atom -5568.295818 kJ/mol
# Density = 1.856854 g / cm^3
# Si number density = 18.610902 Si / 1000 Ang^3
#
#
#
# Elastic Constant Matrix: (Units=GPa)
#
#
# Indices 1 2 3 4 5 6 
#
# 1 81.7497 33.2958 4.6124 0.0000 0.0000 0.0000
# 2 33.2958 78.2779 13.1218 0.0000 0.0000 0.0000
# 3 4.6124 13.1218 56.6156 0.0000 0.0000 0.0000
# 4 0.0000 0.0000 0.0000 26.9564 0.0000 0.0000
# 5 0.0000 0.0000 0.0000 0.0000 25.6696 0.0000
# 6 0.0000 0.0000 0.0000 0.0000 0.0000 -7.7386
#
#
#
# Elastic Compliance Matrix: (Units=1/GPa)
#
#
# Indices 1 2 3 4 5 6 
#
# 1 0.014799 -0.006339 0.000264 0.000000 0.000000 0.000000
# 2 -0.006339 0.016007 -0.003193 0.000000 0.000000 0.000000
# 3 0.000264 -0.003193 0.018382 0.000000 0.000000 0.000000
# 4 0.000000 0.000000 0.000000 0.037097 0.000000 0.000000
# 5 0.000000 0.000000 0.000000 0.000000 0.038957 0.000000
# 6 0.000000 0.000000 0.000000 0.000000 0.000000 -0.129222
#
#
# Mechanical properties :
#
#
# Convention : Reuss Voigt Hill
#
# Bulk Modulus (GPa) = 32.62676 35.41147 34.01911
# Shear Modulus (GPa) = 201.82060 20.01835 110.91947
#
# Velocity S-wave (km/s) = 10.42485 3.28323 7.72843
# Velocity P-wave (km/s) = 12.74647 5.78285 9.89732
#
# Compressibility (1/GPa) = 0.03064969
#
# Stress axis : x y z
#
# Youngs Moduli (GPa) = 67.56997 62.47381 54.40204
#
# Poissons Ratio (x) = 0.39603 -0.01434
# Poissons Ratio (y) = 0.42834 0.17373
# Poissons Ratio (z) = -0.01781 0.19951
#
# Static dielectric constant tensor:
#      x y z
#    x 1.664950 0.000000 0.000000 
#    y 0.000000 1.652840 0.000000 
#    z 0.000000 0.000000 1.682190 
# 
# From -- ./inp_files/5291.got.cif
#   From: 2010.05.17/outbox.cif.g08.bks.cpg/sg53_3_cif.got.tgz:5291.got - 2010.06.03 12:45:16.
