data_PCOD9417418
_publ_section_title
;
Structure prediction by ZEFSAII (Michael W. Deem and Ramdas Pophale) SiO2 
 PCOD9417418
Probable space group: P M N A
;
_chemical_formula_sum "Si O2"
_cell_formula_units_Z 48
_cell_length_a 8.696155
_cell_length_b 32.036403
_cell_length_c 9.223402
_cell_angle_alpha 90.000000
_cell_angle_beta 90.000000
_cell_angle_gamma 90.000000
_cell_volume 2569.580086
_symmetry_space_group_name_H-M "P M N A"
_symmetry_group_IT_number 53
_symmetry_cell_setting 'orthorhombic'
loop_
_space_group_symop_operation_xyz
x,y,z
1/2-x,-y,1/2+z
x,-y,-z
1/2-x,y,1/2-z
-x,-y,-z
1/2+x,y,1/2-z
-x,y,z
1/2+x,-y,1/2+z
loop_
_atom_site_type_symbol
_atom_site_label
_atom_site_fract_x
_atom_site_fract_y
_atom_site_fract_z
Si Si1 0.684129 0.293971 0.086590
Si Si2 0.184657 0.876424 0.088694
Si Si3 0.683522 0.620090 0.586354
Si Si4 0.815640 0.542018 0.411398
Si Si5 0.314420 0.041022 0.411616
Si Si6 0.684430 0.798697 0.913392
O O1 0.750000 0.292667 0.250000
O O2 0.500000 0.298798 0.090690
O O3 0.758363 0.335623 0.021879
O O4 0.720715 0.247910 0.026702
O O5 0.250000 0.879514 0.250000
O O6 0.000000 0.875265 0.093626
O O7 0.232321 0.917059 0.996118
O O8 0.246253 0.835036 0.010646
O O9 0.750000 0.616440 0.750000
O O10 0.500000 0.620020 0.593849
O O11 0.744483 0.581699 0.492806
O O12 0.777854 0.500000 0.500000
O O13 0.750000 0.538946 0.250000
O O14 0.000000 0.546236 0.406880
O O15 0.250000 0.040664 0.250000
O O16 0.500000 0.040516 0.404634
O O17 0.264311 0.000000 0.500000
O O18 0.750000 0.802059 0.750000
O O19 0.500000 0.802433 0.906498
#
# Coordination Sequence:
#
# PCOD9417418 Si02
#       6
#     8   8   8   8   8   8
#     4   9  17  31  53  81 112 146 186 230 277 330
#     4  11  23  38  57  81 112 149 189 234 283 336
#     4  11  21  35  58  86 117 151 188 232 280 332
#     4  11  24  41  61  85 114 148 187 231 279 333
#     4  10  22  39  59  85 114 146 185 228 277 332
#     4  10  20  35  57  84 114 148 188 234 280 331
#
# _framework density 18.680095999999999
#
# number of rings (size 3 to 8) (size 9 to 14) (size 15 to 20)
#    0.000    1.667    0.000    6.000    0.000    7.667 
#    0.000    0.833    0.000    4.000    0.000    0.000 
#    0.000    0.000    0.000    0.000    0.000    0.000 
#
# Total GULP energy -268146.713574 kJ/mol
# GULP energy per Si atom -5586.389866 kJ/mol
# Density = 1.863758 g / cm^3
# Si number density = 18.680096 Si / 1000 Ang^3
#
#
#
# Elastic Constant Matrix: (Units=GPa)
#
#
# Indices 1 2 3 4 5 6 
#
# 1 87.1481 83.5284 50.8821 0.0000 0.0000 0.0000
# 2 83.5284 226.3318 104.4658 0.0000 0.0000 0.0000
# 3 50.8821 104.4658 132.4154 0.0000 0.0000 0.0000
# 4 0.0000 0.0000 0.0000 32.6331 0.0000 0.0000
# 5 0.0000 0.0000 0.0000 0.0000 32.8260 0.0000
# 6 0.0000 0.0000 0.0000 0.0000 0.0000 29.7146
#
#
#
# Elastic Compliance Matrix: (Units=1/GPa)
#
#
# Indices 1 2 3 4 5 6 
#
# 1 0.018343 -0.005530 -0.002686 0.000000 0.000000 0.000000
# 2 -0.005530 0.008616 -0.004672 0.000000 0.000000 0.000000
# 3 -0.002686 -0.004672 0.012270 0.000000 0.000000 0.000000
# 4 0.000000 0.000000 0.000000 0.030644 0.000000 0.000000
# 5 0.000000 0.000000 0.000000 0.000000 0.030464 0.000000
# 6 0.000000 0.000000 0.000000 0.000000 0.000000 0.033654
#
#
# Mechanical properties :
#
#
# Convention : Reuss Voigt Hill
#
# Bulk Modulus (GPa) = 74.33325 102.62754 88.48040
# Shear Modulus (GPa) = 30.44146 32.83600 31.63873
#
# Velocity S-wave (km/s) = 4.04123 4.19717 4.11994
# Velocity P-wave (km/s) = 7.85204 8.86268 8.37262
#
# Compressibility (1/GPa) = 0.01345293
#
# Stress axis : x y z
#
# Youngs Moduli (GPa) = 54.51644 116.06893 81.49946
#
# Poissons Ratio (x) = 0.64185 0.21890
# Poissons Ratio (y) = 0.30147 0.38078
# Poissons Ratio (z) = 0.14642 0.54229
#
# Static dielectric constant tensor:
#      x y z
#    x 1.626700 0.000000 0.000000 
#    y 0.000000 1.667210 0.000000 
#    z 0.000000 0.000000 1.601000 
# 
# From -- ./inp_files/6650.got.cif
#   From: 2010.05.17/outbox.cif.g08.bks.cpg/sg53_4_cif.got.tgz:6650.got - 2010.06.03 12:45:16.
