data_PCOD9417134
_publ_section_title
;
Structure prediction by ZEFSAII (Michael W. Deem and Ramdas Pophale) SiO2 
 PCOD9417134
Probable space group: P M N A
;
_chemical_formula_sum "Si O2"
_cell_formula_units_Z 64
_cell_length_a 9.294816
_cell_length_b 24.461819
_cell_length_c 15.043116
_cell_angle_alpha 90.000000
_cell_angle_beta 90.000000
_cell_angle_gamma 90.000000
_cell_volume 3420.324803
_symmetry_space_group_name_H-M "P M N A"
_symmetry_group_IT_number 53
_symmetry_cell_setting 'orthorhombic'
loop_
_space_group_symop_operation_xyz
x,y,z
1/2-x,-y,1/2+z
x,-y,-z
1/2-x,y,1/2-z
-x,-y,-z
1/2+x,y,1/2-z
-x,y,z
1/2+x,-y,1/2+z
loop_
_atom_site_type_symbol
_atom_site_label
_atom_site_fract_x
_atom_site_fract_y
_atom_site_fract_z
Si Si1 0.672666 0.647588 0.655310
Si Si2 0.671241 0.089680 0.657829
Si Si3 0.674129 0.132353 0.473522
Si Si4 0.827077 0.252798 0.023663
Si Si5 0.329772 0.435304 0.495449
Si Si6 0.672005 0.962625 0.656956
Si Si7 0.838019 0.394377 0.665542
Si Si8 0.836023 0.736935 0.336516
O O1 0.750000 0.649437 0.750000
O O2 0.500000 0.649545 0.668419
O O3 0.712497 0.698728 0.591180
O O4 0.707744 0.593267 0.598014
O O5 0.750000 0.100241 0.750000
O O6 0.500000 0.096955 0.669966
O O7 0.723062 0.125659 0.575246
O O8 0.695771 0.025954 0.631500
O O9 0.500000 0.128001 0.476772
O O10 0.707691 0.192608 0.438201
O O11 0.724137 0.081867 0.413956
O O12 0.000000 0.256298 0.009083
O O13 0.748548 0.255797 0.928793
O O14 0.305536 0.500000 0.500000
O O15 0.500000 0.424930 0.509684
O O16 0.242092 0.407977 0.574705
O O17 0.750000 0.953435 0.750000
O O18 0.500000 0.956280 0.667663
O O19 0.750000 0.416001 0.750000
O O20 0.845483 0.328834 0.674383
O O21 0.000000 0.416139 0.665103
O O22 0.750000 0.758261 0.250000
O O23 0.000000 0.758175 0.339889
#
# Coordination Sequence:
#
# PCOD9417134 Si02
#       8
#     8   8   8   8   8   8   8   8
#     4  10  22  39  59  80 107 145 183 223 268 318
#     4   9  17  31  51  74 102 137 174 214 262 318
#     4   9  18  32  52  76 102 136 177 218 264 318
#     4  10  20  36  56  78 106 141 182 227 271 319
#     4  10  21  38  59  84 114 145 181 226 274 322
#     4   9  17  31  51  74 101 134 174 218 264 315
#     4  10  20  34  56  83 111 142 176 218 266 321
#     4  10  20  34  55  81 107 139 176 217 266 323
#
# _framework density 18.711672
#
# number of rings (size 3 to 8) (size 9 to 14) (size 15 to 20)
#    0.000    2.375    1.250    1.125    0.000    5.250 
#    0.000    4.375    0.000    3.000    0.000    0.000 
#    0.000    0.000    0.000    0.000    0.000    0.000 
#
# Total GULP energy -356996.466452 kJ/mol
# GULP energy per Si atom -5578.069788 kJ/mol
# Density = 1.866908 g / cm^3
# Si number density = 18.711672 Si / 1000 Ang^3
#
#
#
# Elastic Constant Matrix: (Units=GPa)
#
#
# Indices 1 2 3 4 5 6 
#
# 1 33.1590 35.2171 44.4180 0.0000 0.0000 0.0000
# 2 35.2171 82.1265 51.3713 0.0000 0.0000 0.0000
# 3 44.4180 51.3713 125.0477 0.0000 0.0000 0.0000
# 4 0.0000 0.0000 0.0000 4.6593 0.0000 0.0000
# 5 0.0000 0.0000 0.0000 0.0000 28.8436 0.0000
# 6 0.0000 0.0000 0.0000 0.0000 0.0000 8.5265
#
#
#
# Elastic Compliance Matrix: (Units=1/GPa)
#
#
# Indices 1 2 3 4 5 6 
#
# 1 0.078974 -0.021962 -0.019030 0.000000 0.000000 0.000000
# 2 -0.021962 0.022495 -0.001440 0.000000 0.000000 0.000000
# 3 -0.019030 -0.001440 0.015348 0.000000 0.000000 0.000000
# 4 0.000000 0.000000 0.000000 0.214624 0.000000 0.000000
# 5 0.000000 0.000000 0.000000 0.000000 0.034670 0.000000
# 6 0.000000 0.000000 0.000000 0.000000 0.000000 0.117281
#
#
# Mechanical properties :
#
#
# Convention : Reuss Voigt Hill
#
# Bulk Modulus (GPa) = 31.29581 55.81623 43.55602
# Shear Modulus (GPa) = 8.63696 15.69434 12.16565
#
# Velocity S-wave (km/s) = 2.15077 2.89925 2.55260
# Velocity P-wave (km/s) = 4.78846 6.41108 5.65824
#
# Compressibility (1/GPa) = 0.03195316
#
# Stress axis : x y z
#
# Youngs Moduli (GPa) = 12.66234 44.45490 65.15406
#
# Poissons Ratio (x) = 0.97631 1.23989
# Poissons Ratio (y) = 0.27809 0.09383
# Poissons Ratio (z) = 0.24097 0.06402
#
# Static dielectric constant tensor:
#      x y z
#    x 1.635990 0.000000 0.000000 
#    y 0.000000 1.677210 0.000000 
#    z 0.000000 0.000000 1.615930 
# 
# From -- ./inp_files/20810.got.cif
#   From: 2010.05.17/outbox.cif.g08.bks.cpg/sg53_11_cif.got.tgz:20810.got - 2010.06.03 12:45:16.
