data_PCOD9417425
_publ_section_title
;
Structure prediction by ZEFSAII (Michael W. Deem and Ramdas Pophale) SiO2 
 PCOD9417425
Probable space group: P M N A
;
_chemical_formula_sum "Si O2"
_cell_formula_units_Z 40
_cell_length_a 8.658123
_cell_length_b 11.064458
_cell_length_c 19.535348
_cell_angle_alpha 90.000000
_cell_angle_beta 90.000000
_cell_angle_gamma 90.000000
_cell_volume 1871.436295
_symmetry_space_group_name_H-M "P M N A"
_symmetry_group_IT_number 53
_symmetry_cell_setting 'orthorhombic'
loop_
_space_group_symop_operation_xyz
x,y,z
1/2-x,-y,1/2+z
x,-y,-z
1/2-x,y,1/2-z
-x,-y,-z
1/2+x,y,1/2-z
-x,y,z
1/2+x,-y,1/2+z
loop_
_atom_site_type_symbol
_atom_site_label
_atom_site_fract_x
_atom_site_fract_y
_atom_site_fract_z
Si Si1 0.815898 0.990878 0.826179
Si Si2 0.685823 0.123616 0.463392
Si Si3 0.814615 0.486838 0.325954
Si Si4 0.313729 0.376395 0.036755
Si Si5 0.314801 0.756548 0.172655
O O1 0.750000 0.971670 0.750000
O O2 0.770694 0.893839 0.883350
O O3 0.000000 0.993990 0.820781
O O4 0.760640 0.121433 0.854748
O O5 0.500000 0.128344 0.468527
O O6 0.752770 0.249197 0.490416
O O7 0.737543 0.000000 0.500000
O O8 0.750000 0.468393 0.250000
O O9 0.765108 0.393430 0.383916
O O10 0.775639 0.622466 0.353110
O O11 0.000000 0.483480 0.320854
O O12 0.500000 0.373496 0.032839
O O13 0.263054 0.500000 0.000000
O O14 0.250000 0.753170 0.250000
O O15 0.500000 0.769869 0.171970
#
# Coordination Sequence:
#
# PCOD9417425 Si02
#       5
#     8   8   8   8   8
#     4  10  20  35  57  85 118 152 193 244 293 346
#     4  10  24  44  62  86 120 158 201 246 294 353
#     4   9  19  35  56  86 120 153 193 242 292 348
#     4  10  23  42  63  89 121 156 198 247 298 354
#     4   9  16  28  50  81 116 150 187 230 284 343
#
# _framework density 21.373957999999998
#
# number of rings (size 3 to 8) (size 9 to 14) (size 15 to 20)
#    0.000    2.400    0.000    2.400    2.800    4.800 
#    0.000    4.000    0.000    0.000    0.000    0.000 
#    0.000    0.000    0.000    0.000    0.000    0.000 
#
# Total GULP energy -223204.910792 kJ/mol
# GULP energy per Si atom -5580.122770 kJ/mol
# Density = 2.132531 g / cm^3
# Si number density = 21.373958 Si / 1000 Ang^3
#
#
#
# Elastic Constant Matrix: (Units=GPa)
#
#
# Indices 1 2 3 4 5 6 
#
# 1 19.1057 23.7481 22.4740 0.0000 0.0000 0.0000
# 2 23.7481 158.7361 61.4061 0.0000 0.0000 0.0000
# 3 22.4740 61.4061 95.5315 0.0000 0.0000 0.0000
# 4 0.0000 0.0000 0.0000 37.6709 0.0000 0.0000
# 5 0.0000 0.0000 0.0000 0.0000 12.4678 0.0000
# 6 0.0000 0.0000 0.0000 0.0000 0.0000 335.6759
#
#
#
# Elastic Compliance Matrix: (Units=1/GPa)
#
#
# Indices 1 2 3 4 5 6 
#
# 1 0.076376 -0.005957 -0.014139 0.000000 0.000000 0.000000
# 2 -0.005957 0.008849 -0.004287 0.000000 0.000000 0.000000
# 3 -0.014139 -0.004287 0.016549 0.000000 0.000000 0.000000
# 4 0.000000 0.000000 0.000000 0.026546 0.000000 0.000000
# 5 0.000000 0.000000 0.000000 0.000000 0.080207 0.000000
# 6 0.000000 0.000000 0.000000 0.000000 0.000000 0.002979
#
#
# Mechanical properties :
#
#
# Convention : Reuss Voigt Hill
#
# Bulk Modulus (GPa) = 18.86439 54.29220 36.57829
# Shear Modulus (GPa) = 17.98945 88.21260 53.10102
#
# Velocity S-wave (km/s) = 2.90427 6.43123 4.98976
# Velocity P-wave (km/s) = 4.48235 8.97796 7.09560
#
# Compressibility (1/GPa) = 0.05300994
#
# Stress axis : x y z
#
# Youngs Moduli (GPa) = 13.09312 113.00336 60.42521
#
# Poissons Ratio (x) = 0.67316 0.85433
# Poissons Ratio (y) = 0.07800 0.25903
# Poissons Ratio (z) = 0.18512 0.48442
#
# Static dielectric constant tensor:
#      x y z
#    x 1.716820 0.000000 0.000000 
#    y 0.000000 1.799910 0.000000 
#    z 0.000000 0.000000 1.801140 
# 
# From -- ./inp_files/30374.got.cif
#   From: 2010.05.17/outbox.cif.g08.bks.cpg/sg53_16_cif.got.tgz:30374.got - 2010.06.03 12:45:16.
