data_PCOD9417539
_publ_section_title
;
Structure prediction by ZEFSAII (Michael W. Deem and Ramdas Pophale) SiO2 
 PCOD9417539
Probable space group: P M N A
;
_chemical_formula_sum "Si O2"
_cell_formula_units_Z 48
_cell_length_a 10.113708
_cell_length_b 30.123129
_cell_length_c 9.003831
_cell_angle_alpha 90.000000
_cell_angle_beta 90.000000
_cell_angle_gamma 90.000000
_cell_volume 2743.075916
_symmetry_space_group_name_H-M "P M N A"
_symmetry_group_IT_number 53
_symmetry_cell_setting 'orthorhombic'
loop_
_space_group_symop_operation_xyz
x,y,z
1/2-x,-y,1/2+z
x,-y,-z
1/2-x,y,1/2-z
-x,-y,-z
1/2+x,y,1/2-z
-x,y,z
1/2+x,-y,1/2+z
loop_
_atom_site_type_symbol
_atom_site_label
_atom_site_fract_x
_atom_site_fract_y
_atom_site_fract_z
Si Si1 0.155545 0.957970 0.107283
Si Si2 0.844119 0.874193 0.891706
Si Si3 0.500000 0.450295 0.065287
Si Si4 0.000000 0.452894 0.076502
Si Si5 0.342575 0.308967 0.605754
Si Si6 0.154324 0.206514 0.890720
Si Si7 0.253905 0.606920 0.572092
O O1 0.250000 0.958911 0.250000
O O2 0.000000 0.958871 0.151510
O O3 0.177622 0.914023 0.008658
O O4 0.179465 0.000000 0.000000
O O5 0.750000 0.878843 0.750000
O O6 0.000000 0.875250 0.849197
O O7 0.817707 0.828466 0.979613
O O8 0.500000 0.456220 0.244344
O O9 0.375490 0.419808 0.022666
O O10 0.500000 0.500000 0.000000
O O11 0.126179 0.424898 0.029750
O O12 0.000000 0.500000 0.000000
O O13 0.250000 0.313024 0.750000
O O14 0.500000 0.317303 0.632338
O O15 0.331112 0.257532 0.557165
O O16 0.283864 0.344953 0.493431
O O17 0.250000 0.199502 0.750000
O O18 0.000000 0.200439 0.845994
O O19 0.250000 0.610647 0.750000
#
# Coordination Sequence:
#
# PCOD9417539 Si02
#       7
#     8   8   4   4   8   8   8
#     4  10  21  36  55  82 114 150 193 239 287 337
#     4  10  21  36  55  81 113 148 188 233 279 334
#     4  10  22  36  54  82 108 134 178 220 257 316
#     4  10  20  36  56  76 104 142 174 212 265 310
#     4  10  21  37  57  82 110 141 179 223 268 320
#     4   9  19  36  56  79 108 141 181 226 273 324
#     4  10  21  37  56  78 108 142 173 214 266 317
#
# _framework density 17.498604
#
# number of rings (size 3 to 8) (size 9 to 14) (size 15 to 20)
#    0.000    2.167    0.833    1.500    1.167    3.667 
#    0.000    0.000    0.000    0.000    0.000    0.000 
#    0.000    0.000    0.000    0.000    0.000    0.000 
#
# Total GULP energy -267716.480323 kJ/mol
# GULP energy per Si atom -5577.426673 kJ/mol
# Density = 1.745878 g / cm^3
# Si number density = 17.498604 Si / 1000 Ang^3
#
#
#
# Elastic Constant Matrix: (Units=GPa)
#
#
# Indices 1 2 3 4 5 6 
#
# 1 148.2639 79.8781 78.7827 0.0000 0.0000 0.0000
# 2 79.8781 133.6328 70.8360 0.0000 0.0000 0.0000
# 3 78.7827 70.8360 83.8560 0.0000 0.0000 0.0000
# 4 0.0000 0.0000 0.0000 29.0868 0.0000 0.0000
# 5 0.0000 0.0000 0.0000 0.0000 -79.8318 0.0000
# 6 0.0000 0.0000 0.0000 0.0000 0.0000 25.0831
#
#
#
# Elastic Compliance Matrix: (Units=1/GPa)
#
#
# Indices 1 2 3 4 5 6 
#
# 1 0.013920 -0.002514 -0.010954 0.000000 0.000000 0.000000
# 2 -0.002514 0.014005 -0.009469 0.000000 0.000000 0.000000
# 3 -0.010954 -0.009469 0.030215 0.000000 0.000000 0.000000
# 4 0.000000 0.000000 0.000000 0.034380 0.000000 0.000000
# 5 0.000000 0.000000 0.000000 0.000000 -0.012526 0.000000
# 6 0.000000 0.000000 0.000000 0.000000 0.000000 0.039868
#
#
# Mechanical properties :
#
#
# Convention : Reuss Voigt Hill
#
# Bulk Modulus (GPa) = 81.52248 91.63847 86.58048
# Shear Modulus (GPa) = 29.44244 3.95133 16.69688
#
# Velocity S-wave (km/s) = 4.10635 1.50432 3.09234
# Velocity P-wave (km/s) = 8.31697 7.44983 7.89531
#
# Compressibility (1/GPa) = 0.01226656
#
# Stress axis : x y z
#
# Youngs Moduli (GPa) = 71.84048 71.40286 33.09616
#
# Poissons Ratio (x) = 0.17950 0.36253
# Poissons Ratio (y) = 0.18060 0.31338
# Poissons Ratio (z) = 0.78694 0.67609
#
# Static dielectric constant tensor:
#      x y z
#    x 1.690300 0.000000 0.000000 
#    y 0.000000 1.591510 0.000000 
#    z 0.000000 0.000000 1.566160 
# 
# From -- ./inp_files/6772.got.cif
#   From: 2010.05.17/outbox.cif.g08.bks.cpg/sg53_4_cif.got.tgz:6772.got - 2010.06.03 12:45:16.
