data_PCOD9417813
_publ_section_title
;
Structure prediction by ZEFSAII (Michael W. Deem and Ramdas Pophale) SiO2 
 PCOD9417813
Probable space group: P M N A
;
_chemical_formula_sum "Si O2"
_cell_formula_units_Z 64
_cell_length_a 8.693257
_cell_length_b 21.267862
_cell_length_c 19.481245
_cell_angle_alpha 90.000000
_cell_angle_beta 90.000000
_cell_angle_gamma 90.000000
_cell_volume 3601.828754
_symmetry_space_group_name_H-M "P M N A"
_symmetry_group_IT_number 53
_symmetry_cell_setting 'orthorhombic'
loop_
_space_group_symop_operation_xyz
x,y,z
1/2-x,-y,1/2+z
x,-y,-z
1/2-x,y,1/2-z
-x,-y,-z
1/2+x,y,1/2-z
-x,y,z
1/2+x,-y,1/2+z
loop_
_atom_site_type_symbol
_atom_site_label
_atom_site_fract_x
_atom_site_fract_y
_atom_site_fract_z
Si Si1 0.315966 0.958564 0.172413
Si Si2 0.184494 0.671306 0.935654
Si Si3 0.685711 0.532287 0.927514
Si Si4 0.186235 0.300342 0.585032
Si Si5 0.816030 0.085671 0.172423
Si Si6 0.314575 0.422179 0.826203
Si Si7 0.185464 0.775459 0.826855
Si Si8 0.814536 0.180218 0.672921
O O1 0.250000 0.957381 0.250000
O O2 0.500000 0.963499 0.174961
O O3 0.273300 0.889405 0.144815
O O4 0.250204 0.022144 0.139061
O O5 0.243642 0.601071 0.921741
O O6 0.237211 0.720203 0.877184
O O7 0.000000 0.671273 0.936616
O O8 0.246121 0.692951 0.009492
O O9 0.500000 0.537913 0.927000
O O10 0.733001 0.484774 0.867202
O O11 0.728077 0.500000 0.000000
O O12 0.232327 0.360937 0.630159
O O13 0.235374 0.237021 0.624210
O O14 0.000000 0.300574 0.580278
O O15 0.750000 0.086822 0.250000
O O16 0.773583 0.154760 0.144692
O O17 0.000000 0.080481 0.175005
O O18 0.250000 0.420021 0.750000
O O19 0.500000 0.421901 0.823370
O O20 0.250000 0.768576 0.750000
O O21 0.000000 0.773688 0.822294
O O22 0.750000 0.187558 0.750000
O O23 0.000000 0.182358 0.677927
#
# Coordination Sequence:
#
# PCOD9417813 Si02
#       8
#     8   8   8   8   8   8   8   8
#     4   9  15  24  40  68 100 131 168 212 257 305
#     4  11  23  37  56  82 107 134 172 220 261 305
#     4  10  20  39  60  77 103 140 176 209 252 312
#     4  10  20  37  55  74 104 145 181 210 254 314
#     4   9  15  26  45  68  96 131 166 208 257 309
#     4  10  21  36  57  82 108 137 173 215 257 304
#     4   9  20  36  53  77 107 134 170 216 264 313
#     4   9  18  30  48  73 105 139 175 218 262 307
#
# _framework density 17.768751999999999
#
# number of rings (size 3 to 8) (size 9 to 14) (size 15 to 20)
#    0.000    2.375    1.250    2.250    0.000    4.250 
#    0.000    2.500    0.000    0.750    0.000    5.250 
#    0.000    0.000    0.000    0.000    0.000    0.000 
#
# Total GULP energy -356787.807635 kJ/mol
# GULP energy per Si atom -5574.809494 kJ/mol
# Density = 1.772831 g / cm^3
# Si number density = 17.768752 Si / 1000 Ang^3
#
#
#
# Elastic Constant Matrix: (Units=GPa)
#
#
# Indices 1 2 3 4 5 6 
#
# 1 24.8239 43.9287 22.0426 0.0000 0.0000 0.0000
# 2 43.9287 218.9135 85.8772 0.0000 0.0000 0.0000
# 3 22.0426 85.8772 99.0076 0.0000 0.0000 0.0000
# 4 0.0000 0.0000 0.0000 14.1329 0.0000 0.0000
# 5 0.0000 0.0000 0.0000 0.0000 19.8577 0.0000
# 6 0.0000 0.0000 0.0000 0.0000 0.0000 24.8830
#
#
#
# Elastic Compliance Matrix: (Units=1/GPa)
#
#
# Indices 1 2 3 4 5 6 
#
# 1 0.063878 -0.010973 -0.004704 0.000000 0.000000 0.000000
# 2 -0.010973 0.008809 -0.005198 0.000000 0.000000 0.000000
# 3 -0.004704 -0.005198 0.015656 0.000000 0.000000 0.000000
# 4 0.000000 0.000000 0.000000 0.070757 0.000000 0.000000
# 5 0.000000 0.000000 0.000000 0.000000 0.050358 0.000000
# 6 0.000000 0.000000 0.000000 0.000000 0.000000 0.040188
#
#
# Mechanical properties :
#
#
# Convention : Reuss Voigt Hill
#
# Bulk Modulus (GPa) = 21.46194 71.82690 46.64442
# Shear Modulus (GPa) = 16.29052 24.50115 20.39583
#
# Velocity S-wave (km/s) = 3.03117 3.71737 3.39167
# Velocity P-wave (km/s) = 4.93511 7.67698 6.45335
#
# Compressibility (1/GPa) = 0.04659410
#
# Stress axis : x y z
#
# Youngs Moduli (GPa) = 15.65473 113.52107 63.87377
#
# Poissons Ratio (x) = 1.24567 0.30045
# Poissons Ratio (y) = 0.17178 0.33200
# Poissons Ratio (z) = 0.07364 0.59005
#
# Static dielectric constant tensor:
#      x y z
#    x 1.600660 0.000000 0.000000 
#    y 0.000000 1.654070 0.000000 
#    z 0.000000 0.000000 1.566390 
# 
# From -- ./inp_files/26816.got.cif
#   From: 2010.05.17/outbox.cif.g08.bks.cpg/sg53_14_cif.got.tgz:26816.got - 2010.06.03 12:45:16.
