data_PCOD9417086
_publ_section_title
;
Structure prediction by ZEFSAII (Michael W. Deem and Ramdas Pophale) SiO2 
 PCOD9417086
Probable space group: P M N A
;
_chemical_formula_sum "Si O2"
_cell_formula_units_Z 64
_cell_length_a 9.484540
_cell_length_b 22.277661
_cell_length_c 16.304244
_cell_angle_alpha 90.000000
_cell_angle_beta 90.000000
_cell_angle_gamma 90.000000
_cell_volume 3444.978609
_symmetry_space_group_name_H-M "P M N A"
_symmetry_group_IT_number 53
_symmetry_cell_setting 'orthorhombic'
loop_
_space_group_symop_operation_xyz
x,y,z
1/2-x,-y,1/2+z
x,-y,-z
1/2-x,y,1/2-z
-x,-y,-z
1/2+x,y,1/2-z
-x,y,z
1/2+x,-y,1/2+z
loop_
_atom_site_type_symbol
_atom_site_label
_atom_site_fract_x
_atom_site_fract_y
_atom_site_fract_z
Si Si1 0.655426 0.418075 0.361231
Si Si2 0.331015 0.252869 0.511541
Si Si3 0.166655 0.531975 0.328805
Si Si4 0.330051 0.134972 0.984113
Si Si5 0.833408 0.949149 0.331881
Si Si6 0.332679 0.092796 0.167068
Si Si7 0.839996 0.612149 0.053315
Si Si8 0.661776 0.721013 0.674530
O O1 0.500000 0.443381 0.338568
O O2 0.778331 0.463777 0.339593
O O3 0.655725 0.407242 0.458493
O O4 0.666474 0.351684 0.324486
O O5 0.500000 0.242804 0.514195
O O6 0.244469 0.196466 0.542864
O O7 0.306059 0.316971 0.554703
O O8 0.289269 0.260777 0.415818
O O9 0.250000 0.555860 0.250000
O O10 0.226388 0.571284 0.402859
O O11 0.000000 0.535086 0.321916
O O12 0.500000 0.140654 0.984521
O O13 0.287835 0.119719 0.078526
O O14 0.293222 0.084513 0.916278
O O15 0.750000 0.929806 0.250000
O O16 0.000000 0.938499 0.318951
O O17 0.813617 0.020730 0.341239
O O18 0.250000 0.111246 0.250000
O O19 0.500000 0.104747 0.177700
O O20 0.000000 0.602929 0.085948
O O21 0.750000 0.744843 0.750000
O O22 0.500000 0.739371 0.683126
#
# Coordination Sequence:
#
# PCOD9417086 Si02
#       8
#     8   8   8   8   8   8   8   8
#     4   9  18  34  55  77 102 131 163 202 252 309
#     4   9  20  37  54  73 100 135 175 215 254 301
#     4  12  24  35  51  77 105 130 162 206 255 307
#     4  10  20  34  54  79 107 141 179 219 263 309
#     4   9  18  34  55  79 107 139 177 219 265 315
#     4   9  18  33  53  79 112 146 177 213 258 310
#     4   9  19  38  58  73  97 134 169 205 254 304
#     4   9  18  32  50  73 101 135 171 207 251 302
#
# _framework density 18.577763000000001
#
# number of rings (size 3 to 8) (size 9 to 14) (size 15 to 20)
#    0.000    2.500    0.000    3.750    0.000    7.500 
#    0.000    5.625    0.000    5.250    0.000    0.000 
#    0.000    0.000    0.000    0.000    0.000    0.000 
#
# Total GULP energy -356950.135859 kJ/mol
# GULP energy per Si atom -5577.345873 kJ/mol
# Density = 1.853548 g / cm^3
# Si number density = 18.577763 Si / 1000 Ang^3
#
#
#
# Elastic Constant Matrix: (Units=GPa)
#
#
# Indices 1 2 3 4 5 6 
#
# 1 67.1622 34.1028 26.9591 0.0000 0.0000 0.0000
# 2 34.1028 62.5419 19.9497 0.0000 0.0000 0.0000
# 3 26.9591 19.9497 57.2842 0.0000 0.0000 0.0000
# 4 0.0000 0.0000 0.0000 -7.3325 0.0000 0.0000
# 5 0.0000 0.0000 0.0000 0.0000 20.3975 0.0000
# 6 0.0000 0.0000 0.0000 0.0000 0.0000 5.3767
#
#
#
# Elastic Compliance Matrix: (Units=1/GPa)
#
#
# Indices 1 2 3 4 5 6 
#
# 1 0.022995 -0.010222 -0.007262 0.000000 0.000000 0.000000
# 2 -0.010222 0.022532 -0.003036 0.000000 0.000000 0.000000
# 3 -0.007262 -0.003036 0.021932 0.000000 0.000000 0.000000
# 4 0.000000 0.000000 0.000000 -0.136380 0.000000 0.000000
# 5 0.000000 0.000000 0.000000 0.000000 0.049026 0.000000
# 6 0.000000 0.000000 0.000000 0.000000 0.000000 0.185988
#
#
# Mechanical properties :
#
#
# Convention : Reuss Voigt Hill
#
# Bulk Modulus (GPa) = 37.85303 38.77906 38.31604
# Shear Modulus (GPa) = 23.15476 10.75344 16.95410
#
# Velocity S-wave (km/s) = 3.53423 2.40851 3.02421
# Velocity P-wave (km/s) = 6.08884 5.35292 5.73270
#
# Compressibility (1/GPa) = 0.02641797
#
# Stress axis : x y z
#
# Youngs Moduli (GPa) = 43.48819 44.38192 45.59600
#
# Poissons Ratio (x) = 0.45368 0.33111
# Poissons Ratio (y) = 0.44454 0.13843
# Poissons Ratio (z) = 0.31580 0.13475
#
# Static dielectric constant tensor:
#      x y z
#    x 1.635850 0.000000 0.000000 
#    y 0.000000 1.641610 0.000000 
#    z 0.000000 0.000000 1.669560 
# 
# From -- ./inp_files/26825.got.cif
#   From: 2010.05.17/outbox.cif.g08.bks.cpg/sg53_14_cif.got.tgz:26825.got - 2010.06.03 12:45:16.
