data_PCOD9417016
_publ_section_title
;
Structure prediction by ZEFSAII (Michael W. Deem and Ramdas Pophale) SiO2 
 PCOD9417016
Probable space group: P M N A
;
_chemical_formula_sum "Si O2"
_cell_formula_units_Z 48
_cell_length_a 19.574572
_cell_length_b 8.578126
_cell_length_c 16.250023
_cell_angle_alpha 90.000000
_cell_angle_beta 90.000000
_cell_angle_gamma 90.000000
_cell_volume 2728.592468
_symmetry_space_group_name_H-M "P M N A"
_symmetry_group_IT_number 53
_symmetry_cell_setting 'orthorhombic'
loop_
_space_group_symop_operation_xyz
x,y,z
1/2-x,-y,1/2+z
x,-y,-z
1/2-x,y,1/2-z
-x,-y,-z
1/2+x,y,1/2-z
-x,y,z
1/2+x,-y,1/2+z
loop_
_atom_site_type_symbol
_atom_site_label
_atom_site_fract_x
_atom_site_fract_y
_atom_site_fract_z
Si Si1 0.077940 0.758347 0.230974
Si Si2 0.696490 0.605610 0.176023
Si Si3 0.074522 0.486800 0.901748
Si Si4 0.788046 0.670959 0.877024
Si Si5 0.755091 0.844400 0.459025
Si Si6 0.686675 0.997634 0.308596
O O1 0.122048 0.637294 0.285927
O O2 0.077103 0.683600 0.139326
O O3 0.119129 0.920342 0.228515
O O4 0.000000 0.774385 0.258459
O O5 0.750000 0.639948 0.250000
O O6 0.722634 0.434496 0.147731
O O7 0.704289 0.726611 0.100441
O O8 0.144505 0.566478 0.875088
O O9 0.000000 0.552823 0.873956
O O10 0.074356 0.500000 0.000000
O O11 0.807026 0.818227 0.820862
O O12 0.774902 0.740634 0.967639
O O13 0.699473 0.919392 0.397568
O O14 0.789316 0.000000 0.500000
O O15 0.750000 0.958202 0.250000
#
# Coordination Sequence:
#
# PCOD9417016 Si02
#       6
#     8   8   8   8   8   8
#     4  11  22  36  58  81 115 160 190 225 290 346
#     4  12  19  37  59  83 114 148 188 243 285 328
#     4  10  20  34  52  81 121 155 183 221 280 348
#     4  11  22  32  59  87 113 148 192 239 287 338
#     4  10  20  34  57  87 112 146 192 239 287 338
#     4  11  20  36  56  84 112 143 192 236 281 333
#
# _framework density 17.591487000000001
#
# number of rings (size 3 to 8) (size 9 to 14) (size 15 to 20)
#    0.000    1.167    5.000    3.000    0.000    0.667 
#    0.000    0.000    0.000    8.500    0.000    0.000 
#    0.000    0.000    0.000    0.000    0.000    0.000 
#
# Total GULP energy -267221.392607 kJ/mol
# GULP energy per Si atom -5567.112346 kJ/mol
# Density = 1.755145 g / cm^3
# Si number density = 17.591487 Si / 1000 Ang^3
#
#
#
# Elastic Constant Matrix: (Units=GPa)
#
#
# Indices 1 2 3 4 5 6 
#
# 1 130.1784 49.9558 36.5427 0.0000 0.0000 0.0000
# 2 49.9558 100.6500 34.1367 0.0000 0.0000 0.0000
# 3 36.5427 34.1367 63.3836 0.0000 0.0000 0.0000
# 4 0.0000 0.0000 0.0000 37.9771 0.0000 0.0000
# 5 0.0000 0.0000 0.0000 0.0000 15.3017 0.0000
# 6 0.0000 0.0000 0.0000 0.0000 0.0000 4.6434
#
#
#
# Elastic Compliance Matrix: (Units=1/GPa)
#
#
# Indices 1 2 3 4 5 6 
#
# 1 0.010207 -0.003756 -0.003862 0.000000 0.000000 0.000000
# 2 -0.003756 0.013538 -0.005126 0.000000 0.000000 0.000000
# 3 -0.003862 -0.005126 0.020764 0.000000 0.000000 0.000000
# 4 0.000000 0.000000 0.000000 0.026332 0.000000 0.000000
# 5 0.000000 0.000000 0.000000 0.000000 0.065352 0.000000
# 6 0.000000 0.000000 0.000000 0.000000 0.000000 0.215358
#
#
# Mechanical properties :
#
#
# Convention : Reuss Voigt Hill
#
# Bulk Modulus (GPa) = 52.57109 59.49805 56.03457
# Shear Modulus (GPa) = 13.04190 23.15624 18.09907
#
# Velocity S-wave (km/s) = 2.72578 3.63207 3.21106
# Velocity P-wave (km/s) = 6.31314 7.17528 6.75797
#
# Compressibility (1/GPa) = 0.01902186
#
# Stress axis : x y z
#
# Youngs Moduli (GPa) = 97.96866 73.86454 48.16053
#
# Poissons Ratio (x) = 0.27747 0.18598
# Poissons Ratio (y) = 0.36802 0.24685
# Poissons Ratio (z) = 0.37833 0.37860
#
# Static dielectric constant tensor:
#      x y z
#    x 1.592780 0.000000 0.000000 
#    y 0.000000 1.663600 0.000000 
#    z 0.000000 0.000000 1.652510 
# 
# From -- ./inp_files/24204.got.cif
#   From: 2010.05.17/outbox.cif.g08.bks.cpg/sg53_13_cif.got.tgz:24204.got - 2010.06.03 12:45:16.
