data_PCOD9417185
_publ_section_title
;
Structure prediction by ZEFSAII (Michael W. Deem and Ramdas Pophale) SiO2 
 PCOD9417185
Probable space group: P M N A
;
_chemical_formula_sum "Si O2"
_cell_formula_units_Z 64
_cell_length_a 8.698689
_cell_length_b 21.068808
_cell_length_c 17.853535
_cell_angle_alpha 90.000000
_cell_angle_beta 90.000000
_cell_angle_gamma 90.000000
_cell_volume 3272.035363
_symmetry_space_group_name_H-M "P M N A"
_symmetry_group_IT_number 53
_symmetry_cell_setting 'orthorhombic'
loop_
_space_group_symop_operation_xyz
x,y,z
1/2-x,-y,1/2+z
x,-y,-z
1/2-x,y,1/2-z
-x,-y,-z
1/2+x,y,1/2-z
-x,y,z
1/2+x,-y,1/2+z
loop_
_atom_site_type_symbol
_atom_site_label
_atom_site_fract_x
_atom_site_fract_y
_atom_site_fract_z
Si Si1 0.316254 0.612055 0.458303
Si Si2 0.183666 0.613200 0.625149
Si Si3 0.816216 0.016380 0.672610
Si Si4 0.817137 0.115305 0.121018
Si Si5 0.816651 0.481539 0.827197
Si Si6 0.684415 0.881776 0.047429
Si Si7 0.183657 0.246940 0.373333
Si Si8 0.682916 0.246648 0.541378
O O1 0.500000 0.604510 0.472729
O O2 0.231131 0.608356 0.537609
O O3 0.266082 0.559151 0.399299
O O4 0.293855 0.683162 0.425778
O O5 0.261802 0.553749 0.664193
O O6 0.231915 0.683161 0.654701
O O7 0.000000 0.608860 0.631979
O O8 0.750000 0.042964 0.750000
O O9 0.774264 0.060643 0.602167
O O10 0.000000 0.013302 0.676285
O O11 0.749994 0.946146 0.661250
O O12 0.759395 0.182190 0.155171
O O13 0.000000 0.114318 0.122125
O O14 0.758030 0.111199 0.034842
O O15 0.750000 0.455122 0.750000
O O16 0.000000 0.479458 0.824890
O O17 0.500000 0.879753 0.039114
O O18 0.745453 0.814897 0.080100
O O19 0.234604 0.248609 0.460516
O O20 0.000000 0.241720 0.367692
O O21 0.500000 0.237337 0.530817
#
# Coordination Sequence:
#
# PCOD9417185 Si02
#       8
#     8   8   8   8   8   8   8   8
#     4   9  19  35  55  80 108 140 176 217 266 315
#     4  10  20  34  56  84 109 137 175 218 263 315
#     4  11  24  40  56  76 107 144 180 221 266 314
#     4  11  21  34  57  85 110 139 177 218 261 313
#     4  11  23  38  54  74 106 144 181 222 266 314
#     4  10  20  35  56  82 110 140 176 218 265 313
#     4   9  17  31  52  79 110 138 170 215 264 312
#     4   9  16  29  52  80 108 136 172 217 263 312
#
# _framework density 19.55969
#
# number of rings (size 3 to 8) (size 9 to 14) (size 15 to 20)
#    0.000    2.000    0.000    5.625    0.000    8.000 
#    0.000    1.250    0.000    6.000    0.000    0.000 
#    0.000    0.000    0.000    0.000    0.000    0.000 
#
# Total GULP energy -357279.956471 kJ/mol
# GULP energy per Si atom -5582.499320 kJ/mol
# Density = 1.951517 g / cm^3
# Si number density = 19.559690 Si / 1000 Ang^3
#
#
#
# Elastic Constant Matrix: (Units=GPa)
#
#
# Indices 1 2 3 4 5 6 
#
# 1 50.1086 18.5730 17.5191 0.0000 0.0000 0.0000
# 2 18.5730 96.8112 25.7249 0.0000 0.0000 0.0000
# 3 17.5191 25.7249 59.9874 0.0000 0.0000 0.0000
# 4 0.0000 0.0000 0.0000 -20.0971 0.0000 0.0000
# 5 0.0000 0.0000 0.0000 0.0000 21.9763 0.0000
# 6 0.0000 0.0000 0.0000 0.0000 0.0000 43.6875
#
#
#
# Elastic Compliance Matrix: (Units=1/GPa)
#
#
# Indices 1 2 3 4 5 6 
#
# 1 0.022954 -0.002960 -0.005434 0.000000 0.000000 0.000000
# 2 -0.002960 0.012039 -0.004299 0.000000 0.000000 0.000000
# 3 -0.005434 -0.004299 0.020101 0.000000 0.000000 0.000000
# 4 0.000000 0.000000 0.000000 -0.049758 0.000000 0.000000
# 5 0.000000 0.000000 0.000000 0.000000 0.045503 0.000000
# 6 0.000000 0.000000 0.000000 0.000000 0.000000 0.022890
#
#
# Mechanical properties :
#
#
# Convention : Reuss Voigt Hill
#
# Bulk Modulus (GPa) = 33.66027 36.72679 35.19353
# Shear Modulus (GPa) = 45.86455 18.78601 32.32528
#
# Velocity S-wave (km/s) = 4.84762 3.10247 4.06969
# Velocity P-wave (km/s) = 6.96986 5.62595 6.33365
#
# Compressibility (1/GPa) = 0.02970862
#
# Stress axis : x y z
#
# Youngs Moduli (GPa) = 43.56614 83.06055 49.74958
#
# Poissons Ratio (x) = 0.24582 0.27036
# Poissons Ratio (y) = 0.12894 0.21386
# Poissons Ratio (z) = 0.23675 0.35705
#
# Static dielectric constant tensor:
#      x y z
#    x 1.651840 0.000000 0.000000 
#    y 0.000000 1.734520 0.000000 
#    z 0.000000 0.000000 1.676860 
# 
# From -- ./inp_files/26930.got.cif
#   From: 2010.05.17/outbox.cif.g08.bks.cpg/sg53_14_cif.got.tgz:26930.got - 2010.06.03 12:45:16.
