data_PCOD9417573
_publ_section_title
;
Structure prediction by ZEFSAII (Michael W. Deem and Ramdas Pophale) SiO2 
 PCOD9417573
Probable space group: P M N A
;
_chemical_formula_sum "Si O2"
_cell_formula_units_Z 40
_cell_length_a 16.944973
_cell_length_b 12.996455
_cell_length_c 9.080337
_cell_angle_alpha 90.000000
_cell_angle_beta 90.000000
_cell_angle_gamma 90.000000
_cell_volume 1999.713394
_symmetry_space_group_name_H-M "P M N A"
_symmetry_group_IT_number 53
_symmetry_cell_setting 'orthorhombic'
loop_
_space_group_symop_operation_xyz
x,y,z
1/2-x,-y,1/2+z
x,-y,-z
1/2-x,y,1/2-z
-x,-y,-z
1/2+x,y,1/2-z
-x,y,z
1/2+x,-y,1/2+z
loop_
_atom_site_type_symbol
_atom_site_label
_atom_site_fract_x
_atom_site_fract_y
_atom_site_fract_z
Si Si1 0.668415 0.974594 0.333986
Si Si2 0.906301 0.096851 0.405610
Si Si3 0.407496 0.683185 0.053321
Si Si4 0.666538 0.256886 0.662275
Si Si5 0.747293 0.606614 0.572519
O O1 0.750000 0.966919 0.250000
O O2 0.632939 0.859424 0.336347
O O3 0.684269 0.000000 0.500000
O O4 0.622495 0.068071 0.256639
O O5 0.887022 0.203101 0.486020
O O6 0.000000 0.093023 0.403878
O O7 0.876491 0.000000 0.500000
O O8 0.500000 0.661224 0.021998
O O9 0.391638 0.681430 0.228980
O O10 0.338387 0.617484 0.979564
O O11 0.750000 0.257002 0.750000
O O12 0.692075 0.305716 0.505392
O O13 0.718199 0.500000 0.500000
O O14 0.750000 0.608428 0.750000
#
# Coordination Sequence:
#
# PCOD9417573 Si02
#       5
#     8   8   8   8   8
#     4  11  23  32  54  85 121 162 206 253 293 353
#     4  10  20  36  56  82 121 167 201 236 296 360
#     4  10  21  39  64  91 124 164 209 255 307 372
#     4   9  20  37  57  85 118 160 203 251 307 364
#     4  11  24  43  68  92 121 158 206 264 323 380
#
# _framework density 20.002866999999998
#
# number of rings (size 3 to 8) (size 9 to 14) (size 15 to 20)
#    0.000    1.800    2.000    2.400    8.400    0.800 
#    0.000    1.000    0.000    2.400    0.000    0.000 
#    0.000    0.000    0.000    0.000    0.000    0.000 
#
# Total GULP energy -222813.687075 kJ/mol
# GULP energy per Si atom -5570.342177 kJ/mol
# Density = 1.995734 g / cm^3
# Si number density = 20.002867 Si / 1000 Ang^3
#
#
#
# Elastic Constant Matrix: (Units=GPa)
#
#
# Indices 1 2 3 4 5 6 
#
# 1 46.4844 17.4618 12.4378 0.0000 0.0000 0.0000
# 2 17.4618 55.2117 26.8210 0.0000 0.0000 0.0000
# 3 12.4378 26.8210 163.5466 0.0000 0.0000 0.0000
# 4 0.0000 0.0000 0.0000 25.5429 0.0000 0.0000
# 5 0.0000 0.0000 0.0000 0.0000 20.3974 0.0000
# 6 0.0000 0.0000 0.0000 0.0000 0.0000 32.3533
#
#
#
# Elastic Compliance Matrix: (Units=1/GPa)
#
#
# Indices 1 2 3 4 5 6 
#
# 1 0.024475 -0.007428 -0.000643 0.000000 0.000000 0.000000
# 2 -0.007428 0.021934 -0.003032 0.000000 0.000000 0.000000
# 3 -0.000643 -0.003032 0.006661 0.000000 0.000000 0.000000
# 4 0.000000 0.000000 0.000000 0.039150 0.000000 0.000000
# 5 0.000000 0.000000 0.000000 0.000000 0.049026 0.000000
# 6 0.000000 0.000000 0.000000 0.000000 0.000000 0.030909
#
#
# Mechanical properties :
#
#
# Convention : Reuss Voigt Hill
#
# Bulk Modulus (GPa) = 32.40140 42.07598 37.23869
# Shear Modulus (GPa) = 24.43199 29.56020 26.99610
#
# Velocity S-wave (km/s) = 3.49868 3.84838 3.67769
# Velocity P-wave (km/s) = 5.70566 6.38963 6.05731
#
# Compressibility (1/GPa) = 0.03086287
#
# Stress axis : x y z
#
# Youngs Moduli (GPa) = 40.85776 45.59029 150.13551
#
# Poissons Ratio (x) = 0.33866 0.09656
# Poissons Ratio (y) = 0.30351 0.45525
# Poissons Ratio (z) = 0.02628 0.13824
#
# Static dielectric constant tensor:
#      x y z
#    x 1.690710 0.000000 0.000000 
#    y 0.000000 1.862530 0.000000 
#    z 0.000000 0.000000 1.612660 
# 
# From -- ./inp_files/9670.got.cif
#   From: 2010.05.17/outbox.cif.g08.bks.cpg/sg53_5_cif.got.tgz:9670.got - 2010.06.03 12:45:16.
