data_PCOD9417419
_publ_section_title
;
Structure prediction by ZEFSAII (Michael W. Deem and Ramdas Pophale) SiO2 
 PCOD9417419
Probable space group: P M N A
;
_chemical_formula_sum "Si O2"
_cell_formula_units_Z 56
_cell_length_a 7.727396
_cell_length_b 19.619760
_cell_length_c 16.484068
_cell_angle_alpha 90.000000
_cell_angle_beta 90.000000
_cell_angle_gamma 90.000000
_cell_volume 2499.143862
_symmetry_space_group_name_H-M "P M N A"
_symmetry_group_IT_number 53
_symmetry_cell_setting 'orthorhombic'
loop_
_space_group_symop_operation_xyz
x,y,z
1/2-x,-y,1/2+z
x,-y,-z
1/2-x,y,1/2-z
-x,-y,-z
1/2+x,y,1/2-z
-x,y,z
1/2+x,-y,1/2+z
loop_
_atom_site_type_symbol
_atom_site_label
_atom_site_fract_x
_atom_site_fract_y
_atom_site_fract_z
Si Si1 0.205233 0.425972 0.338491
Si Si2 0.710322 0.708375 0.923794
Si Si3 0.300202 0.301350 0.602029
Si Si4 0.707285 0.158082 0.159340
Si Si5 0.700095 0.450892 0.570582
Si Si6 0.294216 0.161752 0.660939
Si Si7 0.292074 0.077376 0.000883
O O1 0.250000 0.399811 0.250000
O O2 0.264401 0.367810 0.400604
O O3 0.292673 0.498253 0.353717
O O4 0.000000 0.434144 0.346355
O O5 0.500000 0.709111 0.930703
O O6 0.763111 0.763923 0.857404
O O7 0.789767 0.726358 0.010114
O O8 0.500000 0.310990 0.627971
O O9 0.221679 0.377531 0.593733
O O10 0.220817 0.239324 0.653095
O O11 0.750000 0.134826 0.250000
O O12 0.500000 0.157585 0.154213
O O13 0.773583 0.115245 0.082158
O O14 0.778951 0.500000 0.500000
O O15 0.500000 0.438263 0.547085
O O16 0.250000 0.133588 0.750000
O O17 0.500000 0.167743 0.655836
O O18 0.241078 0.116687 0.583517
O O19 0.500000 0.074803 0.008756
O O20 0.226011 0.000000 0.000000
#
# Coordination Sequence:
#
# PCOD9417419 Si02
#       7
#     8   8   8   8   8   8   8
#     4  11  23  36  53  80 113 149 193 241 296 357
#     4  10  20  35  57  84 114 152 196 244 298 356
#     4  10  21  37  60  88 115 152 202 252 305 361
#     4  10  21  37  59  89 123 158 197 242 295 353
#     4  10  20  36  57  80 111 150 193 246 306 362
#     4  11  24  42  66  94 125 164 211 259 308 365
#     4  10  22  42  67  95 129 165 201 246 301 360
#
# _framework density 22.407674
#
# number of rings (size 3 to 8) (size 9 to 14) (size 15 to 20)
#    0.000    1.714    2.857    1.286    0.000    4.571 
#    0.000    2.857    0.000    0.000    0.000    0.000 
#    0.000    0.000    0.000    0.000    0.000    0.000 
#
# Total GULP energy -312543.741165 kJ/mol
# GULP energy per Si atom -5581.138235 kJ/mol
# Density = 2.235667 g / cm^3
# Si number density = 22.407674 Si / 1000 Ang^3
#
#
#
# Elastic Constant Matrix: (Units=GPa)
#
#
# Indices 1 2 3 4 5 6 
#
# 1 45.2863 12.0706 -4.2121 0.0000 0.0000 0.0000
# 2 12.0706 153.4641 58.8567 0.0000 0.0000 0.0000
# 3 -4.2121 58.8567 128.3845 0.0000 0.0000 0.0000
# 4 0.0000 0.0000 0.0000 19.0564 0.0000 0.0000
# 5 0.0000 0.0000 0.0000 0.0000 25.2778 0.0000
# 6 0.0000 0.0000 0.0000 0.0000 0.0000 9.0227
#
#
#
# Elastic Compliance Matrix: (Units=1/GPa)
#
#
# Indices 1 2 3 4 5 6 
#
# 1 0.022937 -0.002539 0.001917 0.000000 0.000000 0.000000
# 2 -0.002539 0.008187 -0.003837 0.000000 0.000000 0.000000
# 3 0.001917 -0.003837 0.009611 0.000000 0.000000 0.000000
# 4 0.000000 0.000000 0.000000 0.052476 0.000000 0.000000
# 5 0.000000 0.000000 0.000000 0.000000 0.039560 0.000000
# 6 0.000000 0.000000 0.000000 0.000000 0.000000 0.110832
#
#
# Mechanical properties :
#
#
# Convention : Reuss Voigt Hill
#
# Bulk Modulus (GPa) = 31.43030 51.17392 41.30211
# Shear Modulus (GPa) = 19.00219 28.03268 23.51743
#
# Velocity S-wave (km/s) = 2.91524 3.54083 3.24315
# Velocity P-wave (km/s) = 5.03870 6.29316 5.70054
#
# Compressibility (1/GPa) = 0.03181643
#
# Stress axis : x y z
#
# Youngs Moduli (GPa) = 43.59817 122.13957 104.04861
#
# Poissons Ratio (x) = 0.31012 -0.19941
# Poissons Ratio (y) = 0.11070 0.39921
# Poissons Ratio (z) = -0.08356 0.46862
#
# Static dielectric constant tensor:
#      x y z
#    x 1.854330 0.000000 0.000000 
#    y 0.000000 1.870650 0.000000 
#    z 0.000000 0.000000 1.857640 
# 
# From -- ./inp_files/20657.got.cif
#   From: 2010.05.17/outbox.cif.g08.bks.cpg/sg53_11_cif.got.tgz:20657.got - 2010.06.03 12:45:16.
