data_PCOD9417972
_publ_section_title
;
Structure prediction by ZEFSAII (Michael W. Deem and Ramdas Pophale) SiO2 
 PCOD9417972
Probable space group: P M N A
;
_chemical_formula_sum "Si O2"
_cell_formula_units_Z 40
_cell_length_a 14.623659
_cell_length_b 6.992938
_cell_length_c 15.076251
_cell_angle_alpha 90.000000
_cell_angle_beta 90.000000
_cell_angle_gamma 90.000000
_cell_volume 1541.732717
_symmetry_space_group_name_H-M "P M N A"
_symmetry_group_IT_number 53
_symmetry_cell_setting 'orthorhombic'
loop_
_space_group_symop_operation_xyz
x,y,z
1/2-x,-y,1/2+z
x,-y,-z
1/2-x,y,1/2-z
-x,-y,-z
1/2+x,y,1/2-z
-x,y,z
1/2+x,-y,1/2+z
loop_
_atom_site_type_symbol
_atom_site_label
_atom_site_fract_x
_atom_site_fract_y
_atom_site_fract_z
Si Si1 0.000000 0.262119 0.182417
Si Si2 0.789871 0.220334 0.511000
Si Si3 0.195036 0.299667 0.163455
Si Si4 0.000000 0.135079 0.724242
Si Si5 0.000000 0.721089 0.475872
Si Si6 0.500000 0.730591 0.486685
Si Si7 0.341394 0.155481 0.645865
O O1 0.093282 0.378192 0.178892
O O2 0.000000 0.172785 0.083428
O O3 0.000000 0.096788 0.257028
O O4 0.741589 0.335686 0.431359
O O5 0.898317 0.220914 0.492784
O O6 0.751584 0.257159 0.610881
O O7 0.761394 0.000000 0.500000
O O8 0.250000 0.354835 0.250000
O O9 0.181673 0.067521 0.164268
O O10 0.000000 0.204770 0.624682
O O11 0.906738 0.204400 0.771326
O O12 0.000000 0.500000 0.500000
O O13 0.500000 0.500000 0.500000
O O14 0.410027 0.795673 0.435106
#
# Coordination Sequence:
#
# PCOD9417972 Si02
#       7
#     4   8   8   4   4   4   8
#     4  10  20  37  63  96 138 160 239 296 363 411
#     4  10  22  40  70  98 128 176 235 298 357 424
#     4  10  21  36  65 104 125 169 224 304 354 410
#     4   9  22  37  71 101 123 174 229 304 348 415
#     4  12  28  47  64  93 147 197 233 280 374 454
#     4  11  21  38  63  99 139 183 213 292 391 456
#     4   9  20  38  66  95 133 159 236 289 362 415
#
# _framework density 25.944834
#
# number of rings (size 3 to 8) (size 9 to 14) (size 15 to 20)
#    0.000    2.000    2.000    0.900   14.000    3.200 
#    0.000    4.000    0.000    1.200    0.000    0.000 
#    0.000    0.000    0.000    0.000    0.000    0.000 
#
# Total GULP energy -223348.920260 kJ/mol
# GULP energy per Si atom -5583.723006 kJ/mol
# Density = 2.588578 g / cm^3
# Si number density = 25.944834 Si / 1000 Ang^3
#
#
#
# Elastic Constant Matrix: (Units=GPa)
#
#
# Indices 1 2 3 4 5 6 
#
# 1 194.6173 -10.2428 48.7156 0.0000 0.0000 0.0000
# 2 -10.2428 103.8139 0.0965 0.0000 0.0000 0.0000
# 3 48.7156 0.0965 98.9848 0.0000 0.0000 0.0000
# 4 0.0000 0.0000 0.0000 22.5929 0.0000 0.0000
# 5 0.0000 0.0000 0.0000 0.0000 35.8416 0.0000
# 6 0.0000 0.0000 0.0000 0.0000 0.0000 -212.3024
#
#
#
# Elastic Compliance Matrix: (Units=1/GPa)
#
#
# Indices 1 2 3 4 5 6 
#
# 1 0.005895 0.000584 -0.002902 0.000000 0.000000 0.000000
# 2 0.000584 0.009691 -0.000297 0.000000 0.000000 0.000000
# 3 -0.002902 -0.000297 0.011531 0.000000 0.000000 0.000000
# 4 0.000000 0.000000 0.000000 0.044262 0.000000 0.000000
# 5 0.000000 0.000000 0.000000 0.000000 0.027901 0.000000
# 6 0.000000 0.000000 0.000000 0.000000 0.000000 -0.004710
#
#
# Mechanical properties :
#
#
# Convention : Reuss Voigt Hill
#
# Bulk Modulus (GPa) = 45.68778 52.72830 49.20804
# Shear Modulus (GPa) = 46.68779 -6.85045 19.91867
#
# Velocity S-wave (km/s) = 4.24666 -1.62669 2.77380
# Velocity P-wave (km/s) = 6.45703 4.10356 5.40983
#
# Compressibility (1/GPa) = 0.02188769
#
# Stress axis : x y z
#
# Youngs Moduli (GPa) = 169.62182 103.19330 86.72202
#
# Poissons Ratio (x) = -0.06030 0.25167
# Poissons Ratio (y) = -0.09912 0.02576
# Poissons Ratio (z) = 0.49225 0.03065
#
# Static dielectric constant tensor:
#      x y z
#    x 2.216800 0.000000 0.000000 
#    y 0.000000 1.754780 0.000000 
#    z 0.000000 0.000000 2.002190 
# 
# From -- ./inp_files/22526.got.cif
#   From: 2010.05.17/outbox.cif.g08.bks.cpg/sg53_12_cif.got.tgz:22526.got - 2010.06.03 12:45:16.
