data_PCOD9417413
_publ_section_title
;
Structure prediction by ZEFSAII (Michael W. Deem and Ramdas Pophale) SiO2 
 PCOD9417413
Probable space group: P M N A
;
_chemical_formula_sum "Si O2"
_cell_formula_units_Z 56
_cell_length_a 7.758813
_cell_length_b 14.970021
_cell_length_c 21.931752
_cell_angle_alpha 90.000000
_cell_angle_beta 90.000000
_cell_angle_gamma 90.000000
_cell_volume 2547.364081
_symmetry_space_group_name_H-M "P M N A"
_symmetry_group_IT_number 53
_symmetry_cell_setting 'orthorhombic'
loop_
_space_group_symop_operation_xyz
x,y,z
1/2-x,-y,1/2+z
x,-y,-z
1/2-x,y,1/2-z
-x,-y,-z
1/2+x,y,1/2-z
-x,y,z
1/2+x,-y,1/2+z
loop_
_atom_site_type_symbol
_atom_site_label
_atom_site_fract_x
_atom_site_fract_y
_atom_site_fract_z
Si Si1 0.704939 0.369575 0.683318
Si Si2 0.693385 0.567298 0.664402
Si Si3 0.706037 0.737723 0.062109
Si Si4 0.205630 0.952123 0.822040
Si Si5 0.707173 0.059992 0.942430
Si Si6 0.794209 0.237557 0.181482
Si Si7 0.698189 0.406604 0.034165
O O1 0.750000 0.333077 0.750000
O O2 0.500000 0.377572 0.677612
O O3 0.776604 0.471765 0.679663
O O4 0.763057 0.308176 0.627580
O O5 0.500000 0.567836 0.691670
O O6 0.780742 0.662649 0.677475
O O7 0.687180 0.573775 0.592046
O O8 0.500000 0.740924 0.054782
O O9 0.774002 0.838012 0.055614
O O10 0.768435 0.670694 0.009415
O O11 0.250000 0.972170 0.750000
O O12 0.270293 0.854674 0.848261
O O13 0.000000 0.945602 0.821363
O O14 0.256251 0.021431 0.874733
O O15 0.500000 0.063345 0.948246
O O16 0.770527 0.000000 0.000000
O O17 0.750000 0.212617 0.250000
O O18 0.000000 0.246057 0.169448
O O19 0.500000 0.384125 0.052758
O O20 0.688504 0.500000 0.000000
#
# Coordination Sequence:
#
# PCOD9417413 Si02
#       7
#     8   8   8   8   8   8   8
#     4  11  23  38  59  86 117 155 196 239 285 338
#     4  10  21  35  54  83 118 152 188 231 281 334
#     4  10  22  41  60  84 117 152 191 236 288 349
#     4  10  21  39  63  89 119 156 200 248 303 363
#     4  10  23  42  64  90 121 155 197 250 306 361
#     4   9  19  35  54  82 116 150 187 230 280 338
#     4  10  20  35  57  83 111 146 188 229 275 334
#
# _framework density 21.983509000000002
#
# number of rings (size 3 to 8) (size 9 to 14) (size 15 to 20)
#    0.000    2.000    1.429    1.286    2.000    4.000 
#    0.000    0.000    0.000    0.000    0.000    0.000 
#    0.000    0.000    0.000    0.000    0.000    0.000 
#
# Total GULP energy -311915.281622 kJ/mol
# GULP energy per Si atom -5569.915743 kJ/mol
# Density = 2.193347 g / cm^3
# Si number density = 21.983509 Si / 1000 Ang^3
#
#
#
# Elastic Constant Matrix: (Units=GPa)
#
#
# Indices 1 2 3 4 5 6 
#
# 1 40.4626 7.8758 1.5689 0.0000 0.0000 0.0000
# 2 7.8758 148.3910 44.0196 0.0000 0.0000 0.0000
# 3 1.5689 44.0196 104.5939 0.0000 0.0000 0.0000
# 4 0.0000 0.0000 0.0000 32.0018 0.0000 0.0000
# 5 0.0000 0.0000 0.0000 0.0000 28.0081 0.0000
# 6 0.0000 0.0000 0.0000 0.0000 0.0000 3.2907
#
#
#
# Elastic Compliance Matrix: (Units=1/GPa)
#
#
# Indices 1 2 3 4 5 6 
#
# 1 0.024976 -0.001388 0.000209 0.000000 0.000000 0.000000
# 2 -0.001388 0.007777 -0.003252 0.000000 0.000000 0.000000
# 3 0.000209 -0.003252 0.010926 0.000000 0.000000 0.000000
# 4 0.000000 0.000000 0.000000 0.031248 0.000000 0.000000
# 5 0.000000 0.000000 0.000000 0.000000 0.035704 0.000000
# 6 0.000000 0.000000 0.000000 0.000000 0.000000 0.303884
#
#
# Mechanical properties :
#
#
# Convention : Reuss Voigt Hill
#
# Bulk Modulus (GPa) = 28.72028 44.48623 36.60326
# Shear Modulus (GPa) = 11.49467 28.65902 20.07685
#
# Velocity S-wave (km/s) = 2.28913 3.61454 3.02531
# Velocity P-wave (km/s) = 4.48103 6.14003 5.37493
#
# Compressibility (1/GPa) = 0.03481860
#
# Stress axis : x y z
#
# Youngs Moduli (GPa) = 40.03817 128.57739 91.52100
#
# Poissons Ratio (x) = 0.17843 -0.01917
# Poissons Ratio (y) = 0.05556 0.29766
# Poissons Ratio (z) = -0.00838 0.41819
#
# Static dielectric constant tensor:
#      x y z
#    x 1.884360 0.000000 0.000000 
#    y 0.000000 1.992740 0.000000 
#    z 0.000000 0.000000 1.822130 
# 
# From -- ./inp_files/30852.got.cif
#   From: 2010.05.17/outbox.cif.g08.bks.cpg/sg53_16_cif.got.tgz:30852.got - 2010.06.03 12:45:16.
