data_PCOD9417787
_publ_section_title
;
Structure prediction by ZEFSAII (Michael W. Deem and Ramdas Pophale) SiO2 
 PCOD9417787
Probable space group: P M N A
;
_chemical_formula_sum "Si O2"
_cell_formula_units_Z 40
_cell_length_a 14.074587
_cell_length_b 7.684669
_cell_length_c 14.871071
_cell_angle_alpha 90.000000
_cell_angle_beta 90.000000
_cell_angle_gamma 90.000000
_cell_volume 1608.433363
_symmetry_space_group_name_H-M "P M N A"
_symmetry_group_IT_number 53
_symmetry_cell_setting 'orthorhombic'
loop_
_space_group_symop_operation_xyz
x,y,z
1/2-x,-y,1/2+z
x,-y,-z
1/2-x,y,1/2-z
-x,-y,-z
1/2+x,y,1/2-z
-x,y,z
1/2+x,-y,1/2+z
loop_
_atom_site_type_symbol
_atom_site_label
_atom_site_fract_x
_atom_site_fract_y
_atom_site_fract_z
Si Si1 0.113518 0.229917 0.269702
Si Si2 0.611427 0.843831 0.570207
Si Si3 0.887727 0.381996 0.784350
Si Si4 0.250026 0.658448 0.455731
Si Si5 0.111093 0.092053 0.627444
O O1 0.135564 0.136612 0.174573
O O2 0.137790 0.433422 0.263404
O O3 0.000000 0.226970 0.278418
O O4 0.147563 0.099291 0.345992
O O5 0.500000 0.803711 0.566988
O O6 0.672442 0.688194 0.532747
O O7 0.626982 0.000000 0.500000
O O8 0.813056 0.355416 0.864783
O O9 0.883657 0.222581 0.714187
O O10 0.000000 0.392939 0.814413
O O11 0.192097 0.500000 0.500000
O O12 0.178623 0.816737 0.443159
O O13 0.000000 0.086425 0.601428
#
# Coordination Sequence:
#
# PCOD9417787 Si02
#       5
#     8   8   8   8   8
#     4   9  18  37  64  89 117 163 217 268 318 373
#     4  10  20  36  61  95 131 163 203 266 340 397
#     4  10  20  38  65  94 124 162 214 272 326 383
#     4  12  23  38  61  98 136 169 211 268 337 390
#     4  10  23  43  64  90 129 177 225 262 305 379
#
# _framework density 24.868921
#
# number of rings (size 3 to 8) (size 9 to 14) (size 15 to 20)
#    0.000    1.800    2.000    2.400    0.000    4.400 
#    3.600    2.000    0.000    0.600    0.000    2.800 
#    0.000    0.000    0.000    0.000    0.000    0.000 
#
# Total GULP energy -223770.804961 kJ/mol
# GULP energy per Si atom -5594.270124 kJ/mol
# Density = 2.481232 g / cm^3
# Si number density = 24.868921 Si / 1000 Ang^3
#
#
#
# Elastic Constant Matrix: (Units=GPa)
#
#
# Indices 1 2 3 4 5 6 
#
# 1 128.0526 21.1227 18.4984 0.0000 0.0000 0.0000
# 2 21.1227 100.8253 35.0465 0.0000 0.0000 0.0000
# 3 18.4984 35.0465 87.4499 0.0000 0.0000 0.0000
# 4 0.0000 0.0000 0.0000 53.9138 0.0000 0.0000
# 5 0.0000 0.0000 0.0000 0.0000 0.9284 0.0000
# 6 0.0000 0.0000 0.0000 0.0000 0.0000 -1.9465
#
#
#
# Elastic Compliance Matrix: (Units=1/GPa)
#
#
# Indices 1 2 3 4 5 6 
#
# 1 0.008198 -0.001295 -0.001215 0.000000 0.000000 0.000000
# 2 -0.001295 0.011728 -0.004426 0.000000 0.000000 0.000000
# 3 -0.001215 -0.004426 0.013466 0.000000 0.000000 0.000000
# 4 0.000000 0.000000 0.000000 0.018548 0.000000 0.000000
# 5 0.000000 0.000000 0.000000 0.000000 1.077129 0.000000
# 6 0.000000 0.000000 0.000000 0.000000 0.000000 -0.513753
#
#
# Mechanical properties :
#
#
# Convention : Reuss Voigt Hill
#
# Bulk Modulus (GPa) = 51.23093 51.74034 51.48564
# Shear Modulus (GPa) = 7.86539 26.68983 17.27761
#
# Velocity S-wave (km/s) = 1.78034 3.27956 2.63866
# Velocity P-wave (km/s) = 4.98711 5.93220 5.48007
#
# Compressibility (1/GPa) = 0.01951946
#
# Stress axis : x y z
#
# Youngs Moduli (GPa) = 121.97385 85.26603 74.26106
#
# Poissons Ratio (x) = 0.11043 0.09024
# Poissons Ratio (y) = 0.15798 0.32869
# Poissons Ratio (z) = 0.14822 0.37740
#
# Static dielectric constant tensor:
#      x y z
#    x 1.927350 0.000000 0.000000 
#    y 0.000000 2.142800 0.000000 
#    z 0.000000 0.000000 14.514240 
# 
# From -- ./inp_files/22427.got.cif
#   From: 2010.05.17/outbox.cif.g08.bks.cpg/sg53_12_cif.got.tgz:22427.got - 2010.06.03 12:45:16.
