data_PCOD9417968
_publ_section_title
;
Structure prediction by ZEFSAII (Michael W. Deem and Ramdas Pophale) SiO2 
 PCOD9417968
Probable space group: P M N A
;
_chemical_formula_sum "Si O2"
_cell_formula_units_Z 56
_cell_length_a 8.855753
_cell_length_b 20.943103
_cell_length_c 15.598183
_cell_angle_alpha 90.000000
_cell_angle_beta 90.000000
_cell_angle_gamma 90.000000
_cell_volume 2892.947383
_symmetry_space_group_name_H-M "P M N A"
_symmetry_group_IT_number 53
_symmetry_cell_setting 'orthorhombic'
loop_
_space_group_symop_operation_xyz
x,y,z
1/2-x,-y,1/2+z
x,-y,-z
1/2-x,y,1/2-z
-x,-y,-z
1/2+x,y,1/2-z
-x,y,z
1/2+x,-y,1/2+z
loop_
_atom_site_type_symbol
_atom_site_label
_atom_site_fract_x
_atom_site_fract_y
_atom_site_fract_z
Si Si1 0.681532 0.784330 0.491825
Si Si2 0.680137 0.992934 0.898949
Si Si3 0.819782 0.352316 0.513978
Si Si4 0.321561 0.558658 0.341894
Si Si5 0.820485 0.121787 0.837533
Si Si6 0.178478 0.594333 0.841647
Si Si7 0.318585 0.151137 0.157597
O O1 0.500000 0.781323 0.497297
O O2 0.748424 0.716318 0.465665
O O3 0.724208 0.836736 0.420236
O O4 0.749943 0.805609 0.582630
O O5 0.500000 0.001258 0.888008
O O6 0.764361 0.049687 0.851145
O O7 0.720402 0.922600 0.865651
O O8 0.714233 0.000000 0.000000
O O9 0.759465 0.403737 0.582179
O O10 0.761612 0.371927 0.419908
O O11 0.000000 0.349658 0.515727
O O12 0.250000 0.575731 0.250000
O O13 0.500000 0.572816 0.342522
O O14 0.303800 0.482276 0.352695
O O15 0.750000 0.147697 0.750000
O O16 0.000000 0.122747 0.830853
O O17 0.250000 0.611627 0.750000
O O18 0.000000 0.608848 0.842929
O O19 0.250000 0.166851 0.250000
O O20 0.500000 0.156863 0.158590
#
# Coordination Sequence:
#
# PCOD9417968 Si02
#       7
#     8   8   8   8   8   8   8
#     4  11  25  44  62  85 118 159 206 254 301 356
#     4  10  20  37  63  92 123 156 192 244 302 358
#     4  12  25  40  62  90 123 164 206 250 302 361
#     4  10  21  39  64  94 127 162 201 249 302 355
#     4  11  24  40  63  90 119 156 199 248 301 360
#     4  10  21  39  64  94 127 161 201 250 301 357
#     4  11  23  40  63  90 121 157 199 246 302 362
#
# _framework density 19.357420999999999
#
# number of rings (size 3 to 8) (size 9 to 14) (size 15 to 20)
#    0.000    1.286    1.429    4.286    0.000    8.857 
#    0.000    4.286    0.000    0.000    0.000    0.000 
#    0.000    0.000    0.000    0.000    0.000    0.000 
#
# Total GULP energy -313276.560523 kJ/mol
# GULP energy per Si atom -5594.224295 kJ/mol
# Density = 1.931336 g / cm^3
# Si number density = 19.357421 Si / 1000 Ang^3
#
#
#
# Elastic Constant Matrix: (Units=GPa)
#
#
# Indices 1 2 3 4 5 6 
#
# 1 67.3798 17.3510 18.3643 0.0000 0.0000 0.0000
# 2 17.3510 15.4685 -9.1341 0.0000 0.0000 0.0000
# 3 18.3643 -9.1341 69.5189 0.0000 0.0000 0.0000
# 4 0.0000 0.0000 0.0000 -17.1363 0.0000 0.0000
# 5 0.0000 0.0000 0.0000 0.0000 36.1930 0.0000
# 6 0.0000 0.0000 0.0000 0.0000 0.0000 27.5725
#
#
#
# Elastic Compliance Matrix: (Units=1/GPa)
#
#
# Indices 1 2 3 4 5 6 
#
# 1 0.028447 -0.039404 -0.012692 0.000000 0.000000 0.000000
# 2 -0.039404 0.124665 0.026789 0.000000 0.000000 0.000000
# 3 -0.012692 0.026789 0.021257 0.000000 0.000000 0.000000
# 4 0.000000 0.000000 0.000000 -0.058356 0.000000 0.000000
# 5 0.000000 0.000000 0.000000 0.000000 0.027630 0.000000
# 6 0.000000 0.000000 0.000000 0.000000 0.000000 0.036268
#
#
# Mechanical properties :
#
#
# Convention : Reuss Voigt Hill
#
# Bulk Modulus (GPa) = 8.08046 22.83663 15.45855
# Shear Modulus (GPa) = 18.39746 17.71157 18.05452
#
# Velocity S-wave (km/s) = 3.08621 3.02814 3.05731
# Velocity P-wave (km/s) = 4.10890 4.90399 4.52395
#
# Compressibility (1/GPa) = 0.12375527
#
# Stress axis : x y z
#
# Youngs Moduli (GPa) = 35.15280 8.02152 47.04310
#
# Poissons Ratio (x) = 0.31608 0.59707
# Poissons Ratio (y) = 1.38515 -1.26022
# Poissons Ratio (z) = 0.44616 -0.21489
#
# Static dielectric constant tensor:
#      x y z
#    x 1.639720 0.000000 0.000000 
#    y 0.000000 1.659770 0.000000 
#    z 0.000000 0.000000 1.656520 
# 
# From -- ./inp_files/20491.got.cif
#   From: 2010.05.17/outbox.cif.g08.bks.cpg/sg53_11_cif.got.tgz:20491.got - 2010.06.03 12:45:16.
