data_PCOD9417765
_publ_section_title
;
Structure prediction by ZEFSAII (Michael W. Deem and Ramdas Pophale) SiO2 
 PCOD9417765
Probable space group: P M N A
;
_chemical_formula_sum "Si O2"
_cell_formula_units_Z 64
_cell_length_a 8.817281
_cell_length_b 24.136531
_cell_length_c 15.794197
_cell_angle_alpha 90.000000
_cell_angle_beta 90.000000
_cell_angle_gamma 90.000000
_cell_volume 3361.298518
_symmetry_space_group_name_H-M "P M N A"
_symmetry_group_IT_number 53
_symmetry_cell_setting 'orthorhombic'
loop_
_space_group_symop_operation_xyz
x,y,z
1/2-x,-y,1/2+z
x,-y,-z
1/2-x,y,1/2-z
-x,-y,-z
1/2+x,y,1/2-z
-x,y,z
1/2+x,-y,1/2+z
loop_
_atom_site_type_symbol
_atom_site_label
_atom_site_fract_x
_atom_site_fract_y
_atom_site_fract_z
Si Si1 0.818133 0.753329 0.412518
Si Si2 0.681421 0.633193 0.659468
Si Si3 0.681190 0.756774 0.599555
Si Si4 0.317843 0.634405 0.160051
Si Si5 0.180804 0.873427 0.340199
Si Si6 0.319290 0.129423 0.161108
Si Si7 0.179516 0.065902 0.001783
Si Si8 0.316917 0.435438 0.004304
O O1 0.732963 0.756443 0.501832
O O2 0.774224 0.697444 0.363711
O O3 0.787097 0.808669 0.359610
O O4 0.000000 0.751088 0.429040
O O5 0.750000 0.617555 0.750000
O O6 0.500000 0.629230 0.661843
O O7 0.721904 0.697229 0.638925
O O8 0.745154 0.595289 0.584359
O O9 0.500000 0.764272 0.605376
O O10 0.763362 0.807811 0.644662
O O11 0.250000 0.618164 0.250000
O O12 0.500000 0.632309 0.165652
O O13 0.270386 0.595599 0.082032
O O14 0.250000 0.889052 0.250000
O O15 0.252523 0.907618 0.416958
O O16 0.000000 0.880960 0.339582
O O17 0.250000 0.109926 0.250000
O O18 0.500000 0.127872 0.164141
O O19 0.259163 0.093289 0.082798
O O20 0.000000 0.077717 0.006187
O O21 0.201605 0.000000 0.000000
O O22 0.500000 0.431236 0.011081
O O23 0.276188 0.500000 0.000000
#
# Coordination Sequence:
#
# PCOD9417765 Si02
#       8
#     8   8   8   8   8   8   8   8
#     4  10  20  36  60  90 122 161 199 246 307 366
#     4  11  24  40  62  92 123 162 204 251 308 367
#     4  11  22  37  62  94 126 162 202 249 309 371
#     4  10  21  37  59  87 121 158 199 248 301 363
#     4  11  23  39  63  94 126 164 206 250 307 368
#     4  12  25  42  66  95 128 165 206 253 309 371
#     4  11  25  45  67  92 124 163 209 260 310 362
#     4  10  22  41  63  87 119 161 207 256 310 362
#
# _framework density 19.040261000000001
#
# number of rings (size 3 to 8) (size 9 to 14) (size 15 to 20)
#    0.000    1.250    2.500    3.375    0.000    6.250 
#    0.000    1.250    0.000    0.000    0.000    0.000 
#    0.000    0.000    0.000    0.000    0.000    0.000 
#
# Total GULP energy -357968.495553 kJ/mol
# GULP energy per Si atom -5593.257743 kJ/mol
# Density = 1.899692 g / cm^3
# Si number density = 19.040261 Si / 1000 Ang^3
#
#
#
# Elastic Constant Matrix: (Units=GPa)
#
#
# Indices 1 2 3 4 5 6 
#
# 1 75.0862 66.9320 73.2049 0.0000 0.0000 0.0000
# 2 66.9320 112.7210 76.1110 0.0000 0.0000 0.0000
# 3 73.2049 76.1110 201.1932 0.0000 0.0000 0.0000
# 4 0.0000 0.0000 0.0000 -5.4344 0.0000 0.0000
# 5 0.0000 0.0000 0.0000 0.0000 33.6764 0.0000
# 6 0.0000 0.0000 0.0000 0.0000 0.0000 19.8503
#
#
#
# Elastic Compliance Matrix: (Units=1/GPa)
#
#
# Indices 1 2 3 4 5 6 
#
# 1 0.033217 -0.015530 -0.006211 0.000000 0.000000 0.000000
# 2 -0.015530 0.019175 -0.001603 0.000000 0.000000 0.000000
# 3 -0.006211 -0.001603 0.007837 0.000000 0.000000 0.000000
# 4 0.000000 0.000000 0.000000 -0.184012 0.000000 0.000000
# 5 0.000000 0.000000 0.000000 0.000000 0.029694 0.000000
# 6 0.000000 0.000000 0.000000 0.000000 0.000000 0.050377
#
#
# Mechanical properties :
#
#
# Convention : Reuss Voigt Hill
#
# Bulk Modulus (GPa) = 73.85323 91.27734 82.56528
# Shear Modulus (GPa) = 667.48052 21.13528 344.30790
#
# Velocity S-wave (km/s) = 18.74363 3.33533 13.46195
# Velocity P-wave (km/s) = 22.52341 7.92942 16.88460
#
# Compressibility (1/GPa) = 0.01354037
#
# Stress axis : x y z
#
# Youngs Moduli (GPa) = 30.10521 52.14994 127.60124
#
# Poissons Ratio (x) = 0.80987 0.79256
# Poissons Ratio (y) = 0.46753 0.20461
# Poissons Ratio (z) = 0.18699 0.08362
#
# Static dielectric constant tensor:
#      x y z
#    x 1.640870 0.000000 0.000000 
#    y 0.000000 1.651070 0.000000 
#    z 0.000000 0.000000 1.564380 
# 
# From -- ./inp_files/20805.got.cif
#   From: 2010.05.17/outbox.cif.g08.bks.cpg/sg53_11_cif.got.tgz:20805.got - 2010.06.03 12:45:16.
