data_PCOD9417341
_publ_section_title
;
Structure prediction by ZEFSAII (Michael W. Deem and Ramdas Pophale) SiO2 
 PCOD9417341
Probable space group: P M N A
;
_chemical_formula_sum "Si O2"
_cell_formula_units_Z 64
_cell_length_a 7.710088
_cell_length_b 15.094915
_cell_length_c 24.620286
_cell_angle_alpha 90.000000
_cell_angle_beta 90.000000
_cell_angle_gamma 90.000000
_cell_volume 2865.385774
_symmetry_space_group_name_H-M "P M N A"
_symmetry_group_IT_number 53
_symmetry_cell_setting 'orthorhombic'
loop_
_space_group_symop_operation_xyz
x,y,z
1/2-x,-y,1/2+z
x,-y,-z
1/2-x,y,1/2-z
-x,-y,-z
1/2+x,y,1/2-z
-x,y,z
1/2+x,-y,1/2+z
loop_
_atom_site_type_symbol
_atom_site_label
_atom_site_fract_x
_atom_site_fract_y
_atom_site_fract_z
Si Si1 0.207835 0.863406 0.189009
Si Si2 0.704837 0.718934 0.495505
Si Si3 0.792972 0.244626 0.191452
Si Si4 0.287939 0.087213 0.467183
Si Si5 0.802244 0.380429 0.397643
Si Si6 0.788648 0.943554 0.842374
Si Si7 0.710724 0.306122 0.624615
Si Si8 0.200296 0.519235 0.313045
O O1 0.250000 0.835171 0.250000
O O2 0.276883 0.962174 0.178463
O O3 0.267495 0.789865 0.146512
O O4 0.000000 0.867795 0.183531
O O5 0.500000 0.732018 0.487475
O O6 0.773845 0.817179 0.510987
O O7 0.725084 0.651266 0.545328
O O8 0.771284 0.683960 0.437601
O O9 0.750000 0.284731 0.250000
O O10 0.706294 0.296342 0.142403
O O11 0.000000 0.247579 0.182824
O O12 0.731860 0.142959 0.190195
O O13 0.500000 0.088873 0.469240
O O14 0.231942 0.000000 0.500000
O O15 0.239880 0.073243 0.404669
O O16 0.716527 0.456233 0.359666
O O17 0.000000 0.405141 0.410322
O O18 0.000000 0.945751 0.839979
O O19 0.500000 0.310235 0.626550
O O20 0.775812 0.381746 0.664982
O O21 0.250000 0.511117 0.250000
O O22 0.000000 0.493766 0.313605
#
# Coordination Sequence:
#
# PCOD9417341 Si02
#       8
#     8   8   8   8   8   8   8   8
#     4  10  20  35  55  83 118 155 198 245 295 352
#     4  10  20  37  61  91 122 157 201 246 294 353
#     4  11  21  35  56  84 117 154 195 238 290 349
#     4   9  15  27  52  83 114 152 199 244 283 334
#     4  11  24  41  61  87 119 157 197 244 299 356
#     4   9  17  30  50  80 115 152 192 237 288 343
#     4  10  22  39  62  91 121 155 198 248 300 354
#     4  11  25  44  66  90 117 153 198 246 303 363
#
# _framework density 22.335560999999998
#
# number of rings (size 3 to 8) (size 9 to 14) (size 15 to 20)
#    0.000    1.875    1.250    3.000    0.000    8.500 
#    0.000    3.125    0.000    0.375    0.000    0.000 
#    0.000    0.000    0.000    0.000    0.000    0.000 
#
# Total GULP energy -357473.416659 kJ/mol
# GULP energy per Si atom -5585.522135 kJ/mol
# Density = 2.228472 g / cm^3
# Si number density = 22.335561 Si / 1000 Ang^3
#
#
#
# Elastic Constant Matrix: (Units=GPa)
#
#
# Indices 1 2 3 4 5 6 
#
# 1 31.9300 -4.9278 -2.8841 0.0000 0.0000 0.0000
# 2 -4.9278 77.5924 17.8965 0.0000 0.0000 0.0000
# 3 -2.8841 17.8965 124.0915 0.0000 0.0000 0.0000
# 4 0.0000 0.0000 0.0000 226.4507 0.0000 0.0000
# 5 0.0000 0.0000 0.0000 0.0000 9.1354 0.0000
# 6 0.0000 0.0000 0.0000 0.0000 0.0000 32.4704
#
#
#
# Elastic Compliance Matrix: (Units=1/GPa)
#
#
# Indices 1 2 3 4 5 6 
#
# 1 0.031654 0.001904 0.000461 0.000000 0.000000 0.000000
# 2 0.001904 0.013446 -0.001895 0.000000 0.000000 0.000000
# 3 0.000461 -0.001895 0.008343 0.000000 0.000000 0.000000
# 4 0.000000 0.000000 0.000000 0.004416 0.000000 0.000000
# 5 0.000000 0.000000 0.000000 0.000000 0.109464 0.000000
# 6 0.000000 0.000000 0.000000 0.000000 0.000000 0.030797
#
#
# Mechanical properties :
#
#
# Convention : Reuss Voigt Hill
#
# Bulk Modulus (GPa) = 18.38818 28.19811 23.29314
# Shear Modulus (GPa) = 23.22264 68.51326 45.86795
#
# Velocity S-wave (km/s) = 3.22796 5.54447 4.53656
# Velocity P-wave (km/s) = 4.70569 7.32395 6.15564
#
# Compressibility (1/GPa) = 0.05438276
#
# Stress axis : x y z
#
# Youngs Moduli (GPa) = 31.59156 74.37246 119.86710
#
# Poissons Ratio (x) = -0.14160 -0.05527
# Poissons Ratio (y) = -0.06015 0.22714
# Poissons Ratio (z) = -0.01457 0.14093
#
# Static dielectric constant tensor:
#      x y z
#    x 1.830250 0.000000 0.000000 
#    y 0.000000 1.830610 0.000000 
#    z 0.000000 0.000000 1.806310 
# 
# From -- ./inp_files/34221.got.cif
#   From: 2010.05.17/outbox.cif.g08.bks.cpg/sg53_18_cif.got.tgz:34221.got - 2010.06.03 12:45:16.
