data_PCOD9417470
_publ_section_title
;
Structure prediction by ZEFSAII (Michael W. Deem and Ramdas Pophale) SiO2 
 PCOD9417470
Probable space group: P M N A
;
_chemical_formula_sum "Si O2"
_cell_formula_units_Z 56
_cell_length_a 14.353361
_cell_length_b 13.494827
_cell_length_c 14.259361
_cell_angle_alpha 90.000000
_cell_angle_beta 90.000000
_cell_angle_gamma 90.000000
_cell_volume 2761.982950
_symmetry_space_group_name_H-M "P M N A"
_symmetry_group_IT_number 53
_symmetry_cell_setting 'orthorhombic'
loop_
_space_group_symop_operation_xyz
x,y,z
1/2-x,-y,1/2+z
x,-y,-z
1/2-x,y,1/2-z
-x,-y,-z
1/2+x,y,1/2-z
-x,y,z
1/2+x,-y,1/2+z
loop_
_atom_site_type_symbol
_atom_site_label
_atom_site_fract_x
_atom_site_fract_y
_atom_site_fract_z
Si Si1 0.390896 0.523742 0.288875
Si Si2 0.395551 0.101226 0.698187
Si Si3 0.104100 0.707627 0.076040
Si Si4 0.891790 0.124642 0.596855
Si Si5 0.239723 0.964021 0.899006
Si Si6 0.210280 0.542064 0.606454
Si Si7 0.224574 0.749449 0.550370
O O1 0.500000 0.493519 0.293883
O O2 0.384965 0.631795 0.337606
O O3 0.353143 0.516824 0.182155
O O4 0.315420 0.463965 0.351552
O O5 0.500000 0.060416 0.702845
O O6 0.389877 0.181917 0.616930
O O7 0.379376 0.157722 0.795665
O O8 0.323904 0.014910 0.678013
O O9 0.000000 0.691035 0.036834
O O10 0.186564 0.701438 0.002008
O O11 0.841381 0.200445 0.527914
O O12 0.000000 0.115611 0.574323
O O13 0.839933 0.018399 0.598999
O O14 0.245260 0.846447 0.891687
O O15 0.198727 0.000000 0.000000
O O16 0.204627 0.500000 0.500000
O O17 0.180249 0.657426 0.604343
#
# Coordination Sequence:
#
# PCOD9417470 Si02
#       7
#     8   8   8   8   8   8   8
#     4  10  24  45  67  94 131 172 216 271 329 393
#     4  10  20  35  58  90 123 158 201 256 314 372
#     4  10  20  36  64  96 123 159 211 263 322 382
#     4  10  22  38  59  87 121 166 210 248 306 381
#     4  10  20  36  57  85 121 160 195 250 303 372
#     4  11  24  43  68  97 129 169 220 277 329 387
#     4  11  23  39  63  94 123 168 210 264 321 374
#
# _framework density 20.275286999999999
#
# number of rings (size 3 to 8) (size 9 to 14) (size 15 to 20)
#    0.000    1.714    4.286    0.429    2.000    5.143 
#    5.143    0.000    0.000    0.000    0.000    0.000 
#    0.000    0.000    0.000    0.000    0.000    0.000 
#
# Total GULP energy -312335.500525 kJ/mol
# GULP energy per Si atom -5577.419652 kJ/mol
# Density = 2.022914 g / cm^3
# Si number density = 20.275287 Si / 1000 Ang^3
#
#
#
# Elastic Constant Matrix: (Units=GPa)
#
#
# Indices 1 2 3 4 5 6 
#
# 1 106.1295 33.9309 39.3085 0.0000 0.0000 0.0000
# 2 33.9309 90.3830 4.2913 0.0000 0.0000 0.0000
# 3 39.3085 4.2913 57.1729 0.0000 0.0000 0.0000
# 4 0.0000 0.0000 0.0000 28.5407 0.0000 0.0000
# 5 0.0000 0.0000 0.0000 0.0000 19.4222 0.0000
# 6 0.0000 0.0000 0.0000 0.0000 0.0000 10.1744
#
#
#
# Elastic Compliance Matrix: (Units=1/GPa)
#
#
# Indices 1 2 3 4 5 6 
#
# 1 0.014610 -0.005026 -0.009668 0.000000 0.000000 0.000000
# 2 -0.005026 0.012832 0.002492 0.000000 0.000000 0.000000
# 3 -0.009668 0.002492 0.023951 0.000000 0.000000 0.000000
# 4 0.000000 0.000000 0.000000 0.035038 0.000000 0.000000
# 5 0.000000 0.000000 0.000000 0.000000 0.051488 0.000000
# 6 0.000000 0.000000 0.000000 0.000000 0.000000 0.098286
#
#
# Mechanical properties :
#
#
# Convention : Reuss Voigt Hill
#
# Bulk Modulus (GPa) = 37.04992 45.41629 41.23310
# Shear Modulus (GPa) = 18.54577 23.37112 20.95844
#
# Velocity S-wave (km/s) = 3.02768 3.39881 3.21860
# Velocity P-wave (km/s) = 5.52590 6.15232 5.84750
#
# Compressibility (1/GPa) = 0.02699061
#
# Stress axis : x y z
#
# Youngs Moduli (GPa) = 68.44641 77.92757 41.75258
#
# Poissons Ratio (x) = 0.39164 0.40365
# Poissons Ratio (y) = 0.34399 -0.10406
# Poissons Ratio (z) = 0.66172 -0.19421
#
# Static dielectric constant tensor:
#      x y z
#    x 1.741710 0.000000 0.000000 
#    y 0.000000 1.715770 0.000000 
#    z 0.000000 0.000000 1.788760 
# 
# From -- ./inp_files/22937.got.cif
#   From: 2010.05.17/outbox.cif.g08.bks.cpg/sg53_12_cif.got.tgz:22937.got - 2010.06.03 12:45:16.
