data_PCOD9417752
_publ_section_title
;
Structure prediction by ZEFSAII (Michael W. Deem and Ramdas Pophale) SiO2 
 PCOD9417752
Probable space group: P M N A
;
_chemical_formula_sum "Si O2"
_cell_formula_units_Z 56
_cell_length_a 8.760297
_cell_length_b 16.824684
_cell_length_c 19.649579
_cell_angle_alpha 90.000000
_cell_angle_beta 90.000000
_cell_angle_gamma 90.000000
_cell_volume 2896.136294
_symmetry_space_group_name_H-M "P M N A"
_symmetry_group_IT_number 53
_symmetry_cell_setting 'orthorhombic'
loop_
_space_group_symop_operation_xyz
x,y,z
1/2-x,-y,1/2+z
x,-y,-z
1/2-x,y,1/2-z
-x,-y,-z
1/2+x,y,1/2-z
-x,y,z
1/2+x,-y,1/2+z
loop_
_atom_site_type_symbol
_atom_site_label
_atom_site_fract_x
_atom_site_fract_y
_atom_site_fract_z
Si Si1 0.816798 0.327150 0.574218
Si Si2 0.684059 0.077089 0.043969
Si Si3 0.183182 0.356253 0.173746
Si Si4 0.682808 0.504064 0.919597
Si Si5 0.683117 0.990008 0.176187
Si Si6 0.318073 0.248275 0.447207
Si Si7 0.315941 0.811020 0.175136
O O1 0.785651 0.413911 0.604378
O O2 0.740201 0.312631 0.501609
O O3 0.764818 0.256783 0.623750
O O4 0.000000 0.321457 0.564774
O O5 0.500000 0.082319 0.037425
O O6 0.750733 0.163516 0.030208
O O7 0.728832 0.053883 0.120652
O O8 0.731354 0.000000 0.000000
O O9 0.250000 0.356400 0.250000
O O10 0.237474 0.431662 0.128486
O O11 0.228946 0.279380 0.127795
O O12 0.000000 0.357609 0.178350
O O13 0.500000 0.519070 0.917541
O O14 0.725757 0.500000 0.000000
O O15 0.750000 0.004773 0.250000
O O16 0.500000 0.990415 0.180048
O O17 0.728338 0.900573 0.153684
O O18 0.500000 0.244075 0.448859
O O19 0.250000 0.798119 0.250000
O O20 0.500000 0.808414 0.178081
#
# Coordination Sequence:
#
# PCOD9417752 Si02
#       7
#     8   8   8   8   8   8   8
#     4  10  20  36  60  86 116 154 194 234 284 354
#     4  10  21  38  60  84 112 149 195 242 291 352
#     4  11  25  43  63  88 122 161 204 252 303 358
#     4  10  20  37  63  91 118 153 197 243 297 358
#     4   9  18  33  53  76 104 142 183 225 277 338
#     4  11  24  39  58  87 118 152 194 245 300 349
#     4   9  18  33  53  79 112 147 185 229 280 337
#
# _framework density 19.336106999999998
#
# number of rings (size 3 to 8) (size 9 to 14) (size 15 to 20)
#    0.000    2.000    1.429    1.714    0.000    7.429 
#    0.000    7.143    0.000    0.000    0.000    0.000 
#    0.000    0.000    0.000    0.000    0.000    0.000 
#
# Total GULP energy -312502.526555 kJ/mol
# GULP energy per Si atom -5580.402260 kJ/mol
# Density = 1.929210 g / cm^3
# Si number density = 19.336107 Si / 1000 Ang^3
#
#
#
# Elastic Constant Matrix: (Units=GPa)
#
#
# Indices 1 2 3 4 5 6 
#
# 1 18.9498 26.7989 19.8760 0.0000 0.0000 0.0000
# 2 26.7989 95.2299 38.9699 0.0000 0.0000 0.0000
# 3 19.8760 38.9699 69.4293 0.0000 0.0000 0.0000
# 4 0.0000 0.0000 0.0000 33.4067 0.0000 0.0000
# 5 0.0000 0.0000 0.0000 0.0000 28.4505 0.0000
# 6 0.0000 0.0000 0.0000 0.0000 0.0000 33.3670
#
#
#
# Elastic Compliance Matrix: (Units=1/GPa)
#
#
# Indices 1 2 3 4 5 6 
#
# 1 0.100765 -0.021487 -0.016786 0.000000 0.000000 0.000000
# 2 -0.021487 0.018214 -0.004072 0.000000 0.000000 0.000000
# 3 -0.016786 -0.004072 0.021494 0.000000 0.000000 0.000000
# 4 0.000000 0.000000 0.000000 0.029934 0.000000 0.000000
# 5 0.000000 0.000000 0.000000 0.000000 0.035149 0.000000
# 6 0.000000 0.000000 0.000000 0.000000 0.000000 0.029970
#
#
# Mechanical properties :
#
#
# Convention : Reuss Voigt Hill
#
# Bulk Modulus (GPa) = 17.92678 39.43318 28.67998
# Shear Modulus (GPa) = 14.75746 25.57580 20.16663
#
# Velocity S-wave (km/s) = 2.76562 3.64083 3.23298
# Velocity P-wave (km/s) = 4.41469 6.17350 5.36663
#
# Compressibility (1/GPa) = 0.05578248
#
# Stress axis : x y z
#
# Youngs Moduli (GPa) = 9.92404 54.90248 46.52415
#
# Poissons Ratio (x) = 1.17972 0.78096
# Poissons Ratio (y) = 0.21324 0.18945
# Poissons Ratio (z) = 0.16659 0.22356
#
# Static dielectric constant tensor:
#      x y z
#    x 1.653470 0.000000 0.000000 
#    y 0.000000 1.685260 0.000000 
#    z 0.000000 0.000000 1.674720 
# 
# From -- ./inp_files/30766.got.cif
#   From: 2010.05.17/outbox.cif.g08.bks.cpg/sg53_16_cif.got.tgz:30766.got - 2010.06.03 12:45:16.
