data_PCOD9417035
_publ_section_title
;
Structure prediction by ZEFSAII (Michael W. Deem and Ramdas Pophale) SiO2 
 PCOD9417035
Probable space group: P M N A
;
_chemical_formula_sum "Si O2"
_cell_formula_units_Z 48
_cell_length_a 8.764643
_cell_length_b 18.629331
_cell_length_c 15.029836
_cell_angle_alpha 90.000000
_cell_angle_beta 90.000000
_cell_angle_gamma 90.000000
_cell_volume 2454.063138
_symmetry_space_group_name_H-M "P M N A"
_symmetry_group_IT_number 53
_symmetry_cell_setting 'orthorhombic'
loop_
_space_group_symop_operation_xyz
x,y,z
1/2-x,-y,1/2+z
x,-y,-z
1/2-x,y,1/2-z
-x,-y,-z
1/2+x,y,1/2-z
-x,y,z
1/2+x,-y,1/2+z
loop_
_atom_site_type_symbol
_atom_site_label
_atom_site_fract_x
_atom_site_fract_y
_atom_site_fract_z
Si Si1 0.679823 0.879071 0.657194
Si Si2 0.683599 0.615142 0.654178
Si Si3 0.816174 0.450669 0.846696
Si Si4 0.317081 0.830396 0.031300
Si Si5 0.184418 0.319704 0.971926
Si Si6 0.174429 0.977340 0.395888
O O1 0.750000 0.851830 0.750000
O O2 0.500000 0.867435 0.656685
O O3 0.750935 0.845436 0.567537
O O4 0.720254 0.963958 0.650148
O O5 0.750000 0.633801 0.750000
O O6 0.500000 0.616554 0.659201
O O7 0.729366 0.532708 0.631663
O O8 0.730863 0.666358 0.574067
O O9 0.750000 0.433962 0.750000
O O10 0.000000 0.450200 0.843373
O O11 0.769719 0.389941 0.916263
O O12 0.500000 0.832813 0.025733
O O13 0.258214 0.753347 0.061641
O O14 0.271290 0.895262 0.097658
O O15 0.000000 0.313960 0.968689
O O16 0.000000 0.982139 0.361371
O O17 0.167952 0.000000 0.500000
#
# Coordination Sequence:
#
# PCOD9417035 Si02
#       6
#     8   8   8   8   8   8
#     4  11  21  34  55  80 105 134 171 213 257 308
#     4   9  18  33  53  77 105 138 177 222 269 319
#     4   9  18  34  55  77 102 135 178 226 273 321
#     4  10  21  36  53  75 106 139 171 211 259 311
#     4  10  20  34  53  77 107 144 181 217 266 327
#     4   8  16  33  53  72  97 129 164 203 247 295
#
# _framework density 19.559398999999999
#
# number of rings (size 3 to 8) (size 9 to 14) (size 15 to 20)
#    0.000    2.500    0.000    3.500    0.000    7.667 
#    0.000    2.500    0.000    7.000    0.000    0.000 
#    0.000    0.000    0.000    0.000    0.000    0.000 
#
# Total GULP energy -267839.815931 kJ/mol
# GULP energy per Si atom -5579.996165 kJ/mol
# Density = 1.951488 g / cm^3
# Si number density = 19.559399 Si / 1000 Ang^3
#
#
#
# Elastic Constant Matrix: (Units=GPa)
#
#
# Indices 1 2 3 4 5 6 
#
# 1 31.1090 1.3618 1.5522 0.0000 0.0000 0.0000
# 2 1.3618 58.2066 1.5856 0.0000 0.0000 0.0000
# 3 1.5522 1.5856 16.2093 0.0000 0.0000 0.0000
# 4 0.0000 0.0000 0.0000 11.9150 0.0000 0.0000
# 5 0.0000 0.0000 0.0000 0.0000 24.6245 0.0000
# 6 0.0000 0.0000 0.0000 0.0000 0.0000 32.1099
#
#
#
# Elastic Compliance Matrix: (Units=1/GPa)
#
#
# Indices 1 2 3 4 5 6 
#
# 1 0.032326 -0.000674 -0.003030 0.000000 0.000000 0.000000
# 2 -0.000674 0.017240 -0.001622 0.000000 0.000000 0.000000
# 3 -0.003030 -0.001622 0.062142 0.000000 0.000000 0.000000
# 4 0.000000 0.000000 0.000000 0.083928 0.000000 0.000000
# 5 0.000000 0.000000 0.000000 0.000000 0.040610 0.000000
# 6 0.000000 0.000000 0.000000 0.000000 0.000000 0.031143
#
#
# Mechanical properties :
#
#
# Convention : Reuss Voigt Hill
#
# Bulk Modulus (GPa) = 9.89542 12.72491 11.31016
# Shear Modulus (GPa) = 16.03982 20.46493 18.25237
#
# Velocity S-wave (km/s) = 2.86677 3.23816 3.05811
# Velocity P-wave (km/s) = 4.00349 4.52778 4.27369
#
# Compressibility (1/GPa) = 0.10105687
#
# Stress axis : x y z
#
# Youngs Moduli (GPa) = 30.93513 58.00424 16.09225
#
# Poissons Ratio (x) = 0.03908 0.04875
# Poissons Ratio (y) = 0.02084 0.02610
# Poissons Ratio (z) = 0.09372 0.09408
#
# Static dielectric constant tensor:
#      x y z
#    x 1.658460 0.000000 0.000000 
#    y 0.000000 1.719940 0.000000 
#    z 0.000000 0.000000 1.677090 
# 
# From -- ./inp_files/20147.got.cif
#   From: 2010.05.17/outbox.cif.g08.bks.cpg/sg53_11_cif.got.tgz:20147.got - 2010.06.03 12:45:16.
