data_PCOD9417596
_publ_section_title
;
Structure prediction by ZEFSAII (Michael W. Deem and Ramdas Pophale) SiO2 
 PCOD9417596
Probable space group: P M N A
;
_chemical_formula_sum "Si O2"
_cell_formula_units_Z 48
_cell_length_a 8.473942
_cell_length_b 31.990108
_cell_length_c 9.292623
_cell_angle_alpha 90.000000
_cell_angle_beta 90.000000
_cell_angle_gamma 90.000000
_cell_volume 2519.065800
_symmetry_space_group_name_H-M "P M N A"
_symmetry_group_IT_number 53
_symmetry_cell_setting 'orthorhombic'
loop_
_space_group_symop_operation_xyz
x,y,z
1/2-x,-y,1/2+z
x,-y,-z
1/2-x,y,1/2-z
-x,-y,-z
1/2+x,y,1/2-z
-x,y,z
1/2+x,-y,1/2+z
loop_
_atom_site_type_symbol
_atom_site_label
_atom_site_fract_x
_atom_site_fract_y
_atom_site_fract_z
Si Si1 0.309236 0.123704 0.086828
Si Si2 0.810976 0.712066 0.587843
Si Si3 0.809494 0.460014 0.912044
Si Si4 0.190781 0.041247 0.586726
Si Si5 0.310579 0.366944 0.586390
Si Si6 0.190772 0.793947 0.412948
O O1 0.250000 0.122991 0.250000
O O2 0.500000 0.123655 0.089626
O O3 0.257135 0.082720 0.998667
O O4 0.257147 0.165471 0.003223
O O5 0.750000 0.715486 0.750000
O O6 0.754033 0.669517 0.513617
O O7 0.756254 0.751724 0.493187
O O8 0.000000 0.712460 0.589860
O O9 0.750000 0.463595 0.750000
O O10 0.761592 0.413636 0.964217
O O11 0.000000 0.460856 0.912931
O O12 0.751128 0.500000 0.000000
O O13 0.250000 0.041040 0.750000
O O14 0.000000 0.041238 0.589641
O O15 0.242815 0.000000 0.500000
O O16 0.250000 0.361558 0.750000
O O17 0.500000 0.365070 0.588197
O O18 0.250000 0.795504 0.250000
O O19 0.000000 0.793983 0.410491
#
# Coordination Sequence:
#
# PCOD9417596 Si02
#       6
#     8   8   8   8   8   8
#     4  10  21  37  56  81 111 142 180 223 268 319
#     4  11  23  38  56  80 109 141 179 222 270 321
#     4   9  19  35  54  78 107 139 176 217 262 313
#     4  10  21  36  55  81 111 143 182 225 269 321
#     4  10  20  36  57  80 108 142 180 221 266 318
#     4  10  22  38  57  81 108 141 180 221 266 319
#
# _framework density 19.054683000000001
#
# number of rings (size 3 to 8) (size 9 to 14) (size 15 to 20)
#    0.000    2.000    0.000    3.000    0.000    6.000 
#    0.000    1.667    0.000    0.000    0.000    0.000 
#    0.000    0.000    0.000    0.000    0.000    0.000 
#
# Total GULP energy -268118.939501 kJ/mol
# GULP energy per Si atom -5585.811240 kJ/mol
# Density = 1.901131 g / cm^3
# Si number density = 19.054683 Si / 1000 Ang^3
#
#
#
# Elastic Constant Matrix: (Units=GPa)
#
#
# Indices 1 2 3 4 5 6 
#
# 1 17.4383 33.8334 23.5695 0.0000 0.0000 0.0000
# 2 33.8334 225.0489 130.2857 0.0000 0.0000 0.0000
# 3 23.5695 130.2857 178.0229 0.0000 0.0000 0.0000
# 4 0.0000 0.0000 0.0000 41.0835 0.0000 0.0000
# 5 0.0000 0.0000 0.0000 0.0000 39.2235 0.0000
# 6 0.0000 0.0000 0.0000 0.0000 0.0000 39.0136
#
#
#
# Elastic Compliance Matrix: (Units=1/GPa)
#
#
# Indices 1 2 3 4 5 6 
#
# 1 0.081986 -0.010483 -0.003182 0.000000 0.000000 0.000000
# 2 -0.010483 0.009051 -0.005236 0.000000 0.000000 0.000000
# 3 -0.003182 -0.005236 0.009870 0.000000 0.000000 0.000000
# 4 0.000000 0.000000 0.000000 0.024341 0.000000 0.000000
# 5 0.000000 0.000000 0.000000 0.000000 0.025495 0.000000
# 6 0.000000 0.000000 0.000000 0.000000 0.000000 0.025632
#
#
# Mechanical properties :
#
#
# Convention : Reuss Voigt Hill
#
# Bulk Modulus (GPa) = 15.84685 88.43192 52.13938
# Shear Modulus (GPa) = 21.25743 39.38556 30.32150
#
# Velocity S-wave (km/s) = 3.34369 4.55133 3.99342
# Velocity P-wave (km/s) = 4.82095 8.60987 6.97751
#
# Compressibility (1/GPa) = 0.06310404
#
# Stress axis : x y z
#
# Youngs Moduli (GPa) = 12.19722 110.49024 101.31354
#
# Poissons Ratio (x) = 1.15829 0.32243
# Poissons Ratio (y) = 0.12787 0.53045
# Poissons Ratio (z) = 0.03882 0.57850
#
# Static dielectric constant tensor:
#      x y z
#    x 1.661050 0.000000 0.000000 
#    y 0.000000 1.676800 0.000000 
#    z 0.000000 0.000000 1.601760 
# 
# From -- ./inp_files/6571.got.cif
#   From: 2010.05.17/outbox.cif.g08.bks.cpg/sg53_4_cif.got.tgz:6571.got - 2010.06.03 12:45:16.
