data_PCOD9417121
_publ_section_title
;
Structure prediction by ZEFSAII (Michael W. Deem and Ramdas Pophale) SiO2 
 PCOD9417121
Probable space group: P M N A
;
_chemical_formula_sum "Si O2"
_cell_formula_units_Z 64
_cell_length_a 15.082326
_cell_length_b 7.552778
_cell_length_c 24.217128
_cell_angle_alpha 90.000000
_cell_angle_beta 90.000000
_cell_angle_gamma 90.000000
_cell_volume 2758.656842
_symmetry_space_group_name_H-M "P M N A"
_symmetry_group_IT_number 53
_symmetry_cell_setting 'orthorhombic'
loop_
_space_group_symop_operation_xyz
x,y,z
1/2-x,-y,1/2+z
x,-y,-z
1/2-x,y,1/2-z
-x,-y,-z
1/2+x,y,1/2-z
-x,y,z
1/2+x,-y,1/2+z
loop_
_atom_site_type_symbol
_atom_site_label
_atom_site_fract_x
_atom_site_fract_y
_atom_site_fract_z
Si Si1 0.105594 0.645964 0.246416
Si Si2 0.397428 0.736686 0.372693
Si Si3 0.731013 0.126796 0.543323
Si Si4 0.600829 0.056973 0.222016
Si Si5 0.781977 0.819824 0.623688
Si Si6 0.103653 0.500110 0.361672
Si Si7 0.096886 0.309153 0.528832
Si Si8 0.904199 0.160301 0.155404
O O1 0.136618 0.637228 0.182757
O O2 0.115101 0.851862 0.263111
O O3 0.139450 0.539708 0.299946
O O4 0.000000 0.610520 0.243239
O O5 0.500000 0.686279 0.383781
O O6 0.331343 0.735609 0.424492
O O7 0.400644 0.948730 0.357960
O O8 0.813209 0.214373 0.511893
O O9 0.680005 0.000000 0.500000
O O10 0.775939 0.994222 0.587056
O O11 0.500000 0.071378 0.198844
O O12 0.677591 0.117787 0.181938
O O13 0.601814 0.168357 0.278471
O O14 0.845376 0.659126 0.609355
O O15 0.681152 0.754338 0.628651
O O16 0.106655 0.661582 0.404769
O O17 0.000000 0.455197 0.356136
O O18 0.093542 0.500000 0.500000
O O19 0.000000 0.775409 0.481688
O O20 0.000000 0.228310 0.137457
#
# Coordination Sequence:
#
# PCOD9417121 Si02
#       8
#     8   8   8   8   8   8   8   8
#     4   8  15  31  55  81 113 151 185 220 275 354
#     4   8  16  34  59  85 112 143 182 234 295 352
#     4  11  23  37  58  87 112 144 198 254 295 341
#     4   9  16  29  51  77 105 139 180 225 272 332
#     4  11  20  31  52  82 114 146 185 237 293 336
#     4  10  20  34  54  83 117 151 187 229 284 351
#     4  10  22  41  60  77 109 157 199 239 291 347
#     4   8  16  31  50  74 106 143 183 227 277 336
#
# _framework density 23.199695999999999
#
# number of rings (size 3 to 8) (size 9 to 14) (size 15 to 20)
#    0.000    2.625    0.000    3.750    0.000    2.500 
#    0.000    4.375    0.000    2.625    0.000    0.875 
#    0.000    0.000    0.000    0.000    0.000    0.000 
#
# Total GULP energy -357242.078791 kJ/mol
# GULP energy per Si atom -5581.907481 kJ/mol
# Density = 2.314689 g / cm^3
# Si number density = 23.199696 Si / 1000 Ang^3
#
#
#
# Elastic Constant Matrix: (Units=GPa)
#
#
# Indices 1 2 3 4 5 6 
#
# 1 110.9780 19.7244 27.9845 0.0000 0.0000 0.0000
# 2 19.7244 38.5844 12.0819 0.0000 0.0000 0.0000
# 3 27.9845 12.0819 65.1911 0.0000 0.0000 0.0000
# 4 0.0000 0.0000 0.0000 27.9687 0.0000 0.0000
# 5 0.0000 0.0000 0.0000 0.0000 -7.6740 0.0000
# 6 0.0000 0.0000 0.0000 0.0000 0.0000 17.5667
#
#
#
# Elastic Compliance Matrix: (Units=1/GPa)
#
#
# Indices 1 2 3 4 5 6 
#
# 1 0.010735 -0.004294 -0.003813 0.000000 0.000000 0.000000
# 2 -0.004294 0.029232 -0.003574 0.000000 0.000000 0.000000
# 3 -0.003813 -0.003574 0.017639 0.000000 0.000000 0.000000
# 4 0.000000 0.000000 0.000000 0.035754 0.000000 0.000000
# 5 0.000000 0.000000 0.000000 0.000000 -0.130310 0.000000
# 6 0.000000 0.000000 0.000000 0.000000 0.000000 0.056926
#
#
# Mechanical properties :
#
#
# Convention : Reuss Voigt Hill
#
# Bulk Modulus (GPa) = 29.20235 37.14835 33.17535
# Shear Modulus (GPa) = 91.32112 17.90311 54.61212
#
# Velocity S-wave (km/s) = 6.28081 2.78096 4.85707
# Velocity P-wave (km/s) = 8.07544 5.13408 6.76652
#
# Compressibility (1/GPa) = 0.03424381
#
# Stress axis : x y z
#
# Youngs Moduli (GPa) = 93.14988 34.20957 56.69408
#
# Poissons Ratio (x) = 0.14690 0.21615
# Poissons Ratio (y) = 0.40000 0.20263
# Poissons Ratio (z) = 0.35514 0.12227
#
# Static dielectric constant tensor:
#      x y z
#    x 1.883470 0.000000 0.000000 
#    y 0.000000 1.897830 0.000000 
#    z 0.000000 0.000000 1.915410 
# 
# From -- ./inp_files/35313.got.cif
#   From: 2010.05.17/outbox.cif.g08.bks.cpg/sg53_18_cif.got.tgz:35313.got - 2010.06.03 12:45:16.
