data_PCOD9417014
_publ_section_title
;
Structure prediction by ZEFSAII (Michael W. Deem and Ramdas Pophale) SiO2 
 PCOD9417014
Probable space group: P M N A
;
_chemical_formula_sum "Si O2"
_cell_formula_units_Z 44
_cell_length_a 7.574695
_cell_length_b 14.611523
_cell_length_c 17.279282
_cell_angle_alpha 90.000000
_cell_angle_beta 90.000000
_cell_angle_gamma 90.000000
_cell_volume 1912.433439
_symmetry_space_group_name_H-M "P M N A"
_symmetry_group_IT_number 53
_symmetry_cell_setting 'orthorhombic'
loop_
_space_group_symop_operation_xyz
x,y,z
1/2-x,-y,1/2+z
x,-y,-z
1/2-x,y,1/2-z
-x,-y,-z
1/2+x,y,1/2-z
-x,y,z
1/2+x,-y,1/2+z
loop_
_atom_site_type_symbol
_atom_site_label
_atom_site_fract_x
_atom_site_fract_y
_atom_site_fract_z
Si Si1 0.296672 0.221692 0.123564
Si Si2 0.792862 0.308690 0.542832
Si Si3 0.716086 0.977094 0.911268
Si Si4 0.701942 0.576405 0.662284
Si Si5 0.249896 0.500000 0.000000
Si Si6 0.289439 0.164389 0.837926
O O1 0.500000 0.219929 0.150872
O O2 0.221737 0.118919 0.125795
O O3 0.213469 0.312439 0.160373
O O4 0.294407 0.244628 0.032244
O O5 0.687869 0.400692 0.526876
O O6 0.720965 0.247644 0.611289
O O7 0.000000 0.337087 0.554837
O O8 0.500000 0.970637 0.911573
O O9 0.774957 0.064672 0.862749
O O10 0.766848 0.000000 0.000000
O O11 0.750000 0.547071 0.750000
O O12 0.500000 0.549996 0.646558
O O13 0.809369 0.536580 0.588022
O O14 0.250000 0.180965 0.750000
O O15 0.500000 0.163604 0.852563
#
# Coordination Sequence:
#
# PCOD9417014 Si02
#       6
#     8   8   8   8   4   8
#     4   9  17  33  59  87 111 146 191 239 286 340
#     4   9  17  32  56  83 110 142 188 236 285 346
#     4   9  15  29  57  85 111 148 196 239 279 335
#     4  11  24  42  62  88 121 158 199 249 304 363
#     4  10  22  40  64  90 115 152 197 254 309 358
#     4  10  20  34  52  80 116 152 188 230 283 343
#
# _framework density 23.007338000000001
#
# number of rings (size 3 to 8) (size 9 to 14) (size 15 to 20)
#    0.000    2.364    1.818    1.091    0.000    3.636 
#    0.000    9.091    0.000    1.091    0.000    0.000 
#    0.000    0.000    0.000    0.000    0.000    0.000 
#
# Total GULP energy -244952.807251 kJ/mol
# GULP energy per Si atom -5567.109256 kJ/mol
# Density = 2.295497 g / cm^3
# Si number density = 23.007338 Si / 1000 Ang^3
#
#
#
# Elastic Constant Matrix: (Units=GPa)
#
#
# Indices 1 2 3 4 5 6 
#
# 1 83.1899 18.7046 10.3139 0.0000 0.0000 0.0000
# 2 18.7046 164.3752 47.2875 0.0000 0.0000 0.0000
# 3 10.3139 47.2875 140.0519 0.0000 0.0000 0.0000
# 4 0.0000 0.0000 0.0000 34.7647 0.0000 0.0000
# 5 0.0000 0.0000 0.0000 0.0000 8.4009 0.0000
# 6 0.0000 0.0000 0.0000 0.0000 0.0000 -6.1348
#
#
#
# Elastic Compliance Matrix: (Units=1/GPa)
#
#
# Indices 1 2 3 4 5 6 
#
# 1 0.012366 -0.001268 -0.000482 0.000000 0.000000 0.000000
# 2 -0.001268 0.006868 -0.002226 0.000000 0.000000 0.000000
# 3 -0.000482 -0.002226 0.007927 0.000000 0.000000 0.000000
# 4 0.000000 0.000000 0.000000 0.028765 0.000000 0.000000
# 5 0.000000 0.000000 0.000000 0.000000 0.119035 0.000000
# 6 0.000000 0.000000 0.000000 0.000000 0.000000 -0.163005
#
#
# Mechanical properties :
#
#
# Convention : Reuss Voigt Hill
#
# Bulk Modulus (GPa) = 52.06055 60.02544 56.04299
# Shear Modulus (GPa) = 190.03295 28.16023 109.09659
#
# Velocity S-wave (km/s) = 9.09813 3.50232 6.89356
# Velocity P-wave (km/s) = 11.53451 6.51930 9.36873
#
# Compressibility (1/GPa) = 0.01920840
#
# Stress axis : x y z
#
# Youngs Moduli (GPa) = 80.86908 145.59788 126.14799
#
# Poissons Ratio (x) = 0.18467 0.06085
# Poissons Ratio (y) = 0.10257 0.28076
# Poissons Ratio (z) = 0.03901 0.32404
#
# Static dielectric constant tensor:
#      x y z
#    x 2.007340 0.000000 0.000000 
#    y 0.000000 1.846980 0.000000 
#    z 0.000000 0.000000 1.843870 
# 
# From -- ./inp_files/26057.got.cif
#   From: 2010.05.17/outbox.cif.g08.bks.cpg/sg53_14_cif.got.tgz:26057.got - 2010.06.03 12:45:16.
