data_PCOD9417115
_publ_section_title
;
Structure prediction by ZEFSAII (Michael W. Deem and Ramdas Pophale) SiO2 
 PCOD9417115
Probable space group: P M N A
;
_chemical_formula_sum "Si O2"
_cell_formula_units_Z 64
_cell_length_a 8.772413
_cell_length_b 22.229673
_cell_length_c 18.061143
_cell_angle_alpha 90.000000
_cell_angle_beta 90.000000
_cell_angle_gamma 90.000000
_cell_volume 3522.065070
_symmetry_space_group_name_H-M "P M N A"
_symmetry_group_IT_number 53
_symmetry_cell_setting 'orthorhombic'
loop_
_space_group_symop_operation_xyz
x,y,z
1/2-x,-y,1/2+z
x,-y,-z
1/2-x,y,1/2-z
-x,-y,-z
1/2+x,y,1/2-z
-x,y,z
1/2+x,-y,1/2+z
loop_
_atom_site_type_symbol
_atom_site_label
_atom_site_fract_x
_atom_site_fract_y
_atom_site_fract_z
Si Si1 0.181492 0.875114 0.326714
Si Si2 0.316087 0.932850 0.018798
Si Si3 0.817462 0.499524 0.831153
Si Si4 0.681970 0.182892 0.450352
Si Si5 0.317808 0.607559 0.924401
Si Si6 0.682184 0.757969 0.391267
Si Si7 0.683867 0.719336 0.667704
Si Si8 0.183330 0.376588 0.912399
O O1 0.250000 0.897496 0.250000
O O2 0.233681 0.912254 0.398991
O O3 0.234547 0.806679 0.340957
O O4 0.000000 0.877423 0.323333
O O5 0.500000 0.932352 0.017659
O O6 0.258497 0.881478 0.963053
O O7 0.263619 0.000000 0.000000
O O8 0.750000 0.510437 0.750000
O O9 0.745435 0.546401 0.888546
O O10 0.782684 0.431940 0.858455
O O11 0.000000 0.507303 0.829970
O O12 0.500000 0.174684 0.448284
O O13 0.715649 0.222975 0.523564
O O14 0.727785 0.220988 0.378660
O O15 0.500000 0.608909 0.920542
O O16 0.248485 0.662418 0.877031
O O17 0.262511 0.613421 0.008766
O O18 0.500000 0.763664 0.380243
O O19 0.727135 0.688777 0.380924
O O20 0.750000 0.720120 0.750000
O O21 0.500000 0.715496 0.669379
O O22 0.000000 0.375154 0.924875
#
# Coordination Sequence:
#
# PCOD9417115 Si02
#       8
#     8   8   8   8   8   8   8   8
#     4  10  20  34  54  82 114 149 188 229 277 328
#     4   9  19  36  58  83 113 150 191 233 276 325
#     4  11  24  41  59  78 109 148 188 234 289 341
#     4   9  18  34  57  81 111 144 180 226 271 329
#     4  12  24  38  59  84 111 145 189 236 282 338
#     4   9  17  34  57  81 109 142 179 223 276 329
#     4  11  22  38  58  84 115 147 186 232 287 340
#     4  10  21  39  61  84 111 147 184 229 284 340
#
# _framework density 18.171157999999998
#
# number of rings (size 3 to 8) (size 9 to 14) (size 15 to 20)
#    0.000    1.875    1.250    3.000    0.000    5.250 
#    0.000    1.875    0.000    3.000    0.000    0.000 
#    0.000    0.000    0.000    0.000    0.000    0.000 
#
# Total GULP energy -357461.146503 kJ/mol
# GULP energy per Si atom -5585.330414 kJ/mol
# Density = 1.812980 g / cm^3
# Si number density = 18.171158 Si / 1000 Ang^3
#
#
#
# Elastic Constant Matrix: (Units=GPa)
#
#
# Indices 1 2 3 4 5 6 
#
# 1 33.2628 23.7211 13.5798 0.0000 0.0000 0.0000
# 2 23.7211 118.5479 8.4246 0.0000 0.0000 0.0000
# 3 13.5798 8.4246 45.6186 0.0000 0.0000 0.0000
# 4 0.0000 0.0000 0.0000 13.3585 0.0000 0.0000
# 5 0.0000 0.0000 0.0000 0.0000 31.8679 0.0000
# 6 0.0000 0.0000 0.0000 0.0000 0.0000 -743.0607
#
#
#
# Elastic Compliance Matrix: (Units=1/GPa)
#
#
# Indices 1 2 3 4 5 6 
#
# 1 0.039411 -0.007146 -0.010412 0.000000 0.000000 0.000000
# 2 -0.007146 0.009843 0.000309 0.000000 0.000000 0.000000
# 3 -0.010412 0.000309 0.024963 0.000000 0.000000 0.000000
# 4 0.000000 0.000000 0.000000 0.074859 0.000000 0.000000
# 5 0.000000 0.000000 0.000000 0.000000 0.031380 0.000000
# 6 0.000000 0.000000 0.000000 0.000000 0.000000 -0.001346
#
#
# Mechanical properties :
#
#
# Convention : Reuss Voigt Hill
#
# Bulk Modulus (GPa) = 25.17640 32.09781 28.63710
# Shear Modulus (GPa) = 22.04129 -129.45327 -53.70599
#
# Velocity S-wave (km/s) = 3.48657 -8.44960 -5.44241
# Velocity P-wave (km/s) = 5.48575 8.80294 4.86818
#
# Compressibility (1/GPa) = 0.03971974
#
# Stress axis : x y z
#
# Youngs Moduli (GPa) = 25.37392 101.59173 40.05891
#
# Poissons Ratio (x) = 0.72598 0.41710
# Poissons Ratio (y) = 0.18132 -0.01240
# Poissons Ratio (z) = 0.26420 -0.03144
#
# Static dielectric constant tensor:
#      x y z
#    x 1.610510 0.000000 0.000000 
#    y 0.000000 1.615500 0.000000 
#    z 0.000000 0.000000 1.601930 
# 
# From -- ./inp_files/26956.got.cif
#   From: 2010.05.17/outbox.cif.g08.bks.cpg/sg53_14_cif.got.tgz:26956.got - 2010.06.03 12:45:16.
