data_PCOD9417392
_publ_section_title
;
Structure prediction by ZEFSAII (Michael W. Deem and Ramdas Pophale) SiO2 
 PCOD9417392
Probable space group: P M N A
;
_chemical_formula_sum "Si O2"
_cell_formula_units_Z 64
_cell_length_a 24.091592
_cell_length_b 8.073922
_cell_length_c 15.426106
_cell_angle_alpha 90.000000
_cell_angle_beta 90.000000
_cell_angle_gamma 90.000000
_cell_volume 3000.587947
_symmetry_space_group_name_H-M "P M N A"
_symmetry_group_IT_number 53
_symmetry_cell_setting 'orthorhombic'
loop_
_space_group_symop_operation_xyz
x,y,z
1/2-x,-y,1/2+z
x,-y,-z
1/2-x,y,1/2-z
-x,-y,-z
1/2+x,y,1/2-z
-x,y,z
1/2+x,-y,1/2+z
loop_
_atom_site_type_symbol
_atom_site_label
_atom_site_fract_x
_atom_site_fract_y
_atom_site_fract_z
Si Si1 0.170770 0.169704 0.909222
Si Si2 0.156085 0.227259 0.099790
Si Si3 0.886703 0.714427 0.583790
Si Si4 0.891783 0.175457 0.742840
Si Si5 0.435977 0.653038 0.086754
Si Si6 0.217828 0.765118 0.336827
Si Si7 0.435657 0.820571 0.734815
Si Si8 0.229748 0.413853 0.405327
O O1 0.140089 0.249470 0.826233
O O2 0.237246 0.194800 0.910496
O O3 0.165328 0.972037 0.896433
O O4 0.145360 0.244672 0.996742
O O5 0.106453 0.264856 0.166493
O O6 0.212006 0.329909 0.119599
O O7 0.907926 0.765344 0.488456
O O8 0.904422 0.521167 0.586841
O O9 0.916898 0.790449 0.666277
O O10 0.820406 0.717256 0.592316
O O11 0.931594 0.283845 0.684492
O O12 0.840914 0.146138 0.674214
O O13 0.924995 0.016648 0.775181
O O14 0.500000 0.635161 0.063521
O O15 0.250000 0.813455 0.250000
O O16 0.212162 0.566194 0.342849
O O17 0.500000 0.777246 0.722253
O O18 0.233224 0.500000 0.500000
#
# Coordination Sequence:
#
# PCOD9417392 Si02
#       8
#     8   8   8   8   8   8   8   8
#     4   9  20  40  60  89 125 163 200 260 318 375
#     4  10  23  39  64  90 128 163 209 256 321 373
#     4  11  23  39  60  88 129 160 211 252 318 376
#     4  10  21  39  62  90 121 162 213 261 311 373
#     4  11  21  39  61  85 120 166 209 259 309 373
#     4  10  20  35  56  87 124 153 197 250 312 373
#     4  11  25  44  63  91 128 170 217 263 309 370
#     4  12  21  37  60  96 123 159 204 255 319 385
#
# _framework density 21.329153000000002
#
# number of rings (size 3 to 8) (size 9 to 14) (size 15 to 20)
#    0.000    1.500    3.750    1.875    3.500    0.500 
#    0.000    6.875    0.000    0.375    0.000    0.000 
#    0.000    0.000    0.000    0.000    0.000    0.000 
#
# Total GULP energy -356781.741551 kJ/mol
# GULP energy per Si atom -5574.714712 kJ/mol
# Density = 2.128061 g / cm^3
# Si number density = 21.329153 Si / 1000 Ang^3
#
#
#
# Elastic Constant Matrix: (Units=GPa)
#
#
# Indices 1 2 3 4 5 6 
#
# 1 148.2086 9.7210 37.9926 0.0000 0.0000 0.0000
# 2 9.7210 7.9358 -2.4844 0.0000 0.0000 0.0000
# 3 37.9926 -2.4844 79.8043 0.0000 0.0000 0.0000
# 4 0.0000 0.0000 0.0000 26.4326 0.0000 0.0000
# 5 0.0000 0.0000 0.0000 0.0000 26.8030 0.0000
# 6 0.0000 0.0000 0.0000 0.0000 0.0000 47.6863
#
#
#
# Elastic Compliance Matrix: (Units=1/GPa)
#
#
# Indices 1 2 3 4 5 6 
#
# 1 0.008696 -0.012066 -0.004516 0.000000 0.000000 0.000000
# 2 -0.012066 0.143993 0.010227 0.000000 0.000000 0.000000
# 3 -0.004516 0.010227 0.014999 0.000000 0.000000 0.000000
# 4 0.000000 0.000000 0.000000 0.037832 0.000000 0.000000
# 5 0.000000 0.000000 0.000000 0.000000 0.037309 0.000000
# 6 0.000000 0.000000 0.000000 0.000000 0.000000 0.020970
#
#
# Mechanical properties :
#
#
# Convention : Reuss Voigt Hill
#
# Bulk Modulus (GPa) = 6.45252 36.26745 21.35999
# Shear Modulus (GPa) = 15.23608 32.89901 24.06755
#
# Velocity S-wave (km/s) = 2.67560 3.93166 3.36279
# Velocity P-wave (km/s) = 3.54639 6.13606 5.01139
#
# Compressibility (1/GPa) = 0.15497823
#
# Stress axis : x y z
#
# Youngs Moduli (GPa) = 114.99231 6.94480 66.67197
#
# Poissons Ratio (x) = 0.08380 0.30107
# Poissons Ratio (y) = 1.38751 -0.68186
# Poissons Ratio (z) = 0.51927 -0.07102
#
# Static dielectric constant tensor:
#      x y z
#    x 1.794990 0.000000 0.000000 
#    y 0.000000 1.651800 0.000000 
#    z 0.000000 0.000000 1.871090 
# 
# From -- ./inp_files/24720.got.cif
#   From: 2010.05.17/outbox.cif.g08.bks.cpg/sg53_13_cif.got.tgz:24720.got - 2010.06.03 12:45:16.
