data_PCOD9417856
_publ_section_title
;
Structure prediction by ZEFSAII (Michael W. Deem and Ramdas Pophale) SiO2 
 PCOD9417856
Probable space group: P M N A
;
_chemical_formula_sum "Si O2"
_cell_formula_units_Z 48
_cell_length_a 8.683285
_cell_length_b 31.668494
_cell_length_c 9.219298
_cell_angle_alpha 90.000000
_cell_angle_beta 90.000000
_cell_angle_gamma 90.000000
_cell_volume 2535.183033
_symmetry_space_group_name_H-M "P M N A"
_symmetry_group_IT_number 53
_symmetry_cell_setting 'orthorhombic'
loop_
_space_group_symop_operation_xyz
x,y,z
1/2-x,-y,1/2+z
x,-y,-z
1/2-x,y,1/2-z
-x,-y,-z
1/2+x,y,1/2-z
-x,y,z
1/2+x,-y,1/2+z
loop_
_atom_site_type_symbol
_atom_site_label
_atom_site_fract_x
_atom_site_fract_y
_atom_site_fract_z
Si Si1 0.184495 0.121934 0.087637
Si Si2 0.815899 0.713606 0.588176
Si Si3 0.814549 0.459610 0.910993
Si Si4 0.184787 0.042382 0.587526
Si Si5 0.314567 0.365128 0.586264
Si Si6 0.315109 0.792897 0.412036
O O1 0.250000 0.122416 0.250000
O O2 0.000000 0.118361 0.093727
O O3 0.251411 0.082680 0.998280
O O4 0.223569 0.165236 0.004000
O O5 0.750000 0.717604 0.750000
O O6 0.756273 0.670567 0.515002
O O7 0.755297 0.752351 0.491437
O O8 0.000000 0.714002 0.592152
O O9 0.750000 0.462585 0.750000
O O10 0.773724 0.412641 0.966223
O O11 0.000000 0.461241 0.906287
O O12 0.758280 0.500000 0.000000
O O13 0.250000 0.041139 0.750000
O O14 0.000000 0.044758 0.593818
O O15 0.227946 0.000000 0.500000
O O16 0.250000 0.360460 0.750000
O O17 0.500000 0.361166 0.589947
O O18 0.250000 0.796482 0.250000
O O19 0.500000 0.788800 0.406549
#
# Coordination Sequence:
#
# PCOD9417856 Si02
#       6
#     8   8   8   8   8   8
#     4  11  24  41  64  92 124 160 199 246 297 351
#     4  12  25  41  61  86 117 152 192 239 291 346
#     4   9  19  35  55  81 112 147 188 233 282 338
#     4  11  24  41  63  91 124 162 204 250 299 353
#     4  10  20  37  59  83 114 151 192 237 286 342
#     4  11  24  42  64  91 121 156 197 240 290 347
#
# _framework density 18.933544999999999
#
# number of rings (size 3 to 8) (size 9 to 14) (size 15 to 20)
#    0.000    1.333    0.000    5.500    0.000    9.667 
#    0.000    1.667    0.000    0.000    0.000    0.000 
#    0.000    0.000    0.000    0.000    0.000    0.000 
#
# Total GULP energy -268430.254624 kJ/mol
# GULP energy per Si atom -5592.296971 kJ/mol
# Density = 1.889045 g / cm^3
# Si number density = 18.933545 Si / 1000 Ang^3
#
#
#
# Elastic Constant Matrix: (Units=GPa)
#
#
# Indices 1 2 3 4 5 6 
#
# 1 81.4499 80.2841 62.8387 0.0000 0.0000 0.0000
# 2 80.2841 207.4637 118.6597 0.0000 0.0000 0.0000
# 3 62.8387 118.6597 175.6340 0.0000 0.0000 0.0000
# 4 0.0000 0.0000 0.0000 36.5771 0.0000 0.0000
# 5 0.0000 0.0000 0.0000 0.0000 39.0932 0.0000
# 6 0.0000 0.0000 0.0000 0.0000 0.0000 36.5064
#
#
#
# Elastic Compliance Matrix: (Units=1/GPa)
#
#
# Indices 1 2 3 4 5 6 
#
# 1 0.020953 -0.006227 -0.003290 0.000000 0.000000 0.000000
# 2 -0.006227 0.009706 -0.004330 0.000000 0.000000 0.000000
# 3 -0.003290 -0.004330 0.009796 0.000000 0.000000 0.000000
# 4 0.000000 0.000000 0.000000 0.027339 0.000000 0.000000
# 5 0.000000 0.000000 0.000000 0.000000 0.025580 0.000000
# 6 0.000000 0.000000 0.000000 0.000000 0.000000 0.027392
#
#
# Mechanical properties :
#
#
# Convention : Reuss Voigt Hill
#
# Bulk Modulus (GPa) = 78.35390 109.79026 94.07208
# Shear Modulus (GPa) = 32.74091 35.95303 34.34697
#
# Velocity S-wave (km/s) = 4.16294 4.36237 4.26382
# Velocity P-wave (km/s) = 8.03618 9.13711 8.60427
#
# Compressibility (1/GPa) = 0.01276261
#
# Stress axis : x y z
#
# Youngs Moduli (GPa) = 47.72518 103.02710 102.08384
#
# Poissons Ratio (x) = 0.64154 0.33583
# Poissons Ratio (y) = 0.29718 0.44199
# Poissons Ratio (z) = 0.15701 0.44608
#
# Static dielectric constant tensor:
#      x y z
#    x 1.634080 0.000000 0.000000 
#    y 0.000000 1.652800 0.000000 
#    z 0.000000 0.000000 1.606840 
# 
# From -- ./inp_files/6567.got.cif
#   From: 2010.05.17/outbox.cif.g08.bks.cpg/sg53_4_cif.got.tgz:6567.got - 2010.06.03 12:45:16.
