data_PCOD9417668
_publ_section_title
;
Structure prediction by ZEFSAII (Michael W. Deem and Ramdas Pophale) SiO2 
 PCOD9417668
Probable space group: P M N A
;
_chemical_formula_sum "Si O2"
_cell_formula_units_Z 48
_cell_length_a 8.660991
_cell_length_b 17.948670
_cell_length_c 15.783788
_cell_angle_alpha 90.000000
_cell_angle_beta 90.000000
_cell_angle_gamma 90.000000
_cell_volume 2453.641447
_symmetry_space_group_name_H-M "P M N A"
_symmetry_group_IT_number 53
_symmetry_cell_setting 'orthorhombic'
loop_
_space_group_symop_operation_xyz
x,y,z
1/2-x,-y,1/2+z
x,-y,-z
1/2-x,y,1/2-z
-x,-y,-z
1/2+x,y,1/2-z
-x,y,z
1/2+x,-y,1/2+z
loop_
_atom_site_type_symbol
_atom_site_label
_atom_site_fract_x
_atom_site_fract_y
_atom_site_fract_z
Si Si1 0.686235 0.912815 0.495442
Si Si2 0.182298 0.655929 0.656019
Si Si3 0.672572 0.495630 0.400581
Si Si4 0.184270 0.187121 0.653759
Si Si5 0.184753 0.811203 0.845969
Si Si6 0.813957 0.657985 0.155606
O O1 0.500000 0.905400 0.487553
O O2 0.761442 0.874705 0.413154
O O3 0.731396 0.871770 0.583411
O O4 0.724463 0.000000 0.500000
O O5 0.250000 0.652448 0.750000
O O6 0.227118 0.576660 0.617595
O O7 0.260245 0.730442 0.619717
O O8 0.000000 0.666210 0.656521
O O9 0.654487 0.500000 0.500000
O O10 0.500000 0.486122 0.361139
O O11 0.736098 0.576425 0.375282
O O12 0.250000 0.176016 0.750000
O O13 0.246265 0.266360 0.616969
O O14 0.000000 0.189858 0.660150
O O15 0.250000 0.822317 0.750000
O O16 0.000000 0.810983 0.838806
O O17 0.750000 0.661847 0.250000
O O18 0.000000 0.660842 0.151086
#
# Coordination Sequence:
#
# PCOD9417668 Si02
#       6
#     8   8   8   8   8   8
#     4  10  23  43  66  93 125 161 199 245 306 368
#     4  11  22  37  58  83 114 153 198 244 292 348
#     4  10  22  37  54  81 116 156 197 241 295 348
#     4  11  23  40  64  92 125 162 205 252 302 362
#     4  10  21  39  64  90 122 160 201 249 300 360
#     4  10  20  36  58  82 112 153 199 245 295 351
#
# _framework density 19.562760999999998
#
# number of rings (size 3 to 8) (size 9 to 14) (size 15 to 20)
#    0.000    1.667    0.000    6.500    2.333    5.333 
#    0.000    1.667    0.000    0.000    0.000    0.000 
#    0.000    0.000    0.000    0.000    0.000    0.000 
#
# Total GULP energy -267818.333087 kJ/mol
# GULP energy per Si atom -5579.548606 kJ/mol
# Density = 1.951823 g / cm^3
# Si number density = 19.562761 Si / 1000 Ang^3
#
#
#
# Elastic Constant Matrix: (Units=GPa)
#
#
# Indices 1 2 3 4 5 6 
#
# 1 85.6637 58.1219 36.7779 0.0000 0.0000 0.0000
# 2 58.1219 185.7766 76.5324 0.0000 0.0000 0.0000
# 3 36.7779 76.5324 83.4053 0.0000 0.0000 0.0000
# 4 0.0000 0.0000 0.0000 42.7972 0.0000 0.0000
# 5 0.0000 0.0000 0.0000 0.0000 22.8327 0.0000
# 6 0.0000 0.0000 0.0000 0.0000 0.0000 39.4171
#
#
#
# Elastic Compliance Matrix: (Units=1/GPa)
#
#
# Indices 1 2 3 4 5 6 
#
# 1 0.015551 -0.003280 -0.003847 0.000000 0.000000 0.000000
# 2 -0.003280 0.009346 -0.007130 0.000000 0.000000 0.000000
# 3 -0.003847 -0.007130 0.020228 0.000000 0.000000 0.000000
# 4 0.000000 0.000000 0.000000 0.023366 0.000000 0.000000
# 5 0.000000 0.000000 0.000000 0.000000 0.043797 0.000000
# 6 0.000000 0.000000 0.000000 0.000000 0.000000 0.025370
#
#
# Mechanical properties :
#
#
# Convention : Reuss Voigt Hill
#
# Bulk Modulus (GPa) = 60.20087 77.52333 68.86210
# Shear Modulus (GPa) = 29.11903 33.23697 31.17800
#
# Velocity S-wave (km/s) = 3.86228 4.12635 3.99650
# Velocity P-wave (km/s) = 7.12248 7.90041 7.52151
#
# Compressibility (1/GPa) = 0.01661106
#
# Stress axis : x y z
#
# Youngs Moduli (GPa) = 64.30473 106.99555 49.43609
#
# Poissons Ratio (x) = 0.35098 0.19019
# Poissons Ratio (y) = 0.21094 0.35246
# Poissons Ratio (z) = 0.24739 0.76283
#
# Static dielectric constant tensor:
#      x y z
#    x 1.685840 0.000000 0.000000 
#    y 0.000000 1.806020 0.000000 
#    z 0.000000 0.000000 1.660930 
# 
# From -- ./inp_files/20184.got.cif
#   From: 2010.05.17/outbox.cif.g08.bks.cpg/sg53_11_cif.got.tgz:20184.got - 2010.06.03 12:45:16.
