data_PCOD9417080
_publ_section_title
;
Structure prediction by ZEFSAII (Michael W. Deem and Ramdas Pophale) SiO2 
 PCOD9417080
Probable space group: P M N A
;
_chemical_formula_sum "Si O2"
_cell_formula_units_Z 56
_cell_length_a 14.925299
_cell_length_b 15.054130
_cell_length_c 11.648520
_cell_angle_alpha 90.000000
_cell_angle_beta 90.000000
_cell_angle_gamma 90.000000
_cell_volume 2617.275573
_symmetry_space_group_name_H-M "P M N A"
_symmetry_group_IT_number 53
_symmetry_cell_setting 'orthorhombic'
loop_
_space_group_symop_operation_xyz
x,y,z
1/2-x,-y,1/2+z
x,-y,-z
1/2-x,y,1/2-z
-x,-y,-z
1/2+x,y,1/2-z
-x,y,z
1/2+x,-y,1/2+z
loop_
_atom_site_type_symbol
_atom_site_label
_atom_site_fract_x
_atom_site_fract_y
_atom_site_fract_z
Si Si1 0.602178 0.210038 0.882224
Si Si2 0.845636 0.137033 0.193967
Si Si3 0.198017 0.489243 0.129693
Si Si4 0.606146 0.674728 0.330239
Si Si5 0.897938 0.307226 0.079871
Si Si6 0.597732 0.050405 0.706299
Si Si7 0.248049 0.093993 0.530908
O O1 0.500000 0.232844 0.923293
O O2 0.638840 0.283898 0.790891
O O3 0.593430 0.120441 0.808096
O O4 0.679224 0.176787 0.968958
O O5 0.750000 0.153849 0.250000
O O6 0.894591 0.228924 0.172302
O O7 0.892759 0.051421 0.247499
O O8 0.822213 0.104541 0.066720
O O9 0.250000 0.492676 0.250000
O O10 0.130710 0.572555 0.145821
O O11 0.155051 0.392376 0.122216
O O12 0.240605 0.500000 0.000000
O O13 0.500000 0.687375 0.318680
O O14 0.634018 0.720895 0.450766
O O15 0.000000 0.335438 0.063444
O O16 0.500000 0.057959 0.644062
O O17 0.689110 0.078384 0.641493
O O18 0.200862 0.000000 0.500000
#
# Coordination Sequence:
#
# PCOD9417080 Si02
#       7
#     8   8   8   8   8   8   8
#     4  10  20  35  56  82 113 145 181 230 288 352
#     4  11  22  35  51  73 106 145 186 227 270 333
#     4  10  21  37  60  88 118 152 191 242 302 364
#     4   9  19  36  59  86 110 139 186 240 291 345
#     4  10  20  36  58  82 110 146 189 238 291 346
#     4  10  20  34  54  79 105 136 178 230 285 336
#     4  10  21  35  53  77 110 148 186 234 288 346
#
# _framework density 21.396296
#
# number of rings (size 3 to 8) (size 9 to 14) (size 15 to 20)
#    0.000    2.000    0.000    4.286    0.000    9.714 
#    0.000    1.429    0.000    3.429    0.000    0.000 
#    0.000    1.143    0.000    0.000    0.000    0.000 
#
# Total GULP energy -311756.271226 kJ/mol
# GULP energy per Si atom -5567.076272 kJ/mol
# Density = 2.134760 g / cm^3
# Si number density = 21.396296 Si / 1000 Ang^3
#
#
#
# Elastic Constant Matrix: (Units=GPa)
#
#
# Indices 1 2 3 4 5 6 
#
# 1 56.1523 -6.9359 5.7252 0.0000 0.0000 0.0000
# 2 -6.9359 77.7748 9.7387 0.0000 0.0000 0.0000
# 3 5.7252 9.7387 33.2702 0.0000 0.0000 0.0000
# 4 0.0000 0.0000 0.0000 31.3530 0.0000 0.0000
# 5 0.0000 0.0000 0.0000 0.0000 23.3102 0.0000
# 6 0.0000 0.0000 0.0000 0.0000 0.0000 32.0084
#
#
#
# Elastic Compliance Matrix: (Units=1/GPa)
#
#
# Indices 1 2 3 4 5 6 
#
# 1 0.018458 0.002122 -0.003797 0.000000 0.000000 0.000000
# 2 0.002122 0.013591 -0.004343 0.000000 0.000000 0.000000
# 3 -0.003797 -0.004343 0.031982 0.000000 0.000000 0.000000
# 4 0.000000 0.000000 0.000000 0.031895 0.000000 0.000000
# 5 0.000000 0.000000 0.000000 0.000000 0.042900 0.000000
# 6 0.000000 0.000000 0.000000 0.000000 0.000000 0.031242
#
#
# Mechanical properties :
#
#
# Convention : Reuss Voigt Hill
#
# Bulk Modulus (GPa) = 19.23360 20.47257 19.85309
# Shear Modulus (GPa) = 25.07076 27.91228 26.49152
#
# Velocity S-wave (km/s) = 3.42677 3.61576 3.52253
# Velocity P-wave (km/s) = 4.96646 5.19814 5.08362
#
# Compressibility (1/GPa) = 0.05199234
#
# Stress axis : x y z
#
# Youngs Moduli (GPa) = 54.17722 73.57984 31.26784
#
# Poissons Ratio (x) = -0.15610 0.11873
# Poissons Ratio (y) = -0.11494 0.13581
# Poissons Ratio (z) = 0.20573 0.31958
#
# Static dielectric constant tensor:
#      x y z
#    x 1.835960 0.000000 0.000000 
#    y 0.000000 1.809900 0.000000 
#    z 0.000000 0.000000 1.900450 
# 
# From -- ./inp_files/16036.got.cif
#   From: 2010.05.17/outbox.cif.g08.bks.cpg/sg53_9_cif.got.tgz:16036.got - 2010.06.03 12:45:16.
