data_PCOD9417291
_publ_section_title
;
Structure prediction by ZEFSAII (Michael W. Deem and Ramdas Pophale) SiO2 
 PCOD9417291
Probable space group: P M N A
;
_chemical_formula_sum "Si O2"
_cell_formula_units_Z 56
_cell_length_a 15.812246
_cell_length_b 10.063037
_cell_length_c 19.096587
_cell_angle_alpha 90.000000
_cell_angle_beta 90.000000
_cell_angle_gamma 90.000000
_cell_volume 3038.633962
_symmetry_space_group_name_H-M "P M N A"
_symmetry_group_IT_number 53
_symmetry_cell_setting 'orthorhombic'
loop_
_space_group_symop_operation_xyz
x,y,z
1/2-x,-y,1/2+z
x,-y,-z
1/2-x,y,1/2-z
-x,-y,-z
1/2+x,y,1/2-z
-x,y,z
1/2+x,-y,1/2+z
loop_
_atom_site_type_symbol
_atom_site_label
_atom_site_fract_x
_atom_site_fract_y
_atom_site_fract_z
Si Si1 0.094472 0.538897 0.190049
Si Si2 0.823477 0.260058 0.196556
Si Si3 0.902480 0.729161 0.318437
Si Si4 0.768176 0.320222 0.441802
Si Si5 0.250183 0.622425 0.094651
Si Si6 0.899921 0.019243 0.280155
Si Si7 0.100829 0.101130 0.439198
O O1 0.110191 0.380964 0.195001
O O2 0.098932 0.604205 0.266574
O O3 0.169020 0.604923 0.144406
O O4 0.000000 0.564861 0.162044
O O5 0.750000 0.305994 0.250000
O O6 0.786495 0.250438 0.118579
O O7 0.855126 0.120934 0.227909
O O8 0.827587 0.706301 0.373464
O O9 0.000000 0.744671 0.346285
O O10 0.883928 0.862265 0.273575
O O11 0.781910 0.471258 0.417342
O O12 0.725846 0.323939 0.518073
O O13 0.855037 0.241693 0.449116
O O14 0.877559 0.051743 0.360971
O O15 0.000000 0.040882 0.272273
O O16 0.000000 0.111584 0.443444
O O17 0.129089 0.000000 0.500000
#
# Coordination Sequence:
#
# PCOD9417291 Si02
#       7
#     8   8   8   8   8   8   8
#     4  10  21  38  60  84 113 154 198 249 301 350
#     4  11  20  36  58  84 113 150 200 249 292 345
#     4  10  21  37  60  88 121 157 192 238 300 359
#     4  10  21  37  55  83 115 154 198 246 292 356
#     4  10  21  38  58  84 121 150 200 248 295 358
#     4  10  21  36  55  83 117 151 192 237 287 354
#     4  10  20  35  54  79 118 156 187 232 291 358
#
# _framework density 18.429334000000001
#
# number of rings (size 3 to 8) (size 9 to 14) (size 15 to 20)
#    0.000    1.857    1.429    3.429    0.000    3.429 
#    2.571    7.857    0.000    0.000    0.000    3.000 
#    0.000    0.000    0.000    0.000    0.000    0.000 
#
# Total GULP energy -312354.989630 kJ/mol
# GULP energy per Si atom -5577.767672 kJ/mol
# Density = 1.838739 g / cm^3
# Si number density = 18.429334 Si / 1000 Ang^3
#
#
#
# Elastic Constant Matrix: (Units=GPa)
#
#
# Indices 1 2 3 4 5 6 
#
# 1 75.0584 38.5877 44.8302 0.0000 0.0000 0.0000
# 2 38.5877 59.4515 39.5446 0.0000 0.0000 0.0000
# 3 44.8302 39.5446 106.2308 0.0000 0.0000 0.0000
# 4 0.0000 0.0000 0.0000 26.0890 0.0000 0.0000
# 5 0.0000 0.0000 0.0000 0.0000 15.9541 0.0000
# 6 0.0000 0.0000 0.0000 0.0000 0.0000 23.5986
#
#
#
# Elastic Compliance Matrix: (Units=1/GPa)
#
#
# Indices 1 2 3 4 5 6 
#
# 1 0.022018 -0.010780 -0.005279 0.000000 0.000000 0.000000
# 2 -0.010780 0.027633 -0.005738 0.000000 0.000000 0.000000
# 3 -0.005279 -0.005738 0.013777 0.000000 0.000000 0.000000
# 4 0.000000 0.000000 0.000000 0.038330 0.000000 0.000000
# 5 0.000000 0.000000 0.000000 0.000000 0.062680 0.000000
# 6 0.000000 0.000000 0.000000 0.000000 0.000000 0.042375
#
#
# Mechanical properties :
#
#
# Convention : Reuss Voigt Hill
#
# Bulk Modulus (GPa) = 50.41311 54.07396 52.24354
# Shear Modulus (GPa) = 19.45391 20.98021 20.21706
#
# Velocity S-wave (km/s) = 3.25252 3.37770 3.31570
# Velocity P-wave (km/s) = 6.44355 6.67958 6.56263
#
# Compressibility (1/GPa) = 0.01983611
#
# Stress axis : x y z
#
# Youngs Moduli (GPa) = 45.41792 36.18805 72.58457
#
# Poissons Ratio (x) = 0.39009 0.38317
# Poissons Ratio (y) = 0.48959 0.41646
# Poissons Ratio (z) = 0.23976 0.20763
#
# Static dielectric constant tensor:
#      x y z
#    x 1.642460 0.000000 0.000000 
#    y 0.000000 1.640340 0.000000 
#    z 0.000000 0.000000 1.643710 
# 
# From -- ./inp_files/32489.got.cif
#   From: 2010.05.17/outbox.cif.g08.bks.cpg/sg53_17_cif.got.tgz:32489.got - 2010.06.03 12:45:16.
