data_PCOD9417661
_publ_section_title
;
Structure prediction by ZEFSAII (Michael W. Deem and Ramdas Pophale) SiO2 
 PCOD9417661
Probable space group: P M N A
;
_chemical_formula_sum "Si O2"
_cell_formula_units_Z 40
_cell_length_a 8.742615
_cell_length_b 26.419660
_cell_length_c 9.262031
_cell_angle_alpha 90.000000
_cell_angle_beta 90.000000
_cell_angle_gamma 90.000000
_cell_volume 2139.315355
_symmetry_space_group_name_H-M "P M N A"
_symmetry_group_IT_number 53
_symmetry_cell_setting 'orthorhombic'
loop_
_space_group_symop_operation_xyz
x,y,z
1/2-x,-y,1/2+z
x,-y,-z
1/2-x,y,1/2-z
-x,-y,-z
1/2+x,y,1/2-z
-x,y,z
1/2+x,-y,1/2+z
loop_
_atom_site_type_symbol
_atom_site_label
_atom_site_fract_x
_atom_site_fract_y
_atom_site_fract_z
Si Si1 0.316190 0.661395 0.587987
Si Si2 0.183495 0.144944 0.411113
Si Si3 0.315783 0.451904 0.409609
Si Si4 0.183376 0.949158 0.088923
Si Si5 0.683308 0.245756 0.909913
O O1 0.250000 0.667355 0.750000
O O2 0.500000 0.665509 0.594121
O O3 0.275209 0.604455 0.535747
O O4 0.249092 0.704208 0.485258
O O5 0.250000 0.144238 0.250000
O O6 0.249268 0.098590 0.503568
O O7 0.223601 0.197253 0.491849
O O8 0.000000 0.141003 0.404440
O O9 0.260722 0.500000 0.500000
O O10 0.250000 0.455789 0.250000
O O11 0.500000 0.453899 0.403709
O O12 0.250000 0.951634 0.250000
O O13 0.000000 0.944766 0.096613
O O14 0.221364 0.000000 0.000000
O O15 0.750000 0.239614 0.750000
O O16 0.500000 0.249024 0.902165
#
# Coordination Sequence:
#
# PCOD9417661 Si02
#       5
#     8   8   8   8   8
#     4  10  20  36  58  82 111 148 189 233 282 338
#     4  11  24  41  63  89 118 154 194 237 286 340
#     4   9  19  35  54  79 110 144 184 229 278 333
#     4  11  24  41  63  91 123 158 196 240 288 339
#     4  11  24  40  59  85 116 150 189 235 286 339
#
# _framework density 18.697572000000001
#
# number of rings (size 3 to 8) (size 9 to 14) (size 15 to 20)
#    0.000    1.600    0.000    4.200    0.000   11.600 
#    0.000    2.000    0.000    0.000    0.000    0.000 
#    0.000    0.000    0.000    0.000    0.000    0.000 
#
# Total GULP energy -223570.762615 kJ/mol
# GULP energy per Si atom -5589.269065 kJ/mol
# Density = 1.865502 g / cm^3
# Si number density = 18.697572 Si / 1000 Ang^3
#
#
#
# Elastic Constant Matrix: (Units=GPa)
#
#
# Indices 1 2 3 4 5 6 
#
# 1 52.5246 74.2150 57.6959 0.0000 0.0000 0.0000
# 2 74.2150 208.3548 120.9372 0.0000 0.0000 0.0000
# 3 57.6959 120.9372 168.1226 0.0000 0.0000 0.0000
# 4 0.0000 0.0000 0.0000 41.5171 0.0000 0.0000
# 5 0.0000 0.0000 0.0000 0.0000 38.9761 0.0000
# 6 0.0000 0.0000 0.0000 0.0000 0.0000 30.7067
#
#
#
# Elastic Compliance Matrix: (Units=1/GPa)
#
#
# Indices 1 2 3 4 5 6 
#
# 1 0.041828 -0.011275 -0.006244 0.000000 0.000000 0.000000
# 2 -0.011275 0.011279 -0.004244 0.000000 0.000000 0.000000
# 3 -0.006244 -0.004244 0.011144 0.000000 0.000000 0.000000
# 4 0.000000 0.000000 0.000000 0.024086 0.000000 0.000000
# 5 0.000000 0.000000 0.000000 0.000000 0.025657 0.000000
# 6 0.000000 0.000000 0.000000 0.000000 0.000000 0.032566
#
#
# Mechanical properties :
#
#
# Convention : Reuss Voigt Hill
#
# Bulk Modulus (GPa) = 48.25073 103.85536 76.05305
# Shear Modulus (GPa) = 25.38130 33.98356 29.68243
#
# Velocity S-wave (km/s) = 3.68838 4.26789 3.98867
# Velocity P-wave (km/s) = 6.63330 8.94158 7.87250
#
# Compressibility (1/GPa) = 0.02072507
#
# Stress axis : x y z
#
# Youngs Moduli (GPa) = 23.90720 88.66047 89.73476
#
# Poissons Ratio (x) = 0.99962 0.56033
# Poissons Ratio (y) = 0.26955 0.38085
# Poissons Ratio (z) = 0.14928 0.37629
#
# Static dielectric constant tensor:
#      x y z
#    x 1.627210 0.000000 0.000000 
#    y 0.000000 1.647860 0.000000 
#    z 0.000000 0.000000 1.596090 
# 
# From -- ./inp_files/6244.got.cif
#   From: 2010.05.17/outbox.cif.g08.bks.cpg/sg53_4_cif.got.tgz:6244.got - 2010.06.03 12:45:16.
