data_PCOD9417437
_publ_section_title
;
Structure prediction by ZEFSAII (Michael W. Deem and Ramdas Pophale) SiO2 
 PCOD9417437
Probable space group: P M N A
;
_chemical_formula_sum "Si O2"
_cell_formula_units_Z 56
_cell_length_a 16.149293
_cell_length_b 10.964309
_cell_length_c 15.164893
_cell_angle_alpha 90.000000
_cell_angle_beta 90.000000
_cell_angle_gamma 90.000000
_cell_volume 2685.184496
_symmetry_space_group_name_H-M "P M N A"
_symmetry_group_IT_number 53
_symmetry_cell_setting 'orthorhombic'
loop_
_space_group_symop_operation_xyz
x,y,z
1/2-x,-y,1/2+z
x,-y,-z
1/2-x,y,1/2-z
-x,-y,-z
1/2+x,y,1/2-z
-x,y,z
1/2+x,-y,1/2+z
loop_
_atom_site_type_symbol
_atom_site_label
_atom_site_fract_x
_atom_site_fract_y
_atom_site_fract_z
Si Si1 0.593124 0.152942 0.895285
Si Si2 0.226732 0.835993 0.052809
Si Si3 0.907834 0.165587 0.094640
Si Si4 0.158560 0.023236 0.779594
Si Si5 0.911381 0.449350 0.599622
Si Si6 0.909642 0.455970 0.101429
Si Si7 0.257439 0.402539 0.655829
O O1 0.500000 0.113431 0.922858
O O2 0.676956 0.122890 0.950392
O O3 0.614026 0.096535 0.799111
O O4 0.589838 0.301158 0.894492
O O5 0.178792 0.891242 0.136785
O O6 0.232732 0.692418 0.076081
O O7 0.169560 0.862298 0.969352
O O8 0.906113 0.310656 0.106991
O O9 0.000000 0.136011 0.057966
O O10 0.894108 0.089062 0.183306
O O11 0.250000 0.980561 0.750000
O O12 0.909447 0.500000 0.500000
O O13 0.824355 0.483159 0.642318
O O14 0.000000 0.490373 0.637998
O O15 0.837748 0.515845 0.156443
O O16 0.000000 0.498900 0.131157
O O17 0.900728 0.500000 0.000000
O O18 0.250000 0.335524 0.750000
#
# Coordination Sequence:
#
# PCOD9417437 Si02
#       7
#     8   8   8   8   8   8   8
#     4   9  18  34  57  85 121 161 201 253 311 365
#     4  10  20  35  57  89 123 158 205 253 307 372
#     4  11  23  38  62  89 119 163 210 254 309 372
#     4  10  21  38  59  87 125 161 201 258 311 367
#     4   9  18  32  54  85 120 159 204 247 293 362
#     4  10  21  39  58  82 118 162 207 254 308 370
#     4  11  21  34  57  86 121 162 200 248 314 371
#
# _framework density 20.855179
#
# number of rings (size 3 to 8) (size 9 to 14) (size 15 to 20)
#    0.000    2.000    1.429    3.429    2.000    2.857 
#    0.000    1.429    0.000    7.714    0.000    0.000 
#    0.000    0.000    0.000    0.000    0.000    0.000 
#
# Total GULP energy -312215.766248 kJ/mol
# GULP energy per Si atom -5575.281540 kJ/mol
# Density = 2.080771 g / cm^3
# Si number density = 20.855179 Si / 1000 Ang^3
#
#
#
# Elastic Constant Matrix: (Units=GPa)
#
#
# Indices 1 2 3 4 5 6 
#
# 1 172.6648 45.1483 49.5762 0.0000 0.0000 0.0000
# 2 45.1483 77.6881 29.2843 0.0000 0.0000 0.0000
# 3 49.5762 29.2843 69.5093 0.0000 0.0000 0.0000
# 4 0.0000 0.0000 0.0000 34.7051 0.0000 0.0000
# 5 0.0000 0.0000 0.0000 0.0000 10.6629 0.0000
# 6 0.0000 0.0000 0.0000 0.0000 0.0000 35.6050
#
#
#
# Elastic Compliance Matrix: (Units=1/GPa)
#
#
# Indices 1 2 3 4 5 6 
#
# 1 0.007794 -0.002894 -0.004340 0.000000 0.000000 0.000000
# 2 -0.002894 0.016376 -0.004836 0.000000 0.000000 0.000000
# 3 -0.004340 -0.004836 0.019519 0.000000 0.000000 0.000000
# 4 0.000000 0.000000 0.000000 0.028814 0.000000 0.000000
# 5 0.000000 0.000000 0.000000 0.000000 0.093783 0.000000
# 6 0.000000 0.000000 0.000000 0.000000 0.000000 0.028086
#
#
# Mechanical properties :
#
#
# Convention : Reuss Voigt Hill
#
# Bulk Modulus (GPa) = 51.14712 63.09776 57.12244
# Shear Modulus (GPa) = 22.21936 29.25148 25.73542
#
# Velocity S-wave (km/s) = 3.26761 3.74919 3.51665
# Velocity P-wave (km/s) = 6.23013 7.00449 6.62862
#
# Compressibility (1/GPa) = 0.01955144
#
# Stress axis : x y z
#
# Youngs Moduli (GPa) = 128.29819 61.06354 51.23155
#
# Poissons Ratio (x) = 0.17670 0.22235
# Poissons Ratio (y) = 0.37126 0.24773
# Poissons Ratio (z) = 0.55682 0.29527
#
# Static dielectric constant tensor:
#      x y z
#    x 1.799240 0.000000 0.000000 
#    y 0.000000 1.746500 0.000000 
#    z 0.000000 0.000000 1.745500 
# 
# From -- ./inp_files/22831.got.cif
#   From: 2010.05.17/outbox.cif.g08.bks.cpg/sg53_12_cif.got.tgz:22831.got - 2010.06.03 12:45:16.
