data_PCOD9417592
_publ_section_title
;
Structure prediction by ZEFSAII (Michael W. Deem and Ramdas Pophale) SiO2 
 PCOD9417592
Probable space group: P M N A
;
_chemical_formula_sum "Si O2"
_cell_formula_units_Z 64
_cell_length_a 8.662866
_cell_length_b 20.489126
_cell_length_c 20.594846
_cell_angle_alpha 90.000000
_cell_angle_beta 90.000000
_cell_angle_gamma 90.000000
_cell_volume 3655.472985
_symmetry_space_group_name_H-M "P M N A"
_symmetry_group_IT_number 53
_symmetry_cell_setting 'orthorhombic'
loop_
_space_group_symop_operation_xyz
x,y,z
1/2-x,-y,1/2+z
x,-y,-z
1/2-x,y,1/2-z
-x,-y,-z
1/2+x,y,1/2-z
-x,y,z
1/2+x,-y,1/2+z
loop_
_atom_site_type_symbol
_atom_site_label
_atom_site_fract_x
_atom_site_fract_y
_atom_site_fract_z
Si Si1 0.183452 0.306607 0.603696
Si Si2 0.812268 0.527492 0.929980
Si Si3 0.813639 0.330126 0.038926
Si Si4 0.814470 0.051832 0.820720
Si Si5 0.183731 0.907598 0.679418
Si Si6 0.314786 0.426042 0.679378
Si Si7 0.813920 0.833567 0.081447
Si Si8 0.814310 0.815656 0.931745
O O1 0.240594 0.329490 0.532559
O O2 0.256940 0.355720 0.655210
O O3 0.240885 0.232327 0.609824
O O4 0.000000 0.309353 0.607505
O O5 0.767720 0.603422 0.925080
O O6 0.760162 0.480124 0.872716
O O7 0.000000 0.525470 0.929865
O O8 0.761989 0.500000 0.000000
O O9 0.774110 0.261319 0.072170
O O10 0.000000 0.330692 0.030525
O O11 0.750000 0.071399 0.750000
O O12 0.770609 0.103895 0.875863
O O13 0.000000 0.048540 0.817462
O O14 0.749882 0.979810 0.834868
O O15 0.250000 0.888169 0.750000
O O16 0.235572 0.858298 0.623397
O O17 0.000000 0.911082 0.683574
O O18 0.250000 0.440647 0.750000
O O19 0.500000 0.426064 0.680300
O O20 0.000000 0.826611 0.083472
O O21 0.771434 0.837752 0.005137
O O22 0.000000 0.821902 0.925658
#
# Coordination Sequence:
#
# PCOD9417592 Si02
#       8
#     8   8   8   8   8   8   8   8
#     4  11  21  33  52  79 110 143 180 222 268 317
#     4   9  16  31  59  84 102 138 184 223 265 321
#     4   9  17  34  58  82 107 141 182 220 267 324
#     4  10  20  36  57  80 107 141 183 224 268 323
#     4  11  22  37  57  79 107 142 182 225 274 328
#     4  11  22  37  55  77 110 144 183 227 274 329
#     4   9  20  37  57  80 110 148 183 221 270 326
#     4   9  18  34  56  81 110 142 181 225 270 323
#
# _framework density 17.507994
#
# number of rings (size 3 to 8) (size 9 to 14) (size 15 to 20)
#    0.000    2.125    1.250    4.500    0.000    4.000 
#    0.000    6.250    0.000    1.500    0.000    0.000 
#    0.000    0.000    0.000    0.000    0.000    0.000 
#
# Total GULP energy -357177.451310 kJ/mol
# GULP energy per Si atom -5580.897677 kJ/mol
# Density = 1.746815 g / cm^3
# Si number density = 17.507994 Si / 1000 Ang^3
#
#
#
# Elastic Constant Matrix: (Units=GPa)
#
#
# Indices 1 2 3 4 5 6 
#
# 1 52.2808 46.5014 44.4912 0.0000 0.0000 0.0000
# 2 46.5014 134.1017 105.0055 0.0000 0.0000 0.0000
# 3 44.4912 105.0055 134.1341 0.0000 0.0000 0.0000
# 4 0.0000 0.0000 0.0000 27.6270 0.0000 0.0000
# 5 0.0000 0.0000 0.0000 0.0000 29.2500 0.0000
# 6 0.0000 0.0000 0.0000 0.0000 0.0000 -8.6057
#
#
#
# Elastic Compliance Matrix: (Units=1/GPa)
#
#
# Indices 1 2 3 4 5 6 
#
# 1 0.028655 -0.006444 -0.004460 0.000000 0.000000 0.000000
# 2 -0.006444 0.020717 -0.014081 0.000000 0.000000 0.000000
# 3 -0.004460 -0.014081 0.019958 0.000000 0.000000 0.000000
# 4 0.000000 0.000000 0.000000 0.036196 0.000000 0.000000
# 5 0.000000 0.000000 0.000000 0.000000 0.034188 0.000000
# 6 0.000000 0.000000 0.000000 0.000000 0.000000 -0.116202
#
#
# Mechanical properties :
#
#
# Convention : Reuss Voigt Hill
#
# Bulk Modulus (GPa) = 51.65329 79.16807 65.41068
# Shear Modulus (GPa) = 62.55116 17.95551 40.25333
#
# Velocity S-wave (km/s) = 5.98371 3.20591 4.80014
# Velocity P-wave (km/s) = 8.79241 7.68246 8.25611
#
# Compressibility (1/GPa) = 0.01935985
#
# Stress axis : x y z
#
# Youngs Moduli (GPa) = 34.89852 48.26865 50.10640
#
# Poissons Ratio (x) = 0.31106 0.22346
# Poissons Ratio (y) = 0.22490 0.70554
# Poissons Ratio (z) = 0.15563 0.67967
#
# Static dielectric constant tensor:
#      x y z
#    x 1.589970 0.000000 0.000000 
#    y 0.000000 1.596850 0.000000 
#    z 0.000000 0.000000 1.574710 
# 
# From -- ./inp_files/26756.got.cif
#   From: 2010.05.17/outbox.cif.g08.bks.cpg/sg53_14_cif.got.tgz:26756.got - 2010.06.03 12:45:16.
