data_PCOD9417255
_publ_section_title
;
Structure prediction by ZEFSAII (Michael W. Deem and Ramdas Pophale) SiO2 
 PCOD9417255
Probable space group: P M N A
;
_chemical_formula_sum "Si O2"
_cell_formula_units_Z 64
_cell_length_a 8.712387
_cell_length_b 19.458356
_cell_length_c 23.682216
_cell_angle_alpha 90.000000
_cell_angle_beta 90.000000
_cell_angle_gamma 90.000000
_cell_volume 4014.815951
_symmetry_space_group_name_H-M "P M N A"
_symmetry_group_IT_number 53
_symmetry_cell_setting 'orthorhombic'
loop_
_space_group_symop_operation_xyz
x,y,z
1/2-x,-y,1/2+z
x,-y,-z
1/2-x,y,1/2-z
-x,-y,-z
1/2+x,y,1/2-z
-x,y,z
1/2+x,-y,1/2+z
loop_
_atom_site_type_symbol
_atom_site_label
_atom_site_fract_x
_atom_site_fract_y
_atom_site_fract_z
Si Si1 0.816056 0.390012 0.021686
Si Si2 0.183589 0.977315 0.417037
Si Si3 0.183343 0.896042 0.975848
Si Si4 0.816316 0.883885 0.311544
Si Si5 0.817431 0.389109 0.687765
Si Si6 0.183780 0.747941 0.130256
Si Si7 0.184003 0.522861 0.091158
Si Si8 0.317618 0.753284 0.003449
O O1 0.777409 0.446707 0.068957
O O2 0.000000 0.378748 0.023210
O O3 0.781907 0.425809 0.961218
O O4 0.729785 0.318288 0.025211
O O5 0.255072 0.928150 0.465189
O O6 0.216689 0.944109 0.356514
O O7 0.000000 0.979192 0.425128
O O8 0.252895 0.052298 0.428387
O O9 0.000000 0.896742 0.976246
O O10 0.246713 0.819199 0.972447
O O11 0.750000 0.898541 0.250000
O O12 0.741620 0.814322 0.335733
O O13 0.000000 0.874654 0.308859
O O14 0.750000 0.399087 0.750000
O O15 0.745172 0.320296 0.660715
O O16 0.770368 0.450762 0.646015
O O17 0.000000 0.381734 0.690326
O O18 0.248950 0.751515 0.066815
O O19 0.000000 0.746422 0.128107
O O20 0.000000 0.525909 0.100236
O O21 0.500000 0.760303 0.006962
#
# Coordination Sequence:
#
# PCOD9417255 Si02
#       8
#     8   8   8   8   8   8   8   8
#     4   9  18  33  54  77 104 136 169 209 261 311
#     4  10  20  35  53  74 103 135 171 218 262 304
#     4  11  21  33  53  76 102 136 173 213 260 312
#     4  11  23  37  54  75 104 140 178 216 258 303
#     4  12  24  37  53  74 103 140 181 219 258 304
#     4  12  23  36  52  72 104 140 180 219 255 303
#     4   9  18  34  54  76 103 135 171 214 259 306
#     4  12  22  33  51  78 108 139 174 212 258 310
#
# _framework density 15.940955000000001
#
# number of rings (size 3 to 8) (size 9 to 14) (size 15 to 20)
#    0.000    1.250    2.500    7.125    0.000    2.000 
#    0.000    1.250    0.000    0.000    0.000    0.875 
#    0.000    2.000    0.000    0.000    0.000    0.000 
#
# Total GULP energy -357649.715254 kJ/mol
# GULP energy per Si atom -5588.276801 kJ/mol
# Density = 1.590467 g / cm^3
# Si number density = 15.940955 Si / 1000 Ang^3
#
#
#
# Elastic Constant Matrix: (Units=GPa)
#
#
# Indices 1 2 3 4 5 6 
#
# 1 123.6397 68.5482 52.8412 0.0000 0.0000 0.0000
# 2 68.5482 127.7812 59.9001 0.0000 0.0000 0.0000
# 3 52.8412 59.9001 86.8852 0.0000 0.0000 0.0000
# 4 0.0000 0.0000 0.0000 14.7578 0.0000 0.0000
# 5 0.0000 0.0000 0.0000 0.0000 57.1696 0.0000
# 6 0.0000 0.0000 0.0000 0.0000 0.0000 41.8891
#
#
#
# Elastic Compliance Matrix: (Units=1/GPa)
#
#
# Indices 1 2 3 4 5 6 
#
# 1 0.012567 -0.004667 -0.004425 0.000000 0.000000 0.000000
# 2 -0.004667 0.013296 -0.006328 0.000000 0.000000 0.000000
# 3 -0.004425 -0.006328 0.018563 0.000000 0.000000 0.000000
# 4 0.000000 0.000000 0.000000 0.067761 0.000000 0.000000
# 5 0.000000 0.000000 0.000000 0.000000 0.017492 0.000000
# 6 0.000000 0.000000 0.000000 0.000000 0.000000 0.023873
#
#
# Mechanical properties :
#
#
# Convention : Reuss Voigt Hill
#
# Bulk Modulus (GPa) = 73.60817 77.87611 75.74214
# Shear Modulus (GPa) = 26.46620 33.23108 29.84864
#
# Velocity S-wave (km/s) = 4.07905 4.57073 4.33188
# Velocity P-wave (km/s) = 8.27410 8.76438 8.52277
#
# Compressibility (1/GPa) = 0.01358545
#
# Stress axis : x y z
#
# Youngs Moduli (GPa) = 79.57491 75.21106 53.86934
#
# Poissons Ratio (x) = 0.35101 0.23839
# Poissons Ratio (y) = 0.37138 0.34089
# Poissons Ratio (z) = 0.35214 0.47594
#
# Static dielectric constant tensor:
#      x y z
#    x 1.530760 0.000000 0.000000 
#    y 0.000000 1.534560 0.000000 
#    z 0.000000 0.000000 1.509990 
# 
# From -- ./inp_files/31273.got.cif
#   From: 2010.05.17/outbox.cif.g08.bks.cpg/sg53_16_cif.got.tgz:31273.got - 2010.06.03 12:45:16.
