data_PCOD9417897
_publ_section_title
;
Structure prediction by ZEFSAII (Michael W. Deem and Ramdas Pophale) SiO2 
 PCOD9417897
Probable space group: P M N A
;
_chemical_formula_sum "Si O2"
_cell_formula_units_Z 64
_cell_length_a 17.361954
_cell_length_b 21.334266
_cell_length_c 9.069723
_cell_angle_alpha 90.000000
_cell_angle_beta 90.000000
_cell_angle_gamma 90.000000
_cell_volume 3359.466620
_symmetry_space_group_name_H-M "P M N A"
_symmetry_group_IT_number 53
_symmetry_cell_setting 'orthorhombic'
loop_
_space_group_symop_operation_xyz
x,y,z
1/2-x,-y,1/2+z
x,-y,-z
1/2-x,y,1/2-z
-x,-y,-z
1/2+x,y,1/2-z
-x,y,z
1/2+x,-y,1/2+z
loop_
_atom_site_type_symbol
_atom_site_label
_atom_site_fract_x
_atom_site_fract_y
_atom_site_fract_z
Si Si1 0.406932 0.574876 0.157160
Si Si2 0.407869 0.807731 0.821553
Si Si3 0.591816 0.817581 0.156325
Si Si4 0.093296 0.564808 0.684073
Si Si5 0.335022 0.065697 0.681803
Si Si6 0.094183 0.686024 0.870905
Si Si7 0.837200 0.696274 0.191448
Si Si8 0.332705 0.074548 0.330491
O O1 0.500000 0.577230 0.162802
O O2 0.382072 0.506496 0.217036
O O3 0.373909 0.632850 0.244737
O O4 0.383914 0.579010 0.984842
O O5 0.500000 0.808737 0.829027
O O6 0.387854 0.742537 0.741975
O O7 0.380498 0.867262 0.729131
O O8 0.377709 0.813703 0.988471
O O9 0.500000 0.814762 0.152287
O O10 0.616988 0.880977 0.237163
O O11 0.622328 0.757676 0.243213
O O12 0.115054 0.619810 0.795081
O O13 0.000000 0.564039 0.683658
O O14 0.250000 0.067288 0.750000
O O15 0.327556 0.077997 0.507306
O O16 0.365872 0.994844 0.703804
O O17 0.000000 0.686787 0.899561
O O18 0.143630 0.695645 0.018028
O O19 0.750000 0.698259 0.250000
O O20 0.250000 0.077549 0.250000
#
# Coordination Sequence:
#
# PCOD9417897 Si02
#       8
#     8   8   8   8   8   8   8   8
#     4   9  17  35  60  84 112 148 187 231 280 335
#     4  10  22  38  59  85 112 142 187 240 288 335
#     4  11  23  40  61  83 109 148 191 238 288 337
#     4   8  16  33  61  88 110 144 191 233 276 332
#     4  10  21  38  59  86 117 151 190 228 272 335
#     4  10  20  37  60  86 113 146 189 238 284 334
#     4  12  25  38  53  80 116 151 188 233 284 341
#     4  10  21  37  59  84 117 156 188 225 276 331
#
# _framework density 19.050643000000001
#
# number of rings (size 3 to 8) (size 9 to 14) (size 15 to 20)
#    0.000    2.000    0.000    4.500    0.000    7.000 
#    0.000    8.750    0.000    0.000    0.000    0.000 
#    0.000    0.000    0.000    0.000    0.000    0.000 
#
# Total GULP energy -357244.446191 kJ/mol
# GULP energy per Si atom -5581.944472 kJ/mol
# Density = 1.900728 g / cm^3
# Si number density = 19.050643 Si / 1000 Ang^3
#
#
#
# Elastic Constant Matrix: (Units=GPa)
#
#
# Indices 1 2 3 4 5 6 
#
# 1 37.6500 39.3932 33.8111 0.0000 0.0000 0.0000
# 2 39.3932 143.2940 67.1525 0.0000 0.0000 0.0000
# 3 33.8111 67.1525 107.2204 0.0000 0.0000 0.0000
# 4 0.0000 0.0000 0.0000 42.3154 0.0000 0.0000
# 5 0.0000 0.0000 0.0000 0.0000 71.3969 0.0000
# 6 0.0000 0.0000 0.0000 0.0000 0.0000 35.5200
#
#
#
# Elastic Compliance Matrix: (Units=1/GPa)
#
#
# Indices 1 2 3 4 5 6 
#
# 1 0.042177 -0.007590 -0.008547 0.000000 0.000000 0.000000
# 2 -0.007590 0.011244 -0.004649 0.000000 0.000000 0.000000
# 3 -0.008547 -0.004649 0.014933 0.000000 0.000000 0.000000
# 4 0.000000 0.000000 0.000000 0.023632 0.000000 0.000000
# 5 0.000000 0.000000 0.000000 0.000000 0.014006 0.000000
# 6 0.000000 0.000000 0.000000 0.000000 0.000000 0.028153
#
#
# Mechanical properties :
#
#
# Convention : Reuss Voigt Hill
#
# Bulk Modulus (GPa) = 37.33616 63.20867 50.27241
# Shear Modulus (GPa) = 27.07933 39.70029 33.38981
#
# Velocity S-wave (km/s) = 3.77429 4.56997 4.19105
# Velocity P-wave (km/s) = 6.21567 7.81648 7.06159
#
# Compressibility (1/GPa) = 0.02678369
#
# Stress axis : x y z
#
# Youngs Moduli (GPa) = 23.70976 88.93927 66.96504
#
# Poissons Ratio (x) = 0.67501 0.57233
# Poissons Ratio (y) = 0.17995 0.31129
# Poissons Ratio (z) = 0.20264 0.41344
#
# Static dielectric constant tensor:
#      x y z
#    x 1.654780 0.000000 0.000000 
#    y 0.000000 1.649090 0.000000 
#    z 0.000000 0.000000 1.678670 
# 
# From -- ./inp_files/11232.got.cif
#   From: 2010.05.17/outbox.cif.g08.bks.cpg/sg53_6_cif.got.tgz:11232.got - 2010.06.03 12:45:16.
