data_PCOD9417372
_publ_section_title
;
Structure prediction by ZEFSAII (Michael W. Deem and Ramdas Pophale) SiO2 
 PCOD9417372
Probable space group: P M N A
;
_chemical_formula_sum "Si O2"
_cell_formula_units_Z 64
_cell_length_a 8.941594
_cell_length_b 12.261182
_cell_length_c 32.026756
_cell_angle_alpha 90.000000
_cell_angle_beta 90.000000
_cell_angle_gamma 90.000000
_cell_volume 3511.237746
_symmetry_space_group_name_H-M "P M N A"
_symmetry_group_IT_number 53
_symmetry_cell_setting 'orthorhombic'
loop_
_space_group_symop_operation_xyz
x,y,z
1/2-x,-y,1/2+z
x,-y,-z
1/2-x,y,1/2-z
-x,-y,-z
1/2+x,y,1/2-z
-x,y,z
1/2+x,-y,1/2+z
loop_
_atom_site_type_symbol
_atom_site_label
_atom_site_fract_x
_atom_site_fract_y
_atom_site_fract_z
Si Si1 0.674146 0.618826 0.521050
Si Si2 0.821985 0.639207 0.609944
Si Si3 0.321557 0.994503 0.048912
Si Si4 0.321604 0.742751 0.293879
Si Si5 0.820712 0.131560 0.123364
Si Si6 0.820776 0.397845 0.633659
Si Si7 0.177379 0.256464 0.552068
Si Si8 0.679989 0.996518 0.294431
O O1 0.690945 0.500000 0.500000
O O2 0.500000 0.634141 0.532098
O O3 0.775376 0.626602 0.561736
O O4 0.727808 0.707605 0.487707
O O5 0.739747 0.745882 0.626563
O O6 0.778984 0.524850 0.631360
O O7 0.000000 0.652724 0.613363
O O8 0.500000 0.016805 0.049943
O O9 0.295644 0.869594 0.063105
O O10 0.242579 0.075552 0.081209
O O11 0.275310 0.000000 0.000000
O O12 0.250000 0.709926 0.250000
O O13 0.500000 0.737229 0.291527
O O14 0.260848 0.666726 0.330126
O O15 0.278986 0.869485 0.301367
O O16 0.000000 0.130775 0.121158
O O17 0.773944 0.064880 0.164872
O O18 0.786294 0.337215 0.590048
O O19 0.000000 0.390763 0.639255
O O20 0.000000 0.267317 0.542492
O O21 0.750000 0.030997 0.250000
O O22 0.500000 0.003039 0.290902
#
# Coordination Sequence:
#
# PCOD9417372 Si02
#       8
#     8   8   8   8   8   8   8   8
#     4  11  22  35  54  82 114 149 191 237 285 335
#     4  11  23  39  58  79 111 154 198 237 278 334
#     4  10  21  36  55  82 114 151 195 237 284 345
#     4  10  20  36  60  87 116 146 178 223 280 339
#     4  11  23  39  59  85 118 152 193 242 297 349
#     4  10  21  36  55  81 110 145 188 230 275 329
#     4  10  20  35  56  81 112 149 189 234 280 334
#     4   9  20  38  61  90 118 147 184 231 286 347
#
# _framework density 18.227188999999999
#
# number of rings (size 3 to 8) (size 9 to 14) (size 15 to 20)
#    0.000    1.750    1.250    3.000    0.000    5.250 
#    0.000    0.625    0.000    1.500    0.000    0.000 
#    0.000    0.000    0.000    0.000    0.000    0.000 
#
# Total GULP energy -357534.516277 kJ/mol
# GULP energy per Si atom -5586.476817 kJ/mol
# Density = 1.818570 g / cm^3
# Si number density = 18.227189 Si / 1000 Ang^3
#
#
#
# Elastic Constant Matrix: (Units=GPa)
#
#
# Indices 1 2 3 4 5 6 
#
# 1 28.0410 39.1484 38.3181 0.0000 0.0000 0.0000
# 2 39.1484 104.8920 58.9463 0.0000 0.0000 0.0000
# 3 38.3181 58.9463 111.0606 0.0000 0.0000 0.0000
# 4 0.0000 0.0000 0.0000 26.3280 0.0000 0.0000
# 5 0.0000 0.0000 0.0000 0.0000 33.1556 0.0000
# 6 0.0000 0.0000 0.0000 0.0000 0.0000 33.2478
#
#
#
# Elastic Compliance Matrix: (Units=1/GPa)
#
#
# Indices 1 2 3 4 5 6 
#
# 1 0.099868 -0.025522 -0.020910 0.000000 0.000000 0.000000
# 2 -0.025522 0.020108 -0.001867 0.000000 0.000000 0.000000
# 3 -0.020910 -0.001867 0.017209 0.000000 0.000000 0.000000
# 4 0.000000 0.000000 0.000000 0.037982 0.000000 0.000000
# 5 0.000000 0.000000 0.000000 0.000000 0.030161 0.000000
# 6 0.000000 0.000000 0.000000 0.000000 0.000000 0.030077
#
#
# Mechanical properties :
#
#
# Convention : Reuss Voigt Hill
#
# Bulk Modulus (GPa) = 24.63865 57.42437 41.03151
# Shear Modulus (GPa) = 14.47037 25.71833 20.09435
#
# Velocity S-wave (km/s) = 2.82066 3.76039 3.32390
# Velocity P-wave (km/s) = 4.91478 7.10121 6.10665
#
# Compressibility (1/GPa) = 0.04058664
#
# Stress axis : x y z
#
# Youngs Moduli (GPa) = 10.01325 49.73058 58.10754
#
# Poissons Ratio (x) = 1.26923 1.21504
# Poissons Ratio (y) = 0.25556 0.10849
# Poissons Ratio (z) = 0.20938 0.09285
#
# Static dielectric constant tensor:
#      x y z
#    x 1.613430 0.000000 0.000000 
#    y 0.000000 1.628430 0.000000 
#    z 0.000000 0.000000 1.608710 
# 
# From -- ./inp_files/38291.got.cif
#   From: 2010.05.17/outbox.cif.g08.bks.cpg/sg53_20_cif.got.tgz:38291.got - 2010.06.03 12:45:16.
