data_PCOD9417046
_publ_section_title
;
Structure prediction by ZEFSAII (Michael W. Deem and Ramdas Pophale) SiO2 
 PCOD9417046
Probable space group: P M N A
;
_chemical_formula_sum "Si O2"
_cell_formula_units_Z 48
_cell_length_a 8.791177
_cell_length_b 12.061341
_cell_length_c 26.058474
_cell_angle_alpha 90.000000
_cell_angle_beta 90.000000
_cell_angle_gamma 90.000000
_cell_volume 2763.068169
_symmetry_space_group_name_H-M "P M N A"
_symmetry_group_IT_number 53
_symmetry_cell_setting 'orthorhombic'
loop_
_space_group_symop_operation_xyz
x,y,z
1/2-x,-y,1/2+z
x,-y,-z
1/2-x,y,1/2-z
-x,-y,-z
1/2+x,y,1/2-z
-x,y,z
1/2+x,-y,1/2+z
loop_
_atom_site_type_symbol
_atom_site_label
_atom_site_fract_x
_atom_site_fract_y
_atom_site_fract_z
Si Si1 0.683336 0.125717 0.305757
Si Si2 0.183375 0.269107 0.097195
Si Si3 0.183476 0.502371 0.559874
Si Si4 0.316918 0.129214 0.504033
Si Si5 0.182273 0.869059 0.194093
Si Si6 0.317870 0.738762 0.099474
O O1 0.750000 0.152885 0.250000
O O2 0.500000 0.130183 0.303041
O O3 0.734283 0.208014 0.350781
O O4 0.724294 0.997598 0.318053
O O5 0.250746 0.390150 0.087744
O O6 0.000000 0.276454 0.098681
O O7 0.223674 0.193108 0.048215
O O8 0.232654 0.500000 0.500000
O O9 0.228670 0.387623 0.586982
O O10 0.000000 0.508967 0.560077
O O11 0.500000 0.136753 0.510943
O O12 0.236933 0.187047 0.551816
O O13 0.277392 0.000000 0.500000
O O14 0.250000 0.843776 0.250000
O O15 0.246229 0.788386 0.150839
O O16 0.000000 0.862433 0.195636
O O17 0.500000 0.742172 0.103074
#
# Coordination Sequence:
#
# PCOD9417046 Si02
#       6
#     8   8   8   8   8   8
#     4   9  19  36  57  83 112 143 178 222 272 326
#     4  10  20  34  55  81 108 141 185 225 268 327
#     4  10  21  38  55  75 109 148 184 228 276 320
#     4  10  20  34  53  79 111 143 176 223 280 333
#     4  10  20  37  60  84 114 146 181 225 275 327
#     4  11  22  36  55  80 110 145 187 227 273 328
#
# _framework density 17.371994000000001
#
# number of rings (size 3 to 8) (size 9 to 14) (size 15 to 20)
#    0.000    2.000    1.667    2.000    0.000    6.000 
#    0.000    2.500    0.000    2.000    0.000    0.000 
#    0.000    0.000    0.000    0.000    0.000    0.000 
#
# Total GULP energy -268019.952250 kJ/mol
# GULP energy per Si atom -5583.749005 kJ/mol
# Density = 1.733245 g / cm^3
# Si number density = 17.371994 Si / 1000 Ang^3
#
#
#
# Elastic Constant Matrix: (Units=GPa)
#
#
# Indices 1 2 3 4 5 6 
#
# 1 26.9295 49.5988 48.1390 0.0000 0.0000 0.0000
# 2 49.5988 176.2834 119.4532 0.0000 0.0000 0.0000
# 3 48.1390 119.4532 167.3676 0.0000 0.0000 0.0000
# 4 0.0000 0.0000 0.0000 17.1817 0.0000 0.0000
# 5 0.0000 0.0000 0.0000 0.0000 32.6652 0.0000
# 6 0.0000 0.0000 0.0000 0.0000 0.0000 213.6831
#
#
#
# Elastic Compliance Matrix: (Units=1/GPa)
#
#
# Indices 1 2 3 4 5 6 
#
# 1 0.094952 -0.015898 -0.015964 0.000000 0.000000 0.000000
# 2 -0.015898 0.013648 -0.005168 0.000000 0.000000 0.000000
# 3 -0.015964 -0.005168 0.014255 0.000000 0.000000 0.000000
# 4 0.000000 0.000000 0.000000 0.058201 0.000000 0.000000
# 5 0.000000 0.000000 0.000000 0.000000 0.030614 0.000000
# 6 0.000000 0.000000 0.000000 0.000000 0.000000 0.004680
#
#
# Mechanical properties :
#
#
# Convention : Reuss Voigt Hill
#
# Bulk Modulus (GPa) = 20.49396 89.44027 54.96712
# Shear Modulus (GPa) = 16.30400 62.93196 39.61798
#
# Velocity S-wave (km/s) = 3.06685 6.02534 4.78071
# Velocity P-wave (km/s) = 4.93594 10.00017 7.88565
#
# Compressibility (1/GPa) = 0.04879487
#
# Stress axis : x y z
#
# Youngs Moduli (GPa) = 10.53166 73.27307 70.15191
#
# Poissons Ratio (x) = 1.16491 1.11988
# Poissons Ratio (y) = 0.16743 0.36253
# Poissons Ratio (z) = 0.16812 0.37866
#
# Static dielectric constant tensor:
#      x y z
#    x 1.590480 0.000000 0.000000 
#    y 0.000000 1.571500 0.000000 
#    z 0.000000 0.000000 1.563480 
# 
# From -- ./inp_files/33852.got.cif
#   From: 2010.05.17/outbox.cif.g08.bks.cpg/sg53_17_cif.got.tgz:33852.got - 2010.06.03 12:45:16.
