data_PCOD9417496
_publ_section_title
;
Structure prediction by ZEFSAII (Michael W. Deem and Ramdas Pophale) SiO2 
 PCOD9417496
Probable space group: P M N A
;
_chemical_formula_sum "Si O2"
_cell_formula_units_Z 48
_cell_length_a 32.995840
_cell_length_b 8.039161
_cell_length_c 8.158766
_cell_angle_alpha 90.000000
_cell_angle_beta 90.000000
_cell_angle_gamma 90.000000
_cell_volume 2164.185050
_symmetry_space_group_name_H-M "P M N A"
_symmetry_group_IT_number 53
_symmetry_cell_setting 'orthorhombic'
loop_
_space_group_symop_operation_xyz
x,y,z
1/2-x,-y,1/2+z
x,-y,-z
1/2-x,y,1/2-z
-x,-y,-z
1/2+x,y,1/2-z
-x,y,z
1/2+x,-y,1/2+z
loop_
_atom_site_type_symbol
_atom_site_label
_atom_site_fract_x
_atom_site_fract_y
_atom_site_fract_z
Si Si1 0.251067 0.189869 0.446854
Si Si2 0.662371 0.682439 0.566753
Si Si3 0.162648 0.308625 0.462325
Si Si4 0.952785 0.177263 0.310652
Si Si5 0.919325 0.190360 0.984078
Si Si6 0.416784 0.190160 0.868699
O O1 0.250000 0.199343 0.250000
O O2 0.292220 0.282679 0.495348
O O3 0.208613 0.262024 0.510824
O O4 0.254153 0.000000 0.500000
O O5 0.650975 0.500000 0.500000
O O6 0.659832 0.706271 0.764189
O O7 0.629199 0.807018 0.495462
O O8 0.155034 0.500000 0.500000
O O9 0.129295 0.208688 0.567344
O O10 0.936817 0.269971 0.149471
O O11 0.943334 0.262754 0.483425
O O12 0.000000 0.139633 0.295378
O O13 0.927957 0.003725 0.334308
O O14 0.927521 0.267682 0.807324
O O15 0.934879 0.000000 0.000000
#
# Coordination Sequence:
#
# PCOD9417496 Si02
#       6
#     8   8   8   8   8   8
#     4  10  24  39  61  89 127 164 208 264 307 362
#     4  11  22  40  59  87 126 167 214 258 309 375
#     4  11  23  39  60  90 124 169 212 256 314 371
#     4  10  21  38  63  95 127 160 208 265 318 380
#     4  10  21  36  61  93 123 162 208 256 313 376
#     4  10  20  35  60  90 124 160 205 253 314 368
#
# _framework density 22.179248000000001
#
# number of rings (size 3 to 8) (size 9 to 14) (size 15 to 20)
#    0.000    1.667    1.667    3.000    2.333    7.667 
#    0.000    0.000    0.000    2.500    0.000    0.000 
#    0.000    0.000    0.000    0.000    0.000    0.000 
#
# Total GULP energy -267777.708683 kJ/mol
# GULP energy per Si atom -5578.702264 kJ/mol
# Density = 2.212877 g / cm^3
# Si number density = 22.179248 Si / 1000 Ang^3
#
#
#
# Elastic Constant Matrix: (Units=GPa)
#
#
# Indices 1 2 3 4 5 6 
#
# 1 132.3886 23.8221 51.3356 0.0000 0.0000 0.0000
# 2 23.8221 39.2189 9.0697 0.0000 0.0000 0.0000
# 3 51.3356 9.0697 170.6909 0.0000 0.0000 0.0000
# 4 0.0000 0.0000 0.0000 17.4823 0.0000 0.0000
# 5 0.0000 0.0000 0.0000 0.0000 6.7207 0.0000
# 6 0.0000 0.0000 0.0000 0.0000 0.0000 -23.8949
#
#
#
# Elastic Compliance Matrix: (Units=1/GPa)
#
#
# Indices 1 2 3 4 5 6 
#
# 1 0.009482 -0.005163 -0.002577 0.000000 0.000000 0.000000
# 2 -0.005163 0.028627 0.000032 0.000000 0.000000 0.000000
# 3 -0.002577 0.000032 0.006632 0.000000 0.000000 0.000000
# 4 0.000000 0.000000 0.000000 0.057201 0.000000 0.000000
# 5 0.000000 0.000000 0.000000 0.000000 0.148794 0.000000
# 6 0.000000 0.000000 0.000000 0.000000 0.000000 -0.041850
#
#
# Mechanical properties :
#
#
# Convention : Reuss Voigt Hill
#
# Bulk Modulus (GPa) = 34.10303 56.75036 45.42670
# Shear Modulus (GPa) = 21.36034 17.26634 19.31334
#
# Velocity S-wave (km/s) = 3.10672 2.79317 2.95411
# Velocity P-wave (km/s) = 5.31774 6.00376 5.67113
#
# Compressibility (1/GPa) = 0.02932291
#
# Stress axis : x y z
#
# Youngs Moduli (GPa) = 105.46226 34.93215 150.78399
#
# Poissons Ratio (x) = 0.18037 0.38863
# Poissons Ratio (y) = 0.54455 -0.00480
# Poissons Ratio (z) = 0.27182 -0.00111
#
# Static dielectric constant tensor:
#      x y z
#    x 1.813820 0.000000 0.000000 
#    y 0.000000 1.777400 0.000000 
#    z 0.000000 0.000000 1.954300 
# 
# From -- ./inp_files/13056.got.cif
#   From: 2010.05.17/outbox.cif.g08.bks.cpg/sg53_7_cif.got.tgz:13056.got - 2010.06.03 12:45:16.
