data_PCOD9417626
_publ_section_title
;
Structure prediction by ZEFSAII (Michael W. Deem and Ramdas Pophale) SiO2 
 PCOD9417626
Probable space group: P M N A
;
_chemical_formula_sum "Si O2"
_cell_formula_units_Z 52
_cell_length_a 20.333212
_cell_length_b 25.957584
_cell_length_c 5.251334
_cell_angle_alpha 90.000000
_cell_angle_beta 90.000000
_cell_angle_gamma 90.000000
_cell_volume 2771.659644
_symmetry_space_group_name_H-M "P M N A"
_symmetry_group_IT_number 53
_symmetry_cell_setting 'orthorhombic'
loop_
_space_group_symop_operation_xyz
x,y,z
1/2-x,-y,1/2+z
x,-y,-z
1/2-x,y,1/2-z
-x,-y,-z
1/2+x,y,1/2-z
-x,y,z
1/2+x,-y,1/2+z
loop_
_atom_site_type_symbol
_atom_site_label
_atom_site_fract_x
_atom_site_fract_y
_atom_site_fract_z
Si Si1 0.578120 0.800394 0.224082
Si Si2 0.074283 0.372098 0.282268
Si Si3 0.817409 0.550670 0.624101
Si Si4 0.250000 0.632019 0.250000
Si Si5 0.118821 0.685696 0.198270
Si Si6 0.826563 0.034948 0.249994
Si Si7 0.921681 0.867508 0.774056
O O1 0.500000 0.788774 0.224684
O O2 0.614147 0.746221 0.254430
O O3 0.591253 0.837771 0.462214
O O4 0.593045 0.829674 0.962011
O O5 0.126608 0.417949 0.226387
O O6 0.093247 0.343520 0.546953
O O7 0.000000 0.391809 0.304506
O O8 0.078567 0.332272 0.048734
O O9 0.848405 0.500000 0.500000
O O10 0.750000 0.530620 0.750000
O O11 0.787384 0.594035 0.440070
O O12 0.193167 0.667783 0.138565
O O13 0.750000 0.052516 0.250000
O O14 0.876781 0.082218 0.246362
O O15 0.836520 0.000000 0.500000
O O16 0.836226 0.000000 0.000000
O O17 0.000000 0.880020 0.763903
#
# Coordination Sequence:
#
# PCOD9417626 Si02
#       7
#     8   8   8   4   8   8   8
#     4  10  20  36  57  82 116 154 188 234 292 345
#     4  11  23  38  61  89 117 152 196 247 292 351
#     4  11  21  38  62  83 116 156 194 236 302 359
#     4  10  22  38  58  86 116 150 200 246 280 352
#     4  11  22  39  61  86 120 156 199 242 293 355
#     4  10  21  38  59  83 115 154 193 235 287 340
#     4  10  21  37  57  86 117 149 194 239 281 339
#
# _framework density 18.761320999999999
#
# number of rings (size 3 to 8) (size 9 to 14) (size 15 to 20)
#    0.000    1.538    2.308    3.231    0.000    2.154 
#    2.769    0.000    0.000    3.231    0.000    0.000 
#    0.000    0.000    0.000    0.000    0.000    0.000 
#
# Total GULP energy -290161.678009 kJ/mol
# GULP energy per Si atom -5580.032269 kJ/mol
# Density = 1.871862 g / cm^3
# Si number density = 18.761321 Si / 1000 Ang^3
#
#
#
# Elastic Constant Matrix: (Units=GPa)
#
#
# Indices 1 2 3 4 5 6 
#
# 1 84.9540 46.1260 11.4600 0.0000 0.0000 0.0000
# 2 46.1260 86.9130 4.8763 0.0000 0.0000 0.0000
# 3 11.4600 4.8763 83.5491 0.0000 0.0000 0.0000
# 4 0.0000 0.0000 0.0000 21.7114 0.0000 0.0000
# 5 0.0000 0.0000 0.0000 0.0000 -12.5635 0.0000
# 6 0.0000 0.0000 0.0000 0.0000 0.0000 17.1229
#
#
#
# Elastic Compliance Matrix: (Units=1/GPa)
#
#
# Indices 1 2 3 4 5 6 
#
# 1 0.016799 -0.008815 -0.001790 0.000000 0.000000 0.000000
# 2 -0.008815 0.016169 0.000265 0.000000 0.000000 0.000000
# 3 -0.001790 0.000265 0.012199 0.000000 0.000000 0.000000
# 4 0.000000 0.000000 0.000000 0.046059 0.000000 0.000000
# 5 0.000000 0.000000 0.000000 0.000000 -0.079596 0.000000
# 6 0.000000 0.000000 0.000000 0.000000 0.000000 0.058401
#
#
# Mechanical properties :
#
#
# Convention : Reuss Voigt Hill
#
# Bulk Modulus (GPa) = 40.83580 42.26006 41.54793
# Shear Modulus (GPa) = 50.57052 18.11775 34.34414
#
# Velocity S-wave (km/s) = 5.19742 3.11094 4.28317
# Velocity P-wave (km/s) = 7.60466 5.95633 6.83040
#
# Compressibility (1/GPa) = 0.02448831
#
# Stress axis : x y z
#
# Youngs Moduli (GPa) = 59.52904 61.84669 81.97387
#
# Poissons Ratio (x) = 0.54517 0.14671
# Poissons Ratio (y) = 0.52474 -0.02175
# Poissons Ratio (z) = 0.10654 -0.01641
#
# Static dielectric constant tensor:
#      x y z
#    x 1.667500 0.000000 0.000000 
#    y 0.000000 1.671500 0.000000 
#    z 0.000000 0.000000 1.774770 
# 
# From -- ./inp_files/3001.got.cif
#   From: 2010.05.17/outbox.cif.g08.bks.cpg/sg53_2_cif.got.tgz:3001.got - 2010.06.03 12:45:16.
