data_PCOD9417654
_publ_section_title
;
Structure prediction by ZEFSAII (Michael W. Deem and Ramdas Pophale) SiO2 
 PCOD9417654
Probable space group: P M N A
;
_chemical_formula_sum "Si O2"
_cell_formula_units_Z 48
_cell_length_a 15.444779
_cell_length_b 9.511322
_cell_length_c 17.474791
_cell_angle_alpha 90.000000
_cell_angle_beta 90.000000
_cell_angle_gamma 90.000000
_cell_volume 2567.051451
_symmetry_space_group_name_H-M "P M N A"
_symmetry_group_IT_number 53
_symmetry_cell_setting 'orthorhombic'
loop_
_space_group_symop_operation_xyz
x,y,z
1/2-x,-y,1/2+z
x,-y,-z
1/2-x,y,1/2-z
-x,-y,-z
1/2+x,y,1/2-z
-x,y,z
1/2+x,-y,1/2+z
loop_
_atom_site_type_symbol
_atom_site_label
_atom_site_fract_x
_atom_site_fract_y
_atom_site_fract_z
Si Si1 0.401210 0.834849 0.688682
Si Si2 0.767014 0.666618 0.913323
Si Si3 0.401042 0.163458 0.126975
Si Si4 0.156936 0.862062 0.211217
Si Si5 0.266981 0.664035 0.413056
Si Si6 0.096157 0.167517 0.623446
O O1 0.500000 0.801357 0.667335
O O2 0.332218 0.739647 0.645487
O O3 0.393970 0.822966 0.780794
O O4 0.380287 0.998325 0.672788
O O5 0.673815 0.741594 0.907643
O O6 0.758958 0.501155 0.896842
O O7 0.799672 0.682637 0.000452
O O8 0.500000 0.200133 0.105547
O O9 0.387997 0.998322 0.107422
O O10 0.250000 0.898385 0.250000
O O11 0.174433 0.741227 0.149943
O O12 0.099770 0.819420 0.284030
O O13 0.172982 0.737749 0.407947
O O14 0.000000 0.203735 0.595907
#
# Coordination Sequence:
#
# PCOD9417654 Si02
#       6
#     8   8   8   8   8   8
#     4  10  20  36  58  82 103 133 178 226 269 313
#     4  11  22  38  52  74 114 148 176 217 260 312
#     4   9  19  35  59  85 107 134 173 220 270 316
#     4   9  17  34  57  79 104 136 174 218 268 316
#     4  10  23  36  51  75 109 149 179 210 263 314
#     4   9  18  35  57  83 108 132 171 223 268 315
#
# _framework density 18.698495000000001
#
# number of rings (size 3 to 8) (size 9 to 14) (size 15 to 20)
#    0.000    2.333    0.000    5.000    0.000    8.000 
#    0.000   10.833    0.000    0.000    0.000    0.000 
#    0.000    0.000    0.000    0.000    0.000    0.000 
#
# Total GULP energy -267928.719660 kJ/mol
# GULP energy per Si atom -5581.848326 kJ/mol
# Density = 1.865594 g / cm^3
# Si number density = 18.698495 Si / 1000 Ang^3
#
#
#
# Elastic Constant Matrix: (Units=GPa)
#
#
# Indices 1 2 3 4 5 6 
#
# 1 62.1033 29.3065 22.9651 0.0000 0.0000 0.0000
# 2 29.3065 78.9180 43.6060 0.0000 0.0000 0.0000
# 3 22.9651 43.6060 49.3546 0.0000 0.0000 0.0000
# 4 0.0000 0.0000 0.0000 30.9846 0.0000 0.0000
# 5 0.0000 0.0000 0.0000 0.0000 8.7812 0.0000
# 6 0.0000 0.0000 0.0000 0.0000 0.0000 2.2593
#
#
#
# Elastic Compliance Matrix: (Units=1/GPa)
#
#
# Indices 1 2 3 4 5 6 
#
# 1 0.020241 -0.004518 -0.005426 0.000000 0.000000 0.000000
# 2 -0.004518 0.025767 -0.020663 0.000000 0.000000 0.000000
# 3 -0.005426 -0.020663 0.041043 0.000000 0.000000 0.000000
# 4 0.000000 0.000000 0.000000 0.032274 0.000000 0.000000
# 5 0.000000 0.000000 0.000000 0.000000 0.113880 0.000000
# 6 0.000000 0.000000 0.000000 0.000000 0.000000 0.442609
#
#
# Mechanical properties :
#
#
# Convention : Reuss Voigt Hill
#
# Bulk Modulus (GPa) = 38.70700 42.45900 40.58300
# Shear Modulus (GPa) = 6.70565 14.70491 10.70528
#
# Velocity S-wave (km/s) = 1.89578 2.80736 2.39534
# Velocity P-wave (km/s) = 5.05347 5.76757 5.42229
#
# Compressibility (1/GPa) = 0.02583512
#
# Stress axis : x y z
#
# Youngs Moduli (GPa) = 49.40482 38.80995 24.36487
#
# Poissons Ratio (x) = 0.17535 0.13221
# Poissons Ratio (y) = 0.22323 0.50345
# Poissons Ratio (z) = 0.26808 0.80193
#
# Static dielectric constant tensor:
#      x y z
#    x 1.645140 0.000000 0.000000 
#    y 0.000000 1.614380 0.000000 
#    z 0.000000 0.000000 1.660790 
# 
# From -- ./inp_files/28250.got.cif
#   From: 2010.05.17/outbox.cif.g08.bks.cpg/sg53_15_cif.got.tgz:28250.got - 2010.06.03 12:45:16.
