data_PCOD9417332
_publ_section_title
;
Structure prediction by ZEFSAII (Michael W. Deem and Ramdas Pophale) SiO2 
 PCOD9417332
Probable space group: P M N A
;
_chemical_formula_sum "Si O2"
_cell_formula_units_Z 64
_cell_length_a 7.791472
_cell_length_b 15.137432
_cell_length_c 24.704177
_cell_angle_alpha 90.000000
_cell_angle_beta 90.000000
_cell_angle_gamma 90.000000
_cell_volume 2913.681724
_symmetry_space_group_name_H-M "P M N A"
_symmetry_group_IT_number 53
_symmetry_cell_setting 'orthorhombic'
loop_
_space_group_symop_operation_xyz
x,y,z
1/2-x,-y,1/2+z
x,-y,-z
1/2-x,y,1/2-z
-x,-y,-z
1/2+x,y,1/2-z
-x,y,z
1/2+x,-y,1/2+z
loop_
_atom_site_type_symbol
_atom_site_label
_atom_site_fract_x
_atom_site_fract_y
_atom_site_fract_z
Si Si1 0.289691 0.797382 0.377647
Si Si2 0.801739 0.882558 0.895418
Si Si3 0.294636 0.560821 0.843887
Si Si4 0.293488 0.214206 0.500362
Si Si5 0.706764 0.030564 0.686923
Si Si6 0.294930 0.746474 0.808160
Si Si7 0.792360 0.585786 0.533546
Si Si8 0.202951 0.365079 0.810446
O O1 0.500000 0.797107 0.378628
O O2 0.232558 0.810146 0.439448
O O3 0.237986 0.874420 0.336338
O O4 0.227427 0.703608 0.354447
O O5 0.725568 0.849746 0.952550
O O6 0.793325 0.797349 0.856859
O O7 0.000000 0.907906 0.906014
O O8 0.725686 0.958661 0.856679
O O9 0.500000 0.567110 0.845795
O O10 0.233617 0.645079 0.810176
O O11 0.230381 0.572904 0.905049
O O12 0.254878 0.465561 0.820460
O O13 0.500000 0.205513 0.499650
O O14 0.256766 0.317551 0.488347
O O15 0.750000 0.016985 0.750000
O O16 0.500000 0.026332 0.684619
O O17 0.250000 0.786004 0.750000
O O18 0.500000 0.751261 0.815888
O O19 0.732763 0.500000 0.500000
O O20 0.000000 0.583743 0.533593
O O21 0.250000 0.336904 0.750000
O O22 0.000000 0.362313 0.814947
#
# Coordination Sequence:
#
# PCOD9417332 Si02
#       8
#     8   8   8   8   8   8   8   8
#     4   9  20  38  59  84 114 148 188 237 287 339
#     4  10  21  36  58  87 115 148 188 231 281 336
#     4  10  21  36  53  79 111 148 188 229 281 334
#     4  10  20  36  58  85 116 149 190 233 281 339
#     4  10  21  39  61  86 116 149 190 236 287 343
#     4  11  22  36  55  78 111 149 186 229 279 333
#     4  10  20  35  55  80 113 152 192 232 277 332
#     4  11  22  36  56  81 111 148 190 238 289 338
#
# _framework density 21.965337999999999
#
# number of rings (size 3 to 8) (size 9 to 14) (size 15 to 20)
#    0.000    1.875    1.250    2.625    0.000    4.750 
#    0.000    4.375    0.000    0.000    0.000    2.625 
#    0.000    0.000    0.000    0.000    0.000    0.000 
#
# Total GULP energy -357425.959213 kJ/mol
# GULP energy per Si atom -5584.780613 kJ/mol
# Density = 2.191534 g / cm^3
# Si number density = 21.965338 Si / 1000 Ang^3
#
#
#
# Elastic Constant Matrix: (Units=GPa)
#
#
# Indices 1 2 3 4 5 6 
#
# 1 29.6817 -8.8078 -8.9351 0.0000 0.0000 0.0000
# 2 -8.8078 78.8470 18.4328 0.0000 0.0000 0.0000
# 3 -8.9351 18.4328 123.4206 0.0000 0.0000 0.0000
# 4 0.0000 0.0000 0.0000 42.8749 0.0000 0.0000
# 5 0.0000 0.0000 0.0000 0.0000 21.7222 0.0000
# 6 0.0000 0.0000 0.0000 0.0000 0.0000 6.4332
#
#
#
# Elastic Compliance Matrix: (Units=1/GPa)
#
#
# Indices 1 2 3 4 5 6 
#
# 1 0.035335 0.003470 0.002040 0.000000 0.000000 0.000000
# 2 0.003470 0.013482 -0.001762 0.000000 0.000000 0.000000
# 3 0.002040 -0.001762 0.008513 0.000000 0.000000 0.000000
# 4 0.000000 0.000000 0.000000 0.023324 0.000000 0.000000
# 5 0.000000 0.000000 0.000000 0.000000 0.046036 0.000000
# 6 0.000000 0.000000 0.000000 0.000000 0.000000 0.155443
#
#
# Mechanical properties :
#
#
# Convention : Reuss Voigt Hill
#
# Bulk Modulus (GPa) = 15.42599 25.92546 20.67572
# Shear Modulus (GPa) = 16.87786 29.62335 23.25060
#
# Velocity S-wave (km/s) = 2.77498 3.67637 3.25701
# Velocity P-wave (km/s) = 4.15999 5.46346 4.85566
#
# Compressibility (1/GPa) = 0.06482568
#
# Stress axis : x y z
#
# Youngs Moduli (GPa) = 28.30089 74.17045 117.46391
#
# Poissons Ratio (x) = -0.25739 -0.23960
# Poissons Ratio (y) = -0.09821 0.20701
# Poissons Ratio (z) = -0.05773 0.13072
#
# Static dielectric constant tensor:
#      x y z
#    x 1.813070 0.000000 0.000000 
#    y 0.000000 1.816340 0.000000 
#    z 0.000000 0.000000 1.825110 
# 
# From -- ./inp_files/34279.got.cif
#   From: 2010.05.17/outbox.cif.g08.bks.cpg/sg53_18_cif.got.tgz:34279.got - 2010.06.03 12:45:16.
