data_PCOD9417037
_publ_section_title
;
Structure prediction by ZEFSAII (Michael W. Deem and Ramdas Pophale) SiO2 
 PCOD9417037
Probable space group: P M N A
;
_chemical_formula_sum "Si O2"
_cell_formula_units_Z 40
_cell_length_a 8.954583
_cell_length_b 9.812092
_cell_length_c 26.126777
_cell_angle_alpha 90.000000
_cell_angle_beta 90.000000
_cell_angle_gamma 90.000000
_cell_volume 2295.582030
_symmetry_space_group_name_H-M "P M N A"
_symmetry_group_IT_number 53
_symmetry_cell_setting 'orthorhombic'
loop_
_space_group_symop_operation_xyz
x,y,z
1/2-x,-y,1/2+z
x,-y,-z
1/2-x,y,1/2-z
-x,-y,-z
1/2+x,y,1/2-z
-x,y,z
1/2+x,-y,1/2+z
loop_
_atom_site_type_symbol
_atom_site_label
_atom_site_fract_x
_atom_site_fract_y
_atom_site_fract_z
Si Si1 0.179058 0.733306 0.194181
Si Si2 0.178489 0.545383 0.391056
Si Si3 0.178200 0.249983 0.969000
Si Si4 0.322662 0.761696 0.919930
Si Si5 0.177198 0.973402 0.117189
O O1 0.250000 0.729577 0.250000
O O2 0.246155 0.616064 0.157840
O O3 0.212802 0.875541 0.164971
O O4 0.000000 0.719622 0.196366
O O5 0.243815 0.623320 0.440591
O O6 0.210776 0.385306 0.395423
O O7 0.000000 0.564757 0.389319
O O8 0.208118 0.118393 0.933258
O O9 0.000000 0.270733 0.969798
O O10 0.240575 0.230392 0.025486
O O11 0.500000 0.770038 0.928093
O O12 0.267171 0.887543 0.886064
O O13 0.000000 0.002016 0.117715
#
# Coordination Sequence:
#
# PCOD9417037 Si02
#       5
#     8   8   8   8   8
#     4  10  21  39  62  83 102 132 174 218 267 319
#     4  10  21  36  53  78 110 141 178 220 260 309
#     4  10  20  34  53  77 107 146 185 217 257 311
#     4  11  22  33  50  79 112 144 177 216 262 309
#     4   9  20  36  53  77 107 139 177 217 259 312
#
# _framework density 17.424775
#
# number of rings (size 3 to 8) (size 9 to 14) (size 15 to 20)
#    0.000    2.000    0.000    4.800    0.000   12.800 
#    0.000    1.000    0.000    2.400    0.000    0.000 
#    0.000    0.000    0.000    0.000    0.000    0.000 
#
# Total GULP energy -223428.786547 kJ/mol
# GULP energy per Si atom -5585.719664 kJ/mol
# Density = 1.738512 g / cm^3
# Si number density = 17.424775 Si / 1000 Ang^3
#
#
#
# Elastic Constant Matrix: (Units=GPa)
#
#
# Indices 1 2 3 4 5 6 
#
# 1 56.1652 50.1332 23.9522 0.0000 0.0000 0.0000
# 2 50.1332 95.0946 14.2062 0.0000 0.0000 0.0000
# 3 23.9522 14.2062 75.9201 0.0000 0.0000 0.0000
# 4 0.0000 0.0000 0.0000 3.0850 0.0000 0.0000
# 5 0.0000 0.0000 0.0000 0.0000 66.4389 0.0000
# 6 0.0000 0.0000 0.0000 0.0000 0.0000 57.2485
#
#
#
# Elastic Compliance Matrix: (Units=1/GPa)
#
#
# Indices 1 2 3 4 5 6 
#
# 1 0.038369 -0.018949 -0.008559 0.000000 0.000000 0.000000
# 2 -0.018949 0.020177 0.002203 0.000000 0.000000 0.000000
# 3 -0.008559 0.002203 0.015460 0.000000 0.000000 0.000000
# 4 0.000000 0.000000 0.000000 0.324149 0.000000 0.000000
# 5 0.000000 0.000000 0.000000 0.000000 0.015051 0.000000
# 6 0.000000 0.000000 0.000000 0.000000 0.000000 0.017468
#
#
# Mechanical properties :
#
#
# Convention : Reuss Voigt Hill
#
# Bulk Modulus (GPa) = 42.74557 44.86257 43.80407
# Shear Modulus (GPa) = 10.22322 34.61369 22.41846
#
# Velocity S-wave (km/s) = 2.42483 4.46181 3.59079
# Velocity P-wave (km/s) = 5.69425 7.23505 6.51040
#
# Compressibility (1/GPa) = 0.02339423
#
# Stress axis : x y z
#
# Youngs Moduli (GPa) = 26.06280 49.56240 64.68328
#
# Poissons Ratio (x) = 0.93916 0.55364
# Poissons Ratio (y) = 0.49387 -0.14249
# Poissons Ratio (z) = 0.22308 -0.10918
#
# Static dielectric constant tensor:
#      x y z
#    x 1.578510 0.000000 0.000000 
#    y 0.000000 1.587980 0.000000 
#    z 0.000000 0.000000 1.561380 
# 
# From -- ./inp_files/33605.got.cif
#   From: 2010.05.17/outbox.cif.g08.bks.cpg/sg53_17_cif.got.tgz:33605.got - 2010.06.03 12:45:16.
