data_PCOD9417066
_publ_section_title
;
Structure prediction by ZEFSAII (Michael W. Deem and Ramdas Pophale) SiO2 
 PCOD9417066
Probable space group: P M N A
;
_chemical_formula_sum "Si O2"
_cell_formula_units_Z 48
_cell_length_a 8.677441
_cell_length_b 21.759621
_cell_length_c 14.462666
_cell_angle_alpha 90.000000
_cell_angle_beta 90.000000
_cell_angle_gamma 90.000000
_cell_volume 2730.809173
_symmetry_space_group_name_H-M "P M N A"
_symmetry_group_IT_number 53
_symmetry_cell_setting 'orthorhombic'
loop_
_space_group_symop_operation_xyz
x,y,z
1/2-x,-y,1/2+z
x,-y,-z
1/2-x,y,1/2-z
-x,-y,-z
1/2+x,y,1/2-z
-x,y,z
1/2+x,-y,1/2+z
loop_
_atom_site_type_symbol
_atom_site_label
_atom_site_fract_x
_atom_site_fract_y
_atom_site_fract_z
Si Si1 0.814069 0.593885 0.999324
Si Si2 0.684906 0.499976 0.853350
Si Si3 0.814444 0.736639 0.008503
Si Si4 0.813881 0.070631 0.491698
Si Si5 0.815913 0.832480 0.352181
Si Si6 0.184351 0.166848 0.147713
O O1 0.745608 0.558982 0.910403
O O2 0.771289 0.665464 0.001413
O O3 0.000000 0.588409 0.998078
O O4 0.748550 0.557899 0.088159
O O5 0.750000 0.499699 0.750000
O O6 0.500000 0.499267 0.853080
O O7 0.768338 0.776055 0.918129
O O8 0.000000 0.739863 0.015863
O O9 0.743374 0.771483 0.096117
O O10 0.768869 0.110592 0.581705
O O11 0.745003 0.105992 0.403897
O O12 0.000000 0.072170 0.484678
O O13 0.765059 0.000000 0.500000
O O14 0.750000 0.838035 0.250000
O O15 0.000000 0.831239 0.348215
O O16 0.250000 0.172442 0.250000
O O17 0.000000 0.165298 0.151314
#
# Coordination Sequence:
#
# PCOD9417066 Si02
#       6
#     8   8   8   8   8   8
#     4  10  20  37  58  81 108 138 174 219 267 314
#     4  11  22  37  56  80 109 142 178 217 261 311
#     4   9  20  37  56  78 106 138 174 216 261 311
#     4   9  19  36  55  77 105 137 175 218 263 311
#     4  10  20  34  54  77 105 139 174 216 262 311
#     4  10  20  35  54  78 107 139 175 215 260 310
#
# _framework density 17.577209
#
# number of rings (size 3 to 8) (size 9 to 14) (size 15 to 20)
#    0.000    2.167    0.000    4.000    0.000    5.000 
#    0.000    3.333    0.000    0.000    0.000    0.000 
#    0.000    0.000    0.000    0.000    0.000    0.000 
#
# Total GULP energy -267974.219696 kJ/mol
# GULP energy per Si atom -5582.796244 kJ/mol
# Density = 1.753720 g / cm^3
# Si number density = 17.577209 Si / 1000 Ang^3
#
#
#
# Elastic Constant Matrix: (Units=GPa)
#
#
# Indices 1 2 3 4 5 6 
#
# 1 60.2900 47.2428 45.2343 0.0000 0.0000 0.0000
# 2 47.2428 161.4522 72.0546 0.0000 0.0000 0.0000
# 3 45.2343 72.0546 162.4007 0.0000 0.0000 0.0000
# 4 0.0000 0.0000 0.0000 5.3574 0.0000 0.0000
# 5 0.0000 0.0000 0.0000 0.0000 29.9628 0.0000
# 6 0.0000 0.0000 0.0000 0.0000 0.0000 25.4077
#
#
#
# Elastic Compliance Matrix: (Units=1/GPa)
#
#
# Indices 1 2 3 4 5 6 
#
# 1 0.023816 -0.004998 -0.004416 0.000000 0.000000 0.000000
# 2 -0.004998 0.008772 -0.002500 0.000000 0.000000 0.000000
# 3 -0.004416 -0.002500 0.008497 0.000000 0.000000 0.000000
# 4 0.000000 0.000000 0.000000 0.186658 0.000000 0.000000
# 5 0.000000 0.000000 0.000000 0.000000 0.033375 0.000000
# 6 0.000000 0.000000 0.000000 0.000000 0.000000 0.039358
#
#
# Mechanical properties :
#
#
# Convention : Reuss Voigt Hill
#
# Bulk Modulus (GPa) = 57.94755 79.24514 68.59634
# Shear Modulus (GPa) = 15.14895 26.78632 20.96763
#
# Velocity S-wave (km/s) = 2.93892 3.90798 3.45757
# Velocity P-wave (km/s) = 6.67498 8.09599 7.41958
#
# Compressibility (1/GPa) = 0.01725699
#
# Stress axis : x y z
#
# Youngs Moduli (GPa) = 41.98819 114.00014 117.69162
#
# Poissons Ratio (x) = 0.56978 0.51974
# Poissons Ratio (y) = 0.20986 0.29421
# Poissons Ratio (z) = 0.18542 0.28498
#
# Static dielectric constant tensor:
#      x y z
#    x 1.587760 0.000000 0.000000 
#    y 0.000000 1.587050 0.000000 
#    z 0.000000 0.000000 1.566580 
# 
# From -- ./inp_files/20332.got.cif
#   From: 2010.05.17/outbox.cif.g08.bks.cpg/sg53_11_cif.got.tgz:20332.got - 2010.06.03 12:45:16.
