data_PCOD9417212
_publ_section_title
;
Structure prediction by ZEFSAII (Michael W. Deem and Ramdas Pophale) SiO2 
 PCOD9417212
Probable space group: P M N A
;
_chemical_formula_sum "Si O2"
_cell_formula_units_Z 56
_cell_length_a 16.249818
_cell_length_b 11.131294
_cell_length_c 14.697667
_cell_angle_alpha 90.000000
_cell_angle_beta 90.000000
_cell_angle_gamma 90.000000
_cell_volume 2658.536077
_symmetry_space_group_name_H-M "P M N A"
_symmetry_group_IT_number 53
_symmetry_cell_setting 'orthorhombic'
loop_
_space_group_symop_operation_xyz
x,y,z
1/2-x,-y,1/2+z
x,-y,-z
1/2-x,y,1/2-z
-x,-y,-z
1/2+x,y,1/2-z
-x,y,z
1/2+x,-y,1/2+z
loop_
_atom_site_type_symbol
_atom_site_label
_atom_site_fract_x
_atom_site_fract_y
_atom_site_fract_z
Si Si1 0.757918 0.121988 0.149910
Si Si2 0.759441 0.552998 0.154632
Si Si3 0.090309 0.438393 0.402423
Si Si4 0.090338 0.182915 0.324962
Si Si5 0.666592 0.730921 0.485477
Si Si6 0.405933 0.951579 0.395825
Si Si7 0.589761 0.631758 0.655197
O O1 0.750000 0.184640 0.250000
O O2 0.661370 0.089749 0.146274
O O3 0.778469 0.198942 0.060606
O O4 0.831675 0.024913 0.152246
O O5 0.750000 0.622846 0.250000
O O6 0.672880 0.487072 0.142081
O O7 0.833272 0.456849 0.164642
O O8 0.781111 0.632696 0.067675
O O9 0.089561 0.500000 0.500000
O O10 0.095458 0.294410 0.395830
O O11 0.000000 0.468147 0.361139
O O12 0.093940 0.257192 0.227459
O O13 0.000000 0.128179 0.327906
O O14 0.625057 0.816499 0.410794
O O15 0.597372 0.678892 0.552202
O O16 0.500000 0.962977 0.360338
O O17 0.408488 0.000000 0.500000
O O18 0.500000 0.574945 0.665968
#
# Coordination Sequence:
#
# PCOD9417212 Si02
#       7
#     8   8   8   8   8   8   8
#     4  11  21  37  65  90 120 157 210 267 320 372
#     4  12  24  37  59  88 133 175 217 260 308 371
#     4  10  20  36  56  80 119 169 216 258 304 364
#     4  10  20  34  57  91 124 160 207 259 312 364
#     4  11  23  39  61  92 129 171 206 259 320 385
#     4   9  21  41  63  89 121 159 204 259 325 388
#     4  11  22  37  60  91 129 167 208 260 315 372
#
# _framework density 21.064226000000001
#
# number of rings (size 3 to 8) (size 9 to 14) (size 15 to 20)
#    0.000    1.429    2.857    3.429    0.000    3.429 
#    0.000    0.000    0.000    4.714    0.000    0.000 
#    0.000    0.000    0.000    0.000    0.000    0.000 
#
# Total GULP energy -311765.666995 kJ/mol
# GULP energy per Si atom -5567.244053 kJ/mol
# Density = 2.101628 g / cm^3
# Si number density = 21.064226 Si / 1000 Ang^3
#
#
#
# Elastic Constant Matrix: (Units=GPa)
#
#
# Indices 1 2 3 4 5 6 
#
# 1 234.2607 47.1995 49.5456 0.0000 0.0000 0.0000
# 2 47.1995 47.7361 26.3120 0.0000 0.0000 0.0000
# 3 49.5456 26.3120 88.1090 0.0000 0.0000 0.0000
# 4 0.0000 0.0000 0.0000 22.3118 0.0000 0.0000
# 5 0.0000 0.0000 0.0000 0.0000 281.7467 0.0000
# 6 0.0000 0.0000 0.0000 0.0000 0.0000 24.5246
#
#
#
# Elastic Compliance Matrix: (Units=1/GPa)
#
#
# Indices 1 2 3 4 5 6 
#
# 1 0.005553 -0.004512 -0.001775 0.000000 0.000000 0.000000
# 2 -0.004512 0.028743 -0.006046 0.000000 0.000000 0.000000
# 3 -0.001775 -0.006046 0.014153 0.000000 0.000000 0.000000
# 4 0.000000 0.000000 0.000000 0.044819 0.000000 0.000000
# 5 0.000000 0.000000 0.000000 0.000000 0.003549 0.000000
# 6 0.000000 0.000000 0.000000 0.000000 0.000000 0.040775
#
#
# Mechanical properties :
#
#
# Convention : Reuss Voigt Hill
#
# Bulk Modulus (GPa) = 42.04838 68.46889 55.25863
# Shear Modulus (GPa) = 29.37920 82.18651 55.78285
#
# Velocity S-wave (km/s) = 3.73868 6.25314 5.15168
# Velocity P-wave (km/s) = 6.21629 9.20387 7.85345
#
# Compressibility (1/GPa) = 0.02378213
#
# Stress axis : x y z
#
# Youngs Moduli (GPa) = 180.07010 34.79129 70.65463
#
# Poissons Ratio (x) = 0.15699 0.12543
# Poissons Ratio (y) = 0.81256 0.42718
# Poissons Ratio (z) = 0.31967 0.21035
#
# Static dielectric constant tensor:
#      x y z
#    x 1.884180 0.000000 0.000000 
#    y 0.000000 1.780670 0.000000 
#    z 0.000000 0.000000 1.814820 
# 
# From -- ./inp_files/22862.got.cif
#   From: 2010.05.17/outbox.cif.g08.bks.cpg/sg53_12_cif.got.tgz:22862.got - 2010.06.03 12:45:16.
