data_PCOD9417475
_publ_section_title
;
Structure prediction by ZEFSAII (Michael W. Deem and Ramdas Pophale) SiO2 
 PCOD9417475
Probable space group: P M N A
;
_chemical_formula_sum "Si O2"
_cell_formula_units_Z 56
_cell_length_a 16.286572
_cell_length_b 10.813844
_cell_length_c 14.820540
_cell_angle_alpha 90.000000
_cell_angle_beta 90.000000
_cell_angle_gamma 90.000000
_cell_volume 2610.200158
_symmetry_space_group_name_H-M "P M N A"
_symmetry_group_IT_number 53
_symmetry_cell_setting 'orthorhombic'
loop_
_space_group_symop_operation_xyz
x,y,z
1/2-x,-y,1/2+z
x,-y,-z
1/2-x,y,1/2-z
-x,-y,-z
1/2+x,y,1/2-z
-x,y,z
1/2+x,-y,1/2+z
loop_
_atom_site_type_symbol
_atom_site_label
_atom_site_fract_x
_atom_site_fract_y
_atom_site_fract_z
Si Si1 0.756005 0.121169 0.147625
Si Si2 0.657254 0.505833 0.731375
Si Si3 0.404406 0.143942 0.027941
Si Si4 0.822548 0.148896 0.809651
Si Si5 0.409781 0.284267 0.376206
Si Si6 0.405334 0.654931 0.423164
Si Si7 0.096054 0.728259 0.342902
O O1 0.750000 0.163858 0.250000
O O2 0.669833 0.148632 0.099531
O O3 0.834992 0.191389 0.110641
O O4 0.781259 0.976555 0.155816
O O5 0.750000 0.542224 0.750000
O O6 0.603824 0.627340 0.710179
O O7 0.649876 0.435455 0.635832
O O8 0.629242 0.402538 0.803958
O O9 0.500000 0.177445 0.053317
O O10 0.376123 0.225229 0.941198
O O11 0.407909 0.000000 0.000000
O O12 0.750000 0.214741 0.750000
O O13 0.864794 0.215326 0.893582
O O14 0.889654 0.160256 0.729749
O O15 0.500000 0.224901 0.369788
O O16 0.408964 0.360041 0.470248
O O17 0.500000 0.646806 0.389618
O O18 0.000000 0.710308 0.351397
#
# Coordination Sequence:
#
# PCOD9417475 Si02
#       7
#     8   8   8   8   8   8   8
#     4  11  25  40  62  90 132 180 215 266 328 391
#     4  11  22  38  64  91 124 163 215 272 322 382
#     4  10  22  39  65  98 133 172 218 275 338 399
#     4  10  20  35  58  94 129 166 206 262 320 392
#     4  11  25  41  61  89 130 177 216 263 328 391
#     4  10  21  38  62  93 125 163 210 271 331 385
#     4  10  20  37  65  95 124 163 212 276 335 384
#
# _framework density 21.454291999999999
#
# number of rings (size 3 to 8) (size 9 to 14) (size 15 to 20)
#    0.000    1.571    0.000    6.857    6.000    2.857 
#    0.000    3.571    0.000    0.000    0.000    5.000 
#    0.000    0.000    0.000    0.000    0.000    0.000 
#
# Total GULP energy -311948.001618 kJ/mol
# GULP energy per Si atom -5570.500029 kJ/mol
# Density = 2.140546 g / cm^3
# Si number density = 21.454292 Si / 1000 Ang^3
#
#
#
# Elastic Constant Matrix: (Units=GPa)
#
#
# Indices 1 2 3 4 5 6 
#
# 1 136.8893 35.4929 66.7668 0.0000 0.0000 0.0000
# 2 35.4929 47.1142 30.1042 0.0000 0.0000 0.0000
# 3 66.7668 30.1042 108.9627 0.0000 0.0000 0.0000
# 4 0.0000 0.0000 0.0000 25.8927 0.0000 0.0000
# 5 0.0000 0.0000 0.0000 0.0000 47.1923 0.0000
# 6 0.0000 0.0000 0.0000 0.0000 0.0000 18.8459
#
#
#
# Elastic Compliance Matrix: (Units=1/GPa)
#
#
# Indices 1 2 3 4 5 6 
#
# 1 0.011301 -0.004965 -0.005553 0.000000 0.000000 0.000000
# 2 -0.004965 0.027957 -0.004681 0.000000 0.000000 0.000000
# 3 -0.005553 -0.004681 0.013873 0.000000 0.000000 0.000000
# 4 0.000000 0.000000 0.000000 0.038621 0.000000 0.000000
# 5 0.000000 0.000000 0.000000 0.000000 0.021190 0.000000
# 6 0.000000 0.000000 0.000000 0.000000 0.000000 0.053062
#
#
# Mechanical properties :
#
#
# Convention : Reuss Voigt Hill
#
# Bulk Modulus (GPa) = 43.99090 61.96598 52.97844
# Shear Modulus (GPa) = 24.51216 29.09300 26.80258
#
# Velocity S-wave (km/s) = 3.38380 3.68645 3.53836
# Velocity P-wave (km/s) = 5.98463 6.86042 6.43743
#
# Compressibility (1/GPa) = 0.02273197
#
# Stress axis : x y z
#
# Youngs Moduli (GPa) = 88.48813 35.76937 72.08095
#
# Poissons Ratio (x) = 0.17761 0.40025
# Poissons Ratio (y) = 0.43938 0.33744
# Poissons Ratio (z) = 0.49136 0.16745
#
# Static dielectric constant tensor:
#      x y z
#    x 1.862710 0.000000 0.000000 
#    y 0.000000 1.856060 0.000000 
#    z 0.000000 0.000000 1.839040 
# 
# From -- ./inp_files/22799.got.cif
#   From: 2010.05.17/outbox.cif.g08.bks.cpg/sg53_12_cif.got.tgz:22799.got - 2010.06.03 12:45:16.
