data_PCOD9417301
_publ_section_title
;
Structure prediction by ZEFSAII (Michael W. Deem and Ramdas Pophale) SiO2 
 PCOD9417301
Probable space group: P M N A
;
_chemical_formula_sum "Si O2"
_cell_formula_units_Z 48
_cell_length_a 8.465367
_cell_length_b 31.554959
_cell_length_c 9.676727
_cell_angle_alpha 90.000000
_cell_angle_beta 90.000000
_cell_angle_gamma 90.000000
_cell_volume 2584.889009
_symmetry_space_group_name_H-M "P M N A"
_symmetry_group_IT_number 53
_symmetry_cell_setting 'orthorhombic'
loop_
_space_group_symop_operation_xyz
x,y,z
1/2-x,-y,1/2+z
x,-y,-z
1/2-x,y,1/2-z
-x,-y,-z
1/2+x,y,1/2-z
-x,y,z
1/2+x,-y,1/2+z
loop_
_atom_site_type_symbol
_atom_site_label
_atom_site_fract_x
_atom_site_fract_y
_atom_site_fract_z
Si Si1 0.190918 0.960218 0.093814
Si Si2 0.189420 0.631021 0.906198
Si Si3 0.810493 0.539142 0.594291
Si Si4 0.309177 0.116716 0.403324
Si Si5 0.690964 0.709749 0.405807
Si Si6 0.190800 0.213388 0.096921
O O1 0.250000 0.963207 0.250000
O O2 0.000000 0.960321 0.096652
O O3 0.243774 0.917231 0.016704
O O4 0.242112 0.000000 0.000000
O O5 0.250000 0.637825 0.750000
O O6 0.248640 0.584924 0.953808
O O7 0.000000 0.630550 0.902176
O O8 0.242639 0.668765 0.006241
O O9 0.757828 0.500000 0.500000
O O10 0.750000 0.533211 0.750000
O O11 0.000000 0.540374 0.595461
O O12 0.250000 0.105187 0.250000
O O13 0.500000 0.116275 0.400652
O O14 0.257257 0.165060 0.432612
O O15 0.750000 0.708364 0.250000
O O16 0.500000 0.709844 0.404932
O O17 0.744494 0.752164 0.485691
O O18 0.250000 0.224764 0.250000
O O19 0.000000 0.213678 0.098992
#
# Coordination Sequence:
#
# PCOD9417301 Si02
#       6
#     8   8   8   8   8   8
#     4  10  21  35  51  74 103 134 170 212 256 303
#     4  10  20  35  55  77 101 132 170 209 250 298
#     4  10  21  36  55  79 105 135 170 207 250 299
#     4   9  18  33  53  76 102 132 168 210 253 301
#     4  10  22  36  51  75 105 135 168 209 254 299
#     4   9  18  34  54  76 102 133 170 209 251 301
#
# _framework density 18.569462999999999
#
# number of rings (size 3 to 8) (size 9 to 14) (size 15 to 20)
#    0.000    2.333    0.000    3.000    0.000    5.667 
#    0.000    3.333    0.000    0.000    0.000    0.000 
#    0.000    0.000    0.000    0.000    0.000    0.000 
#
# Total GULP energy -267940.810462 kJ/mol
# GULP energy per Si atom -5582.100218 kJ/mol
# Density = 1.852720 g / cm^3
# Si number density = 18.569463 Si / 1000 Ang^3
#
#
#
# Elastic Constant Matrix: (Units=GPa)
#
#
# Indices 1 2 3 4 5 6 
#
# 1 14.9473 25.8362 19.3064 0.0000 0.0000 0.0000
# 2 25.8362 161.0916 127.2287 0.0000 0.0000 0.0000
# 3 19.3064 127.2287 151.8037 0.0000 0.0000 0.0000
# 4 0.0000 0.0000 0.0000 40.0467 0.0000 0.0000
# 5 0.0000 0.0000 0.0000 0.0000 32.9648 0.0000
# 6 0.0000 0.0000 0.0000 0.0000 0.0000 -24.1845
#
#
#
# Elastic Compliance Matrix: (Units=1/GPa)
#
#
# Indices 1 2 3 4 5 6 
#
# 1 0.092763 -0.016446 0.001986 0.000000 0.000000 0.000000
# 2 -0.016446 0.021278 -0.015742 0.000000 0.000000 0.000000
# 3 0.001986 -0.015742 0.019528 0.000000 0.000000 0.000000
# 4 0.000000 0.000000 0.000000 0.024971 0.000000 0.000000
# 5 0.000000 0.000000 0.000000 0.000000 0.030335 0.000000
# 6 0.000000 0.000000 0.000000 0.000000 0.000000 -0.041349
#
#
# Mechanical properties :
#
#
# Convention : Reuss Voigt Hill
#
# Bulk Modulus (GPa) = 13.66757 74.73167 44.19962
# Shear Modulus (GPa) = 21.52210 20.13016 20.82613
#
# Velocity S-wave (km/s) = 3.40811 3.29606 3.35255
# Velocity P-wave (km/s) = 4.78154 7.40386 6.23218
#
# Compressibility (1/GPa) = 0.07316590
#
# Stress axis : x y z
#
# Youngs Moduli (GPa) = 10.78013 46.99687 51.20790
#
# Poissons Ratio (x) = 0.77292 -0.10170
# Poissons Ratio (y) = 0.17729 0.80610
# Poissons Ratio (z) = -0.02141 0.73981
#
# Static dielectric constant tensor:
#      x y z
#    x 1.636240 0.000000 0.000000 
#    y 0.000000 1.658810 0.000000 
#    z 0.000000 0.000000 1.593280 
# 
# From -- ./inp_files/6673.got.cif
#   From: 2010.05.17/outbox.cif.g08.bks.cpg/sg53_4_cif.got.tgz:6673.got - 2010.06.03 12:45:16.
