data_PCOD9417932
_publ_section_title
;
Structure prediction by ZEFSAII (Michael W. Deem and Ramdas Pophale) SiO2 
 PCOD9417932
Probable space group: P M N A
;
_chemical_formula_sum "Si O2"
_cell_formula_units_Z 64
_cell_length_a 8.495670
_cell_length_b 24.572106
_cell_length_c 15.841716
_cell_angle_alpha 90.000000
_cell_angle_beta 90.000000
_cell_angle_gamma 90.000000
_cell_volume 3307.061246
_symmetry_space_group_name_H-M "P M N A"
_symmetry_group_IT_number 53
_symmetry_cell_setting 'orthorhombic'
loop_
_space_group_symop_operation_xyz
x,y,z
1/2-x,-y,1/2+z
x,-y,-z
1/2-x,y,1/2-z
-x,-y,-z
1/2+x,y,1/2-z
-x,y,z
1/2+x,-y,1/2+z
loop_
_atom_site_type_symbol
_atom_site_label
_atom_site_fract_x
_atom_site_fract_y
_atom_site_fract_z
Si Si1 0.308918 0.059673 0.900597
Si Si2 0.309617 0.368044 0.502083
Si Si3 0.191110 0.940685 0.599684
Si Si4 0.688868 0.823960 0.160230
Si Si5 0.188752 0.175546 0.339575
Si Si6 0.188901 0.242052 0.000362
Si Si7 0.688852 0.560185 0.657672
Si Si8 0.812619 0.562022 0.342300
O O1 0.500000 0.059328 0.895943
O O2 0.253233 0.113686 0.853823
O O3 0.252744 0.000208 0.870446
O O4 0.269717 0.064453 0.000154
O O5 0.500000 0.370080 0.505576
O O6 0.261378 0.305109 0.499367
O O7 0.259869 0.400130 0.417583
O O8 0.244373 0.398373 0.584107
O O9 0.247024 0.886788 0.646670
O O10 0.000000 0.941077 0.604311
O O11 0.750000 0.803745 0.250000
O O12 0.500000 0.824155 0.159410
O O13 0.748609 0.788206 0.082621
O O14 0.250000 0.196042 0.250000
O O15 0.247795 0.211163 0.417456
O O16 0.000000 0.175143 0.340159
O O17 0.000000 0.239907 0.000767
O O18 0.750000 0.576972 0.750000
O O19 0.500000 0.558950 0.659951
O O20 0.748864 0.498961 0.641403
O O21 0.750000 0.578798 0.250000
O O22 0.000000 0.560092 0.339692
#
# Coordination Sequence:
#
# PCOD9417932 Si02
#       8
#     8   8   8   8   8   8   8   8
#     4   8  14  28  53  82 111 144 184 230 288 349
#     4  10  23  41  61  85 116 155 197 242 291 338
#     4   8  14  28  53  82 111 145 183 231 287 348
#     4  11  22  38  60  86 114 151 193 239 294 353
#     4  11  22  38  60  86 115 152 194 239 293 351
#     4  11  24  43  62  83 114 153 199 249 294 342
#     4  10  20  37  61  89 123 157 190 233 283 337
#     4  11  22  37  61  92 125 158 192 233 282 338
#
# _framework density 19.352528
#
# number of rings (size 3 to 8) (size 9 to 14) (size 15 to 20)
#    0.000    2.000    1.250    4.500    0.000    5.000 
#    0.000    1.250    0.000    3.000    0.000    0.000 
#    0.000    0.000    0.000    0.000    0.000    0.000 
#
# Total GULP energy -357459.847538 kJ/mol
# GULP energy per Si atom -5585.310118 kJ/mol
# Density = 1.930848 g / cm^3
# Si number density = 19.352528 Si / 1000 Ang^3
#
#
#
# Elastic Constant Matrix: (Units=GPa)
#
#
# Indices 1 2 3 4 5 6 
#
# 1 46.0675 41.0536 39.2530 0.0000 0.0000 0.0000
# 2 41.0536 143.5432 111.6321 0.0000 0.0000 0.0000
# 3 39.2530 111.6321 171.7889 0.0000 0.0000 0.0000
# 4 0.0000 0.0000 0.0000 1.6975 0.0000 0.0000
# 5 0.0000 0.0000 0.0000 0.0000 29.0952 0.0000
# 6 0.0000 0.0000 0.0000 0.0000 0.0000 25.9958
#
#
#
# Elastic Compliance Matrix: (Units=1/GPa)
#
#
# Indices 1 2 3 4 5 6 
#
# 1 0.029678 -0.006498 -0.002559 0.000000 0.000000 0.000000
# 2 -0.006498 0.015507 -0.008592 0.000000 0.000000 0.000000
# 3 -0.002559 -0.008592 0.011989 0.000000 0.000000 0.000000
# 4 0.000000 0.000000 0.000000 0.589091 0.000000 0.000000
# 5 0.000000 0.000000 0.000000 0.000000 0.034370 0.000000
# 6 0.000000 0.000000 0.000000 0.000000 0.000000 0.038468
#
#
# Mechanical properties :
#
#
# Convention : Reuss Voigt Hill
#
# Bulk Modulus (GPa) = 45.71085 82.80856 64.25971
# Shear Modulus (GPa) = 6.56433 22.65509 14.60971
#
# Velocity S-wave (km/s) = 1.84373 3.42519 2.75057
# Velocity P-wave (km/s) = 5.31073 7.65016 6.58517
#
# Compressibility (1/GPa) = 0.02187664
#
# Stress axis : x y z
#
# Youngs Moduli (GPa) = 33.69448 64.48764 83.41021
#
# Poissons Ratio (x) = 0.41905 0.21343
# Poissons Ratio (y) = 0.21895 0.71665
# Poissons Ratio (z) = 0.08622 0.55407
#
# Static dielectric constant tensor:
#      x y z
#    x 1.657050 0.000000 0.000000 
#    y 0.000000 1.678240 0.000000 
#    z 0.000000 0.000000 1.654110 
# 
# From -- ./inp_files/20955.got.cif
#   From: 2010.05.17/outbox.cif.g08.bks.cpg/sg53_11_cif.got.tgz:20955.got - 2010.06.03 12:45:16.
