data_PCOD9417770
_publ_section_title
;
Structure prediction by ZEFSAII (Michael W. Deem and Ramdas Pophale) SiO2 
 PCOD9417770
Probable space group: P M N A
;
_chemical_formula_sum "Si O2"
_cell_formula_units_Z 28
_cell_length_a 16.708322
_cell_length_b 5.044977
_cell_length_c 16.461662
_cell_angle_alpha 90.000000
_cell_angle_beta 90.000000
_cell_angle_gamma 90.000000
_cell_volume 1387.604524
_symmetry_space_group_name_H-M "P M N A"
_symmetry_group_IT_number 53
_symmetry_cell_setting 'orthorhombic'
loop_
_space_group_symop_operation_xyz
x,y,z
1/2-x,-y,1/2+z
x,-y,-z
1/2-x,y,1/2-z
-x,-y,-z
1/2+x,y,1/2-z
-x,y,z
1/2+x,-y,1/2+z
loop_
_atom_site_type_symbol
_atom_site_label
_atom_site_fract_x
_atom_site_fract_y
_atom_site_fract_z
Si Si1 0.173008 0.377534 0.409315
Si Si2 0.591449 0.743940 0.442389
Si Si3 0.500000 0.748964 0.940309
Si Si4 0.257233 0.877547 0.342598
O O1 0.176381 0.500000 0.500000
O O2 0.200974 0.620630 0.353913
O O3 0.082972 0.274611 0.392403
O O4 0.228787 0.121941 0.398418
O O5 0.616074 0.500000 0.500000
O O6 0.500000 0.696136 0.414187
O O7 0.654791 0.789452 0.371228
O O8 0.591053 0.000000 0.500000
O O9 0.500000 0.500000 0.000000
O O10 0.500000 0.000000 0.000000
O O11 0.250000 0.967734 0.250000
#
# Coordination Sequence:
#
# PCOD9417770 Si02
#       4
#     8   8   4   8
#     4  11  22  40  64  89 120 167 209 254 298 370
#     4  10  21  39  63  88 115 157 212 258 296 360
#     4  10  20  36  60  92 118 148 207 252 293 360
#     4  12  24  39  60  93 129 160 205 257 328 377
#
# _framework density 20.178661000000002
#
# number of rings (size 3 to 8) (size 9 to 14) (size 15 to 20)
#    0.000    1.143    0.000    9.429    0.000    0.000 
#    5.143    0.000    0.000    0.000    0.000    0.000 
#    0.000    0.000    0.000    0.000    0.000    0.000 
#
# Total GULP energy -156487.538916 kJ/mol
# GULP energy per Si atom -5588.840676 kJ/mol
# Density = 2.013273 g / cm^3
# Si number density = 20.178661 Si / 1000 Ang^3
#
#
#
# Elastic Constant Matrix: (Units=GPa)
#
#
# Indices 1 2 3 4 5 6 
#
# 1 141.5921 26.6586 50.9347 0.0000 0.0000 0.0000
# 2 26.6586 129.8409 8.7613 0.0000 0.0000 0.0000
# 3 50.9347 8.7613 68.2862 0.0000 0.0000 0.0000
# 4 0.0000 0.0000 0.0000 26.0707 0.0000 0.0000
# 5 0.0000 0.0000 0.0000 0.0000 6.8707 0.0000
# 6 0.0000 0.0000 0.0000 0.0000 0.0000 24.3709
#
#
#
# Elastic Compliance Matrix: (Units=1/GPa)
#
#
# Indices 1 2 3 4 5 6 
#
# 1 0.009955 -0.001556 -0.007226 0.000000 0.000000 0.000000
# 2 -0.001556 0.008012 0.000133 0.000000 0.000000 0.000000
# 3 -0.007226 0.000133 0.020017 0.000000 0.000000 0.000000
# 4 0.000000 0.000000 0.000000 0.038357 0.000000 0.000000
# 5 0.000000 0.000000 0.000000 0.000000 0.145546 0.000000
# 6 0.000000 0.000000 0.000000 0.000000 0.000000 0.041032
#
#
# Mechanical properties :
#
#
# Convention : Reuss Voigt Hill
#
# Bulk Modulus (GPa) = 48.34246 56.93650 52.63948
# Shear Modulus (GPa) = 17.41474 28.35344 22.88409
#
# Velocity S-wave (km/s) = 2.94092 3.75256 3.37125
# Velocity P-wave (km/s) = 5.96165 6.85952 6.42629
#
# Compressibility (1/GPa) = 0.02068575
#
# Stress axis : x y z
#
# Youngs Moduli (GPa) = 100.45384 124.80789 49.95806
#
# Poissons Ratio (x) = 0.19424 0.36098
# Poissons Ratio (y) = 0.15634 -0.00664
# Poissons Ratio (z) = 0.72584 -0.01658
#
# Static dielectric constant tensor:
#      x y z
#    x 1.789180 0.000000 0.000000 
#    y 0.000000 1.697400 0.000000 
#    z 0.000000 0.000000 1.822020 
# 
# From -- ./inp_files/27774.got.cif
#   From: 2010.05.17/outbox.cif.g08.bks.cpg/sg53_14_cif.got.tgz:27774.got - 2010.06.03 12:45:16.
