data_PCOD9417824
_publ_section_title
;
Structure prediction by ZEFSAII (Michael W. Deem and Ramdas Pophale) SiO2 
 PCOD9417824
Probable space group: P M N A
;
_chemical_formula_sum "Si O2"
_cell_formula_units_Z 64
_cell_length_a 19.623880
_cell_length_b 6.304626
_cell_length_c 26.184209
_cell_angle_alpha 90.000000
_cell_angle_beta 90.000000
_cell_angle_gamma 90.000000
_cell_volume 3239.542389
_symmetry_space_group_name_H-M "P M N A"
_symmetry_group_IT_number 53
_symmetry_cell_setting 'orthorhombic'
loop_
_space_group_symop_operation_xyz
x,y,z
1/2-x,-y,1/2+z
x,-y,-z
1/2-x,y,1/2-z
-x,-y,-z
1/2+x,y,1/2-z
-x,y,z
1/2+x,-y,1/2+z
loop_
_atom_site_type_symbol
_atom_site_label
_atom_site_fract_x
_atom_site_fract_y
_atom_site_fract_z
Si Si1 0.422917 0.870485 0.947436
Si Si2 0.214194 0.609275 0.553995
Si Si3 0.424318 0.135376 0.844285
Si Si4 0.800086 0.087076 0.114658
Si Si5 0.078618 0.849807 0.154419
Si Si6 0.076416 0.824765 0.749562
Si Si7 0.784408 0.303206 0.651246
Si Si8 0.834412 0.535663 0.807223
O O1 0.500000 0.779207 0.945440
O O2 0.362499 0.701545 0.944314
O O3 0.416998 0.034372 0.900415
O O4 0.415922 0.000000 0.000000
O O5 0.226670 0.500000 0.500000
O O6 0.266453 0.801765 0.565728
O O7 0.222159 0.439406 0.599461
O O8 0.500000 0.228614 0.839072
O O9 0.418019 0.946084 0.803563
O O10 0.362922 0.293417 0.834213
O O11 0.818066 0.276583 0.153161
O O12 0.869283 0.948992 0.112910
O O13 0.743447 0.931962 0.138999
O O14 0.108304 0.621952 0.170277
O O15 0.000000 0.840851 0.138357
O O16 0.082120 0.999569 0.205049
O O17 0.134367 0.651561 0.758471
O O18 0.000000 0.732073 0.753703
O O19 0.734337 0.400139 0.693325
#
# Coordination Sequence:
#
# PCOD9417824 Si02
#       8
#     8   8   8   8   8   8   8   8
#     4  10  21  38  60  84 112 153 200 245 298 350
#     4  11  22  34  60  86 109 151 194 243 292 348
#     4  10  20  37  58  78 115 159 191 244 300 343
#     4   9  19  36  54  83 118 147 188 238 289 350
#     4   9  17  33  58  85 112 147 191 235 285 348
#     4   9  18  34  55  81 114 151 192 236 289 344
#     4  10  20  37  57  81 116 148 198 240 289 351
#     4   9  18  34  57  81 111 150 193 239 281 346
#
# _framework density 19.755877000000002
#
# number of rings (size 3 to 8) (size 9 to 14) (size 15 to 20)
#    0.000    2.375    1.250    1.125    0.000    1.250 
#    2.250    6.875    0.000    0.375    0.000    7.875 
#    0.000    0.000    0.000    0.000    0.000    0.375 
#
# Total GULP energy -357214.384224 kJ/mol
# GULP energy per Si atom -5581.474754 kJ/mol
# Density = 1.971091 g / cm^3
# Si number density = 19.755877 Si / 1000 Ang^3
#
#
#
# Elastic Constant Matrix: (Units=GPa)
#
#
# Indices 1 2 3 4 5 6 
#
# 1 139.4067 38.6217 44.8192 0.0000 0.0000 0.0000
# 2 38.6217 62.9424 14.4620 0.0000 0.0000 0.0000
# 3 44.8192 14.4620 59.7888 0.0000 0.0000 0.0000
# 4 0.0000 0.0000 0.0000 17.7396 0.0000 0.0000
# 5 0.0000 0.0000 0.0000 0.0000 12.8217 0.0000
# 6 0.0000 0.0000 0.0000 0.0000 0.0000 37.1253
#
#
#
# Elastic Compliance Matrix: (Units=1/GPa)
#
#
# Indices 1 2 3 4 5 6 
#
# 1 0.010773 -0.005035 -0.006858 0.000000 0.000000 0.000000
# 2 -0.005035 0.019175 -0.000864 0.000000 0.000000 0.000000
# 3 -0.006858 -0.000864 0.022075 0.000000 0.000000 0.000000
# 4 0.000000 0.000000 0.000000 0.056371 0.000000 0.000000
# 5 0.000000 0.000000 0.000000 0.000000 0.077993 0.000000
# 6 0.000000 0.000000 0.000000 0.000000 0.000000 0.026936
#
#
# Mechanical properties :
#
#
# Convention : Reuss Voigt Hill
#
# Bulk Modulus (GPa) = 37.72098 50.88262 44.30180
# Shear Modulus (GPa) = 20.18789 24.48631 22.33710
#
# Velocity S-wave (km/s) = 3.20013 3.52439 3.36617
# Velocity P-wave (km/s) = 5.72621 6.50949 6.13037
#
# Compressibility (1/GPa) = 0.02651045
#
# Stress axis : x y z
#
# Youngs Moduli (GPa) = 92.82612 52.15033 45.29935
#
# Poissons Ratio (x) = 0.26255 0.31065
# Poissons Ratio (y) = 0.46734 0.03915
# Poissons Ratio (z) = 0.63658 0.04507
#
# Static dielectric constant tensor:
#      x y z
#    x 1.723560 0.000000 0.000000 
#    y 0.000000 1.701100 0.000000 
#    z 0.000000 0.000000 1.670900 
# 
# From -- ./inp_files/37250.got.cif
#   From: 2010.05.17/outbox.cif.g08.bks.cpg/sg53_19_cif.got.tgz:37250.got - 2010.06.03 12:45:16.
