data_PCOD9417306
_publ_section_title
;
Structure prediction by ZEFSAII (Michael W. Deem and Ramdas Pophale) SiO2 
 PCOD9417306
Probable space group: P M N A
;
_chemical_formula_sum "Si O2"
_cell_formula_units_Z 40
_cell_length_a 14.621492
_cell_length_b 16.929018
_cell_length_c 8.728913
_cell_angle_alpha 90.000000
_cell_angle_beta 90.000000
_cell_angle_gamma 90.000000
_cell_volume 2160.646024
_symmetry_space_group_name_H-M "P M N A"
_symmetry_group_IT_number 53
_symmetry_cell_setting 'orthorhombic'
loop_
_space_group_symop_operation_xyz
x,y,z
1/2-x,-y,1/2+z
x,-y,-z
1/2-x,y,1/2-z
-x,-y,-z
1/2+x,y,1/2-z
-x,y,z
1/2+x,-y,1/2+z
loop_
_atom_site_type_symbol
_atom_site_label
_atom_site_fract_x
_atom_site_fract_y
_atom_site_fract_z
Si Si1 0.656135 0.298486 0.657241
Si Si2 0.348572 0.976538 0.673613
Si Si3 0.500000 0.061273 0.862480
Si Si4 0.657684 0.797567 0.653171
Si Si5 0.000000 0.692255 0.708393
Si Si6 0.500000 0.243083 0.882698
Si Si7 0.500000 0.593879 0.502499
O O1 0.750000 0.320501 0.750000
O O2 0.673950 0.235946 0.518658
O O3 0.589018 0.258557 0.780211
O O4 0.590620 0.366877 0.579520
O O5 0.250000 0.976963 0.750000
O O6 0.382177 0.885907 0.666988
O O7 0.338502 0.000000 0.500000
O O8 0.413136 0.038041 0.759882
O O9 0.500000 0.150366 0.923714
O O10 0.500000 0.000000 0.000000
O O11 0.750000 0.796803 0.750000
O O12 0.587887 0.739715 0.735005
O O13 0.000000 0.696927 0.525658
O O14 0.000000 0.615936 0.816575
O O15 0.500000 0.500000 0.500000
#
# Coordination Sequence:
#
# PCOD9417306 Si02
#       7
#     8   8   4   8   4   4   4
#     4  10  21  38  61  88 115 150 194 240 293 354
#     4  11  23  36  51  75 107 148 195 247 302 347
#     4  12  24  36  53  78 113 153 198 249 301 350
#     4  10  20  35  55  77 108 149 196 243 287 347
#     4  10  20  37  59  81 108 147 188 227 288 360
#     4  11  22  36  57  83 114 153 196 248 294 346
#     4   9  21  43  65  90 124 153 182 234 293 362
#
# _framework density 18.512982000000001
#
# number of rings (size 3 to 8) (size 9 to 14) (size 15 to 20)
#    0.000    1.600    0.000    5.700    0.000    6.400 
#    0.000    8.000    0.000    0.000    0.000    0.000 
#    0.000    0.000    0.000    0.000    0.000    0.000 
#
# Total GULP energy -223072.225400 kJ/mol
# GULP energy per Si atom -5576.805635 kJ/mol
# Density = 1.847085 g / cm^3
# Si number density = 18.512982 Si / 1000 Ang^3
#
#
#
# Elastic Constant Matrix: (Units=GPa)
#
#
# Indices 1 2 3 4 5 6 
#
# 1 97.8922 19.5553 31.8041 0.0000 0.0000 0.0000
# 2 19.5553 93.5746 15.6845 0.0000 0.0000 0.0000
# 3 31.8041 15.6845 127.8169 0.0000 0.0000 0.0000
# 4 0.0000 0.0000 0.0000 21.5397 0.0000 0.0000
# 5 0.0000 0.0000 0.0000 0.0000 11.5538 0.0000
# 6 0.0000 0.0000 0.0000 0.0000 0.0000 12.8833
#
#
#
# Elastic Compliance Matrix: (Units=1/GPa)
#
#
# Indices 1 2 3 4 5 6 
#
# 1 0.011454 -0.001956 -0.002610 0.000000 0.000000 0.000000
# 2 -0.001956 0.011245 -0.000893 0.000000 0.000000 0.000000
# 3 -0.002610 -0.000893 0.008583 0.000000 0.000000 0.000000
# 4 0.000000 0.000000 0.000000 0.046426 0.000000 0.000000
# 5 0.000000 0.000000 0.000000 0.000000 0.086552 0.000000
# 6 0.000000 0.000000 0.000000 0.000000 0.000000 0.077620
#
#
# Mechanical properties :
#
#
# Convention : Reuss Voigt Hill
#
# Bulk Modulus (GPa) = 49.10812 50.37461 49.74136
# Shear Modulus (GPa) = 19.26144 26.01135 22.63639
#
# Velocity S-wave (km/s) = 3.22907 3.75244 3.50055
# Velocity P-wave (km/s) = 6.36289 6.78557 6.57763
#
# Compressibility (1/GPa) = 0.02036323
#
# Stress axis : x y z
#
# Youngs Moduli (GPa) = 87.30532 88.92705 116.51306
#
# Poissons Ratio (x) = 0.17396 0.30410
# Poissons Ratio (y) = 0.17079 0.10406
# Poissons Ratio (z) = 0.22787 0.07943
#
# Static dielectric constant tensor:
#      x y z
#    x 1.636710 0.000000 0.000000 
#    y 0.000000 1.910340 0.000000 
#    z 0.000000 0.000000 1.653100 
# 
# From -- ./inp_files/8491.got.cif
#   From: 2010.05.17/outbox.cif.g08.bks.cpg/sg53_5_cif.got.tgz:8491.got - 2010.06.03 12:45:16.
