data_PCOD9417779
_publ_section_title
;
Structure prediction by ZEFSAII (Michael W. Deem and Ramdas Pophale) SiO2 
 PCOD9417779
Probable space group: P M N A
;
_chemical_formula_sum "Si O2"
_cell_formula_units_Z 56
_cell_length_a 15.478766
_cell_length_b 15.099461
_cell_length_c 12.026296
_cell_angle_alpha 90.000000
_cell_angle_beta 90.000000
_cell_angle_gamma 90.000000
_cell_volume 2810.798211
_symmetry_space_group_name_H-M "P M N A"
_symmetry_group_IT_number 53
_symmetry_cell_setting 'orthorhombic'
loop_
_space_group_symop_operation_xyz
x,y,z
1/2-x,-y,1/2+z
x,-y,-z
1/2-x,y,1/2-z
-x,-y,-z
1/2+x,y,1/2-z
-x,y,z
1/2+x,-y,1/2+z
loop_
_atom_site_type_symbol
_atom_site_label
_atom_site_fract_x
_atom_site_fract_y
_atom_site_fract_z
Si Si1 0.096408 0.105793 0.492434
Si Si2 0.596792 0.704801 0.564100
Si Si3 0.649695 0.167716 0.765523
Si Si4 0.404536 0.647702 0.311082
Si Si5 0.405776 0.996509 0.367012
Si Si6 0.226924 0.148532 0.135898
Si Si7 0.698175 0.528510 0.632222
O O1 0.111379 0.140694 0.616409
O O2 0.182816 0.132217 0.425859
O O3 0.000000 0.133635 0.451774
O O4 0.096136 0.000000 0.500000
O O5 0.500000 0.719996 0.610240
O O6 0.588260 0.687105 0.434023
O O7 0.659338 0.788591 0.574973
O O8 0.640579 0.615923 0.612344
O O9 0.750000 0.146924 0.750000
O O10 0.638866 0.272884 0.755558
O O11 0.604388 0.103539 0.675947
O O12 0.500000 0.630749 0.265138
O O13 0.354511 0.557258 0.328029
O O14 0.500000 0.029705 0.327130
O O15 0.325819 0.058856 0.333793
O O16 0.405236 0.000000 0.500000
O O17 0.250000 0.196169 0.250000
O O18 0.729515 0.500000 0.500000
O O19 0.750000 0.547464 0.750000
#
# Coordination Sequence:
#
# PCOD9417779 Si02
#       7
#     8   8   8   8   8   8   8
#     4  11  24  41  59  84 124 171 213 258 321 392
#     4  10  21  39  62  88 120 157 205 263 318 376
#     4  12  22  36  59  87 122 160 202 253 310 371
#     4  10  20  36  61  90 116 150 201 259 315 370
#     4  11  22  36  56  83 114 148 193 249 304 359
#     4  12  24  38  57  81 112 156 206 250 302 372
#     4  10  21  39  63  92 124 161 205 258 324 393
#
# _framework density 19.923165999999998
#
# number of rings (size 3 to 8) (size 9 to 14) (size 15 to 20)
#    0.000    1.143    0.000    8.143    0.000    7.429 
#    0.000    0.000    0.000    1.714    0.000    0.000 
#    0.000    0.000    0.000    0.000    0.000    0.000 
#
# Total GULP energy -312038.459086 kJ/mol
# GULP energy per Si atom -5572.115341 kJ/mol
# Density = 1.987782 g / cm^3
# Si number density = 19.923166 Si / 1000 Ang^3
#
#
#
# Elastic Constant Matrix: (Units=GPa)
#
#
# Indices 1 2 3 4 5 6 
#
# 1 152.4924 41.2377 39.9832 0.0000 0.0000 0.0000
# 2 41.2377 96.2036 12.8225 0.0000 0.0000 0.0000
# 3 39.9832 12.8225 63.8142 0.0000 0.0000 0.0000
# 4 0.0000 0.0000 0.0000 35.2348 0.0000 0.0000
# 5 0.0000 0.0000 0.0000 0.0000 13.6607 0.0000
# 6 0.0000 0.0000 0.0000 0.0000 0.0000 6.2915
#
#
#
# Elastic Compliance Matrix: (Units=1/GPa)
#
#
# Indices 1 2 3 4 5 6 
#
# 1 0.008646 -0.003066 -0.004801 0.000000 0.000000 0.000000
# 2 -0.003066 0.011768 -0.000444 0.000000 0.000000 0.000000
# 3 -0.004801 -0.000444 0.018768 0.000000 0.000000 0.000000
# 4 0.000000 0.000000 0.000000 0.028381 0.000000 0.000000
# 5 0.000000 0.000000 0.000000 0.000000 0.073203 0.000000
# 6 0.000000 0.000000 0.000000 0.000000 0.000000 0.158946
#
#
# Mechanical properties :
#
#
# Convention : Reuss Voigt Hill
#
# Bulk Modulus (GPa) = 44.32566 55.62187 49.97376
# Shear Modulus (GPa) = 15.43915 25.60183 20.52049
#
# Velocity S-wave (km/s) = 2.78678 3.58862 3.21281
# Velocity P-wave (km/s) = 5.71415 6.71935 6.23703
#
# Compressibility (1/GPa) = 0.02256030
#
# Stress axis : x y z
#
# Youngs Moduli (GPa) = 115.66537 84.97610 53.28317
#
# Poissons Ratio (x) = 0.26054 0.25581
# Poissons Ratio (y) = 0.35464 0.02363
# Poissons Ratio (z) = 0.55530 0.03769
#
# Static dielectric constant tensor:
#      x y z
#    x 1.811320 0.000000 0.000000 
#    y 0.000000 1.688010 0.000000 
#    z 0.000000 0.000000 1.758290 
# 
# From -- ./inp_files/16046.got.cif
#   From: 2010.05.17/outbox.cif.g08.bks.cpg/sg53_9_cif.got.tgz:16046.got - 2010.06.03 12:45:16.
