data_PCOD9417349
_publ_section_title
;
Structure prediction by ZEFSAII (Michael W. Deem and Ramdas Pophale) SiO2 
 PCOD9417349
Probable space group: P M N A
;
_chemical_formula_sum "Si O2"
_cell_formula_units_Z 64
_cell_length_a 27.477447
_cell_length_b 19.962951
_cell_length_c 5.433632
_cell_angle_alpha 90.000000
_cell_angle_beta 90.000000
_cell_angle_gamma 90.000000
_cell_volume 2980.515204
_symmetry_space_group_name_H-M "P M N A"
_symmetry_group_IT_number 53
_symmetry_cell_setting 'orthorhombic'
loop_
_space_group_symop_operation_xyz
x,y,z
1/2-x,-y,1/2+z
x,-y,-z
1/2-x,y,1/2-z
-x,-y,-z
1/2+x,y,1/2-z
-x,y,z
1/2+x,-y,1/2+z
loop_
_atom_site_type_symbol
_atom_site_label
_atom_site_fract_x
_atom_site_fract_y
_atom_site_fract_z
Si Si1 0.943690 0.097681 0.420827
Si Si2 0.944419 0.543458 0.751153
Si Si3 0.304984 0.681982 0.167160
Si Si4 0.132272 0.214917 0.915607
Si Si5 0.872795 0.664060 0.712658
Si Si6 0.690824 0.462144 0.745243
Si Si7 0.111593 0.069214 0.931963
Si Si8 0.055541 0.245773 0.568320
O O1 0.928118 0.071202 0.153568
O O2 0.939115 0.178789 0.404833
O O3 0.000000 0.082477 0.474266
O O4 0.911201 0.073110 0.655026
O O5 0.936685 0.500000 0.500000
O O6 0.902874 0.599162 0.785068
O O7 0.000000 0.571683 0.730674
O O8 0.943860 0.500000 0.000000
O O9 0.250000 0.688892 0.250000
O O10 0.331133 0.752751 0.214918
O O11 0.326067 0.614793 0.295625
O O12 0.318140 0.656893 0.892931
O O13 0.076615 0.218273 0.823119
O O14 0.133642 0.272045 0.116320
O O15 0.142282 0.137645 0.966539
O O16 0.909953 0.693496 0.504947
O O17 0.676002 0.500000 0.500000
O O18 0.750000 0.459516 0.750000
O O19 0.676327 0.500000 0.000000
O O20 0.138423 0.000000 0.000000
O O21 0.000000 0.266086 0.577862
#
# Coordination Sequence:
#
# PCOD9417349 Si02
#       8
#     8   8   8   8   8   8   8   8
#     4  10  20  35  55  86 126 167 209 250 303 379
#     4  10  24  44  65  94 133 180 228 272 324 377
#     4  10  24  43  64  92 125 166 210 270 337 396
#     4  10  23  40  60  94 122 161 219 261 318 391
#     4  11  22  40  63  91 123 166 218 272 320 391
#     4   9  19  37  60  88 120 153 193 239 302 382
#     4  11  22  38  59  87 127 168 208 259 319 380
#     4   9  19  35  58  87 124 165 209 260 309 368
#
# _framework density 21.472798000000001
#
# number of rings (size 3 to 8) (size 9 to 14) (size 15 to 20)
#    0.000    2.000    1.250    1.125    5.250    4.000 
#    0.000    0.000    0.000    0.000    3.250    0.000 
#    0.000    0.000    0.000    0.000    0.000    0.000 
#
# Total GULP energy -356459.370753 kJ/mol
# GULP energy per Si atom -5569.677668 kJ/mol
# Density = 2.142393 g / cm^3
# Si number density = 21.472798 Si / 1000 Ang^3
#
#
#
# Elastic Constant Matrix: (Units=GPa)
#
#
# Indices 1 2 3 4 5 6 
#
# 1 71.5199 23.3320 11.3245 0.0000 0.0000 0.0000
# 2 23.3320 138.0070 25.9657 0.0000 0.0000 0.0000
# 3 11.3245 25.9657 95.1894 0.0000 0.0000 0.0000
# 4 0.0000 0.0000 0.0000 36.1858 0.0000 0.0000
# 5 0.0000 0.0000 0.0000 0.0000 0.0688 0.0000
# 6 0.0000 0.0000 0.0000 0.0000 0.0000 15.4278
#
#
#
# Elastic Compliance Matrix: (Units=1/GPa)
#
#
# Indices 1 2 3 4 5 6 
#
# 1 0.014916 -0.002306 -0.001145 0.000000 0.000000 0.000000
# 2 -0.002306 0.007995 -0.001906 0.000000 0.000000 0.000000
# 3 -0.001145 -0.001906 0.011162 0.000000 0.000000 0.000000
# 4 0.000000 0.000000 0.000000 0.027635 0.000000 0.000000
# 5 0.000000 0.000000 0.000000 0.000000 14.539889 0.000000
# 6 0.000000 0.000000 0.000000 0.000000 0.000000 0.064818
#
#
# Mechanical properties :
#
#
# Convention : Reuss Voigt Hill
#
# Bulk Modulus (GPa) = 42.81549 47.32897 45.07223
# Shear Modulus (GPa) = 0.34049 26.60942 13.47495
#
# Velocity S-wave (km/s) = 0.39864 3.52407 2.50778
# Velocity P-wave (km/s) = 4.49384 6.21675 5.42414
#
# Compressibility (1/GPa) = 0.02335603
#
# Stress axis : x y z
#
# Youngs Moduli (GPa) = 67.04277 125.08463 89.59242
#
# Poissons Ratio (x) = 0.28847 0.10262
# Poissons Ratio (y) = 0.15462 0.17080
# Poissons Ratio (z) = 0.07679 0.23846
#
# Static dielectric constant tensor:
#      x y z
#    x 1.795400 0.000000 0.000000 
#    y 0.000000 1.965200 0.000000 
#    z 0.000000 0.000000 1.661950 
# 
# From -- ./inp_files/5469.got.cif
#   From: 2010.05.17/outbox.cif.g08.bks.cpg/sg53_3_cif.got.tgz:5469.got - 2010.06.03 12:45:16.
