data_PCOD9417754
_publ_section_title
;
Structure prediction by ZEFSAII (Michael W. Deem and Ramdas Pophale) SiO2 
 PCOD9417754
Probable space group: P M N A
;
_chemical_formula_sum "Si O2"
_cell_formula_units_Z 64
_cell_length_a 8.623287
_cell_length_b 18.826258
_cell_length_c 21.022843
_cell_angle_alpha 90.000000
_cell_angle_beta 90.000000
_cell_angle_gamma 90.000000
_cell_volume 3412.937172
_symmetry_space_group_name_H-M "P M N A"
_symmetry_group_IT_number 53
_symmetry_cell_setting 'orthorhombic'
loop_
_space_group_symop_operation_xyz
x,y,z
1/2-x,-y,1/2+z
x,-y,-z
1/2-x,y,1/2-z
-x,-y,-z
1/2+x,y,1/2-z
-x,y,z
1/2+x,-y,1/2+z
loop_
_atom_site_type_symbol
_atom_site_label
_atom_site_fract_x
_atom_site_fract_y
_atom_site_fract_z
Si Si1 0.186637 0.949618 0.559465
Si Si2 0.186285 0.712901 0.680504
Si Si3 0.313548 0.708437 0.063363
Si Si4 0.186195 0.956403 0.318773
Si Si5 0.310707 0.455854 0.938365
Si Si6 0.185230 0.201919 0.819450
Si Si7 0.813353 0.452297 0.318680
Si Si8 0.684089 0.208035 0.441967
O O1 0.267440 0.874032 0.553873
O O2 0.000000 0.938959 0.558892
O O3 0.225722 0.000000 0.500000
O O4 0.227625 0.989941 0.624775
O O5 0.250000 0.733155 0.750000
O O6 0.230530 0.630043 0.669595
O O7 0.254495 0.759869 0.624206
O O8 0.000000 0.717815 0.680295
O O9 0.500000 0.710777 0.066848
O O10 0.263411 0.626150 0.060102
O O11 0.245064 0.746943 0.125210
O O12 0.259558 0.749317 0.000368
O O13 0.250000 0.979266 0.250000
O O14 0.253967 0.878095 0.331980
O O15 0.000000 0.950749 0.315794
O O16 0.500000 0.456492 0.938597
O O17 0.259207 0.496682 0.874983
O O18 0.259739 0.500000 0.000000
O O19 0.250000 0.222739 0.750000
O O20 0.000000 0.201260 0.817566
O O21 0.750000 0.473527 0.250000
O O22 0.000000 0.454473 0.316890
O O23 0.500000 0.215151 0.445383
#
# Coordination Sequence:
#
# PCOD9417754 Si02
#       8
#     8   8   8   8   8   8   8   8
#     4  10  22  40  61  83 110 147 190 234 282 337
#     4  10  20  37  61  86 116 152 190 235 285 339
#     4  11  22  38  60  84 115 152 191 238 289 340
#     4  10  20  36  60  87 115 148 186 229 280 337
#     4   9  18  34  57  83 109 143 188 234 283 339
#     4  11  22  38  60  86 118 153 192 234 280 337
#     4   9  18  34  57  84 112 145 185 229 281 338
#     4  12  25  39  58  85 117 152 193 237 282 338
#
# _framework density 18.752175999999999
#
# number of rings (size 3 to 8) (size 9 to 14) (size 15 to 20)
#    0.000    1.750    0.000    5.625    0.000    5.750 
#    0.000    3.750    0.000    2.625    0.000    0.000 
#    0.000    0.000    0.000    0.000    0.000    0.000 
#
# Total GULP energy -357707.859294 kJ/mol
# GULP energy per Si atom -5589.185301 kJ/mol
# Density = 1.870949 g / cm^3
# Si number density = 18.752176 Si / 1000 Ang^3
#
#
#
# Elastic Constant Matrix: (Units=GPa)
#
#
# Indices 1 2 3 4 5 6 
#
# 1 65.9359 40.0378 41.3251 0.0000 0.0000 0.0000
# 2 40.0378 108.5687 88.6353 0.0000 0.0000 0.0000
# 3 41.3251 88.6353 139.1549 0.0000 0.0000 0.0000
# 4 0.0000 0.0000 0.0000 41.5103 0.0000 0.0000
# 5 0.0000 0.0000 0.0000 0.0000 35.1457 0.0000
# 6 0.0000 0.0000 0.0000 0.0000 0.0000 84.7863
#
#
#
# Elastic Compliance Matrix: (Units=1/GPa)
#
#
# Indices 1 2 3 4 5 6 
#
# 1 0.019979 -0.005258 -0.002584 0.000000 0.000000 0.000000
# 2 -0.005258 0.020573 -0.011543 0.000000 0.000000 0.000000
# 3 -0.002584 -0.011543 0.015306 0.000000 0.000000 0.000000
# 4 0.000000 0.000000 0.000000 0.024090 0.000000 0.000000
# 5 0.000000 0.000000 0.000000 0.000000 0.028453 0.000000
# 6 0.000000 0.000000 0.000000 0.000000 0.000000 0.011794
#
#
# Mechanical properties :
#
#
# Convention : Reuss Voigt Hill
#
# Bulk Modulus (GPa) = 58.52029 72.62842 65.57435
# Shear Modulus (GPa) = 30.36541 41.86588 36.11565
#
# Velocity S-wave (km/s) = 4.02842 4.73015 4.39332
# Velocity P-wave (km/s) = 7.27410 8.28536 7.79614
#
# Compressibility (1/GPa) = 0.01708809
#
# Stress axis : x y z
#
# Youngs Moduli (GPa) = 50.05359 48.60654 65.33494
#
# Poissons Ratio (x) = 0.25559 0.16881
# Poissons Ratio (y) = 0.26319 0.75414
# Poissons Ratio (z) = 0.12933 0.56105
#
# Static dielectric constant tensor:
#      x y z
#    x 1.633880 0.000000 0.000000 
#    y 0.000000 1.624030 0.000000 
#    z 0.000000 0.000000 1.625990 
# 
# From -- ./inp_files/31245.got.cif
#   From: 2010.05.17/outbox.cif.g08.bks.cpg/sg53_16_cif.got.tgz:31245.got - 2010.06.03 12:45:16.
