data_PCOD9417406
_publ_section_title
;
Structure prediction by ZEFSAII (Michael W. Deem and Ramdas Pophale) SiO2 
 PCOD9417406
Probable space group: P M N A
;
_chemical_formula_sum "Si O2"
_cell_formula_units_Z 64
_cell_length_a 25.429284
_cell_length_b 15.200887
_cell_length_c 9.881039
_cell_angle_alpha 90.000000
_cell_angle_beta 90.000000
_cell_angle_gamma 90.000000
_cell_volume 3819.492628
_symmetry_space_group_name_H-M "P M N A"
_symmetry_group_IT_number 53
_symmetry_cell_setting 'orthorhombic'
loop_
_space_group_symop_operation_xyz
x,y,z
1/2-x,-y,1/2+z
x,-y,-z
1/2-x,y,1/2-z
-x,-y,-z
1/2+x,y,1/2-z
-x,y,z
1/2+x,-y,1/2+z
loop_
_atom_site_type_symbol
_atom_site_label
_atom_site_fract_x
_atom_site_fract_y
_atom_site_fract_z
Si Si1 0.562972 0.661168 0.845927
Si Si2 0.937225 0.673257 0.334371
Si Si3 0.563521 0.501966 0.343939
Si Si4 0.385199 0.158572 0.248814
Si Si5 0.558345 0.990740 0.162058
Si Si6 0.639290 0.162925 0.781738
Si Si7 0.322535 0.893793 0.502717
Si Si8 0.798317 0.103700 0.466147
O O1 0.500000 0.673735 0.827883
O O2 0.579884 0.579596 0.751434
O O3 0.593411 0.747997 0.798563
O O4 0.571029 0.648058 0.007255
O O5 0.924804 0.592022 0.235420
O O6 0.899135 0.753793 0.296601
O O7 0.000000 0.694872 0.320736
O O8 0.582768 0.500000 0.500000
O O9 0.500000 0.496720 0.350510
O O10 0.365004 0.151478 0.400838
O O11 0.335691 0.128040 0.157854
O O12 0.429690 0.085658 0.223323
O O13 0.500000 0.959994 0.197507
O O14 0.601514 0.921928 0.208069
O O15 0.561618 0.000000 0.000000
O O16 0.670926 0.149349 0.643889
O O17 0.679336 0.157357 0.906585
O O18 0.263219 0.880125 0.555406
O O19 0.331195 0.000000 0.500000
O O20 0.803988 0.000000 0.500000
#
# Coordination Sequence:
#
# PCOD9417406 Si02
#       8
#     8   8   8   8   8   8   8   8
#     4  10  20  35  57  82 111 146 184 222 263 324
#     4  10  20  35  57  82 111 146 184 222 263 324
#     4   9  19  35  55  83 114 143 176 220 270 320
#     4  12  20  36  53  82 108 145 183 225 274 326
#     4  11  20  33  52  76 109 148 185 215 256 322
#     4  12  20  36  53  82 108 145 183 225 274 326
#     4  11  24  36  54  77 112 145 187 238 283 317
#     4  11  20  38  58  77 104 147 191 236 271 315
#
# _framework density 16.756152
#
# number of rings (size 3 to 8) (size 9 to 14) (size 15 to 20)
#    0.000    1.250    5.000    1.875    1.750    5.500 
#    0.000    2.500    0.000    0.000    0.000    5.250 
#    0.000    0.000    0.000    0.000    0.000    0.000 
#
# Total GULP energy -357175.453484 kJ/mol
# GULP energy per Si atom -5580.866461 kJ/mol
# Density = 1.671801 g / cm^3
# Si number density = 16.756152 Si / 1000 Ang^3
#
#
#
# Elastic Constant Matrix: (Units=GPa)
#
#
# Indices 1 2 3 4 5 6 
#
# 1 44.0119 12.7198 3.9555 0.0000 0.0000 0.0000
# 2 12.7198 97.7903 22.1424 0.0000 0.0000 0.0000
# 3 3.9555 22.1424 50.9796 0.0000 0.0000 0.0000
# 4 0.0000 0.0000 0.0000 23.8523 0.0000 0.0000
# 5 0.0000 0.0000 0.0000 0.0000 7.7962 0.0000
# 6 0.0000 0.0000 0.0000 0.0000 0.0000 25.4075
#
#
#
# Elastic Compliance Matrix: (Units=1/GPa)
#
#
# Indices 1 2 3 4 5 6 
#
# 1 0.023623 -0.002948 -0.000553 0.000000 0.000000 0.000000
# 2 -0.002948 0.011709 -0.004857 0.000000 0.000000 0.000000
# 3 -0.000553 -0.004857 0.021768 0.000000 0.000000 0.000000
# 4 0.000000 0.000000 0.000000 0.041925 0.000000 0.000000
# 5 0.000000 0.000000 0.000000 0.000000 0.128268 0.000000
# 6 0.000000 0.000000 0.000000 0.000000 0.000000 0.039358
#
#
# Mechanical properties :
#
#
# Convention : Reuss Voigt Hill
#
# Bulk Modulus (GPa) = 24.76132 30.04635 27.40384
# Shear Modulus (GPa) = 16.84483 21.67547 19.26015
#
# Velocity S-wave (km/s) = 3.17407 3.60054 3.39401
# Velocity P-wave (km/s) = 5.31437 5.93765 5.63463
#
# Compressibility (1/GPa) = 0.04038556
#
# Stress axis : x y z
#
# Youngs Moduli (GPa) = 42.33224 85.40355 45.93863
#
# Poissons Ratio (x) = 0.25173 0.02539
# Poissons Ratio (y) = 0.12477 0.22313
# Poissons Ratio (z) = 0.02340 0.41481
#
# Static dielectric constant tensor:
#      x y z
#    x 1.543460 0.000000 0.000000 
#    y 0.000000 1.544150 0.000000 
#    z 0.000000 0.000000 1.594340 
# 
# From -- ./inp_files/11913.got.cif
#   From: 2010.05.17/outbox.cif.g08.bks.cpg/sg53_6_cif.got.tgz:11913.got - 2010.06.03 12:45:16.
