data_PCOD9417029
_publ_section_title
;
Structure prediction by ZEFSAII (Michael W. Deem and Ramdas Pophale) SiO2 
 PCOD9417029
Probable space group: P M N A
;
_chemical_formula_sum "Si O2"
_cell_formula_units_Z 64
_cell_length_a 7.879443
_cell_length_b 21.066734
_cell_length_c 19.186227
_cell_angle_alpha 90.000000
_cell_angle_beta 90.000000
_cell_angle_gamma 90.000000
_cell_volume 3184.801054
_symmetry_space_group_name_H-M "P M N A"
_symmetry_group_IT_number 53
_symmetry_cell_setting 'orthorhombic'
loop_
_space_group_symop_operation_xyz
x,y,z
1/2-x,-y,1/2+z
x,-y,-z
1/2-x,y,1/2-z
-x,-y,-z
1/2+x,y,1/2-z
-x,y,z
1/2+x,-y,1/2+z
loop_
_atom_site_type_symbol
_atom_site_label
_atom_site_fract_x
_atom_site_fract_y
_atom_site_fract_z
Si Si1 0.704612 0.001092 0.831186
Si Si2 0.795250 0.618819 0.670297
Si Si3 0.208315 0.120332 0.421304
Si Si4 0.702644 0.615571 0.329619
Si Si5 0.204420 0.238348 0.329950
Si Si6 0.202755 0.503249 0.577898
Si Si7 0.702578 0.879134 0.080709
Si Si8 0.297385 0.240993 0.670219
O O1 0.750000 0.998253 0.750000
O O2 0.500000 0.001594 0.834424
O O3 0.768999 0.064784 0.869358
O O4 0.762294 0.939875 0.875147
O O5 0.750000 0.604238 0.750000
O O6 0.732808 0.690237 0.654678
O O7 0.728821 0.563511 0.620613
O O8 0.000000 0.620169 0.665403
O O9 0.265010 0.184616 0.382879
O O10 0.266650 0.116955 0.501362
O O11 0.000000 0.120483 0.421879
O O12 0.750000 0.599882 0.250000
O O13 0.500000 0.616624 0.334834
O O14 0.768473 0.561770 0.380822
O O15 0.767209 0.687290 0.343744
O O16 0.250000 0.222838 0.250000
O O17 0.000000 0.239553 0.334126
O O18 0.272842 0.500000 0.500000
O O19 0.000000 0.512510 0.572985
O O20 0.500000 0.887944 0.076258
O O21 0.734029 0.811640 0.116792
O O22 0.250000 0.224519 0.750000
O O23 0.500000 0.242283 0.666113
#
# Coordination Sequence:
#
# PCOD9417029 Si02
#       8
#     8   8   8   8   8   8   8   8
#     4  10  20  34  53  77 104 135 175 218 257 303
#     4   9  18  32  50  73  99 129 167 209 252 300
#     4   9  18  33  53  76 103 137 173 209 254 308
#     4  10  21  37  57  79 104 137 177 220 264 313
#     4   9  17  31  51  73  98 130 169 209 250 301
#     4  10  21  35  52  77 108 139 173 216 263 313
#     4  10  20  34  54  78 105 138 173 212 259 310
#     4  10  21  37  56  79 106 136 174 218 262 312
#
# _framework density 20.095445000000002
#
# number of rings (size 3 to 8) (size 9 to 14) (size 15 to 20)
#    0.000    2.375    0.000    2.250    0.000    7.250 
#    0.000    3.750    0.000    4.500    0.000    0.000 
#    0.000    0.000    0.000    0.000    0.000    0.000 
#
# Total GULP energy -357326.144217 kJ/mol
# GULP energy per Si atom -5583.221003 kJ/mol
# Density = 2.004971 g / cm^3
# Si number density = 20.095445 Si / 1000 Ang^3
#
#
#
# Elastic Constant Matrix: (Units=GPa)
#
#
# Indices 1 2 3 4 5 6 
#
# 1 18.5328 2.0120 1.5154 0.0000 0.0000 0.0000
# 2 2.0120 152.5894 135.4578 0.0000 0.0000 0.0000
# 3 1.5154 135.4578 189.0485 0.0000 0.0000 0.0000
# 4 0.0000 0.0000 0.0000 -7.5615 0.0000 0.0000
# 5 0.0000 0.0000 0.0000 0.0000 25.0998 0.0000
# 6 0.0000 0.0000 0.0000 0.0000 0.0000 24.2263
#
#
#
# Elastic Compliance Matrix: (Units=1/GPa)
#
#
# Indices 1 2 3 4 5 6 
#
# 1 0.054039 -0.000901 0.000213 0.000000 0.000000 0.000000
# 2 -0.000901 0.018023 -0.012907 0.000000 0.000000 0.000000
# 3 0.000213 -0.012907 0.014536 0.000000 0.000000 0.000000
# 4 0.000000 0.000000 0.000000 -0.132249 0.000000 0.000000
# 5 0.000000 0.000000 0.000000 0.000000 0.039841 0.000000
# 6 0.000000 0.000000 0.000000 0.000000 0.000000 0.041277
#
#
# Mechanical properties :
#
#
# Convention : Reuss Voigt Hill
#
# Bulk Modulus (GPa) = 16.83305 70.90457 43.86881
# Shear Modulus (GPa) = 60.63528 23.09861 41.86694
#
# Velocity S-wave (km/s) = 5.49901 3.39402 4.56938
# Velocity P-wave (km/s) = 6.97951 7.12178 7.05100
#
# Compressibility (1/GPa) = 0.05940693
#
# Stress axis : x y z
#
# Youngs Moduli (GPa) = 18.50525 55.48429 68.79491
#
# Poissons Ratio (x) = 0.05000 -0.01462
# Poissons Ratio (y) = 0.01668 0.88792
# Poissons Ratio (z) = -0.00393 0.71612
#
# Static dielectric constant tensor:
#      x y z
#    x 1.739210 0.000000 0.000000 
#    y 0.000000 1.716840 0.000000 
#    z 0.000000 0.000000 1.673110 
# 
# From -- ./inp_files/26846.got.cif
#   From: 2010.05.17/outbox.cif.g08.bks.cpg/sg53_14_cif.got.tgz:26846.got - 2010.06.03 12:45:16.
