data_PCOD9417837
_publ_section_title
;
Structure prediction by ZEFSAII (Michael W. Deem and Ramdas Pophale) SiO2 
 PCOD9417837
Probable space group: P M N A
;
_chemical_formula_sum "Si O2"
_cell_formula_units_Z 56
_cell_length_a 15.119817
_cell_length_b 18.863576
_cell_length_c 10.454367
_cell_angle_alpha 90.000000
_cell_angle_beta 90.000000
_cell_angle_gamma 90.000000
_cell_volume 2981.729917
_symmetry_space_group_name_H-M "P M N A"
_symmetry_group_IT_number 53
_symmetry_cell_setting 'orthorhombic'
loop_
_space_group_symop_operation_xyz
x,y,z
1/2-x,-y,1/2+z
x,-y,-z
1/2-x,y,1/2-z
-x,-y,-z
1/2+x,y,1/2-z
-x,y,z
1/2+x,-y,1/2+z
loop_
_atom_site_type_symbol
_atom_site_label
_atom_site_fract_x
_atom_site_fract_y
_atom_site_fract_z
Si Si1 0.393263 0.531108 0.636664
Si Si2 0.241554 0.920830 0.047846
Si Si3 0.146671 0.388780 0.756870
Si Si4 0.101939 0.674574 0.966911
Si Si5 0.105927 0.875640 0.266600
Si Si6 0.247469 0.781418 0.900020
Si Si7 0.401674 0.733695 0.082193
O O1 0.361465 0.500000 0.500000
O O2 0.500000 0.531040 0.634270
O O3 0.365432 0.473756 0.741781
O O4 0.366377 0.613209 0.632487
O O5 0.161161 0.894993 0.139733
O O6 0.335008 0.914807 0.124565
O O7 0.246778 0.864137 0.934336
O O8 0.227094 0.000000 0.000000
O O9 0.250000 0.372551 0.750000
O O10 0.104099 0.343937 0.643516
O O11 0.109018 0.359542 0.891388
O O12 0.161702 0.742856 0.956425
O O13 0.000000 0.690698 0.941623
O O14 0.114197 0.792364 0.305716
O O15 0.000000 0.891674 0.262118
O O16 0.250000 0.770069 0.750000
O O17 0.329875 0.746739 0.973971
O O18 0.500000 0.747059 0.032277
#
# Coordination Sequence:
#
# PCOD9417837 Si02
#       7
#     8   8   8   8   8   8   8
#     4   8  16  30  49  78 112 148 188 234 287 340
#     4  10  22  38  63  88 119 154 192 242 299 352
#     4  11  18  29  57  90 117 148 197 248 297 339
#     4  10  20  37  58  84 121 159 196 242 294 351
#     4   9  20  38  61  88 118 150 192 244 294 344
#     4  11  24  39  59  85 117 156 201 238 297 367
#     4  10  20  37  59  86 119 152 194 248 296 345
#
# _framework density 18.781044999999999
#
# number of rings (size 3 to 8) (size 9 to 14) (size 15 to 20)
#    0.000    2.143    1.429    3.000    4.000    3.429 
#    0.000    0.000    0.000    0.000    0.000    4.000 
#    0.000    0.000    0.000    0.000    0.000    0.000 
#
# Total GULP energy -312223.484993 kJ/mol
# GULP energy per Si atom -5575.419375 kJ/mol
# Density = 1.873830 g / cm^3
# Si number density = 18.781045 Si / 1000 Ang^3
#
#
#
# Elastic Constant Matrix: (Units=GPa)
#
#
# Indices 1 2 3 4 5 6 
#
# 1 114.7225 31.7929 28.2996 0.0000 0.0000 0.0000
# 2 31.7929 92.9946 35.0687 0.0000 0.0000 0.0000
# 3 28.2996 35.0687 65.5130 0.0000 0.0000 0.0000
# 4 0.0000 0.0000 0.0000 11.1157 0.0000 0.0000
# 5 0.0000 0.0000 0.0000 0.0000 -11.2523 0.0000
# 6 0.0000 0.0000 0.0000 0.0000 0.0000 39.7438
#
#
#
# Elastic Compliance Matrix: (Units=1/GPa)
#
#
# Indices 1 2 3 4 5 6 
#
# 1 0.010125 -0.002271 -0.003158 0.000000 0.000000 0.000000
# 2 -0.002271 0.013982 -0.006504 0.000000 0.000000 0.000000
# 3 -0.003158 -0.006504 0.020110 0.000000 0.000000 0.000000
# 4 0.000000 0.000000 0.000000 0.089963 0.000000 0.000000
# 5 0.000000 0.000000 0.000000 0.000000 -0.088871 0.000000
# 6 0.000000 0.000000 0.000000 0.000000 0.000000 0.025161
#
#
# Mechanical properties :
#
#
# Convention : Reuss Voigt Hill
#
# Bulk Modulus (GPa) = 49.13558 51.50585 50.32072
# Shear Modulus (GPa) = 49.44637 19.79269 34.61953
#
# Velocity S-wave (km/s) = 5.13663 3.24985 4.29805
# Velocity P-wave (km/s) = 7.83576 6.44717 7.17513
#
# Compressibility (1/GPa) = 0.02035185
#
# Stress axis : x y z
#
# Youngs Moduli (GPa) = 98.76544 71.51970 49.72688
#
# Poissons Ratio (x) = 0.16239 0.15705
# Poissons Ratio (y) = 0.22425 0.32341
# Poissons Ratio (z) = 0.31193 0.46515
#
# Static dielectric constant tensor:
#      x y z
#    x 1.640780 0.000000 0.000000 
#    y 0.000000 1.659860 0.000000 
#    z 0.000000 0.000000 1.656620 
# 
# From -- ./inp_files/8855.got.cif
#   From: 2010.05.17/outbox.cif.g08.bks.cpg/sg53_5_cif.got.tgz:8855.got - 2010.06.03 12:45:16.
