data_PCOD9417820
_publ_section_title
;
Structure prediction by ZEFSAII (Michael W. Deem and Ramdas Pophale) SiO2 
 PCOD9417820
Probable space group: P M N A
;
_chemical_formula_sum "Si O2"
_cell_formula_units_Z 48
_cell_length_a 13.917145
_cell_length_b 17.517112
_cell_length_c 9.797360
_cell_angle_alpha 90.000000
_cell_angle_beta 90.000000
_cell_angle_gamma 90.000000
_cell_volume 2388.480638
_symmetry_space_group_name_H-M "P M N A"
_symmetry_group_IT_number 53
_symmetry_cell_setting 'orthorhombic'
loop_
_space_group_symop_operation_xyz
x,y,z
1/2-x,-y,1/2+z
x,-y,-z
1/2-x,y,1/2-z
-x,-y,-z
1/2+x,y,1/2-z
-x,y,z
1/2+x,-y,1/2+z
loop_
_atom_site_type_symbol
_atom_site_label
_atom_site_fract_x
_atom_site_fract_y
_atom_site_fract_z
Si Si1 0.882275 0.585947 0.969850
Si Si2 0.723578 0.069122 0.911150
Si Si3 0.883687 0.287098 0.239718
Si Si4 0.114192 0.295763 0.806530
Si Si5 0.888831 0.160549 0.018595
Si Si6 0.883206 0.771650 0.465783
O O1 0.852358 0.634629 0.835484
O O2 0.000000 0.584737 0.965443
O O3 0.849990 0.500000 0.000000
O O4 0.850705 0.636958 0.098020
O O5 0.750000 0.056138 0.750000
O O6 0.658896 0.144910 0.932889
O O7 0.821400 0.089985 0.991307
O O8 0.679673 0.000000 0.000000
O O9 0.860788 0.214186 0.145139
O O10 0.852410 0.266016 0.391629
O O11 0.000000 0.291251 0.241897
O O12 0.152435 0.282485 0.656359
O O13 0.000000 0.310086 0.791785
O O14 0.122197 0.216651 0.888833
O O15 0.000000 0.139611 0.033207
O O16 0.000000 0.776406 0.464924
#
# Coordination Sequence:
#
# PCOD9417820 Si02
#       6
#     8   8   8   8   8   8
#     4   8  13  24  46  80 117 147 182 228 270 314
#     4  12  27  40  56  83 110 139 180 235 289 342
#     4   8  16  30  53  81 107 146 191 223 264 325
#     4   8  14  28  51  74 101 143 185 219 261 319
#     4   9  18  37  59  78 105 142 184 224 268 333
#     4  10  20  37  57  78 111 149 189 231 270 326
#
# _framework density 20.096457999999998
#
# number of rings (size 3 to 8) (size 9 to 14) (size 15 to 20)
#    0.000    2.833    1.667    2.000    2.333    0.667 
#    0.000    0.833    0.000    5.000    0.000   18.667 
#    0.000    0.000    0.000    0.000    0.000    0.167 
#
# Total GULP energy -267603.444062 kJ/mol
# GULP energy per Si atom -5575.071751 kJ/mol
# Density = 2.005072 g / cm^3
# Si number density = 20.096458 Si / 1000 Ang^3
#
#
#
# Elastic Constant Matrix: (Units=GPa)
#
#
# Indices 1 2 3 4 5 6 
#
# 1 59.4770 13.0360 6.4135 0.0000 0.0000 0.0000
# 2 13.0360 114.6302 63.4991 0.0000 0.0000 0.0000
# 3 6.4135 63.4991 187.2891 0.0000 0.0000 0.0000
# 4 0.0000 0.0000 0.0000 8.0093 0.0000 0.0000
# 5 0.0000 0.0000 0.0000 0.0000 9.5364 0.0000
# 6 0.0000 0.0000 0.0000 0.0000 0.0000 18.4406
#
#
#
# Elastic Compliance Matrix: (Units=1/GPa)
#
#
# Indices 1 2 3 4 5 6 
#
# 1 0.017244 -0.002012 0.000092 0.000000 0.000000 0.000000
# 2 -0.002012 0.010976 -0.003652 0.000000 0.000000 0.000000
# 3 0.000092 -0.003652 0.006575 0.000000 0.000000 0.000000
# 4 0.000000 0.000000 0.000000 0.124855 0.000000 0.000000
# 5 0.000000 0.000000 0.000000 0.000000 0.104862 0.000000
# 6 0.000000 0.000000 0.000000 0.000000 0.000000 0.054228
#
#
# Mechanical properties :
#
#
# Convention : Reuss Voigt Hill
#
# Bulk Modulus (GPa) = 42.28439 58.58816 50.43628
# Shear Modulus (GPa) = 14.80307 25.76042 20.28174
#
# Velocity S-wave (km/s) = 2.71698 3.58416 3.18027
# Velocity P-wave (km/s) = 5.56139 6.80772 6.21587
#
# Compressibility (1/GPa) = 0.02364939
#
# Stress axis : x y z
#
# Youngs Moduli (GPa) = 57.99019 91.11038 152.10261
#
# Poissons Ratio (x) = 0.18329 -0.01393
# Poissons Ratio (y) = 0.11666 0.55553
# Poissons Ratio (z) = -0.00531 0.33277
#
# Static dielectric constant tensor:
#      x y z
#    x 1.769130 0.000000 0.000000 
#    y 0.000000 1.730220 0.000000 
#    z 0.000000 0.000000 1.724500 
# 
# From -- ./inp_files/8642.got.cif
#   From: 2010.05.17/outbox.cif.g08.bks.cpg/sg53_5_cif.got.tgz:8642.got - 2010.06.03 12:45:16.
