data_PCOD9417566
_publ_section_title
;
Structure prediction by ZEFSAII (Michael W. Deem and Ramdas Pophale) SiO2 
 PCOD9417566
Probable space group: P M N A
;
_chemical_formula_sum "Si O2"
_cell_formula_units_Z 56
_cell_length_a 8.856072
_cell_length_b 14.462771
_cell_length_c 21.780292
_cell_angle_alpha 90.000000
_cell_angle_beta 90.000000
_cell_angle_gamma 90.000000
_cell_volume 2789.692574
_symmetry_space_group_name_H-M "P M N A"
_symmetry_group_IT_number 53
_symmetry_cell_setting 'orthorhombic'
loop_
_space_group_symop_operation_xyz
x,y,z
1/2-x,-y,1/2+z
x,-y,-z
1/2-x,y,1/2-z
-x,-y,-z
1/2+x,y,1/2-z
-x,y,z
1/2+x,-y,1/2+z
loop_
_atom_site_type_symbol
_atom_site_label
_atom_site_fract_x
_atom_site_fract_y
_atom_site_fract_z
Si Si1 0.179190 0.208482 0.813512
Si Si2 0.820375 0.605774 0.868146
Si Si3 0.681717 0.109023 0.930838
Si Si4 0.319336 0.219581 0.186550
Si Si5 0.817703 0.109799 0.433713
Si Si6 0.170480 0.388056 0.496520
Si Si7 0.680455 0.607427 0.375503
O O1 0.250000 0.175318 0.750000
O O2 0.242661 0.157232 0.873181
O O3 0.214824 0.317081 0.824183
O O4 0.000000 0.197818 0.811156
O O5 0.734012 0.675312 0.823882
O O6 0.776500 0.497993 0.859922
O O7 0.000000 0.614357 0.860500
O O8 0.771773 0.632646 0.937553
O O9 0.500000 0.120336 0.927081
O O10 0.714910 0.999243 0.928608
O O11 0.733122 0.142856 0.998641
O O12 0.250000 0.183857 0.250000
O O13 0.500000 0.214811 0.189373
O O14 0.264146 0.163929 0.126287
O O15 0.000000 0.117891 0.434371
O O16 0.163674 0.500000 0.500000
O O17 0.238652 0.361059 0.561815
O O18 0.000000 0.352280 0.487773
O O19 0.500000 0.606797 0.386693
#
# Coordination Sequence:
#
# PCOD9417566 Si02
#       7
#     8   8   8   8   8   8   8
#     4  11  24  40  57  85 119 156 198 243 291 347
#     4  10  20  36  56  80 114 157 196 242 293 341
#     4   9  18  39  67  92 116 150 189 236 292 351
#     4  11  23  39  57  85 119 156 198 242 290 350
#     4   8  18  38  65  91 118 150 190 234 291 353
#     4   9  17  30  51  80 109 142 189 239 286 339
#     4   9  20  37  55  78 114 155 198 242 291 342
#
# _framework density 20.073895
#
# number of rings (size 3 to 8) (size 9 to 14) (size 15 to 20)
#    0.000    2.429    0.000    2.571    2.000    4.571 
#    0.000    6.429    0.000    0.000    0.000    0.000 
#    0.000    0.000    0.000    0.000    0.000    0.000 
#
# Total GULP energy -312670.845068 kJ/mol
# GULP energy per Si atom -5583.407948 kJ/mol
# Density = 2.002821 g / cm^3
# Si number density = 20.073895 Si / 1000 Ang^3
#
#
#
# Elastic Constant Matrix: (Units=GPa)
#
#
# Indices 1 2 3 4 5 6 
#
# 1 36.0530 25.2895 45.3196 0.0000 0.0000 0.0000
# 2 25.2895 68.8327 64.9376 0.0000 0.0000 0.0000
# 3 45.3196 64.9376 176.4369 0.0000 0.0000 0.0000
# 4 0.0000 0.0000 0.0000 18.9710 0.0000 0.0000
# 5 0.0000 0.0000 0.0000 0.0000 29.8648 0.0000
# 6 0.0000 0.0000 0.0000 0.0000 0.0000 17.3407
#
#
#
# Elastic Compliance Matrix: (Units=1/GPa)
#
#
# Indices 1 2 3 4 5 6 
#
# 1 0.043932 -0.008418 -0.008186 0.000000 0.000000 0.000000
# 2 -0.008418 0.023869 -0.006623 0.000000 0.000000 0.000000
# 3 -0.008186 -0.006623 0.010208 0.000000 0.000000 0.000000
# 4 0.000000 0.000000 0.000000 0.052712 0.000000 0.000000
# 5 0.000000 0.000000 0.000000 0.000000 0.033484 0.000000
# 6 0.000000 0.000000 0.000000 0.000000 0.000000 0.057668
#
#
# Mechanical properties :
#
#
# Convention : Reuss Voigt Hill
#
# Bulk Modulus (GPa) = 31.69060 61.37959 46.53510
# Shear Modulus (GPa) = 17.93114 22.95369 20.44242
#
# Velocity S-wave (km/s) = 2.99198 3.38518 3.19463
# Velocity P-wave (km/s) = 5.26851 6.77661 6.06958
#
# Compressibility (1/GPa) = 0.03155509
#
# Stress axis : x y z
#
# Youngs Moduli (GPa) = 22.76244 41.89598 97.96335
#
# Poissons Ratio (x) = 0.35268 0.80194
# Poissons Ratio (y) = 0.19161 0.64877
# Poissons Ratio (z) = 0.18634 0.27746
#
# Static dielectric constant tensor:
#      x y z
#    x 1.670480 0.000000 0.000000 
#    y 0.000000 1.743280 0.000000 
#    z 0.000000 0.000000 1.702370 
# 
# From -- ./inp_files/30830.got.cif
#   From: 2010.05.17/outbox.cif.g08.bks.cpg/sg53_16_cif.got.tgz:30830.got - 2010.06.03 12:45:16.
