data_PCOD9417209
_publ_section_title
;
Structure prediction by ZEFSAII (Michael W. Deem and Ramdas Pophale) SiO2 
 PCOD9417209
Probable space group: P M N A
;
_chemical_formula_sum "Si O2"
_cell_formula_units_Z 64
_cell_length_a 15.524192
_cell_length_b 22.975618
_cell_length_c 8.304539
_cell_angle_alpha 90.000000
_cell_angle_beta 90.000000
_cell_angle_gamma 90.000000
_cell_volume 2962.045574
_symmetry_space_group_name_H-M "P M N A"
_symmetry_group_IT_number 53
_symmetry_cell_setting 'orthorhombic'
loop_
_space_group_symop_operation_xyz
x,y,z
1/2-x,-y,1/2+z
x,-y,-z
1/2-x,y,1/2-z
-x,-y,-z
1/2+x,y,1/2-z
-x,y,z
1/2+x,-y,1/2+z
loop_
_atom_site_type_symbol
_atom_site_label
_atom_site_fract_x
_atom_site_fract_y
_atom_site_fract_z
Si Si1 0.600448 0.369402 0.679540
Si Si2 0.897780 0.878196 0.335715
Si Si3 0.101818 0.995862 0.174470
Si Si4 0.894733 0.568171 0.501126
Si Si5 0.848480 0.752985 0.305499
Si Si6 0.347097 0.881313 0.807526
Si Si7 0.149989 0.244928 0.303949
Si Si8 0.101003 0.368267 0.177777
O O1 0.500000 0.386620 0.670627
O O2 0.605240 0.301193 0.722573
O O3 0.638568 0.379774 0.500845
O O4 0.637831 0.402133 0.835999
O O5 0.865623 0.937053 0.254239
O O6 0.882525 0.816373 0.251787
O O7 0.848214 0.875476 0.502192
O O8 0.000000 0.883292 0.369573
O O9 0.000000 0.984940 0.157301
O O10 0.110391 0.057735 0.260653
O O11 0.143538 0.000000 0.000000
O O12 0.875483 0.500000 0.500000
O O13 0.862478 0.598280 0.666016
O O14 0.000000 0.574891 0.501269
O O15 0.750000 0.749249 0.250000
O O16 0.857729 0.748422 0.501020
O O17 0.250000 0.884827 0.750000
O O18 0.385170 0.818899 0.752468
O O19 0.250000 0.245713 0.250000
O O20 0.107672 0.299934 0.218785
O O21 0.000000 0.383915 0.169529
#
# Coordination Sequence:
#
# PCOD9417209 Si02
#       8
#     8   8   8   8   8   8   8   8
#     4  10  20  35  57  87 120 155 199 245 300 367
#     4  10  22  40  62  85 117 162 208 252 305 373
#     4  10  22  38  56  80 113 154 197 246 301 360
#     4   9  18  34  57  86 120 154 195 247 295 352
#     4  11  22  36  58  87 118 155 196 251 310 362
#     4  10  22  37  57  84 113 149 198 252 306 362
#     4  10  21  37  55  81 114 150 192 240 295 358
#     4  10  20  34  57  87 116 153 196 242 296 353
#
# _framework density 21.606688999999999
#
# number of rings (size 3 to 8) (size 9 to 14) (size 15 to 20)
#    0.000    2.000    1.250    1.875    0.000    9.500 
#    0.000    5.000    0.000    0.750    0.000    0.000 
#    0.000    0.000    0.000    0.000    0.000    0.000 
#
# Total GULP energy -357053.397876 kJ/mol
# GULP energy per Si atom -5578.959342 kJ/mol
# Density = 2.155751 g / cm^3
# Si number density = 21.606689 Si / 1000 Ang^3
#
#
#
# Elastic Constant Matrix: (Units=GPa)
#
#
# Indices 1 2 3 4 5 6 
#
# 1 28.0975 -12.5316 6.9765 0.0000 0.0000 0.0000
# 2 -12.5316 141.5268 80.2081 0.0000 0.0000 0.0000
# 3 6.9765 80.2081 147.7638 0.0000 0.0000 0.0000
# 4 0.0000 0.0000 0.0000 94.8756 0.0000 0.0000
# 5 0.0000 0.0000 0.0000 0.0000 20.1823 0.0000
# 6 0.0000 0.0000 0.0000 0.0000 0.0000 79.8784
#
#
#
# Elastic Compliance Matrix: (Units=1/GPa)
#
#
# Indices 1 2 3 4 5 6 
#
# 1 0.039919 0.006648 -0.005493 0.000000 0.000000 0.000000
# 2 0.006648 0.011312 -0.006454 0.000000 0.000000 0.000000
# 3 -0.005493 -0.006454 0.010530 0.000000 0.000000 0.000000
# 4 0.000000 0.000000 0.000000 0.010540 0.000000 0.000000
# 5 0.000000 0.000000 0.000000 0.000000 0.049548 0.000000
# 6 0.000000 0.000000 0.000000 0.000000 0.000000 0.012519
#
#
# Mechanical properties :
#
#
# Convention : Reuss Voigt Hill
#
# Bulk Modulus (GPa) = 19.54551 51.85489 35.70020
# Shear Modulus (GPa) = 30.85973 55.16960 43.01467
#
# Velocity S-wave (km/s) = 3.78332 5.05856 4.46668
# Velocity P-wave (km/s) = 5.30569 7.62694 6.56965
#
# Compressibility (1/GPa) = 0.05116264
#
# Stress axis : x y z
#
# Youngs Moduli (GPa) = 25.05051 88.39884 94.96281
#
# Poissons Ratio (x) = -0.58767 0.52166
# Poissons Ratio (y) = -0.16654 0.61293
# Poissons Ratio (z) = 0.13761 0.57056
#
# Static dielectric constant tensor:
#      x y z
#    x 1.795430 0.000000 0.000000 
#    y 0.000000 1.982650 0.000000 
#    z 0.000000 0.000000 1.812420 
# 
# From -- ./inp_files/10223.got.cif
#   From: 2010.05.17/outbox.cif.g08.bks.cpg/sg53_6_cif.got.tgz:10223.got - 2010.06.03 12:45:16.
