data_PCOD9417697
_publ_section_title
;
Structure prediction by ZEFSAII (Michael W. Deem and Ramdas Pophale) SiO2 
 PCOD9417697
Probable space group: P M N A
;
_chemical_formula_sum "Si O2"
_cell_formula_units_Z 52
_cell_length_a 7.602338
_cell_length_b 14.326473
_cell_length_c 22.318589
_cell_angle_alpha 90.000000
_cell_angle_beta 90.000000
_cell_angle_gamma 90.000000
_cell_volume 2430.822204
_symmetry_space_group_name_H-M "P M N A"
_symmetry_group_IT_number 53
_symmetry_cell_setting 'orthorhombic'
loop_
_space_group_symop_operation_xyz
x,y,z
1/2-x,-y,1/2+z
x,-y,-z
1/2-x,y,1/2-z
-x,-y,-z
1/2+x,y,1/2-z
-x,y,z
1/2+x,-y,1/2+z
loop_
_atom_site_type_symbol
_atom_site_label
_atom_site_fract_x
_atom_site_fract_y
_atom_site_fract_z
Si Si1 0.789201 0.114481 0.683305
Si Si2 0.289994 0.201498 0.450405
Si Si3 0.712119 0.540601 0.063719
Si Si4 0.250000 0.254131 0.250000
Si Si5 0.791751 0.904535 0.663072
Si Si6 0.790267 0.364934 0.139605
Si Si7 0.705730 0.250787 0.918128
O O1 0.750000 0.148270 0.750000
O O2 0.718098 0.184121 0.632993
O O3 0.000000 0.107480 0.675627
O O4 0.725414 0.007787 0.676960
O O5 0.500000 0.199101 0.453712
O O6 0.227740 0.119432 0.406753
O O7 0.238895 0.296694 0.415425
O O8 0.218574 0.202748 0.517120
O O9 0.500000 0.545336 0.059126
O O10 0.756512 0.468707 0.116541
O O11 0.780649 0.644895 0.075494
O O12 0.777650 0.500000 0.000000
O O13 0.308447 0.175033 0.299022
O O14 0.191937 0.328502 0.301107
O O15 0.000000 0.894904 0.678604
O O16 0.000000 0.353982 0.151721
O O17 0.500000 0.262840 0.903228
#
# Coordination Sequence:
#
# PCOD9417697 Si02
#       7
#     8   8   8   4   8   8   8
#     4  10  22  40  61  84 112 151 193 236 280 335
#     4  10  21  35  56  88 119 147 184 234 287 334
#     4  10  20  36  59  83 108 148 190 230 281 341
#     4  10  20  36  58  86 112 148 186 232 278 344
#     4  10  20  36  60  85 114 151 188 228 282 341
#     4  10  21  35  55  85 116 144 183 235 285 336
#     4  10  21  39  60  82 113 150 194 235 280 340
#
# _framework density 21.391940000000002
#
# number of rings (size 3 to 8) (size 9 to 14) (size 15 to 20)
#    0.000    2.000    2.308    0.923    0.000    6.462 
#    1.385    3.077    0.000    0.000    0.000    0.000 
#    0.000    0.000    0.000    0.000    0.000    0.000 
#
# Total GULP energy -289865.318070 kJ/mol
# GULP energy per Si atom -5574.333040 kJ/mol
# Density = 2.134325 g / cm^3
# Si number density = 21.391940 Si / 1000 Ang^3
#
#
#
# Elastic Constant Matrix: (Units=GPa)
#
#
# Indices 1 2 3 4 5 6 
#
# 1 58.9170 14.1795 -3.9962 0.0000 0.0000 0.0000
# 2 14.1795 122.4365 101.8933 0.0000 0.0000 0.0000
# 3 -3.9962 101.8933 172.3396 0.0000 0.0000 0.0000
# 4 0.0000 0.0000 0.0000 33.6180 0.0000 0.0000
# 5 0.0000 0.0000 0.0000 0.0000 5.4792 0.0000
# 6 0.0000 0.0000 0.0000 0.0000 0.0000 -7.4201
#
#
#
# Elastic Compliance Matrix: (Units=1/GPa)
#
#
# Indices 1 2 3 4 5 6 
#
# 1 0.018374 -0.004887 0.003316 0.000000 0.000000 0.000000
# 2 -0.004887 0.017379 -0.010388 0.000000 0.000000 0.000000
# 3 0.003316 -0.010388 0.012021 0.000000 0.000000 0.000000
# 4 0.000000 0.000000 0.000000 0.029746 0.000000 0.000000
# 5 0.000000 0.000000 0.000000 0.000000 0.182509 0.000000
# 6 0.000000 0.000000 0.000000 0.000000 0.000000 -0.134769
#
#
# Mechanical properties :
#
#
# Convention : Reuss Voigt Hill
#
# Bulk Modulus (GPa) = 41.92108 64.20515 53.06311
# Shear Modulus (GPa) = 31.82059 22.44318 27.13189
#
# Velocity S-wave (km/s) = 3.86100 3.24256 3.56522
# Velocity P-wave (km/s) = 6.28615 6.64062 6.46581
#
# Compressibility (1/GPa) = 0.02385435
#
# Stress axis : x y z
#
# Youngs Moduli (GPa) = 54.42447 57.54158 83.18575
#
# Poissons Ratio (x) = 0.28121 -0.27580
# Poissons Ratio (y) = 0.26598 0.86415
# Poissons Ratio (z) = -0.18045 0.59776
#
# Static dielectric constant tensor:
#      x y z
#    x 1.872820 0.000000 0.000000 
#    y 0.000000 1.766830 0.000000 
#    z 0.000000 0.000000 1.757350 
# 
# From -- ./inp_files/30646.got.cif
#   From: 2010.05.17/outbox.cif.g08.bks.cpg/sg53_16_cif.got.tgz:30646.got - 2010.06.03 12:45:16.
