data_PCOD9417516
_publ_section_title
;
Structure prediction by ZEFSAII (Michael W. Deem and Ramdas Pophale) SiO2 
 PCOD9417516
Probable space group: P M N A
;
_chemical_formula_sum "Si O2"
_cell_formula_units_Z 64
_cell_length_a 8.725099
_cell_length_b 17.567650
_cell_length_c 27.463288
_cell_angle_alpha 90.000000
_cell_angle_beta 90.000000
_cell_angle_gamma 90.000000
_cell_volume 4209.558653
_symmetry_space_group_name_H-M "P M N A"
_symmetry_group_IT_number 53
_symmetry_cell_setting 'orthorhombic'
loop_
_space_group_symop_operation_xyz
x,y,z
1/2-x,-y,1/2+z
x,-y,-z
1/2-x,y,1/2-z
-x,-y,-z
1/2+x,y,1/2-z
-x,y,z
1/2+x,-y,1/2+z
loop_
_atom_site_type_symbol
_atom_site_label
_atom_site_fract_x
_atom_site_fract_y
_atom_site_fract_z
Si Si1 0.818438 0.677151 0.467498
Si Si2 0.179074 0.905779 0.955611
Si Si3 0.818902 0.973246 0.386470
Si Si4 0.323156 0.476841 0.557250
Si Si5 0.816483 0.163592 0.939583
Si Si6 0.313111 0.357510 0.425328
Si Si7 0.685037 0.080494 0.303650
Si Si8 0.319897 0.215737 0.369137
O O1 0.773647 0.599704 0.439294
O O2 0.749448 0.751636 0.442184
O O3 0.747464 0.668863 0.521853
O O4 0.000000 0.683965 0.471693
O O5 0.190312 0.835862 0.917791
O O6 0.000000 0.930035 0.956426
O O7 0.276925 0.973468 0.932834
O O8 0.222781 0.876122 0.008557
O O9 0.752075 0.890307 0.398069
O O10 0.000000 0.970522 0.379723
O O11 0.741024 0.015274 0.340704
O O12 0.322232 0.500000 0.500000
O O13 0.500000 0.461171 0.570477
O O14 0.269119 0.554463 0.583024
O O15 0.000000 0.166072 0.936215
O O16 0.500000 0.355304 0.427877
O O17 0.257980 0.298085 0.384420
O O18 0.750000 0.069734 0.250000
O O19 0.500000 0.080791 0.303524
O O20 0.741673 0.161415 0.326527
O O21 0.500000 0.226684 0.358429
#
# Coordination Sequence:
#
# PCOD9417516 Si02
#       8
#     8   8   8   8   8   8   8   8
#     4  11  20  27  38  60  90 121 154 193 235 266
#     4   9  17  30  46  62  86 122 157 187 224 268
#     4  11  22  33  46  68  93 115 147 189 232 277
#     4   8  15  26  41  57  79 116 159 190 218 261
#     4  11  20  32  47  61  86 123 161 192 225 270
#     4   9  15  28  45  61  83 118 159 191 219 266
#     4  10  20  36  54  71  91 119 151 186 233 278
#     4   8  14  27  47  68  87 114 153 190 224 268
#
# _framework density 15.203493
#
# number of rings (size 3 to 8) (size 9 to 14) (size 15 to 20)
#    0.000    2.375    1.250    4.875    0.000    4.750 
#    0.000    0.625    0.000    0.000    0.000    0.000 
#    0.000    1.000    0.000    7.000    0.000    3.250 
#
# Total GULP energy -356669.049275 kJ/mol
# GULP energy per Si atom -5572.953895 kJ/mol
# Density = 1.516889 g / cm^3
# Si number density = 15.203493 Si / 1000 Ang^3
#
#
#
# Elastic Constant Matrix: (Units=GPa)
#
#
# Indices 1 2 3 4 5 6 
#
# 1 53.4939 47.5962 23.3925 0.0000 0.0000 0.0000
# 2 47.5962 130.1450 48.7661 0.0000 0.0000 0.0000
# 3 23.3925 48.7661 56.2884 0.0000 0.0000 0.0000
# 4 0.0000 0.0000 0.0000 11.5714 0.0000 0.0000
# 5 0.0000 0.0000 0.0000 0.0000 0.3972 0.0000
# 6 0.0000 0.0000 0.0000 0.0000 0.0000 137.9835
#
#
#
# Elastic Compliance Matrix: (Units=1/GPa)
#
#
# Indices 1 2 3 4 5 6 
#
# 1 0.028349 -0.008815 -0.004145 0.000000 0.000000 0.000000
# 2 -0.008815 0.014118 -0.008568 0.000000 0.000000 0.000000
# 3 -0.004145 -0.008568 0.026911 0.000000 0.000000 0.000000
# 4 0.000000 0.000000 0.000000 0.086420 0.000000 0.000000
# 5 0.000000 0.000000 0.000000 0.000000 2.517445 0.000000
# 6 0.000000 0.000000 0.000000 0.000000 0.000000 0.007247
#
#
# Mechanical properties :
#
#
# Convention : Reuss Voigt Hill
#
# Bulk Modulus (GPa) = 37.98914 53.27078 45.62996
# Shear Modulus (GPa) = 1.82995 38.00193 19.91594
#
# Velocity S-wave (km/s) = 1.09829 5.00498 3.62326
# Velocity P-wave (km/s) = 5.16233 8.27734 6.89797
#
# Compressibility (1/GPa) = 0.02632331
#
# Stress axis : x y z
#
# Youngs Moduli (GPa) = 35.27463 70.83224 37.15944
#
# Poissons Ratio (x) = 0.62436 0.15401
# Poissons Ratio (y) = 0.31093 0.31838
# Poissons Ratio (z) = 0.14620 0.60689
#
# Static dielectric constant tensor:
#      x y z
#    x 1.508010 0.000000 0.000000 
#    y 0.000000 1.542240 0.000000 
#    z 0.000000 0.000000 1.480830 
# 
# From -- ./inp_files/36516.got.cif
#   From: 2010.05.17/outbox.cif.g08.bks.cpg/sg53_19_cif.got.tgz:36516.got - 2010.06.03 12:45:16.
