data_PCOD9417381
_publ_section_title
;
Structure prediction by ZEFSAII (Michael W. Deem and Ramdas Pophale) SiO2 
 PCOD9417381
Probable space group: P M N A
;
_chemical_formula_sum "Si O2"
_cell_formula_units_Z 48
_cell_length_a 7.730460
_cell_length_b 15.442241
_cell_length_c 19.040826
_cell_angle_alpha 90.000000
_cell_angle_beta 90.000000
_cell_angle_gamma 90.000000
_cell_volume 2273.010530
_symmetry_space_group_name_H-M "P M N A"
_symmetry_group_IT_number 53
_symmetry_cell_setting 'orthorhombic'
loop_
_space_group_symop_operation_xyz
x,y,z
1/2-x,-y,1/2+z
x,-y,-z
1/2-x,y,1/2-z
-x,-y,-z
1/2+x,y,1/2-z
-x,y,z
1/2+x,-y,1/2+z
loop_
_atom_site_type_symbol
_atom_site_label
_atom_site_fract_x
_atom_site_fract_y
_atom_site_fract_z
Si Si1 0.200727 0.618555 0.434400
Si Si2 0.206428 0.766394 0.171188
Si Si3 0.291896 0.472143 0.169849
Si Si4 0.707900 0.685452 0.916726
Si Si5 0.292582 0.118529 0.440514
Si Si6 0.210812 0.066043 0.902331
O O1 0.210682 0.702372 0.384936
O O2 0.276390 0.540628 0.387810
O O3 0.276149 0.644757 0.509854
O O4 0.000000 0.595798 0.447556
O O5 0.250000 0.740422 0.250000
O O6 0.265931 0.864554 0.155378
O O7 0.000000 0.761652 0.161239
O O8 0.250000 0.493682 0.250000
O O9 0.500000 0.475003 0.165589
O O10 0.232675 0.376484 0.146323
O O11 0.500000 0.680408 0.919242
O O12 0.748059 0.786849 0.913042
O O13 0.500000 0.114091 0.442059
O O14 0.235809 0.103852 0.521386
O O15 0.230030 0.033482 0.398456
O O16 0.000000 0.064555 0.901495
#
# Coordination Sequence:
#
# PCOD9417381 Si02
#       6
#     8   8   8   8   8   8
#     4  10  20  36  57  80 106 140 179 221 270 323
#     4  11  21  34  52  78 111 145 179 221 270 322
#     4  10  22  39  56  76 107 145 180 218 268 324
#     4  10  20  35  56  83 110 137 175 225 274 317
#     4   9  16  32  56  79 102 136 177 217 261 312
#     4   8  16  31  52  75 104 139 175 213 259 313
#
# _framework density 21.117369
#
# number of rings (size 3 to 8) (size 9 to 14) (size 15 to 20)
#    0.000    2.333    1.667    2.500    0.000    4.667 
#    0.000    4.167    0.000    7.000    0.000    0.000 
#    0.000    0.000    0.000    0.000    0.000    0.000 
#
# Total GULP energy -267833.417922 kJ/mol
# GULP energy per Si atom -5579.862873 kJ/mol
# Density = 2.106930 g / cm^3
# Si number density = 21.117369 Si / 1000 Ang^3
#
#
#
# Elastic Constant Matrix: (Units=GPa)
#
#
# Indices 1 2 3 4 5 6 
#
# 1 33.5761 1.3689 -4.0227 0.0000 0.0000 0.0000
# 2 1.3689 132.6028 9.4648 0.0000 0.0000 0.0000
# 3 -4.0227 9.4648 28.5080 0.0000 0.0000 0.0000
# 4 0.0000 0.0000 0.0000 14.1642 0.0000 0.0000
# 5 0.0000 0.0000 0.0000 0.0000 16.9686 0.0000
# 6 0.0000 0.0000 0.0000 0.0000 0.0000 -4.2648
#
#
#
# Elastic Compliance Matrix: (Units=1/GPa)
#
#
# Indices 1 2 3 4 5 6 
#
# 1 0.030347 -0.000634 0.004493 0.000000 0.000000 0.000000
# 2 -0.000634 0.007738 -0.002658 0.000000 0.000000 0.000000
# 3 0.004493 -0.002658 0.036594 0.000000 0.000000 0.000000
# 4 0.000000 0.000000 0.000000 0.070601 0.000000 0.000000
# 5 0.000000 0.000000 0.000000 0.000000 0.058932 0.000000
# 6 0.000000 0.000000 0.000000 0.000000 0.000000 -0.234475
#
#
# Mechanical properties :
#
#
# Convention : Reuss Voigt Hill
#
# Bulk Modulus (GPa) = 12.97354 23.14542 18.05948
# Shear Modulus (GPa) = -717.30042 17.89865 -349.70089
#
# Velocity S-wave (km/s) = -18.45022 2.91448 -12.88248
# Velocity P-wave (km/s) = 21.15949 4.72332 14.58448
#
# Compressibility (1/GPa) = 0.07707996
#
# Stress axis : x y z
#
# Youngs Moduli (GPa) = 32.95195 129.23890 27.32656
#
# Poissons Ratio (x) = 0.08193 -0.12277
# Poissons Ratio (y) = 0.02089 0.07264
# Poissons Ratio (z) = -0.14804 0.34356
#
# Static dielectric constant tensor:
#      x y z
#    x 1.799420 0.000000 0.000000 
#    y 0.000000 1.792160 0.000000 
#    z 0.000000 0.000000 1.723840 
# 
# From -- ./inp_files/26275.got.cif
#   From: 2010.05.17/outbox.cif.g08.bks.cpg/sg53_14_cif.got.tgz:26275.got - 2010.06.03 12:45:16.
