data_PCOD9417675
_publ_section_title
;
Structure prediction by ZEFSAII (Michael W. Deem and Ramdas Pophale) SiO2 
 PCOD9417675
Probable space group: P M N A
;
_chemical_formula_sum "Si O2"
_cell_formula_units_Z 40
_cell_length_a 8.668356
_cell_length_b 26.153630
_cell_length_c 9.438668
_cell_angle_alpha 90.000000
_cell_angle_beta 90.000000
_cell_angle_gamma 90.000000
_cell_volume 2139.830753
_symmetry_space_group_name_H-M "P M N A"
_symmetry_group_IT_number 53
_symmetry_cell_setting 'orthorhombic'
loop_
_space_group_symop_operation_xyz
x,y,z
1/2-x,-y,1/2+z
x,-y,-z
1/2-x,y,1/2-z
-x,-y,-z
1/2+x,y,1/2-z
-x,y,z
1/2+x,-y,1/2+z
loop_
_atom_site_type_symbol
_atom_site_label
_atom_site_fract_x
_atom_site_fract_y
_atom_site_fract_z
Si Si1 0.685260 0.640156 0.093415
Si Si2 0.685899 0.757312 0.094273
Si Si3 0.686397 0.147654 0.092418
Si Si4 0.186287 0.950629 0.408700
Si Si5 0.815063 0.549331 0.907348
O O1 0.750000 0.628507 0.250000
O O2 0.500000 0.637080 0.096124
O O3 0.730698 0.698881 0.059654
O O4 0.751507 0.599946 0.982862
O O5 0.750000 0.769676 0.250000
O O6 0.500000 0.758883 0.101367
O O7 0.736955 0.799314 0.980755
O O8 0.750000 0.142090 0.250000
O O9 0.500000 0.147456 0.098837
O O10 0.734293 0.100489 0.992404
O O11 0.250000 0.952055 0.250000
O O12 0.000000 0.950881 0.401220
O O13 0.234854 0.000000 0.500000
O O14 0.750000 0.544591 0.750000
O O15 0.000000 0.551440 0.902818
O O16 0.768943 0.500000 0.000000
#
# Coordination Sequence:
#
# PCOD9417675 Si02
#       5
#     8   8   8   8   8
#     4  10  20  36  58  83 112 144 181 224 270 322
#     4   9  19  35  55  80 108 141 180 221 266 318
#     4  10  21  36  53  77 109 142 180 223 267 317
#     4  10  21  36  55  80 108 139 178 222 267 319
#     4  11  24  40  59  83 111 144 181 222 270 322
#
# _framework density 18.693068
#
# number of rings (size 3 to 8) (size 9 to 14) (size 15 to 20)
#    0.000    2.000    0.000    3.000    0.000    6.800 
#    0.000    2.000    0.000    0.000    0.000    0.000 
#    0.000    0.000    0.000    0.000    0.000    0.000 
#
# Total GULP energy -223469.208840 kJ/mol
# GULP energy per Si atom -5586.730221 kJ/mol
# Density = 1.865052 g / cm^3
# Si number density = 18.693068 Si / 1000 Ang^3
#
#
#
# Elastic Constant Matrix: (Units=GPa)
#
#
# Indices 1 2 3 4 5 6 
#
# 1 21.9148 37.5430 39.9411 0.0000 0.0000 0.0000
# 2 37.5430 138.9766 124.9434 0.0000 0.0000 0.0000
# 3 39.9411 124.9434 198.6281 0.0000 0.0000 0.0000
# 4 0.0000 0.0000 0.0000 43.2784 0.0000 0.0000
# 5 0.0000 0.0000 0.0000 0.0000 40.0262 0.0000
# 6 0.0000 0.0000 0.0000 0.0000 0.0000 82.5211
#
#
#
# Elastic Compliance Matrix: (Units=1/GPa)
#
#
# Indices 1 2 3 4 5 6 
#
# 1 0.088268 -0.018154 -0.006330 0.000000 0.000000 0.000000
# 2 -0.018154 0.020294 -0.009115 0.000000 0.000000 0.000000
# 3 -0.006330 -0.009115 0.012041 0.000000 0.000000 0.000000
# 4 0.000000 0.000000 0.000000 0.023106 0.000000 0.000000
# 5 0.000000 0.000000 0.000000 0.000000 0.024984 0.000000
# 6 0.000000 0.000000 0.000000 0.000000 0.000000 0.012118
#
#
# Mechanical properties :
#
#
# Convention : Reuss Voigt Hill
#
# Bulk Modulus (GPa) = 18.72471 84.93049 51.82760
# Shear Modulus (GPa) = 18.81028 43.63793 31.22411
#
# Velocity S-wave (km/s) = 3.17562 4.83685 4.09143
# Velocity P-wave (km/s) = 4.84611 8.75936 7.07853
#
# Compressibility (1/GPa) = 0.05340538
#
# Stress axis : x y z
#
# Youngs Moduli (GPa) = 11.32913 49.27448 83.04733
#
# Poissons Ratio (x) = 0.89451 0.52570
# Poissons Ratio (y) = 0.20567 0.75701
# Poissons Ratio (z) = 0.07171 0.44916
#
# Static dielectric constant tensor:
#      x y z
#    x 1.631920 0.000000 0.000000 
#    y 0.000000 1.652720 0.000000 
#    z 0.000000 0.000000 1.567010 
# 
# From -- ./inp_files/6257.got.cif
#   From: 2010.05.17/outbox.cif.g08.bks.cpg/sg53_4_cif.got.tgz:6257.got - 2010.06.03 12:45:16.
