data_PCOD9417806
_publ_section_title
;
Structure prediction by ZEFSAII (Michael W. Deem and Ramdas Pophale) SiO2 
 PCOD9417806
Probable space group: P M N A
;
_chemical_formula_sum "Si O2"
_cell_formula_units_Z 48
_cell_length_a 35.188220
_cell_length_b 8.322921
_cell_length_c 8.015419
_cell_angle_alpha 90.000000
_cell_angle_beta 90.000000
_cell_angle_gamma 90.000000
_cell_volume 2347.465945
_symmetry_space_group_name_H-M "P M N A"
_symmetry_group_IT_number 53
_symmetry_cell_setting 'orthorhombic'
loop_
_space_group_symop_operation_xyz
x,y,z
1/2-x,-y,1/2+z
x,-y,-z
1/2-x,y,1/2-z
-x,-y,-z
1/2+x,y,1/2-z
-x,y,z
1/2+x,-y,1/2+z
loop_
_atom_site_type_symbol
_atom_site_label
_atom_site_fract_x
_atom_site_fract_y
_atom_site_fract_z
Si Si1 0.100271 0.354774 0.894392
Si Si2 0.895073 0.813915 0.773328
Si Si3 0.956334 0.567036 0.686788
Si Si4 0.674386 0.669167 0.912011
Si Si5 0.250000 0.232699 0.250000
Si Si6 0.349121 0.871013 0.211636
Si Si7 0.793270 0.000000 0.000000
O O1 0.063548 0.436942 0.809847
O O2 0.127753 0.288766 0.755503
O O3 0.117695 0.500000 0.000000
O O4 0.096570 0.210974 0.029730
O O5 0.931630 0.730212 0.691344
O O6 0.858881 0.707043 0.718711
O O7 0.881097 0.988322 0.713118
O O8 0.954999 0.500000 0.500000
O O9 0.000000 0.593820 0.735265
O O10 0.715001 0.668506 0.823363
O O11 0.668314 0.500000 0.000000
O O12 0.672257 0.819123 0.042936
O O13 0.267528 0.123470 0.397171
O O14 0.320219 0.917473 0.360111
#
# Coordination Sequence:
#
# PCOD9417806 Si02
#       7
#     8   8   8   8   4   8   4
#     4  10  20  36  64  95 133 170 221 269 323 392
#     4  11  21  40  64  99 127 172 225 268 327 401
#     4  10  22  41  65  98 138 178 218 270 334 397
#     4  12  26  43  67  95 133 175 224 281 340 401
#     4  12  26  44  64  96 130 174 224 280 342 398
#     4  12  22  41  68  98 129 178 224 277 331 405
#     4  12  24  42  66  94 133 172 221 286 338 402
#
# _framework density 20.447579999999999
#
# number of rings (size 3 to 8) (size 9 to 14) (size 15 to 20)
#    0.000    0.833    3.333    5.000    0.000    4.333 
#    0.000    3.333    0.000    9.000    0.000    0.000 
#    0.000    0.000    0.000    0.000    0.000    0.000 
#
# Total GULP energy -267945.230226 kJ/mol
# GULP energy per Si atom -5582.192296 kJ/mol
# Density = 2.040104 g / cm^3
# Si number density = 20.447580 Si / 1000 Ang^3
#
#
#
# Elastic Constant Matrix: (Units=GPa)
#
#
# Indices 1 2 3 4 5 6 
#
# 1 135.1645 43.0828 39.6690 0.0000 0.0000 0.0000
# 2 43.0828 90.1610 26.7813 0.0000 0.0000 0.0000
# 3 39.6690 26.7813 92.5602 0.0000 0.0000 0.0000
# 4 0.0000 0.0000 0.0000 31.8003 0.0000 0.0000
# 5 0.0000 0.0000 0.0000 0.0000 35.7872 0.0000
# 6 0.0000 0.0000 0.0000 0.0000 0.0000 21.7569
#
#
#
# Elastic Compliance Matrix: (Units=1/GPa)
#
#
# Indices 1 2 3 4 5 6 
#
# 1 0.009430 -0.003616 -0.002995 0.000000 0.000000 0.000000
# 2 -0.003616 0.013521 -0.002362 0.000000 0.000000 0.000000
# 3 -0.002995 -0.002362 0.012771 0.000000 0.000000 0.000000
# 4 0.000000 0.000000 0.000000 0.031446 0.000000 0.000000
# 5 0.000000 0.000000 0.000000 0.000000 0.027943 0.000000
# 6 0.000000 0.000000 0.000000 0.000000 0.000000 0.045962
#
#
# Mechanical properties :
#
#
# Convention : Reuss Voigt Hill
#
# Bulk Modulus (GPa) = 56.26063 59.66131 57.96097
# Shear Modulus (GPa) = 30.31291 31.75905 31.03598
#
# Velocity S-wave (km/s) = 3.85446 3.94533 3.90016
# Velocity P-wave (km/s) = 6.88356 7.07073 6.97778
#
# Compressibility (1/GPa) = 0.01777442
#
# Stress axis : x y z
#
# Youngs Moduli (GPa) = 106.04281 73.95882 78.30294
#
# Poissons Ratio (x) = 0.26747 0.23453
# Poissons Ratio (y) = 0.38350 0.18497
# Poissons Ratio (z) = 0.31761 0.17471
#
# Static dielectric constant tensor:
#      x y z
#    x 1.699010 0.000000 0.000000 
#    y 0.000000 1.758680 0.000000 
#    z 0.000000 0.000000 1.828600 
# 
# From -- ./inp_files/13092.got.cif
#   From: 2010.05.17/outbox.cif.g08.bks.cpg/sg53_7_cif.got.tgz:13092.got - 2010.06.03 12:45:16.
