data_PCOD9417232
_publ_section_title
;
Structure prediction by ZEFSAII (Michael W. Deem and Ramdas Pophale) SiO2 
 PCOD9417232
Probable space group: P M N A
;
_chemical_formula_sum "Si O2"
_cell_formula_units_Z 32
_cell_length_a 23.061039
_cell_length_b 7.439721
_cell_length_c 7.935701
_cell_angle_alpha 90.000000
_cell_angle_beta 90.000000
_cell_angle_gamma 90.000000
_cell_volume 1361.509938
_symmetry_space_group_name_H-M "P M N A"
_symmetry_group_IT_number 53
_symmetry_cell_setting 'orthorhombic'
loop_
_space_group_symop_operation_xyz
x,y,z
1/2-x,-y,1/2+z
x,-y,-z
1/2-x,y,1/2-z
-x,-y,-z
1/2+x,y,1/2-z
-x,y,z
1/2+x,-y,1/2+z
loop_
_atom_site_type_symbol
_atom_site_label
_atom_site_fract_x
_atom_site_fract_y
_atom_site_fract_z
Si Si1 0.648257 0.216887 0.517435
Si Si2 0.391789 0.812345 0.842188
Si Si3 0.274156 0.312261 0.063525
Si Si4 0.565354 0.221377 0.812686
O O1 0.619032 0.276928 0.340193
O O2 0.715998 0.264198 0.537803
O O3 0.612093 0.284702 0.676346
O O4 0.646621 0.000000 0.500000
O O5 0.326467 0.826370 0.917748
O O6 0.422579 0.004619 0.816787
O O7 0.425594 0.717879 0.994494
O O8 0.250000 0.337911 0.250000
O O9 0.298800 0.500000 0.000000
O O10 0.500000 0.256117 0.757187
#
# Coordination Sequence:
#
# PCOD9417232 Si02
#       4
#     8   8   8   8
#     4   9  20  35  55  85 115 146 185 234 288 341
#     4   9  19  34  52  84 115 143 184 236 283 334
#     4  10  22  37  55  86 117 151 188 235 294 349
#     4  10  20  34  59  88 112 149 191 232 283 338
#
# _framework density 23.503318
#
# number of rings (size 3 to 8) (size 9 to 14) (size 15 to 20)
#    0.000    2.500    0.000    1.500    7.000    5.500 
#    0.000    0.000    0.000    3.750    0.000    0.000 
#    0.000    0.000    0.000    0.000    0.000    0.000 
#
# Total GULP energy -178554.180522 kJ/mol
# GULP energy per Si atom -5579.818141 kJ/mol
# Density = 2.344982 g / cm^3
# Si number density = 23.503318 Si / 1000 Ang^3
#
#
#
# Elastic Constant Matrix: (Units=GPa)
#
#
# Indices 1 2 3 4 5 6 
#
# 1 88.8456 -17.9636 34.9809 0.0000 0.0000 0.0000
# 2 -17.9636 57.3381 5.1266 0.0000 0.0000 0.0000
# 3 34.9809 5.1266 85.0544 0.0000 0.0000 0.0000
# 4 0.0000 0.0000 0.0000 2.4938 0.0000 0.0000
# 5 0.0000 0.0000 0.0000 0.0000 6.5135 0.0000
# 6 0.0000 0.0000 0.0000 0.0000 0.0000 28.1588
#
#
#
# Elastic Compliance Matrix: (Units=1/GPa)
#
#
# Indices 1 2 3 4 5 6 
#
# 1 0.014838 0.005222 -0.006417 0.000000 0.000000 0.000000
# 2 0.005222 0.019373 -0.003316 0.000000 0.000000 0.000000
# 3 -0.006417 -0.003316 0.014596 0.000000 0.000000 0.000000
# 4 0.000000 0.000000 0.000000 0.400997 0.000000 0.000000
# 5 0.000000 0.000000 0.000000 0.000000 0.153528 0.000000
# 6 0.000000 0.000000 0.000000 0.000000 0.000000 0.035513
#
#
# Mechanical properties :
#
#
# Convention : Reuss Voigt Hill
#
# Bulk Modulus (GPa) = 25.13419 30.61400 27.87409
# Shear Modulus (GPa) = 7.56283 21.37282 14.46783
#
# Velocity S-wave (km/s) = 1.79576 3.01882 2.48375
# Velocity P-wave (km/s) = 3.87515 5.02043 4.48450
#
# Compressibility (1/GPa) = 0.03978645
#
# Stress axis : x y z
#
# Youngs Moduli (GPa) = 67.39424 51.61824 68.51043
#
# Poissons Ratio (x) = -0.26957 0.43965
# Poissons Ratio (y) = -0.35196 0.22715
# Poissons Ratio (z) = 0.43249 0.17114
#
# Static dielectric constant tensor:
#      x y z
#    x 1.874180 0.000000 0.000000 
#    y 0.000000 2.005930 0.000000 
#    z 0.000000 0.000000 1.917350 
# 
# From -- ./inp_files/10441.got.cif
#   From: 2010.05.17/outbox.cif.g08.bks.cpg/sg53_6_cif.got.tgz:10441.got - 2010.06.03 12:45:16.
