data_PCOD9417152
_publ_section_title
;
Structure prediction by ZEFSAII (Michael W. Deem and Ramdas Pophale) SiO2 
 PCOD9417152
Probable space group: P M N A
;
_chemical_formula_sum "Si O2"
_cell_formula_units_Z 64
_cell_length_a 8.714157
_cell_length_b 22.171258
_cell_length_c 17.975750
_cell_angle_alpha 90.000000
_cell_angle_beta 90.000000
_cell_angle_gamma 90.000000
_cell_volume 3472.983623
_symmetry_space_group_name_H-M "P M N A"
_symmetry_group_IT_number 53
_symmetry_cell_setting 'orthorhombic'
loop_
_space_group_symop_operation_xyz
x,y,z
1/2-x,-y,1/2+z
x,-y,-z
1/2-x,y,1/2-z
-x,-y,-z
1/2+x,y,1/2-z
-x,y,z
1/2+x,-y,1/2+z
loop_
_atom_site_type_symbol
_atom_site_label
_atom_site_fract_x
_atom_site_fract_y
_atom_site_fract_z
Si Si1 0.183541 0.105821 0.571084
Si Si2 0.184521 0.118033 0.395389
Si Si3 0.685546 0.433327 0.477029
Si Si4 0.317717 0.001427 0.669781
Si Si5 0.315213 0.746905 0.898713
Si Si6 0.683424 0.622585 0.828392
Si Si7 0.315245 0.309868 0.547884
Si Si8 0.315846 0.783953 0.332679
O O1 0.218186 0.110085 0.483374
O O2 0.255728 0.161042 0.616901
O O3 0.000000 0.107826 0.579128
O O4 0.247105 0.044721 0.607037
O O5 0.268440 0.066629 0.349232
O O6 0.231834 0.186195 0.375074
O O7 0.000000 0.111664 0.385523
O O8 0.736315 0.500000 0.500000
O O9 0.500000 0.433240 0.473554
O O10 0.750819 0.415127 0.397023
O O11 0.732390 0.379074 0.532994
O O12 0.250000 0.018957 0.750000
O O13 0.500000 0.007554 0.670963
O O14 0.500000 0.747427 0.905191
O O15 0.270736 0.692315 0.844522
O O16 0.249104 0.729215 0.979249
O O17 0.750000 0.602679 0.750000
O O18 0.500000 0.619213 0.828120
O O19 0.500000 0.308019 0.544038
O O20 0.269295 0.277533 0.624275
O O21 0.250000 0.787363 0.250000
O O22 0.500000 0.786965 0.329377
#
# Coordination Sequence:
#
# PCOD9417152 Si02
#       8
#     8   8   8   8   8   8   8   8
#     4  11  22  39  62  83 109 143 182 227 279 336
#     4  10  21  38  60  85 112 143 181 225 279 337
#     4   9  18  35  59  84 113 151 191 232 279 330
#     4  12  26  42  58  78 109 145 186 232 280 332
#     4   9  18  34  56  82 110 143 180 222 274 331
#     4  10  20  34  55  83 117 151 190 233 277 329
#     4   9  18  33  54  80 110 143 182 225 270 326
#     4  11  22  35  54  81 112 143 183 229 279 333
#
# _framework density 18.427959000000001
#
# number of rings (size 3 to 8) (size 9 to 14) (size 15 to 20)
#    0.000    1.875    1.250    3.000    0.000    4.750 
#    0.000    1.875    0.000    1.500    0.000    0.000 
#    0.000    0.000    0.000    0.000    0.000    0.000 
#
# Total GULP energy -357426.680992 kJ/mol
# GULP energy per Si atom -5584.791890 kJ/mol
# Density = 1.838602 g / cm^3
# Si number density = 18.427959 Si / 1000 Ang^3
#
#
#
# Elastic Constant Matrix: (Units=GPa)
#
#
# Indices 1 2 3 4 5 6 
#
# 1 30.6267 14.3204 15.5389 0.0000 0.0000 0.0000
# 2 14.3204 103.4129 7.7533 0.0000 0.0000 0.0000
# 3 15.5389 7.7533 45.6146 0.0000 0.0000 0.0000
# 4 0.0000 0.0000 0.0000 15.4388 0.0000 0.0000
# 5 0.0000 0.0000 0.0000 0.0000 23.9137 0.0000
# 6 0.0000 0.0000 0.0000 0.0000 0.0000 22.7431
#
#
#
# Elastic Compliance Matrix: (Units=1/GPa)
#
#
# Indices 1 2 3 4 5 6 
#
# 1 0.041672 -0.004767 -0.013385 0.000000 0.000000 0.000000
# 2 -0.004767 0.010340 -0.000134 0.000000 0.000000 0.000000
# 3 -0.013385 -0.000134 0.026505 0.000000 0.000000 0.000000
# 4 0.000000 0.000000 0.000000 0.064772 0.000000 0.000000
# 5 0.000000 0.000000 0.000000 0.000000 0.041817 0.000000
# 6 0.000000 0.000000 0.000000 0.000000 0.000000 0.043969
#
#
# Mechanical properties :
#
#
# Convention : Reuss Voigt Hill
#
# Bulk Modulus (GPa) = 23.84083 28.31994 26.08038
# Shear Modulus (GPa) = 17.88081 21.88854 19.88467
#
# Velocity S-wave (km/s) = 3.11836 3.45017 3.28845
# Velocity P-wave (km/s) = 5.09224 5.59221 5.34807
#
# Compressibility (1/GPa) = 0.04194485
#
# Stress axis : x y z
#
# Youngs Moduli (GPa) = 23.99716 96.71064 37.72816
#
# Poissons Ratio (x) = 0.46102 0.50501
# Poissons Ratio (y) = 0.11440 0.00504
# Poissons Ratio (z) = 0.32121 0.01292
#
# Static dielectric constant tensor:
#      x y z
#    x 1.616250 0.000000 0.000000 
#    y 0.000000 1.649120 0.000000 
#    z 0.000000 0.000000 1.604780 
# 
# From -- ./inp_files/20902.got.cif
#   From: 2010.05.17/outbox.cif.g08.bks.cpg/sg53_11_cif.got.tgz:20902.got - 2010.06.03 12:45:16.
