data_PCOD9417241
_publ_section_title
;
Structure prediction by ZEFSAII (Michael W. Deem and Ramdas Pophale) SiO2 
 PCOD9417241
Probable space group: P M N A
;
_chemical_formula_sum "Si O2"
_cell_formula_units_Z 40
_cell_length_a 25.227775
_cell_length_b 8.256051
_cell_length_c 8.032463
_cell_angle_alpha 90.000000
_cell_angle_beta 90.000000
_cell_angle_gamma 90.000000
_cell_volume 1673.015828
_symmetry_space_group_name_H-M "P M N A"
_symmetry_group_IT_number 53
_symmetry_cell_setting 'orthorhombic'
loop_
_space_group_symop_operation_xyz
x,y,z
1/2-x,-y,1/2+z
x,-y,-z
1/2-x,y,1/2-z
-x,-y,-z
1/2+x,y,1/2-z
-x,y,z
1/2+x,-y,1/2+z
loop_
_atom_site_type_symbol
_atom_site_label
_atom_site_fract_x
_atom_site_fract_y
_atom_site_fract_z
Si Si1 0.500000 0.190801 0.687086
Si Si2 0.284756 0.167665 0.587568
Si Si3 0.707612 0.385290 0.137704
Si Si4 0.885149 0.815427 0.281837
Si Si5 0.387106 0.194715 0.178141
Si Si6 0.000000 0.812548 0.788720
O O1 0.556906 0.257052 0.743509
O O2 0.500000 0.192701 0.487702
O O3 0.500000 0.004894 0.755750
O O4 0.250000 0.126743 0.750000
O O5 0.245714 0.261574 0.461661
O O6 0.338240 0.248048 0.663620
O O7 0.299202 0.000000 0.500000
O O8 0.750000 0.480700 0.250000
O O9 0.661872 0.299522 0.242659
O O10 0.682615 0.500000 0.000000
O O11 0.876906 0.804205 0.479753
O O12 0.885903 0.011137 0.254827
O O13 0.445575 0.258786 0.218358
#
# Coordination Sequence:
#
# PCOD9417241 Si02
#       6
#     4   8   8   8   8   4
#     4   9  19  31  53  94 127 155 197 251 318 364
#     4  12  23  38  62  94 125 160 205 259 311 367
#     4  12  27  44  62  88 124 169 211 257 312 374
#     4  10  20  34  61  90 126 159 201 252 309 370
#     4  10  20  39  59  90 122 165 202 252 311 372
#     4   9  19  33  58  88 125 161 201 256 311 372
#
# _framework density 23.908919000000001
#
# number of rings (size 3 to 8) (size 9 to 14) (size 15 to 20)
#    0.000    1.400    2.000    4.200    8.400    2.400 
#    0.000    0.500    0.000    0.000    0.000    2.800 
#    0.000    0.000    0.000    0.000    0.000    0.000 
#
# Total GULP energy -223581.937900 kJ/mol
# GULP energy per Si atom -5589.548448 kJ/mol
# Density = 2.385450 g / cm^3
# Si number density = 23.908919 Si / 1000 Ang^3
#
#
#
# Elastic Constant Matrix: (Units=GPa)
#
#
# Indices 1 2 3 4 5 6 
#
# 1 210.1164 23.4313 36.5725 0.0000 0.0000 0.0000
# 2 23.4313 33.4854 -0.7493 0.0000 0.0000 0.0000
# 3 36.5725 -0.7493 39.0767 0.0000 0.0000 0.0000
# 4 0.0000 0.0000 0.0000 17.6177 0.0000 0.0000
# 5 0.0000 0.0000 0.0000 0.0000 49.5848 0.0000
# 6 0.0000 0.0000 0.0000 0.0000 0.0000 12.1806
#
#
#
# Elastic Compliance Matrix: (Units=1/GPa)
#
#
# Indices 1 2 3 4 5 6 
#
# 1 0.006310 -0.004549 -0.005993 0.000000 0.000000 0.000000
# 2 -0.004549 0.033157 0.004893 0.000000 0.000000 0.000000
# 3 -0.005993 0.004893 0.031293 0.000000 0.000000 0.000000
# 4 0.000000 0.000000 0.000000 0.056761 0.000000 0.000000
# 5 0.000000 0.000000 0.000000 0.000000 0.020167 0.000000
# 6 0.000000 0.000000 0.000000 0.000000 0.000000 0.082098
#
#
# Mechanical properties :
#
#
# Convention : Reuss Voigt Hill
#
# Bulk Modulus (GPa) = 16.81727 44.57640 30.69684
# Shear Modulus (GPa) = 19.16421 30.77155 24.96788
#
# Velocity S-wave (km/s) = 2.83424 3.59142 3.23506
# Velocity P-wave (km/s) = 4.21423 5.99019 5.17891
#
# Compressibility (1/GPa) = 0.05946267
#
# Stress axis : x y z
#
# Youngs Moduli (GPa) = 158.48803 30.15994 31.95602
#
# Poissons Ratio (x) = 0.13720 0.19150
# Poissons Ratio (y) = 0.72100 -0.15638
# Poissons Ratio (z) = 0.94974 -0.14759
#
# Static dielectric constant tensor:
#      x y z
#    x 1.939550 0.000000 0.000000 
#    y 0.000000 1.916740 0.000000 
#    z 0.000000 0.000000 1.912180 
# 
# From -- ./inp_files/11607.got.cif
#   From: 2010.05.17/outbox.cif.g08.bks.cpg/sg53_6_cif.got.tgz:11607.got - 2010.06.03 12:45:16.
