data_PCOD9417845
_publ_section_title
;
Structure prediction by ZEFSAII (Michael W. Deem and Ramdas Pophale) SiO2 
 PCOD9417845
Probable space group: P M N A
;
_chemical_formula_sum "Si O2"
_cell_formula_units_Z 48
_cell_length_a 8.758341
_cell_length_b 30.667975
_cell_length_c 9.684037
_cell_angle_alpha 90.000000
_cell_angle_beta 90.000000
_cell_angle_gamma 90.000000
_cell_volume 2601.137982
_symmetry_space_group_name_H-M "P M N A"
_symmetry_group_IT_number 53
_symmetry_cell_setting 'orthorhombic'
loop_
_space_group_symop_operation_xyz
x,y,z
1/2-x,-y,1/2+z
x,-y,-z
1/2-x,y,1/2-z
-x,-y,-z
1/2+x,y,1/2-z
-x,y,z
1/2+x,-y,1/2+z
loop_
_atom_site_type_symbol
_atom_site_label
_atom_site_fract_x
_atom_site_fract_y
_atom_site_fract_z
Si Si1 0.683624 0.461305 0.098331
Si Si2 0.681718 0.887847 0.899423
Si Si3 0.182909 0.040862 0.903055
Si Si4 0.816338 0.362092 0.404005
Si Si5 0.682437 0.713030 0.403326
Si Si6 0.682142 0.215285 0.100504
O O1 0.750000 0.467435 0.250000
O O2 0.500000 0.463466 0.105306
O O3 0.722113 0.411931 0.053362
O O4 0.738533 0.500000 0.000000
O O5 0.750000 0.900439 0.750000
O O6 0.500000 0.894582 0.897092
O O7 0.711282 0.836282 0.919111
O O8 0.755629 0.916329 0.019593
O O9 0.250000 0.036527 0.750000
O O10 0.000000 0.042358 0.894582
O O11 0.226838 0.000000 0.000000
O O12 0.750000 0.355390 0.250000
O O13 0.744918 0.327612 0.508211
O O14 0.000000 0.357382 0.400222
O O15 0.750000 0.711825 0.250000
O O16 0.500000 0.712181 0.398737
O O17 0.740184 0.755984 0.483231
O O18 0.750000 0.227703 0.250000
O O19 0.500000 0.222428 0.100575
#
# Coordination Sequence:
#
# PCOD9417845 Si02
#       6
#     8   8   8   8   8   8
#     4   9  19  35  55  81 111 144 183 226 273 327
#     4  10  21  38  62  89 118 151 189 234 281 334
#     4  11  24  40  60  86 117 154 194 237 285 337
#     4  10  20  37  59  82 111 147 188 231 276 331
#     4  12  25  40  58  82 113 148 187 233 284 335
#     4  10  21  39  62  88 116 150 190 230 278 335
#
# _framework density 18.453461000000001
#
# number of rings (size 3 to 8) (size 9 to 14) (size 15 to 20)
#    0.000    1.667    0.000    4.500    0.000    7.000 
#    0.000    1.667    0.000    0.000    0.000    0.000 
#    0.000    0.000    0.000    0.000    0.000    0.000 
#
# Total GULP energy -268295.227557 kJ/mol
# GULP energy per Si atom -5589.483907 kJ/mol
# Density = 1.841146 g / cm^3
# Si number density = 18.453461 Si / 1000 Ang^3
#
#
#
# Elastic Constant Matrix: (Units=GPa)
#
#
# Indices 1 2 3 4 5 6 
#
# 1 92.9636 67.0899 72.6435 0.0000 0.0000 0.0000
# 2 67.0899 101.3867 96.9667 0.0000 0.0000 0.0000
# 3 72.6435 96.9667 163.6458 0.0000 0.0000 0.0000
# 4 0.0000 0.0000 0.0000 33.5724 0.0000 0.0000
# 5 0.0000 0.0000 0.0000 0.0000 39.0876 0.0000
# 6 0.0000 0.0000 0.0000 0.0000 0.0000 22.5243
#
#
#
# Elastic Compliance Matrix: (Units=1/GPa)
#
#
# Indices 1 2 3 4 5 6 
#
# 1 0.021028 -0.011510 -0.002514 0.000000 0.000000 0.000000
# 2 -0.011510 0.029064 -0.012112 0.000000 0.000000 0.000000
# 3 -0.002514 -0.012112 0.014404 0.000000 0.000000 0.000000
# 4 0.000000 0.000000 0.000000 0.029786 0.000000 0.000000
# 5 0.000000 0.000000 0.000000 0.000000 0.025584 0.000000
# 6 0.000000 0.000000 0.000000 0.000000 0.000000 0.044396
#
#
# Mechanical properties :
#
#
# Convention : Reuss Voigt Hill
#
# Bulk Modulus (GPa) = 81.81471 92.37736 87.09604
# Shear Modulus (GPa) = 22.66448 27.12327 24.89388
#
# Velocity S-wave (km/s) = 3.50837 3.83798 3.67687
# Velocity P-wave (km/s) = 7.80022 8.35515 8.08245
#
# Compressibility (1/GPa) = 0.01222274
#
# Stress axis : x y z
#
# Youngs Moduli (GPa) = 47.55494 34.40715 69.42631
#
# Poissons Ratio (x) = 0.39603 0.17456
# Poissons Ratio (y) = 0.54736 0.84089
# Poissons Ratio (z) = 0.11957 0.41674
#
# Static dielectric constant tensor:
#      x y z
#    x 1.614410 0.000000 0.000000 
#    y 0.000000 1.644530 0.000000 
#    z 0.000000 0.000000 1.586870 
# 
# From -- ./inp_files/6622.got.cif
#   From: 2010.05.17/outbox.cif.g08.bks.cpg/sg53_4_cif.got.tgz:6622.got - 2010.06.03 12:45:16.
