data_PCOD9417762
_publ_section_title
;
Structure prediction by ZEFSAII (Michael W. Deem and Ramdas Pophale) SiO2 
 PCOD9417762
Probable space group: P M N A
;
_chemical_formula_sum "Si O2"
_cell_formula_units_Z 64
_cell_length_a 15.006914
_cell_length_b 15.402966
_cell_length_c 11.822334
_cell_angle_alpha 90.000000
_cell_angle_beta 90.000000
_cell_angle_gamma 90.000000
_cell_volume 2732.744162
_symmetry_space_group_name_H-M "P M N A"
_symmetry_group_IT_number 53
_symmetry_cell_setting 'orthorhombic'
loop_
_space_group_symop_operation_xyz
x,y,z
1/2-x,-y,1/2+z
x,-y,-z
1/2-x,y,1/2-z
-x,-y,-z
1/2+x,y,1/2-z
-x,y,z
1/2+x,-y,1/2+z
loop_
_atom_site_type_symbol
_atom_site_label
_atom_site_fract_x
_atom_site_fract_y
_atom_site_fract_z
Si Si1 0.397452 0.591353 0.531380
Si Si2 0.109259 0.190349 0.269399
Si Si3 0.895302 0.988097 0.625916
Si Si4 0.105315 0.661397 0.554609
Si Si5 0.643637 0.473192 0.234066
Si Si6 0.646333 0.151772 0.720439
Si Si7 0.607964 0.780925 0.512465
Si Si8 0.349776 0.664724 0.201954
O O1 0.351789 0.500000 0.500000
O O2 0.500000 0.587935 0.492446
O O3 0.396348 0.587230 0.667413
O O4 0.360115 0.682063 0.487935
O O5 0.137536 0.265585 0.356404
O O6 0.138170 0.200050 0.139724
O O7 0.000000 0.193195 0.267322
O O8 0.141241 0.097928 0.315503
O O9 0.889438 0.071229 0.707658
O O10 0.000000 0.969907 0.609784
O O11 0.856354 0.000000 0.500000
O O12 0.120295 0.569785 0.615456
O O13 0.150556 0.665705 0.433464
O O14 0.000000 0.674710 0.536049
O O15 0.750000 0.472749 0.250000
O O16 0.610332 0.572355 0.241119
O O17 0.750000 0.153240 0.750000
O O18 0.635480 0.152551 0.585148
O O19 0.606793 0.245014 0.758487
O O20 0.500000 0.778962 0.513315
O O21 0.250000 0.664464 0.250000
#
# Coordination Sequence:
#
# PCOD9417762 Si02
#       8
#     8   8   8   8   8   8   8   8
#     4  10  20  36  60  89 124 164 213 266 306 361
#     4   9  19  38  66  98 126 158 204 261 323 388
#     4  10  21  41  67  92 122 163 210 255 312 386
#     4  11  22  41  68  98 130 166 221 282 327 382
#     4  11  23  37  58  91 129 176 215 255 322 391
#     4  11  24  42  61  90 127 165 209 267 318 380
#     4  10  20  38  64  91 125 165 207 256 316 383
#     4  10  24  42  59  84 130 178 215 264 320 390
#
# _framework density 23.419682999999999
#
# number of rings (size 3 to 8) (size 9 to 14) (size 15 to 20)
#    0.000    1.750    1.250    2.625    0.000    8.000 
#    2.250    2.500    0.000    0.000    0.000    0.000 
#    0.000    0.000    0.000    0.000    0.000    0.000 
#
# Total GULP energy -357912.454739 kJ/mol
# GULP energy per Si atom -5592.382105 kJ/mol
# Density = 2.336638 g / cm^3
# Si number density = 23.419683 Si / 1000 Ang^3
#
#
#
# Elastic Constant Matrix: (Units=GPa)
#
#
# Indices 1 2 3 4 5 6 
#
# 1 65.3742 5.7167 25.7285 0.0000 0.0000 0.0000
# 2 5.7167 126.2764 44.6301 0.0000 0.0000 0.0000
# 3 25.7285 44.6301 166.7612 0.0000 0.0000 0.0000
# 4 0.0000 0.0000 0.0000 30.8849 0.0000 0.0000
# 5 0.0000 0.0000 0.0000 0.0000 37.8734 0.0000
# 6 0.0000 0.0000 0.0000 0.0000 0.0000 20.3245
#
#
#
# Elastic Compliance Matrix: (Units=1/GPa)
#
#
# Indices 1 2 3 4 5 6 
#
# 1 0.016289 0.000167 -0.002558 0.000000 0.000000 0.000000
# 2 0.000167 0.008748 -0.002367 0.000000 0.000000 0.000000
# 3 -0.002558 -0.002367 0.007025 0.000000 0.000000 0.000000
# 4 0.000000 0.000000 0.000000 0.032378 0.000000 0.000000
# 5 0.000000 0.000000 0.000000 0.000000 0.026404 0.000000
# 6 0.000000 0.000000 0.000000 0.000000 0.000000 0.049202
#
#
# Mechanical properties :
#
#
# Convention : Reuss Voigt Hill
#
# Bulk Modulus (GPa) = 44.35516 56.72917 50.54217
# Shear Modulus (GPa) = 31.83167 36.63899 34.23533
#
# Velocity S-wave (km/s) = 3.69071 3.95961 3.82752
# Velocity P-wave (km/s) = 6.09444 6.72161 6.41570
#
# Compressibility (1/GPa) = 0.02254529
#
# Stress axis : x y z
#
# Youngs Moduli (GPa) = 61.39280 114.30983 142.35553
#
# Poissons Ratio (x) = -0.01904 0.36409
# Poissons Ratio (y) = -0.01022 0.33695
# Poissons Ratio (z) = 0.15702 0.27057
#
# Static dielectric constant tensor:
#      x y z
#    x 1.808010 0.000000 0.000000 
#    y 0.000000 1.900890 0.000000 
#    z 0.000000 0.000000 1.907330 
# 
# From -- ./inp_files/17126.got.cif
#   From: 2010.05.17/outbox.cif.g08.bks.cpg/sg53_9_cif.got.tgz:17126.got - 2010.06.03 12:45:16.
