data_PCOD9417792
_publ_section_title
;
Structure prediction by ZEFSAII (Michael W. Deem and Ramdas Pophale) SiO2 
 PCOD9417792
Probable space group: P M N A
;
_chemical_formula_sum "Si O2"
_cell_formula_units_Z 40
_cell_length_a 18.765228
_cell_length_b 12.682189
_cell_length_c 7.553595
_cell_angle_alpha 90.000000
_cell_angle_beta 90.000000
_cell_angle_gamma 90.000000
_cell_volume 1797.636022
_symmetry_space_group_name_H-M "P M N A"
_symmetry_group_IT_number 53
_symmetry_cell_setting 'orthorhombic'
loop_
_space_group_symop_operation_xyz
x,y,z
1/2-x,-y,1/2+z
x,-y,-z
1/2-x,y,1/2-z
-x,-y,-z
1/2+x,y,1/2-z
-x,y,z
1/2+x,-y,1/2+z
loop_
_atom_site_type_symbol
_atom_site_label
_atom_site_fract_x
_atom_site_fract_y
_atom_site_fract_z
Si Si1 0.578796 0.044921 0.696993
Si Si2 0.831096 0.537353 0.205181
Si Si3 0.586422 0.269312 0.580294
Si Si4 0.689191 0.097923 0.109251
Si Si5 0.333705 0.313694 0.209569
O O1 0.500000 0.056473 0.772768
O O2 0.610761 0.160667 0.671989
O O3 0.574094 0.000000 0.500000
O O4 0.622696 0.962904 0.808827
O O5 0.750000 0.570813 0.250000
O O6 0.855839 0.435548 0.319665
O O7 0.828691 0.500000 0.000000
O O8 0.885694 0.633729 0.197230
O O9 0.500000 0.267945 0.562245
O O10 0.623144 0.276613 0.385554
O O11 0.750000 0.120512 0.250000
O O12 0.663727 0.217859 0.067257
O O13 0.722455 0.000000 0.000000
O O14 0.250000 0.330918 0.250000
#
# Coordination Sequence:
#
# PCOD9417792 Si02
#       5
#     8   8   8   8   8
#     4  10  20  37  58  82 118 157 195 245 304 360
#     4   9  19  37  58  86 116 156 198 251 307 359
#     4  10  20  36  62  90 115 155 208 248 292 362
#     4  11  23  37  58  88 119 155 202 251 301 366
#     4   9  19  35  56  82 122 148 193 252 303 352
#
# _framework density 22.251446000000001
#
# number of rings (size 3 to 8) (size 9 to 14) (size 15 to 20)
#    0.000    2.200    2.000    0.600    2.800    4.800 
#   10.800    0.000    0.000    0.600    0.000    0.000 
#    0.000    0.000    0.000    0.000    0.000    0.000 
#
# Total GULP energy -222778.345494 kJ/mol
# GULP energy per Si atom -5569.458637 kJ/mol
# Density = 2.220080 g / cm^3
# Si number density = 22.251446 Si / 1000 Ang^3
#
#
#
# Elastic Constant Matrix: (Units=GPa)
#
#
# Indices 1 2 3 4 5 6 
#
# 1 55.9068 23.7841 5.7178 0.0000 0.0000 0.0000
# 2 23.7841 182.9731 26.0428 0.0000 0.0000 0.0000
# 3 5.7178 26.0428 32.4956 0.0000 0.0000 0.0000
# 4 0.0000 0.0000 0.0000 10.1648 0.0000 0.0000
# 5 0.0000 0.0000 0.0000 0.0000 40.8458 0.0000
# 6 0.0000 0.0000 0.0000 0.0000 0.0000-1138.4308
#
#
#
# Elastic Compliance Matrix: (Units=1/GPa)
#
#
# Indices 1 2 3 4 5 6 
#
# 1 0.019002 -0.002251 -0.001540 0.000000 0.000000 0.000000
# 2 -0.002251 0.006436 -0.004762 0.000000 0.000000 0.000000
# 3 -0.001540 -0.004762 0.034860 0.000000 0.000000 0.000000
# 4 0.000000 0.000000 0.000000 0.098378 0.000000 0.000000
# 5 0.000000 0.000000 0.000000 0.000000 0.024482 0.000000
# 6 0.000000 0.000000 0.000000 0.000000 0.000000 -0.000878
#
#
# Mechanical properties :
#
#
# Convention : Reuss Voigt Hill
#
# Bulk Modulus (GPa) = 23.15148 42.49611 32.82380
# Shear Modulus (GPa) = 23.38827 -203.09532 -89.85352
#
# Velocity S-wave (km/s) = 3.24557 -9.56405 -6.36150
# Velocity P-wave (km/s) = 4.94692 10.14011 6.25898
#
# Compressibility (1/GPa) = 0.04319378
#
# Stress axis : x y z
#
# Youngs Moduli (GPa) = 52.62614 155.38573 28.68588
#
# Poissons Ratio (x) = 0.34975 0.04416
# Poissons Ratio (y) = 0.11846 0.13659
# Poissons Ratio (z) = 0.08102 0.73989
#
# Static dielectric constant tensor:
#      x y z
#    x 1.790230 0.000000 0.000000 
#    y 0.000000 2.261790 0.000000 
#    z 0.000000 0.000000 2.084570 
# 
# From -- ./inp_files/9615.got.cif
#   From: 2010.05.17/outbox.cif.g08.bks.cpg/sg53_5_cif.got.tgz:9615.got - 2010.06.03 12:45:16.
